# generated using pymatgen
data_Y8Re(B8Os)3
_symmetry_space_group_name_H-M   'P 1'
_cell_length_a   3.66741900
_cell_length_b   9.17538855
_cell_length_c   11.56261623
_cell_angle_alpha   89.91445409
_cell_angle_beta   90.00000000
_cell_angle_gamma   90.00000000
_symmetry_Int_Tables_number   1
_chemical_formula_structural   Y8Re(B8Os)3
_chemical_formula_sum   'Y8 Re1 B24 Os3'
_cell_volume   389.08153658
_cell_formula_units_Z   1
loop_
 _symmetry_equiv_pos_site_id
 _symmetry_equiv_pos_as_xyz
  1  'x, y, z'
loop_
 _atom_site_type_symbol
 _atom_site_label
 _atom_site_symmetry_multiplicity
 _atom_site_fract_x
 _atom_site_fract_y
 _atom_site_fract_z
 _atom_site_occupancy
  Y  Y0  1  0.000000  0.822558  0.085322  1
  Y  Y1  1  0.000000  0.180045  0.911806  1
  Y  Y2  1  0.000000  0.322621  0.416335  1
  Y  Y3  1  0.000000  0.676591  0.586855  1
  Y  Y4  1  0.000000  0.443045  0.127981  1
  Y  Y5  1  0.000000  0.556221  0.872399  1
  Y  Y6  1  0.000000  0.942671  0.372329  1
  Y  Y7  1  0.000000  0.056815  0.627263  1
  Re  Re8  1  0.000000  0.362899  0.678340  1
  B  B9  1  0.500000  0.053494  0.066846  1
  B  B10  1  0.500000  0.946630  0.932792  1
  B  B11  1  0.500000  0.553416  0.432534  1
  B  B12  1  0.500000  0.447387  0.566886  1
  B  B13  1  0.500000  0.247557  0.080741  1
  B  B14  1  0.500000  0.752404  0.919457  1
  B  B15  1  0.500000  0.747279  0.419085  1
  B  B16  1  0.500000  0.252315  0.580912  1
  B  B17  1  0.500000  0.289857  0.233647  1
  B  B18  1  0.500000  0.709730  0.767095  1
  B  B19  1  0.500000  0.790395  0.266287  1
  B  B20  1  0.500000  0.209033  0.733636  1
  B  B21  1  0.500000  0.130883  0.314153  1
  B  B22  1  0.500000  0.868537  0.686210  1
  B  B23  1  0.500000  0.631570  0.185605  1
  B  B24  1  0.500000  0.368741  0.814054  1
  B  B25  1  0.500000  0.483284  0.287341  1
  B  B26  1  0.500000  0.517765  0.712771  1
  B  B27  1  0.500000  0.982956  0.212210  1
  B  B28  1  0.500000  0.017002  0.787212  1
  B  B29  1  0.500000  0.106591  0.469629  1
  B  B30  1  0.500000  0.891730  0.529823  1
  B  B31  1  0.500000  0.608063  0.030375  1
  B  B32  1  0.500000  0.392458  0.970597  1
  Os  Os33  1  0.000000  0.136777  0.178361  1
  Os  Os34  1  0.000000  0.863268  0.822112  1
  Os  Os35  1  0.000000  0.637410  0.321000  1
