# generated using pymatgen
data_Er8Si16TcW11
_symmetry_space_group_name_H-M   'P 1'
_cell_length_a   6.85747406
_cell_length_b   6.85281945
_cell_length_c   12.71929700
_cell_angle_alpha   89.92440696
_cell_angle_beta   89.91129171
_cell_angle_gamma   90.02169737
_symmetry_Int_Tables_number   1
_chemical_formula_structural   Er8Si16TcW11
_chemical_formula_sum   'Er8 Si16 Tc1 W11'
_cell_volume   597.71704608
_cell_formula_units_Z   1
loop_
 _symmetry_equiv_pos_site_id
 _symmetry_equiv_pos_as_xyz
  1  'x, y, z'
loop_
 _atom_site_type_symbol
 _atom_site_label
 _atom_site_symmetry_multiplicity
 _atom_site_fract_x
 _atom_site_fract_y
 _atom_site_fract_z
 _atom_site_occupancy
  Er  Er0  1  0.340206  0.998204  0.469229  1
  Er  Er1  1  0.504445  0.838737  0.718884  1
  Er  Er2  1  0.497194  0.162207  0.219353  1
  Er  Er3  1  0.837717  0.502459  0.281303  1
  Er  Er4  1  0.161484  0.497883  0.780483  1
  Er  Er5  1  0.662472  0.002304  0.968613  1
  Er  Er6  1  0.997045  0.337139  0.530815  1
  Er  Er7  1  0.001704  0.662835  0.030629  1
  Si  Si8  1  0.198138  0.123704  0.683441  1
  Si  Si9  1  0.372731  0.701904  0.932648  1
  Si  Si10  1  0.625636  0.297717  0.433229  1
  Si  Si11  1  0.701957  0.372941  0.066597  1
  Si  Si12  1  0.298825  0.626358  0.566829  1
  Si  Si13  1  0.797998  0.873218  0.183153  1
  Si  Si14  1  0.125695  0.201470  0.317213  1
  Si  Si15  1  0.873831  0.801358  0.815136  1
  Si  Si16  1  0.289745  0.962651  0.064777  1
  Si  Si17  1  0.535471  0.788170  0.313831  1
  Si  Si18  1  0.462843  0.212671  0.813439  1
  Si  Si19  1  0.788001  0.537351  0.684456  1
  Si  Si20  1  0.210834  0.463477  0.185724  1
  Si  Si21  1  0.719386  0.032172  0.565528  1
  Si  Si22  1  0.963160  0.290927  0.935741  1
  Si  Si23  1  0.033178  0.712189  0.438835  1
  Tc  Tc24  1  0.012703  0.829431  0.628065  1
  W  W25  1  0.332902  0.333161  0.999181  1
  W  W26  1  0.165688  0.831858  0.251565  1
  W  W27  1  0.831840  0.170140  0.750644  1
  W  W28  1  0.665666  0.667810  0.498899  1
  W  W29  1  0.163397  0.000355  0.874842  1
  W  W30  1  0.501999  0.663517  0.123336  1
  W  W31  1  0.494923  0.334439  0.622679  1
  W  W32  1  0.665170  0.504109  0.876034  1
  W  W33  1  0.332855  0.499787  0.376158  1
  W  W34  1  0.833536  0.001097  0.372991  1
  W  W35  1  0.999626  0.164251  0.125718  1
