# generated using pymatgen
data_Tb7NpAlPd24
_symmetry_space_group_name_H-M   'P 1'
_cell_length_a   8.37315529
_cell_length_b   8.37313172
_cell_length_c   8.37310687
_cell_angle_alpha   89.89379838
_cell_angle_beta   90.10646623
_cell_angle_gamma   90.10656776
_symmetry_Int_Tables_number   1
_chemical_formula_structural   Tb7NpAlPd24
_chemical_formula_sum   'Tb7 Np1 Al1 Pd24'
_cell_volume   587.03157159
_cell_formula_units_Z   1
loop_
 _symmetry_equiv_pos_site_id
 _symmetry_equiv_pos_as_xyz
  1  'x, y, z'
loop_
 _atom_site_type_symbol
 _atom_site_label
 _atom_site_symmetry_multiplicity
 _atom_site_fract_x
 _atom_site_fract_y
 _atom_site_fract_z
 _atom_site_occupancy
  Tb  Tb0  1  0.251408  0.252257  0.252257  1
  Tb  Tb1  1  0.747645  0.747547  0.747546  1
  Tb  Tb2  1  0.747743  0.748592  0.252258  1
  Tb  Tb3  1  0.747743  0.252257  0.748592  1
  Tb  Tb4  1  0.252453  0.252356  0.747545  1
  Tb  Tb5  1  0.252454  0.747546  0.252357  1
  Tb  Tb6  1  0.252684  0.747317  0.747317  1
  Np  Np7  1  0.746705  0.253292  0.253282  1
  Al  Al8  1  0.000520  0.999480  0.999479  1
  Pd  Pd9  1  0.259450  0.499543  0.999807  1
  Pd  Pd10  1  0.740447  0.498227  0.003018  1
  Pd  Pd11  1  0.996985  0.259556  0.498226  1
  Pd  Pd12  1  0.501772  0.259553  0.003015  1
  Pd  Pd13  1  0.000195  0.740548  0.499543  1
  Pd  Pd14  1  0.500457  0.740550  0.999807  1
  Pd  Pd15  1  0.501771  0.003012  0.259554  1
  Pd  Pd16  1  0.259451  0.999806  0.499543  1
  Pd  Pd17  1  0.500457  0.999807  0.740550  1
  Pd  Pd18  1  0.740445  0.003017  0.498226  1
  Pd  Pd19  1  0.996987  0.498228  0.259555  1
  Pd  Pd20  1  0.000194  0.499543  0.740549  1
  Pd  Pd21  1  0.252791  0.499687  0.499687  1
  Pd  Pd22  1  0.747104  0.498804  0.498803  1
  Pd  Pd23  1  0.501197  0.252897  0.498803  1
  Pd  Pd24  1  0.500314  0.747209  0.499688  1
  Pd  Pd25  1  0.501198  0.498802  0.252897  1
  Pd  Pd26  1  0.500314  0.499687  0.747209  1
  Pd  Pd27  1  0.288750  0.999528  0.999529  1
  Pd  Pd28  1  0.711793  0.001185  0.001185  1
  Pd  Pd29  1  0.998816  0.288208  0.001182  1
  Pd  Pd30  1  0.000471  0.711248  0.999533  1
  Pd  Pd31  1  0.998819  0.001179  0.288212  1
  Pd  Pd32  1  0.000470  0.999533  0.711245  1
