# generated using pymatgen
data_U4BeGaCo6
_symmetry_space_group_name_H-M   'P 1'
_cell_length_a   5.05746300
_cell_length_b   5.05746287
_cell_length_c   7.63225100
_cell_angle_alpha   90.00000000
_cell_angle_beta   90.00000000
_cell_angle_gamma   120.00000738
_symmetry_Int_Tables_number   1
_chemical_formula_structural   U4BeGaCo6
_chemical_formula_sum   'U4 Be1 Ga1 Co6'
_cell_volume   169.06303505
_cell_formula_units_Z   1
loop_
 _symmetry_equiv_pos_site_id
 _symmetry_equiv_pos_as_xyz
  1  'x, y, z'
loop_
 _atom_site_type_symbol
 _atom_site_label
 _atom_site_symmetry_multiplicity
 _atom_site_fract_x
 _atom_site_fract_y
 _atom_site_fract_z
 _atom_site_occupancy
  U  U0  1  0.333333  0.666667  0.449165  1
  U  U1  1  0.666667  0.333333  0.550835  1
  U  U2  1  0.666667  0.333333  0.913091  1
  U  U3  1  0.333333  0.666667  0.086909  1
  Be  Be4  1  0.000000  0.000000  0.500000  1
  Ga  Ga5  1  0.000000  0.000000  0.000000  1
  Co  Co6  1  0.833377  0.166623  0.260017  1
  Co  Co7  1  0.833377  0.666756  0.260017  1
  Co  Co8  1  0.333244  0.166623  0.260017  1
  Co  Co9  1  0.166623  0.833377  0.739983  1
  Co  Co10  1  0.166623  0.333244  0.739983  1
  Co  Co11  1  0.666756  0.833377  0.739983  1
