# generated using pymatgen
data_La9Tm(Ir2Ru)2
_symmetry_space_group_name_H-M   'P 1'
_cell_length_a   11.34230400
_cell_length_b   11.34230400
_cell_length_c   6.63012200
_cell_angle_alpha   90.00000000
_cell_angle_beta   90.00000000
_cell_angle_gamma   90.00000000
_symmetry_Int_Tables_number   1
_chemical_formula_structural   La9Tm(Ir2Ru)2
_chemical_formula_sum   'La18 Tm2 Ir8 Ru4'
_cell_volume   852.95100703
_cell_formula_units_Z   2
loop_
 _symmetry_equiv_pos_site_id
 _symmetry_equiv_pos_as_xyz
  1  'x, y, z'
loop_
 _atom_site_type_symbol
 _atom_site_label
 _atom_site_symmetry_multiplicity
 _atom_site_fract_x
 _atom_site_fract_y
 _atom_site_fract_z
 _atom_site_occupancy
  La  La0  1  0.295326  0.087799  0.383439  1
  La  La1  1  0.295326  0.912201  0.883439  1
  La  La2  1  0.704674  0.087799  0.883439  1
  La  La3  1  0.704674  0.912201  0.383439  1
  La  La4  1  0.587385  0.788500  0.883733  1
  La  La5  1  0.587385  0.211500  0.383733  1
  La  La6  1  0.412615  0.788500  0.383733  1
  La  La7  1  0.412615  0.211500  0.883733  1
  La  La8  1  0.211500  0.412615  0.616267  1
  La  La9  1  0.211500  0.587385  0.116267  1
  La  La10  1  0.788500  0.412615  0.116267  1
  La  La11  1  0.788500  0.587385  0.616267  1
  La  La12  1  0.912201  0.704674  0.116561  1
  La  La13  1  0.912201  0.295326  0.616561  1
  La  La14  1  0.087799  0.704674  0.616561  1
  La  La15  1  0.087799  0.295326  0.116561  1
  La  La16  1  0.000000  0.000000  0.500000  1
  La  La17  1  0.000000  0.000000  0.000000  1
  Tm  Tm18  1  0.500000  0.500000  0.000000  1
  Tm  Tm19  1  0.500000  0.500000  0.500000  1
  Ir  Ir20  1  0.846720  0.153280  0.250000  1
  Ir  Ir21  1  0.846720  0.846720  0.750000  1
  Ir  Ir22  1  0.153280  0.153280  0.750000  1
  Ir  Ir23  1  0.153280  0.846720  0.250000  1
  Ir  Ir24  1  0.645753  0.354247  0.750000  1
  Ir  Ir25  1  0.645753  0.645753  0.250000  1
  Ir  Ir26  1  0.354247  0.354247  0.250000  1
  Ir  Ir27  1  0.354247  0.645753  0.750000  1
  Ru  Ru28  1  0.500000  0.000000  0.118911  1
  Ru  Ru29  1  0.500000  0.000000  0.618911  1
  Ru  Ru30  1  0.000000  0.500000  0.881089  1
  Ru  Ru31  1  0.000000  0.500000  0.381089  1
