# generated using pymatgen
data_YTh5NiBr15
_symmetry_space_group_name_H-M   'P 1'
_cell_length_a   10.12714528
_cell_length_b   10.12714544
_cell_length_c   10.12714578
_cell_angle_alpha   109.80430756
_cell_angle_beta   109.30493010
_cell_angle_gamma   109.30493653
_symmetry_Int_Tables_number   1
_chemical_formula_structural   YTh5NiBr15
_chemical_formula_sum   'Y1 Th5 Ni1 Br15'
_cell_volume   799.51801447
_cell_formula_units_Z   1
loop_
 _symmetry_equiv_pos_site_id
 _symmetry_equiv_pos_as_xyz
  1  'x, y, z'
loop_
 _atom_site_type_symbol
 _atom_site_label
 _atom_site_symmetry_multiplicity
 _atom_site_fract_x
 _atom_site_fract_y
 _atom_site_fract_z
 _atom_site_occupancy
  Y  Y0  1  0.000000  0.242694  0.242694  1
  Th  Th1  1  0.000000  0.756683  0.756683  1
  Th  Th2  1  0.239170  0.002826  0.241996  1
  Th  Th3  1  0.760830  0.002826  0.763656  1
  Th  Th4  1  0.239170  0.241996  0.002826  1
  Th  Th5  1  0.760830  0.763656  0.002826  1
  Ni  Ni6  1  0.000000  0.993973  0.993973  1
  Br  Br7  1  0.499816  0.249664  0.249664  1
  Br  Br8  1  0.500184  0.749848  0.749848  1
  Br  Br9  1  0.000000  0.249664  0.749848  1
  Br  Br10  1  0.000000  0.749848  0.249664  1
  Br  Br11  1  0.244649  0.494998  0.250349  1
  Br  Br12  1  0.755351  0.005700  0.250349  1
  Br  Br13  1  0.749711  0.500148  0.750437  1
  Br  Br14  1  0.250289  0.000726  0.750437  1
  Br  Br15  1  0.244649  0.250349  0.494998  1
  Br  Br16  1  0.749711  0.750437  0.500148  1
  Br  Br17  1  0.755351  0.250349  0.005700  1
  Br  Br18  1  0.250289  0.750437  0.000726  1
  Br  Br19  1  0.000000  0.496876  0.496876  1
  Br  Br20  1  0.500000  0.998152  0.498152  1
  Br  Br21  1  0.500000  0.498152  0.998152  1
