# generated using pymatgen
data_DyLu(ZnIr)2
_symmetry_space_group_name_H-M   'P 1'
_cell_length_a   4.02809000
_cell_length_b   6.96499043
_cell_length_c   8.06336755
_cell_angle_alpha   89.52254121
_cell_angle_beta   90.00000000
_cell_angle_gamma   90.00000000
_symmetry_Int_Tables_number   1
_chemical_formula_structural   DyLu(ZnIr)2
_chemical_formula_sum   'Dy2 Lu2 Zn4 Ir4'
_cell_volume   226.21482680
_cell_formula_units_Z   2
loop_
 _symmetry_equiv_pos_site_id
 _symmetry_equiv_pos_as_xyz
  1  'x, y, z'
loop_
 _atom_site_type_symbol
 _atom_site_label
 _atom_site_symmetry_multiplicity
 _atom_site_fract_x
 _atom_site_fract_y
 _atom_site_fract_z
 _atom_site_occupancy
  Dy  Dy0  1  0.250000  0.535256  0.184866  1
  Dy  Dy1  1  0.750000  0.464744  0.815134  1
  Lu  Lu2  1  0.750000  0.964605  0.680705  1
  Lu  Lu3  1  0.250000  0.035395  0.319295  1
  Zn  Zn4  1  0.250000  0.641530  0.566246  1
  Zn  Zn5  1  0.750000  0.358470  0.433754  1
  Zn  Zn6  1  0.750000  0.861881  0.066001  1
  Zn  Zn7  1  0.250000  0.138119  0.933999  1
  Ir  Ir8  1  0.250000  0.761269  0.875862  1
  Ir  Ir9  1  0.750000  0.238731  0.124138  1
  Ir  Ir10  1  0.750000  0.746746  0.379758  1
  Ir  Ir11  1  0.250000  0.253254  0.620242  1
