# generated using pymatgen
data_PmBe2Pd3
_symmetry_space_group_name_H-M   'P 1'
_cell_length_a   5.49363844
_cell_length_b   5.49363899
_cell_length_c   3.55980200
_cell_angle_alpha   90.00000000
_cell_angle_beta   90.00000000
_cell_angle_gamma   60.00180209
_symmetry_Int_Tables_number   1
_chemical_formula_structural   PmBe2Pd3
_chemical_formula_sum   'Pm1 Be2 Pd3'
_cell_volume   93.04318115
_cell_formula_units_Z   1
loop_
 _symmetry_equiv_pos_site_id
 _symmetry_equiv_pos_as_xyz
  1  'x, y, z'
loop_
 _atom_site_type_symbol
 _atom_site_label
 _atom_site_symmetry_multiplicity
 _atom_site_fract_x
 _atom_site_fract_y
 _atom_site_fract_z
 _atom_site_occupancy
  Pm  Pm0  1  0.999999  0.000001  0.000000  1
  Be  Be1  1  0.333277  0.333279  0.000000  1
  Be  Be2  1  0.666721  0.666723  0.000000  1
  Pd  Pd3  1  0.500059  0.000002  0.499999  1
  Pd  Pd4  1  0.999998  0.499940  0.499999  1
  Pd  Pd5  1  0.499940  0.500059  0.499999  1
