# generated using pymatgen
data_Er3ZnHg4Pt
_symmetry_space_group_name_H-M   'P 1'
_cell_length_a   7.90044200
_cell_length_b   7.90044196
_cell_length_c   3.65118000
_cell_angle_alpha   90.00000000
_cell_angle_beta   90.00000000
_cell_angle_gamma   119.99999181
_symmetry_Int_Tables_number   1
_chemical_formula_structural   Er3ZnHg4Pt
_chemical_formula_sum   'Er3 Zn1 Hg4 Pt1'
_cell_volume   197.36343136
_cell_formula_units_Z   1
loop_
 _symmetry_equiv_pos_site_id
 _symmetry_equiv_pos_as_xyz
  1  'x, y, z'
loop_
 _atom_site_type_symbol
 _atom_site_label
 _atom_site_symmetry_multiplicity
 _atom_site_fract_x
 _atom_site_fract_y
 _atom_site_fract_z
 _atom_site_occupancy
  Er  Er0  1  0.696876  0.944135  0.500000  1
  Er  Er1  1  0.247259  0.303124  0.500000  1
  Er  Er2  1  0.055865  0.752741  0.500000  1
  Zn  Zn3  1  0.666667  0.333333  0.500000  1
  Hg  Hg4  1  0.930173  0.334301  0.000000  1
  Hg  Hg5  1  0.404127  0.069827  0.000000  1
  Hg  Hg6  1  0.665699  0.595873  0.000000  1
  Hg  Hg7  1  0.333333  0.666667  0.000000  1
  Pt  Pt8  1  0.000000  0.000000  0.000000  1
