# generated using pymatgen
data_Yb3Tm5(Ge4Mo3)4
_symmetry_space_group_name_H-M   'P 1'
_cell_length_a   6.85857858
_cell_length_b   7.03601805
_cell_length_c   13.12909394
_cell_angle_alpha   90.04391765
_cell_angle_beta   90.03295079
_cell_angle_gamma   90.06107578
_symmetry_Int_Tables_number   1
_chemical_formula_structural   Yb3Tm5(Ge4Mo3)4
_chemical_formula_sum   'Yb3 Tm5 Ge16 Mo12'
_cell_volume   633.57112118
_cell_formula_units_Z   1
loop_
 _symmetry_equiv_pos_site_id
 _symmetry_equiv_pos_as_xyz
  1  'x, y, z'
loop_
 _atom_site_type_symbol
 _atom_site_label
 _atom_site_symmetry_multiplicity
 _atom_site_fract_x
 _atom_site_fract_y
 _atom_site_fract_z
 _atom_site_occupancy
  Yb  Yb0  1  0.007907  0.830320  0.590190  1
  Yb  Yb1  1  0.492834  0.328882  0.409477  1
  Yb  Yb2  1  0.992584  0.171109  0.091114  1
  Tm  Tm3  1  0.492449  0.327161  0.092572  1
  Tm  Tm4  1  0.992565  0.172428  0.408219  1
  Tm  Tm5  1  0.508495  0.671514  0.591562  1
  Tm  Tm6  1  0.008978  0.828167  0.908222  1
  Tm  Tm7  1  0.509163  0.671482  0.907539  1
  Ge  Ge8  1  0.670426  0.044372  0.547044  1
  Ge  Ge9  1  0.171186  0.454421  0.953859  1
  Ge  Ge10  1  0.327798  0.955648  0.045784  1
  Ge  Ge11  1  0.829826  0.544768  0.453735  1
  Ge  Ge12  1  0.329822  0.956403  0.453914  1
  Ge  Ge13  1  0.829161  0.543589  0.046328  1
  Ge  Ge14  1  0.671414  0.045342  0.954285  1
  Ge  Ge15  1  0.169894  0.456872  0.546788  1
  Ge  Ge16  1  0.529457  0.371426  0.749565  1
  Ge  Ge17  1  0.028507  0.128445  0.750155  1
  Ge  Ge18  1  0.470545  0.625095  0.251019  1
  Ge  Ge19  1  0.970247  0.873187  0.249326  1
  Ge  Ge20  1  0.810883  0.646746  0.748476  1
  Ge  Ge21  1  0.306776  0.855190  0.748589  1
  Ge  Ge22  1  0.191584  0.354458  0.249964  1
  Ge  Ge23  1  0.692082  0.144540  0.250388  1
  Mo  Mo24  1  0.831470  0.342263  0.627033  1
  Mo  Mo25  1  0.331220  0.156475  0.873593  1
  Mo  Mo26  1  0.168851  0.658234  0.126865  1
  Mo  Mo27  1  0.667274  0.841153  0.372755  1
  Mo  Mo28  1  0.167881  0.659618  0.372371  1
  Mo  Mo29  1  0.665573  0.839251  0.126689  1
  Mo  Mo30  1  0.829040  0.344523  0.873346  1
  Mo  Mo31  1  0.331094  0.158772  0.627639  1
  Mo  Mo32  1  0.662266  0.006670  0.750944  1
  Mo  Mo33  1  0.163943  0.492459  0.751203  1
  Mo  Mo34  1  0.338710  0.989572  0.249362  1
  Mo  Mo35  1  0.838092  0.509440  0.250086  1
