# generated using pymatgen
data_Th4MnBeB20
_symmetry_space_group_name_H-M   'P 1'
_cell_length_a   4.17151600
_cell_length_b   5.62555102
_cell_length_c   11.19659138
_cell_angle_alpha   89.02173073
_cell_angle_beta   90.00000000
_cell_angle_gamma   90.00000000
_symmetry_Int_Tables_number   1
_chemical_formula_structural   Th4MnBeB20
_chemical_formula_sum   'Th4 Mn1 Be1 B20'
_cell_volume   262.71296412
_cell_formula_units_Z   1
loop_
 _symmetry_equiv_pos_site_id
 _symmetry_equiv_pos_as_xyz
  1  'x, y, z'
loop_
 _atom_site_type_symbol
 _atom_site_label
 _atom_site_symmetry_multiplicity
 _atom_site_fract_x
 _atom_site_fract_y
 _atom_site_fract_z
 _atom_site_occupancy
  Th  Th0  1  0.500000  0.287443  0.868434  1
  Th  Th1  1  0.500000  0.712557  0.131566  1
  Th  Th2  1  0.500000  0.798193  0.632497  1
  Th  Th3  1  0.500000  0.201807  0.367503  1
  Mn  Mn4  1  0.000000  0.000000  0.000000  1
  Be  Be5  1  0.000000  0.500000  0.500000  1
  B  B6  1  0.000000  0.127488  0.539014  1
  B  B7  1  0.000000  0.872512  0.460986  1
  B  B8  1  0.000000  0.627945  0.959904  1
  B  B9  1  0.000000  0.372055  0.040096  1
  B  B10  1  0.000000  0.153553  0.694629  1
  B  B11  1  0.000000  0.846447  0.305371  1
  B  B12  1  0.298680  0.205951  0.115904  1
  B  B13  1  0.298680  0.794049  0.884096  1
  B  B14  1  0.700351  0.700033  0.388931  1
  B  B15  1  0.700351  0.299967  0.611069  1
  B  B16  1  0.701320  0.794049  0.884096  1
  B  B17  1  0.701320  0.205951  0.115904  1
  B  B18  1  0.299649  0.299967  0.611069  1
  B  B19  1  0.299649  0.700033  0.388931  1
  B  B20  1  0.000000  0.036751  0.189220  1
  B  B21  1  0.000000  0.963249  0.810780  1
  B  B22  1  0.000000  0.534730  0.315451  1
  B  B23  1  0.000000  0.465270  0.684549  1
  B  B24  1  0.000000  0.349791  0.199688  1
  B  B25  1  0.000000  0.650209  0.800312  1
