# generated using pymatgen
data_CeSmPa2(CdPt2)2
_symmetry_space_group_name_H-M   'P 1'
_cell_length_a   7.91345340
_cell_length_b   7.90775654
_cell_length_c   3.67321200
_cell_angle_alpha   90.00000000
_cell_angle_beta   90.00000000
_cell_angle_gamma   90.50385460
_symmetry_Int_Tables_number   1
_chemical_formula_structural   CeSmPa2(CdPt2)2
_chemical_formula_sum   'Ce1 Sm1 Pa2 Cd2 Pt4'
_cell_volume   229.85213427
_cell_formula_units_Z   1
loop_
 _symmetry_equiv_pos_site_id
 _symmetry_equiv_pos_as_xyz
  1  'x, y, z'
loop_
 _atom_site_type_symbol
 _atom_site_label
 _atom_site_symmetry_multiplicity
 _atom_site_fract_x
 _atom_site_fract_y
 _atom_site_fract_z
 _atom_site_occupancy
  Ce  Ce0  1  0.672134  0.173024  0.500000  1
  Sm  Sm1  1  0.828235  0.672231  0.500000  1
  Pa  Pa2  1  0.167663  0.331536  0.500000  1
  Pa  Pa3  1  0.330883  0.831131  0.500000  1
  Cd  Cd4  1  0.504343  0.497889  0.000000  1
  Cd  Cd5  1  0.997059  0.994201  0.000000  1
  Pt  Pt6  1  0.609773  0.874023  0.000000  1
  Pt  Pt7  1  0.149531  0.629151  0.000000  1
  Pt  Pt8  1  0.887464  0.361933  0.000000  1
  Pt  Pt9  1  0.352915  0.134881  0.000000  1
