# generated using pymatgen
data_Sr2SmTaO6
_symmetry_space_group_name_H-M   'P 1'
_cell_length_a   6.00569300
_cell_length_b   5.89978579
_cell_length_c   10.24243158
_cell_angle_alpha   55.12206681
_cell_angle_beta   90.00000000
_cell_angle_gamma   90.00000000
_symmetry_Int_Tables_number   1
_chemical_formula_structural   Sr2SmTaO6
_chemical_formula_sum   'Sr4 Sm2 Ta2 O12'
_cell_volume   297.72366884
_cell_formula_units_Z   2
loop_
 _symmetry_equiv_pos_site_id
 _symmetry_equiv_pos_as_xyz
  1  'x, y, z'
loop_
 _atom_site_type_symbol
 _atom_site_label
 _atom_site_symmetry_multiplicity
 _atom_site_fract_x
 _atom_site_fract_y
 _atom_site_fract_z
 _atom_site_occupancy
  Sr  Sr0  1  0.461043  0.259068  0.750551  1
  Sr  Sr1  1  0.961043  0.740932  0.749449  1
  Sr  Sr2  1  0.038957  0.259068  0.250551  1
  Sr  Sr3  1  0.538957  0.740932  0.249449  1
  Sm  Sm4  1  0.000000  0.000000  0.000000  1
  Sm  Sm5  1  0.500000  0.000000  0.500000  1
  Ta  Ta6  1  0.500000  0.500000  0.000000  1
  Ta  Ta7  1  0.000000  0.500000  0.500000  1
  O  O8  1  0.725759  0.636616  0.550193  1
  O  O9  1  0.225759  0.363384  0.949807  1
  O  O10  1  0.274241  0.363384  0.449807  1
  O  O11  1  0.774241  0.636616  0.050193  1
  O  O12  1  0.190813  0.728545  0.545058  1
  O  O13  1  0.690813  0.271455  0.954942  1
  O  O14  1  0.809187  0.271455  0.454942  1
  O  O15  1  0.309187  0.728545  0.045058  1
  O  O16  1  0.029694  0.180115  0.730691  1
  O  O17  1  0.529694  0.819885  0.769309  1
  O  O18  1  0.970306  0.819885  0.269309  1
  O  O19  1  0.470306  0.180115  0.230691  1
