# generated using pymatgen
data_CeU(NbN2)2
_symmetry_space_group_name_H-M   'P 1'
_cell_length_a   3.30131300
_cell_length_b   5.73404022
_cell_length_c   11.04387546
_cell_angle_alpha   90.03260764
_cell_angle_beta   90.00000000
_cell_angle_gamma   90.00000000
_symmetry_Int_Tables_number   1
_chemical_formula_structural   CeU(NbN2)2
_chemical_formula_sum   'Ce2 U2 Nb4 N8'
_cell_volume   209.05899946
_cell_formula_units_Z   2
loop_
 _symmetry_equiv_pos_site_id
 _symmetry_equiv_pos_as_xyz
  1  'x, y, z'
loop_
 _atom_site_type_symbol
 _atom_site_label
 _atom_site_symmetry_multiplicity
 _atom_site_fract_x
 _atom_site_fract_y
 _atom_site_fract_z
 _atom_site_occupancy
  Ce  Ce0  1  0.250000  0.576519  0.856880  1
  Ce  Ce1  1  0.750000  0.423481  0.143120  1
  U  U2  1  0.750000  0.922820  0.358440  1
  U  U3  1  0.250000  0.077180  0.641560  1
  Nb  Nb4  1  0.250000  0.922960  0.100993  1
  Nb  Nb5  1  0.750000  0.077040  0.899007  1
  Nb  Nb6  1  0.750000  0.575350  0.599169  1
  Nb  Nb7  1  0.250000  0.424650  0.400831  1
  N  N8  1  0.250000  0.669159  0.251512  1
  N  N9  1  0.750000  0.330841  0.748488  1
  N  N10  1  0.750000  0.847989  0.738834  1
  N  N11  1  0.250000  0.152011  0.261166  1
  N  N12  1  0.250000  0.765342  0.504887  1
  N  N13  1  0.750000  0.234658  0.495113  1
  N  N14  1  0.750000  0.749241  0.005700  1
  N  N15  1  0.250000  0.250759  0.994300  1
