# generated using pymatgen
data_Li3Tb8Sc8Si16Ag
_symmetry_space_group_name_H-M   'P 1'
_cell_length_a   6.89688745
_cell_length_b   7.42189553
_cell_length_c   14.11254100
_cell_angle_alpha   90.00000000
_cell_angle_beta   90.00000000
_cell_angle_gamma   89.92608349
_symmetry_Int_Tables_number   1
_chemical_formula_structural   Li3Tb8Sc8Si16Ag
_chemical_formula_sum   'Li3 Tb8 Sc8 Si16 Ag1'
_cell_volume   722.39183879
_cell_formula_units_Z   1
loop_
 _symmetry_equiv_pos_site_id
 _symmetry_equiv_pos_as_xyz
  1  'x, y, z'
loop_
 _atom_site_type_symbol
 _atom_site_label
 _atom_site_symmetry_multiplicity
 _atom_site_fract_x
 _atom_site_fract_y
 _atom_site_fract_z
 _atom_site_occupancy
  Li  Li0  1  0.841101  0.495404  0.250000  1
  Li  Li1  1  0.341137  0.004705  0.250000  1
  Li  Li2  1  0.658831  0.994905  0.750000  1
  Tb  Tb3  1  0.013969  0.181610  0.099476  1
  Tb  Tb4  1  0.986932  0.818589  0.900458  1
  Tb  Tb5  1  0.486919  0.680739  0.900614  1
  Tb  Tb6  1  0.986932  0.818589  0.599542  1
  Tb  Tb7  1  0.513876  0.318465  0.099186  1
  Tb  Tb8  1  0.013969  0.181610  0.400524  1
  Tb  Tb9  1  0.513876  0.318465  0.400814  1
  Tb  Tb10  1  0.486919  0.680739  0.599386  1
  Sc  Sc11  1  0.329928  0.179369  0.626227  1
  Sc  Sc12  1  0.669557  0.820719  0.373460  1
  Sc  Sc13  1  0.169656  0.679622  0.373573  1
  Sc  Sc14  1  0.669557  0.820719  0.126540  1
  Sc  Sc15  1  0.829604  0.321007  0.626067  1
  Sc  Sc16  1  0.329928  0.179369  0.873773  1
  Sc  Sc17  1  0.829604  0.321007  0.873933  1
  Sc  Sc18  1  0.169656  0.679622  0.126427  1
  Si  Si19  1  0.029788  0.102635  0.750000  1
  Si  Si20  1  0.968437  0.894753  0.250000  1
  Si  Si21  1  0.468391  0.605486  0.250000  1
  Si  Si22  1  0.532286  0.393527  0.750000  1
  Si  Si23  1  0.283795  0.885433  0.750000  1
  Si  Si24  1  0.717086  0.115942  0.250000  1
  Si  Si25  1  0.217758  0.384209  0.250000  1
  Si  Si26  1  0.780848  0.617884  0.750000  1
  Si  Si27  1  0.159003  0.461668  0.533522  1
  Si  Si28  1  0.842098  0.537450  0.465178  1
  Si  Si29  1  0.341975  0.962635  0.464980  1
  Si  Si30  1  0.842098  0.537450  0.034822  1
  Si  Si31  1  0.657912  0.036560  0.534968  1
  Si  Si32  1  0.159003  0.461668  0.966478  1
  Si  Si33  1  0.657912  0.036560  0.965032  1
  Si  Si34  1  0.341975  0.962635  0.035020  1
  Ag  Ag35  1  0.157684  0.508250  0.750000  1
