# generated using pymatgen
data_Ac2PBr2
_symmetry_space_group_name_H-M   'P 1'
_cell_length_a   4.44301900
_cell_length_b   4.44301897
_cell_length_c   10.50623500
_cell_angle_alpha   90.00000000
_cell_angle_beta   90.00000000
_cell_angle_gamma   120.00000767
_symmetry_Int_Tables_number   1
_chemical_formula_structural   Ac2PBr2
_chemical_formula_sum   'Ac2 P1 Br2'
_cell_volume   179.61146153
_cell_formula_units_Z   1
loop_
 _symmetry_equiv_pos_site_id
 _symmetry_equiv_pos_as_xyz
  1  'x, y, z'
loop_
 _atom_site_type_symbol
 _atom_site_label
 _atom_site_symmetry_multiplicity
 _atom_site_fract_x
 _atom_site_fract_y
 _atom_site_fract_z
 _atom_site_occupancy
  Ac  Ac0  1  0.333333  0.666667  0.839530  1
  Ac  Ac1  1  0.666667  0.333333  0.160470  1
  P  P2  1  0.000000  0.000000  0.000000  1
  Br  Br3  1  0.666667  0.333333  0.656671  1
  Br  Br4  1  0.333333  0.666667  0.343329  1
