# generated using pymatgen
data_Ho7Er9(AlPd)4
_symmetry_space_group_name_H-M   'P 1'
_cell_length_a   9.56278210
_cell_length_b   9.56298945
_cell_length_c   9.55827400
_cell_angle_alpha   60.01919447
_cell_angle_beta   60.01553100
_cell_angle_gamma   60.04235918
_symmetry_Int_Tables_number   1
_chemical_formula_structural   Ho7Er9(AlPd)4
_chemical_formula_sum   'Ho7 Er9 Al4 Pd4'
_cell_volume   618.43669351
_cell_formula_units_Z   1
loop_
 _symmetry_equiv_pos_site_id
 _symmetry_equiv_pos_as_xyz
  1  'x, y, z'
loop_
 _atom_site_type_symbol
 _atom_site_label
 _atom_site_symmetry_multiplicity
 _atom_site_fract_x
 _atom_site_fract_y
 _atom_site_fract_z
 _atom_site_occupancy
  Ho  Ho0  1  0.806345  0.806433  0.193588  1
  Ho  Ho1  1  0.934134  0.565840  0.566286  1
  Ho  Ho2  1  0.565840  0.934128  0.933584  1
  Ho  Ho3  1  0.565737  0.934123  0.566510  1
  Ho  Ho4  1  0.934121  0.565824  0.933748  1
  Ho  Ho5  1  0.565896  0.566032  0.934038  1
  Ho  Ho6  1  0.933677  0.933760  0.566320  1
  Er  Er7  1  0.355132  0.354973  0.355752  1
  Er  Er8  1  0.355067  0.355119  0.934113  1
  Er  Er9  1  0.355386  0.932578  0.356085  1
  Er  Er10  1  0.933173  0.355132  0.355780  1
  Er  Er11  1  0.806809  0.194015  0.192967  1
  Er  Er12  1  0.193933  0.806911  0.806118  1
  Er  Er13  1  0.193934  0.806887  0.193008  1
  Er  Er14  1  0.806817  0.193943  0.806189  1
  Er  Er15  1  0.192931  0.192970  0.807021  1
  Al  Al16  1  0.577753  0.577760  0.577653  1
  Al  Al17  1  0.577802  0.577738  0.266845  1
  Al  Al18  1  0.577549  0.267877  0.577301  1
  Al  Al19  1  0.267649  0.577620  0.577378  1
  Pd  Pd20  1  0.144468  0.144251  0.144643  1
  Pd  Pd21  1  0.144432  0.144257  0.566668  1
  Pd  Pd22  1  0.145066  0.566727  0.144124  1
  Pd  Pd23  1  0.566349  0.145106  0.144281  1
