# generated using pymatgen
data_YbErRh2O7
_symmetry_space_group_name_H-M   'P 1'
_cell_length_a   7.17960401
_cell_length_b   7.19693158
_cell_length_c   7.19693196
_cell_angle_alpha   60.10312762
_cell_angle_beta   60.07962306
_cell_angle_gamma   60.07961661
_symmetry_Int_Tables_number   1
_chemical_formula_structural   YbErRh2O7
_chemical_formula_sum   'Yb2 Er2 Rh4 O14'
_cell_volume   263.47537118
_cell_formula_units_Z   2
loop_
 _symmetry_equiv_pos_site_id
 _symmetry_equiv_pos_as_xyz
  1  'x, y, z'
loop_
 _atom_site_type_symbol
 _atom_site_label
 _atom_site_symmetry_multiplicity
 _atom_site_fract_x
 _atom_site_fract_y
 _atom_site_fract_z
 _atom_site_occupancy
  Yb  Yb0  1  0.625000  0.625000  0.125000  1
  Yb  Yb1  1  0.625000  0.125000  0.625000  1
  Er  Er2  1  0.625000  0.625000  0.625000  1
  Er  Er3  1  0.125000  0.625000  0.625000  1
  Rh  Rh4  1  0.625000  0.125000  0.125000  1
  Rh  Rh5  1  0.125000  0.125000  0.125000  1
  Rh  Rh6  1  0.125000  0.625000  0.125000  1
  Rh  Rh7  1  0.125000  0.125000  0.625000  1
  O  O8  1  0.041939  0.458061  0.458061  1
  O  O9  1  0.793864  0.792608  0.212410  1
  O  O10  1  0.794870  0.205130  0.205130  1
  O  O11  1  0.755873  0.744127  0.744127  1
  O  O12  1  0.048883  0.457392  0.037590  1
  O  O13  1  0.456136  0.037590  0.457392  1
  O  O14  1  0.048883  0.037590  0.457392  1
  O  O15  1  0.494127  0.505873  0.505873  1
  O  O16  1  0.201117  0.212410  0.792608  1
  O  O17  1  0.201117  0.792608  0.212410  1
  O  O18  1  0.793864  0.212410  0.792608  1
  O  O19  1  0.455130  0.044870  0.044870  1
  O  O20  1  0.456136  0.457392  0.037590  1
  O  O21  1  0.208061  0.791939  0.791939  1
