# generated using pymatgen
data_Zr7ScTa4(VSi2)8
_symmetry_space_group_name_H-M   'P 1'
_cell_length_a   6.71734002
_cell_length_b   6.71866700
_cell_length_c   12.46941299
_cell_angle_alpha   90.02855230
_cell_angle_beta   89.97975317
_cell_angle_gamma   89.99601669
_symmetry_Int_Tables_number   1
_chemical_formula_structural   Zr7ScTa4(VSi2)8
_chemical_formula_sum   'Zr7 Sc1 Ta4 V8 Si16'
_cell_volume   562.76408834
_cell_formula_units_Z   1
loop_
 _symmetry_equiv_pos_site_id
 _symmetry_equiv_pos_as_xyz
  1  'x, y, z'
loop_
 _atom_site_type_symbol
 _atom_site_label
 _atom_site_symmetry_multiplicity
 _atom_site_fract_x
 _atom_site_fract_y
 _atom_site_fract_z
 _atom_site_occupancy
  Zr  Zr0  1  0.003534  0.662663  0.030249  1
  Zr  Zr1  1  0.837242  0.503542  0.280270  1
  Zr  Zr2  1  0.162605  0.496206  0.780236  1
  Zr  Zr3  1  0.503534  0.837096  0.719205  1
  Zr  Zr4  1  0.496399  0.162074  0.219435  1
  Zr  Zr5  1  0.994974  0.338867  0.530448  1
  Zr  Zr6  1  0.662704  0.003538  0.969737  1
  Sc  Sc7  1  0.336758  0.997498  0.470464  1
  Ta  Ta8  1  0.334413  0.334512  0.000008  1
  Ta  Ta9  1  0.165702  0.834769  0.250153  1
  Ta  Ta10  1  0.834456  0.165227  0.749510  1
  Ta  Ta11  1  0.667114  0.664398  0.499697  1
  V  V12  1  0.005701  0.160276  0.127119  1
  V  V13  1  0.340486  0.506741  0.376453  1
  V  V14  1  0.660151  0.493855  0.877208  1
  V  V15  1  0.506093  0.339246  0.623209  1
  V  V16  1  0.493732  0.659893  0.123263  1
  V  V17  1  0.993383  0.839254  0.627467  1
  V  V18  1  0.160254  0.006303  0.873202  1
  V  V19  1  0.840989  0.993413  0.372263  1
  Si  Si20  1  0.291712  0.958202  0.061848  1
  Si  Si21  1  0.540493  0.794427  0.313022  1
  Si  Si22  1  0.458747  0.207984  0.811748  1
  Si  Si23  1  0.791878  0.541431  0.688348  1
  Si  Si24  1  0.207473  0.458269  0.188262  1
  Si  Si25  1  0.706046  0.040061  0.560848  1
  Si  Si26  1  0.958196  0.292006  0.938049  1
  Si  Si27  1  0.042773  0.709424  0.438323  1
  Si  Si28  1  0.710145  0.375582  0.073411  1
  Si  Si29  1  0.126394  0.209112  0.323818  1
  Si  Si30  1  0.875580  0.789887  0.823099  1
  Si  Si31  1  0.209833  0.123928  0.676722  1
  Si  Si32  1  0.789723  0.875125  0.176992  1
  Si  Si33  1  0.291065  0.625713  0.572423  1
  Si  Si34  1  0.375688  0.710156  0.926600  1
  Si  Si35  1  0.624030  0.289325  0.426890  1
