# generated using pymatgen
data_Lu2Ni12As2P5
_symmetry_space_group_name_H-M   'P 1'
_cell_length_a   9.17300998
_cell_length_b   9.11378156
_cell_length_c   3.66451100
_cell_angle_alpha   90.00000000
_cell_angle_beta   90.00000000
_cell_angle_gamma   119.75627285
_symmetry_Int_Tables_number   1
_chemical_formula_structural   Lu2Ni12As2P5
_chemical_formula_sum   'Lu2 Ni12 As2 P5'
_cell_volume   265.96134474
_cell_formula_units_Z   1
loop_
 _symmetry_equiv_pos_site_id
 _symmetry_equiv_pos_as_xyz
  1  'x, y, z'
loop_
 _atom_site_type_symbol
 _atom_site_label
 _atom_site_symmetry_multiplicity
 _atom_site_fract_x
 _atom_site_fract_y
 _atom_site_fract_z
 _atom_site_occupancy
  Lu  Lu0  1  0.667262  0.332990  0.000000  1
  Lu  Lu1  1  0.338528  0.665627  0.500000  1
  Ni  Ni2  1  0.062553  0.429095  0.000000  1
  Ni  Ni3  1  0.557552  0.621228  0.000000  1
  Ni  Ni4  1  0.389463  0.948114  0.000000  1
  Ni  Ni5  1  0.287630  0.157967  0.000000  1
  Ni  Ni6  1  0.840807  0.125629  0.000000  1
  Ni  Ni7  1  0.862874  0.715152  0.000000  1
  Ni  Ni8  1  0.434923  0.380478  0.500000  1
  Ni  Ni9  1  0.620434  0.052991  0.500000  1
  Ni  Ni10  1  0.937509  0.560491  0.500000  1
  Ni  Ni11  1  0.109004  0.242698  0.500000  1
  Ni  Ni12  1  0.751236  0.859735  0.500000  1
  Ni  Ni13  1  0.133218  0.907312  0.500000  1
  As  As14  1  0.118437  0.711111  0.000000  1
  As  As15  1  0.001816  0.001820  0.000000  1
  P  P16  1  0.293195  0.406371  0.000000  1
  P  P17  1  0.594041  0.883970  0.000000  1
  P  P18  1  0.411841  0.114033  0.500000  1
  P  P19  1  0.886688  0.295023  0.500000  1
  P  P20  1  0.700987  0.588168  0.500000  1
