# generated using pymatgen
data_Ho16Mg2Cd2Ir3Pd
_symmetry_space_group_name_H-M   'P 1'
_cell_length_a   9.64177352
_cell_length_b   9.64177361
_cell_length_c   9.67405052
_cell_angle_alpha   59.97751517
_cell_angle_beta   59.97752271
_cell_angle_gamma   59.90951146
_symmetry_Int_Tables_number   1
_chemical_formula_structural   Ho16Mg2Cd2Ir3Pd
_chemical_formula_sum   'Ho16 Mg2 Cd2 Ir3 Pd1'
_cell_volume   635.27515925
_cell_formula_units_Z   1
loop_
 _symmetry_equiv_pos_site_id
 _symmetry_equiv_pos_as_xyz
  1  'x, y, z'
loop_
 _atom_site_type_symbol
 _atom_site_label
 _atom_site_symmetry_multiplicity
 _atom_site_fract_x
 _atom_site_fract_y
 _atom_site_fract_z
 _atom_site_occupancy
  Ho  Ho0  1  0.597086  0.597086  0.598102  1
  Ho  Ho1  1  0.602284  0.602284  0.199611  1
  Ho  Ho2  1  0.601058  0.201766  0.602594  1
  Ho  Ho3  1  0.201766  0.601058  0.602594  1
  Ho  Ho4  1  0.056187  0.438851  0.439126  1
  Ho  Ho5  1  0.437639  0.061704  0.061824  1
  Ho  Ho6  1  0.438851  0.056187  0.439126  1
  Ho  Ho7  1  0.061704  0.437639  0.061824  1
  Ho  Ho8  1  0.440282  0.440282  0.054633  1
  Ho  Ho9  1  0.062824  0.062824  0.436625  1
  Ho  Ho10  1  0.188920  0.813982  0.813973  1
  Ho  Ho11  1  0.816041  0.188212  0.184127  1
  Ho  Ho12  1  0.813982  0.188920  0.813973  1
  Ho  Ho13  1  0.188212  0.816041  0.184127  1
  Ho  Ho14  1  0.814319  0.814319  0.186523  1
  Ho  Ho15  1  0.186387  0.186387  0.815652  1
  Mg  Mg16  1  0.827834  0.827834  0.829790  1
  Mg  Mg17  1  0.827275  0.827275  0.514770  1
  Cd  Cd18  1  0.831247  0.506182  0.830621  1
  Cd  Cd19  1  0.506182  0.831247  0.830621  1
  Ir  Ir20  1  0.391626  0.391626  0.824079  1
  Ir  Ir21  1  0.392101  0.823284  0.391557  1
  Ir  Ir22  1  0.823284  0.392101  0.391557  1
  Pd  Pd23  1  0.392911  0.392911  0.392577  1
