# generated using pymatgen
data_DyY2ScAu5
_symmetry_space_group_name_H-M   'P 1'
_cell_length_a   7.92708470
_cell_length_b   7.92686880
_cell_length_c   7.92462334
_cell_angle_alpha   66.30625106
_cell_angle_beta   66.29933416
_cell_angle_gamma   66.30153343
_symmetry_Int_Tables_number   1
_chemical_formula_structural   DyY2ScAu5
_chemical_formula_sum   'Dy2 Y4 Sc2 Au10'
_cell_volume   399.99725043
_cell_formula_units_Z   2
loop_
 _symmetry_equiv_pos_site_id
 _symmetry_equiv_pos_as_xyz
  1  'x, y, z'
loop_
 _atom_site_type_symbol
 _atom_site_label
 _atom_site_symmetry_multiplicity
 _atom_site_fract_x
 _atom_site_fract_y
 _atom_site_fract_z
 _atom_site_occupancy
  Dy  Dy0  1  0.891446  0.189062  0.619177  1
  Dy  Dy1  1  0.619325  0.891256  0.189133  1
  Y  Y2  1  0.189041  0.619101  0.891473  1
  Y  Y3  1  0.108697  0.811048  0.380941  1
  Y  Y4  1  0.380892  0.108635  0.811103  1
  Y  Y5  1  0.810957  0.380959  0.108786  1
  Sc  Sc6  1  0.659241  0.659162  0.659100  1
  Sc  Sc7  1  0.340658  0.340714  0.340678  1
  Au  Au8  1  0.999581  0.000078  0.999863  1
  Au  Au9  1  0.500294  0.500172  0.499910  1
  Au  Au10  1  0.806706  0.807313  0.806923  1
  Au  Au11  1  0.193279  0.193051  0.193397  1
  Au  Au12  1  0.936706  0.549948  0.320364  1
  Au  Au13  1  0.320121  0.937419  0.549594  1
  Au  Au14  1  0.550530  0.319622  0.937079  1
  Au  Au15  1  0.062578  0.449595  0.679909  1
  Au  Au16  1  0.680052  0.062768  0.449692  1
  Au  Au17  1  0.449895  0.680097  0.062878  1
