# generated using pymatgen
data_Cd3SO6
_symmetry_space_group_name_H-M   'P 1'
_cell_length_a   7.07501853
_cell_length_b   7.12817306
_cell_length_c   7.11624418
_cell_angle_alpha   75.37206424
_cell_angle_beta   75.23542224
_cell_angle_gamma   59.19422017
_symmetry_Int_Tables_number   1
_chemical_formula_structural   Cd3SO6
_chemical_formula_sum   'Cd6 S2 O12'
_cell_volume   294.83750210
_cell_formula_units_Z   2
loop_
 _symmetry_equiv_pos_site_id
 _symmetry_equiv_pos_as_xyz
  1  'x, y, z'
loop_
 _atom_site_type_symbol
 _atom_site_label
 _atom_site_symmetry_multiplicity
 _atom_site_fract_x
 _atom_site_fract_y
 _atom_site_fract_z
 _atom_site_occupancy
  Cd  Cd0  1  0.350046  0.164629  0.173945  1
  Cd  Cd1  1  0.649953  0.835370  0.826056  1
  Cd  Cd2  1  0.814671  0.641716  0.347387  1
  Cd  Cd3  1  0.332566  0.667939  0.230308  1
  Cd  Cd4  1  0.667435  0.332061  0.769692  1
  Cd  Cd5  1  0.185330  0.358284  0.652613  1
  S  S6  1  0.808779  0.162022  0.280853  1
  S  S7  1  0.191220  0.837980  0.719147  1
  O  O8  1  0.557405  0.806593  0.161689  1
  O  O9  1  0.663682  0.283813  0.122506  1
  O  O10  1  0.047789  0.069359  0.189740  1
  O  O11  1  0.181827  0.454067  0.318660  1
  O  O12  1  0.751939  0.323951  0.412130  1
  O  O13  1  0.759031  0.984702  0.400046  1
  O  O14  1  0.240969  0.015298  0.599954  1
  O  O15  1  0.248061  0.676049  0.587870  1
  O  O16  1  0.818173  0.545934  0.681340  1
  O  O17  1  0.952210  0.930641  0.810260  1
  O  O18  1  0.336318  0.716188  0.877494  1
  O  O19  1  0.442594  0.193409  0.838311  1
