# generated using pymatgen
data_CaErTi3O8
_symmetry_space_group_name_H-M   'P 1'
_cell_length_a   6.33467168
_cell_length_b   6.33467212
_cell_length_c   5.09242510
_cell_angle_alpha   72.00150293
_cell_angle_beta   72.00150496
_cell_angle_gamma   57.71074898
_symmetry_Int_Tables_number   1
_chemical_formula_structural   CaErTi3O8
_chemical_formula_sum   'Ca1 Er1 Ti3 O8'
_cell_volume   161.64140620
_cell_formula_units_Z   1
loop_
 _symmetry_equiv_pos_site_id
 _symmetry_equiv_pos_as_xyz
  1  'x, y, z'
loop_
 _atom_site_type_symbol
 _atom_site_label
 _atom_site_symmetry_multiplicity
 _atom_site_fract_x
 _atom_site_fract_y
 _atom_site_fract_z
 _atom_site_occupancy
  Ca  Ca0  1  0.275437  0.275437  0.665104  1
  Er  Er1  1  0.728008  0.728008  0.336555  1
  Ti  Ti2  1  0.000415  0.000415  0.496520  1
  Ti  Ti3  1  0.735393  0.266008  0.000812  1
  Ti  Ti4  1  0.266008  0.735393  0.000812  1
  O  O5  1  0.396788  0.396788  0.949752  1
  O  O6  1  0.608402  0.608402  0.063435  1
  O  O7  1  0.897106  0.897106  0.913091  1
  O  O8  1  0.100536  0.100536  0.091673  1
  O  O9  1  0.336246  0.881816  0.594465  1
  O  O10  1  0.881816  0.336246  0.594465  1
  O  O11  1  0.100975  0.672871  0.396659  1
  O  O12  1  0.672871  0.100975  0.396659  1
