# generated using pymatgen
data_CaAcMgIn3
_symmetry_space_group_name_H-M   'P 1'
_cell_length_a   5.06481300
_cell_length_b   5.06481212
_cell_length_c   7.93804300
_cell_angle_alpha   90.00000000
_cell_angle_beta   90.00000000
_cell_angle_gamma   119.99999919
_symmetry_Int_Tables_number   1
_chemical_formula_structural   CaAcMgIn3
_chemical_formula_sum   'Ca1 Ac1 Mg1 In3'
_cell_volume   176.34812143
_cell_formula_units_Z   1
loop_
 _symmetry_equiv_pos_site_id
 _symmetry_equiv_pos_as_xyz
  1  'x, y, z'
loop_
 _atom_site_type_symbol
 _atom_site_label
 _atom_site_symmetry_multiplicity
 _atom_site_fract_x
 _atom_site_fract_y
 _atom_site_fract_z
 _atom_site_occupancy
  Ca  Ca0  1  0.000000  0.000000  0.244812  1
  Ac  Ac1  1  0.000000  0.000000  0.752640  1
  Mg  Mg2  1  0.333333  0.666667  0.991641  1
  In  In3  1  0.666667  0.333333  0.440535  1
  In  In4  1  0.333333  0.666667  0.536562  1
  In  In5  1  0.666667  0.333333  0.033809  1
