# generated using pymatgen
data_Sc12Co4OsPb
_symmetry_space_group_name_H-M   'P 1'
_cell_length_a   7.74902106
_cell_length_b   7.74917420
_cell_length_c   7.74902024
_cell_angle_alpha   111.39732238
_cell_angle_beta   110.98743892
_cell_angle_gamma   106.08069371
_symmetry_Int_Tables_number   1
_chemical_formula_structural   Sc12Co4OsPb
_chemical_formula_sum   'Sc12 Co4 Os1 Pb1'
_cell_volume   357.26633453
_cell_formula_units_Z   1
loop_
 _symmetry_equiv_pos_site_id
 _symmetry_equiv_pos_as_xyz
  1  'x, y, z'
loop_
 _atom_site_type_symbol
 _atom_site_label
 _atom_site_symmetry_multiplicity
 _atom_site_fract_x
 _atom_site_fract_y
 _atom_site_fract_z
 _atom_site_occupancy
  Sc  Sc0  1  0.423642  0.223980  0.199662  1
  Sc  Sc1  1  0.576358  0.776020  0.800338  1
  Sc  Sc2  1  0.024317  0.223980  0.800339  1
  Sc  Sc3  1  0.975683  0.776020  0.199661  1
  Sc  Sc4  1  0.311310  0.614454  0.303144  1
  Sc  Sc5  1  0.688690  0.385546  0.696856  1
  Sc  Sc6  1  0.311304  0.008149  0.696845  1
  Sc  Sc7  1  0.688696  0.991851  0.303155  1
  Sc  Sc8  1  0.182921  0.273006  0.455934  1
  Sc  Sc9  1  0.817079  0.726993  0.544066  1
  Sc  Sc10  1  0.182926  0.726993  0.909915  1
  Sc  Sc11  1  0.817074  0.273006  0.090085  1
  Co  Co12  1  0.367900  0.000000  0.367900  1
  Co  Co13  1  0.632100  0.000000  0.632100  1
  Co  Co14  1  0.117511  0.617513  0.500002  1
  Co  Co15  1  0.882489  0.382487  0.499998  1
  Os  Os16  1  0.000000  0.000000  0.000000  1
  Pb  Pb17  1  0.500000  0.500000  0.000000  1
