# generated using pymatgen
data_Nb6Ga4FePtC2
_symmetry_space_group_name_H-M   'P 1'
_cell_length_a   8.31591436
_cell_length_b   8.31591442
_cell_length_c   8.33655500
_cell_angle_alpha   59.91785619
_cell_angle_beta   59.91785593
_cell_angle_gamma   59.86595617
_symmetry_Int_Tables_number   1
_chemical_formula_structural   Nb6Ga4FePtC2
_chemical_formula_sum   'Nb12 Ga8 Fe2 Pt2 C4'
_cell_volume   406.73402704
_cell_formula_units_Z   2
loop_
 _symmetry_equiv_pos_site_id
 _symmetry_equiv_pos_as_xyz
  1  'x, y, z'
loop_
 _atom_site_type_symbol
 _atom_site_label
 _atom_site_symmetry_multiplicity
 _atom_site_fract_x
 _atom_site_fract_y
 _atom_site_fract_z
 _atom_site_occupancy
  Nb  Nb0  1  0.694836  0.310027  0.683171  1
  Nb  Nb1  1  0.939973  0.555164  0.566829  1
  Nb  Nb2  1  0.555164  0.939973  0.938034  1
  Nb  Nb3  1  0.939973  0.555164  0.938034  1
  Nb  Nb4  1  0.566303  0.566303  0.933697  1
  Nb  Nb5  1  0.943740  0.943740  0.556260  1
  Nb  Nb6  1  0.683697  0.683697  0.316303  1
  Nb  Nb7  1  0.310027  0.694836  0.683171  1
  Nb  Nb8  1  0.694836  0.310027  0.311966  1
  Nb  Nb9  1  0.306260  0.306260  0.693740  1
  Nb  Nb10  1  0.555164  0.939973  0.566829  1
  Nb  Nb11  1  0.310027  0.694836  0.311966  1
  Ga  Ga12  1  0.332605  0.332605  0.345275  1
  Ga  Ga13  1  0.249887  0.923878  0.913117  1
  Ga  Ga14  1  0.923878  0.249887  0.913117  1
  Ga  Ga15  1  0.917395  0.917395  0.260482  1
  Ga  Ga16  1  0.326122  0.000113  0.336883  1
  Ga  Ga17  1  0.332605  0.332605  0.989518  1
  Ga  Ga18  1  0.000113  0.326122  0.336883  1
  Ga  Ga19  1  0.917395  0.917395  0.904725  1
  Fe  Fe20  1  0.125000  0.125000  0.125000  1
  Fe  Fe21  1  0.125000  0.125000  0.625000  1
  Pt  Pt22  1  0.625000  0.125000  0.125000  1
  Pt  Pt23  1  0.125000  0.625000  0.125000  1
  C  C24  1  0.625000  0.625000  0.625000  1
  C  C25  1  0.125000  0.625000  0.625000  1
  C  C26  1  0.625000  0.125000  0.625000  1
  C  C27  1  0.625000  0.625000  0.125000  1
