# generated using pymatgen
data_Ho12Ga2Co3Ni
_symmetry_space_group_name_H-M   'P 1'
_cell_length_a   8.23861986
_cell_length_b   8.23861957
_cell_length_c   8.23862017
_cell_angle_alpha   112.43091782
_cell_angle_beta   109.35941156
_cell_angle_gamma   106.67471775
_symmetry_Int_Tables_number   1
_chemical_formula_structural   Ho12Ga2Co3Ni
_chemical_formula_sum   'Ho12 Ga2 Co3 Ni1'
_cell_volume   429.37885754
_cell_formula_units_Z   1
loop_
 _symmetry_equiv_pos_site_id
 _symmetry_equiv_pos_as_xyz
  1  'x, y, z'
loop_
 _atom_site_type_symbol
 _atom_site_label
 _atom_site_symmetry_multiplicity
 _atom_site_fract_x
 _atom_site_fract_y
 _atom_site_fract_z
 _atom_site_occupancy
  Ho  Ho0  1  0.435319  0.238063  0.197256  1
  Ho  Ho1  1  0.564974  0.762726  0.802248  1
  Ho  Ho2  1  0.040807  0.238063  0.802744  1
  Ho  Ho3  1  0.960479  0.762726  0.197752  1
  Ho  Ho4  1  0.182589  0.281361  0.460547  1
  Ho  Ho5  1  0.820812  0.722040  0.539453  1
  Ho  Ho6  1  0.182589  0.722040  0.901228  1
  Ho  Ho7  1  0.820812  0.281361  0.098772  1
  Ho  Ho8  1  0.325784  0.637347  0.311563  1
  Ho  Ho9  1  0.669245  0.359542  0.690296  1
  Ho  Ho10  1  0.325784  0.014221  0.688437  1
  Ho  Ho11  1  0.669245  0.978949  0.309704  1
  Ga  Ga12  1  0.501018  0.501018  0.000000  1
  Ga  Ga13  1  0.000409  0.000409  0.000000  1
  Co  Co14  1  0.340550  0.001462  0.339088  1
  Co  Co15  1  0.662374  0.001462  0.660912  1
  Co  Co16  1  0.115860  0.615860  0.500000  1
  Ni  Ni17  1  0.881348  0.381348  0.500000  1
