# generated using pymatgen
data_CePa(Be2Ir3)2
_symmetry_space_group_name_H-M   'P 1'
_cell_length_a   6.43290790
_cell_length_b   6.43290739
_cell_length_c   6.43290694
_cell_angle_alpha   130.61479587
_cell_angle_beta   114.27916915
_cell_angle_gamma   86.43657937
_symmetry_Int_Tables_number   1
_chemical_formula_structural   CePa(Be2Ir3)2
_chemical_formula_sum   'Ce1 Pa1 Be4 Ir6'
_cell_volume   175.89435419
_cell_formula_units_Z   1
loop_
 _symmetry_equiv_pos_site_id
 _symmetry_equiv_pos_as_xyz
  1  'x, y, z'
loop_
 _atom_site_type_symbol
 _atom_site_label
 _atom_site_symmetry_multiplicity
 _atom_site_fract_x
 _atom_site_fract_y
 _atom_site_fract_z
 _atom_site_occupancy
  Ce  Ce0  1  0.250000  0.971256  0.721256  1
  Pa  Pa1  1  0.750000  0.030108  0.280108  1
  Be  Be2  1  0.575644  0.365714  0.790071  1
  Be  Be3  1  0.087253  0.298621  0.211369  1
  Be  Be4  1  0.412747  0.624117  0.211369  1
  Be  Be5  1  0.924356  0.714428  0.790071  1
  Ir  Ir6  1  0.751698  0.460754  0.251206  1
  Ir  Ir7  1  0.991317  0.537615  0.028932  1
  Ir  Ir8  1  0.748302  0.999508  0.709057  1
  Ir  Ir9  1  0.209548  0.460754  0.709057  1
  Ir  Ir10  1  0.290452  0.999508  0.251206  1
  Ir  Ir11  1  0.508683  0.537615  0.546299  1
