# generated using pymatgen
data_Y3Al12Os3Pd
_symmetry_space_group_name_H-M   'P 1'
_cell_length_a   8.86572732
_cell_length_b   8.81596059
_cell_length_c   9.58198099
_cell_angle_alpha   89.99999939
_cell_angle_beta   90.09133048
_cell_angle_gamma   119.81447748
_symmetry_Int_Tables_number   1
_chemical_formula_structural   Y3Al12Os3Pd
_chemical_formula_sum   'Y6 Al24 Os6 Pd2'
_cell_volume   649.79755477
_cell_formula_units_Z   2
loop_
 _symmetry_equiv_pos_site_id
 _symmetry_equiv_pos_as_xyz
  1  'x, y, z'
loop_
 _atom_site_type_symbol
 _atom_site_label
 _atom_site_symmetry_multiplicity
 _atom_site_fract_x
 _atom_site_fract_y
 _atom_site_fract_z
 _atom_site_occupancy
  Y  Y0  1  0.190166  0.386595  0.252990  1
  Y  Y1  1  0.809834  0.613405  0.747010  1
  Y  Y2  1  0.616407  0.808204  0.252090  1
  Y  Y3  1  0.383593  0.191796  0.747910  1
  Y  Y4  1  0.190166  0.803571  0.252990  1
  Y  Y5  1  0.809834  0.196429  0.747010  1
  Al  Al6  1  0.328743  0.664372  0.024876  1
  Al  Al7  1  0.671257  0.335628  0.975124  1
  Al  Al8  1  0.666229  0.333114  0.522310  1
  Al  Al9  1  0.333771  0.666886  0.477690  1
  Al  Al10  1  0.164969  0.328186  0.575539  1
  Al  Al11  1  0.835031  0.671814  0.424461  1
  Al  Al12  1  0.672374  0.836187  0.574115  1
  Al  Al13  1  0.842101  0.674121  0.078667  1
  Al  Al14  1  0.327626  0.163813  0.425885  1
  Al  Al15  1  0.157899  0.325879  0.921333  1
  Al  Al16  1  0.164969  0.836782  0.575539  1
  Al  Al17  1  0.323296  0.161648  0.079917  1
  Al  Al18  1  0.835031  0.163218  0.424461  1
  Al  Al19  1  0.676704  0.838352  0.920083  1
  Al  Al20  1  0.842101  0.167980  0.078667  1
  Al  Al21  1  0.157899  0.832020  0.921333  1
  Al  Al22  1  0.562221  0.124388  0.251706  1
  Al  Al23  1  0.437779  0.875612  0.748294  1
  Al  Al24  1  0.876367  0.438184  0.249134  1
  Al  Al25  1  0.123633  0.561816  0.750866  1
  Al  Al26  1  0.562221  0.437833  0.251706  1
  Al  Al27  1  0.437779  0.562167  0.748294  1
  Al  Al28  1  0.997690  0.998845  0.250365  1
  Al  Al29  1  0.002310  0.001155  0.749635  1
  Os  Os30  1  0.000000  0.500000  0.000000  1
  Os  Os31  1  0.500000  0.000000  0.500000  1
  Os  Os32  1  0.000000  0.500000  0.500000  1
  Os  Os33  1  0.500000  0.500000  0.500000  1
  Os  Os34  1  0.000000  0.000000  0.000000  1
  Os  Os35  1  0.000000  0.000000  0.500000  1
  Pd  Pd36  1  0.500000  0.000000  0.000000  1
  Pd  Pd37  1  0.500000  0.500000  0.000000  1
