# generated using pymatgen
data_BaCe2(TlSe2)3
_symmetry_space_group_name_H-M   'P 1'
_cell_length_a   7.62126674
_cell_length_b   7.62126625
_cell_length_c   8.06181100
_cell_angle_alpha   99.05773316
_cell_angle_beta   99.05774018
_cell_angle_gamma   120.02329145
_symmetry_Int_Tables_number   1
_chemical_formula_structural   BaCe2(TlSe2)3
_chemical_formula_sum   'Ba1 Ce2 Tl3 Se6'
_cell_volume   384.79395859
_cell_formula_units_Z   1
loop_
 _symmetry_equiv_pos_site_id
 _symmetry_equiv_pos_as_xyz
  1  'x, y, z'
loop_
 _atom_site_type_symbol
 _atom_site_label
 _atom_site_symmetry_multiplicity
 _atom_site_fract_x
 _atom_site_fract_y
 _atom_site_fract_z
 _atom_site_occupancy
  Ba  Ba0  1  0.000000  0.000000  0.000000  1
  Ce  Ce1  1  0.666791  0.333209  0.000000  1
  Ce  Ce2  1  0.333209  0.666791  0.000000  1
  Tl  Tl3  1  0.836978  0.163022  0.500000  1
  Tl  Tl4  1  0.500000  0.500000  0.500000  1
  Tl  Tl5  1  0.163022  0.836978  0.500000  1
  Se  Se6  1  0.705648  0.705648  0.210263  1
  Se  Se7  1  0.436305  0.071971  0.216019  1
  Se  Se8  1  0.071971  0.436305  0.216019  1
  Se  Se9  1  0.928030  0.563696  0.783982  1
  Se  Se10  1  0.563696  0.928030  0.783982  1
  Se  Se11  1  0.294353  0.294353  0.789737  1
