# generated using pymatgen
data_Lu10Pb6S
_symmetry_space_group_name_H-M   'P 1'
_cell_length_a   8.92253200
_cell_length_b   8.92253390
_cell_length_c   6.48796400
_cell_angle_alpha   90.00000000
_cell_angle_beta   90.00000000
_cell_angle_gamma   120.00000035
_symmetry_Int_Tables_number   1
_chemical_formula_structural   Lu10Pb6S
_chemical_formula_sum   'Lu10 Pb6 S1'
_cell_volume   447.31697847
_cell_formula_units_Z   1
loop_
 _symmetry_equiv_pos_site_id
 _symmetry_equiv_pos_as_xyz
  1  'x, y, z'
loop_
 _atom_site_type_symbol
 _atom_site_label
 _atom_site_symmetry_multiplicity
 _atom_site_fract_x
 _atom_site_fract_y
 _atom_site_fract_z
 _atom_site_occupancy
  Lu  Lu0  1  0.000000  0.758394  0.246137  1
  Lu  Lu1  1  0.241606  0.241606  0.246137  1
  Lu  Lu2  1  0.758394  0.000000  0.246137  1
  Lu  Lu3  1  0.000000  0.241606  0.753863  1
  Lu  Lu4  1  0.758394  0.758394  0.753863  1
  Lu  Lu5  1  0.241606  0.000000  0.753863  1
  Lu  Lu6  1  0.333333  0.666667  0.500000  1
  Lu  Lu7  1  0.666667  0.333333  0.500000  1
  Lu  Lu8  1  0.666667  0.333333  0.000000  1
  Lu  Lu9  1  0.333333  0.666667  0.000000  1
  Pb  Pb10  1  0.000000  0.394381  0.249066  1
  Pb  Pb11  1  0.605619  0.605619  0.249066  1
  Pb  Pb12  1  0.394381  0.000000  0.249066  1
  Pb  Pb13  1  0.000000  0.605619  0.750934  1
  Pb  Pb14  1  0.394381  0.394381  0.750934  1
  Pb  Pb15  1  0.605619  0.000000  0.750934  1
  S  S16  1  0.000000  0.000000  0.500000  1
