# generated using pymatgen
data_Sc20Si13Se3
_symmetry_space_group_name_H-M   'P 1'
_cell_length_a   7.02360942
_cell_length_b   7.17053677
_cell_length_c   13.74670056
_cell_angle_alpha   90.30932905
_cell_angle_beta   86.65572043
_cell_angle_gamma   90.36621131
_symmetry_Int_Tables_number   1
_chemical_formula_structural   Sc20Si13Se3
_chemical_formula_sum   'Sc20 Si13 Se3'
_cell_volume   691.12387761
_cell_formula_units_Z   1
loop_
 _symmetry_equiv_pos_site_id
 _symmetry_equiv_pos_as_xyz
  1  'x, y, z'
loop_
 _atom_site_type_symbol
 _atom_site_label
 _atom_site_symmetry_multiplicity
 _atom_site_fract_x
 _atom_site_fract_y
 _atom_site_fract_z
 _atom_site_occupancy
  Sc  Sc0  1  0.204343  0.995694  0.756148  1
  Sc  Sc1  1  0.796042  0.004760  0.243553  1
  Sc  Sc2  1  0.295578  0.500035  0.244122  1
  Sc  Sc3  1  0.704095  0.499570  0.752652  1
  Sc  Sc4  1  0.044743  0.663544  0.612835  1
  Sc  Sc5  1  0.943217  0.333734  0.386867  1
  Sc  Sc6  1  0.458560  0.181194  0.388546  1
  Sc  Sc7  1  0.988780  0.322328  0.096819  1
  Sc  Sc8  1  0.553533  0.819216  0.614204  1
  Sc  Sc9  1  0.012275  0.677424  0.903114  1
  Sc  Sc10  1  0.512944  0.821062  0.902596  1
  Sc  Sc11  1  0.487381  0.178995  0.096881  1
  Sc  Sc12  1  0.390936  0.337759  0.620705  1
  Sc  Sc13  1  0.611935  0.661084  0.381372  1
  Sc  Sc14  1  0.107627  0.836542  0.378848  1
  Sc  Sc15  1  0.637098  0.678590  0.123585  1
  Sc  Sc16  1  0.888455  0.167981  0.620329  1
  Sc  Sc17  1  0.361581  0.322861  0.876596  1
  Sc  Sc18  1  0.861232  0.174897  0.875963  1
  Sc  Sc19  1  0.140112  0.826277  0.125120  1
  Si  Si20  1  0.078390  0.382198  0.748502  1
  Si  Si21  1  0.921374  0.618022  0.251399  1
  Si  Si22  1  0.423172  0.886584  0.254721  1
  Si  Si23  1  0.577757  0.114127  0.747262  1
  Si  Si24  1  0.327924  0.630044  0.753957  1
  Si  Si25  1  0.668934  0.370689  0.245479  1
  Si  Si26  1  0.171759  0.134401  0.249109  1
  Si  Si27  1  0.830496  0.866860  0.752389  1
  Si  Si28  1  0.818756  0.969031  0.039247  1
  Si  Si29  1  0.729898  0.482304  0.545368  1
  Si  Si30  1  0.183029  0.031016  0.961120  1
  Si  Si31  1  0.684201  0.466891  0.960960  1
  Si  Si32  1  0.315504  0.533899  0.039202  1
  Se  Se33  1  0.237726  0.007861  0.547265  1
  Se  Se34  1  0.768057  0.989813  0.451340  1
  Se  Se35  1  0.262558  0.512711  0.451824  1
