# generated using pymatgen
data_Er4Mn4Co16SiP11
_symmetry_space_group_name_H-M   'P 1'
_cell_length_a   3.64139900
_cell_length_b   10.29532913
_cell_length_c   11.79514015
_cell_angle_alpha   89.98185474
_cell_angle_beta   90.00000000
_cell_angle_gamma   90.00000000
_symmetry_Int_Tables_number   1
_chemical_formula_structural   Er4Mn4Co16SiP11
_chemical_formula_sum   'Er4 Mn4 Co16 Si1 P11'
_cell_volume   442.19271898
_cell_formula_units_Z   1
loop_
 _symmetry_equiv_pos_site_id
 _symmetry_equiv_pos_as_xyz
  1  'x, y, z'
loop_
 _atom_site_type_symbol
 _atom_site_label
 _atom_site_symmetry_multiplicity
 _atom_site_fract_x
 _atom_site_fract_y
 _atom_site_fract_z
 _atom_site_occupancy
  Er  Er0  1  0.250000  0.582325  0.703046  1
  Er  Er1  1  0.250000  0.918271  0.205205  1
  Er  Er2  1  0.750000  0.418848  0.297095  1
  Er  Er3  1  0.750000  0.082533  0.796099  1
  Mn  Mn4  1  0.250000  0.709175  0.991386  1
  Mn  Mn5  1  0.250000  0.789613  0.488831  1
  Mn  Mn6  1  0.750000  0.287943  0.010201  1
  Mn  Mn7  1  0.750000  0.208749  0.510555  1
  Co  Co8  1  0.250000  0.406808  0.488015  1
  Co  Co9  1  0.250000  0.093090  0.987477  1
  Co  Co10  1  0.750000  0.593800  0.512886  1
  Co  Co11  1  0.750000  0.906534  0.012359  1
  Co  Co12  1  0.250000  0.214238  0.176874  1
  Co  Co13  1  0.250000  0.278422  0.677328  1
  Co  Co14  1  0.750000  0.779475  0.822722  1
  Co  Co15  1  0.750000  0.721368  0.325143  1
  Co  Co16  1  0.250000  0.883711  0.699096  1
  Co  Co17  1  0.250000  0.619182  0.200025  1
  Co  Co18  1  0.750000  0.115343  0.301748  1
  Co  Co19  1  0.750000  0.383004  0.799832  1
  Co  Co20  1  0.250000  0.468061  0.927467  1
  Co  Co21  1  0.250000  0.034636  0.433406  1
  Co  Co22  1  0.750000  0.538055  0.065352  1
  Co  Co23  1  0.750000  0.965868  0.568308  1
  Si  Si24  1  0.250000  0.416383  0.110783  1
  P  P25  1  0.250000  0.080445  0.613967  1
  P  P26  1  0.750000  0.580781  0.885062  1
  P  P27  1  0.750000  0.918775  0.388070  1
  P  P28  1  0.250000  0.269820  0.869300  1
  P  P29  1  0.250000  0.231024  0.366406  1
  P  P30  1  0.750000  0.731196  0.134589  1
  P  P31  1  0.750000  0.769052  0.631592  1
  P  P32  1  0.250000  0.600521  0.391774  1
  P  P33  1  0.250000  0.901410  0.889874  1
  P  P34  1  0.750000  0.401206  0.609487  1
  P  P35  1  0.750000  0.100336  0.108637  1
