# generated using pymatgen
data_CeY(PPt)2
_symmetry_space_group_name_H-M   'P 1'
_cell_length_a   4.15527800
_cell_length_b   4.15527773
_cell_length_c   15.73731900
_cell_angle_alpha   90.00000000
_cell_angle_beta   90.00000000
_cell_angle_gamma   120.00000212
_symmetry_Int_Tables_number   1
_chemical_formula_structural   CeY(PPt)2
_chemical_formula_sum   'Ce2 Y2 P4 Pt4'
_cell_volume   235.32144797
_cell_formula_units_Z   2
loop_
 _symmetry_equiv_pos_site_id
 _symmetry_equiv_pos_as_xyz
  1  'x, y, z'
loop_
 _atom_site_type_symbol
 _atom_site_label
 _atom_site_symmetry_multiplicity
 _atom_site_fract_x
 _atom_site_fract_y
 _atom_site_fract_z
 _atom_site_occupancy
  Ce  Ce0  1  0.000000  0.000000  0.000000  1
  Ce  Ce1  1  0.000000  0.000000  0.500000  1
  Y  Y2  1  0.000000  0.000000  0.250000  1
  Y  Y3  1  0.000000  0.000000  0.750000  1
  P  P4  1  0.333333  0.666667  0.882008  1
  P  P5  1  0.666667  0.333333  0.382008  1
  P  P6  1  0.666667  0.333333  0.117992  1
  P  P7  1  0.333333  0.666667  0.617992  1
  Pt  Pt8  1  0.333333  0.666667  0.364715  1
  Pt  Pt9  1  0.666667  0.333333  0.864715  1
  Pt  Pt10  1  0.666667  0.333333  0.635285  1
  Pt  Pt11  1  0.333333  0.666667  0.135285  1
