# generated using pymatgen
data_Na2ThSe3
_symmetry_space_group_name_H-M   'P 1'
_cell_length_a   7.46277370
_cell_length_b   7.46277420
_cell_length_c   7.43125974
_cell_angle_alpha   80.21756881
_cell_angle_beta   80.21757058
_cell_angle_gamma   119.93484212
_symmetry_Int_Tables_number   1
_chemical_formula_structural   Na2ThSe3
_chemical_formula_sum   'Na4 Th2 Se6'
_cell_volume   337.35679652
_cell_formula_units_Z   2
loop_
 _symmetry_equiv_pos_site_id
 _symmetry_equiv_pos_as_xyz
  1  'x, y, z'
loop_
 _atom_site_type_symbol
 _atom_site_label
 _atom_site_symmetry_multiplicity
 _atom_site_fract_x
 _atom_site_fract_y
 _atom_site_fract_z
 _atom_site_occupancy
  Na  Na0  1  0.000000  0.000000  0.000000  1
  Na  Na1  1  0.500000  0.500000  0.500000  1
  Na  Na2  1  0.839068  0.160932  0.500000  1
  Na  Na3  1  0.160932  0.839068  0.500000  1
  Th  Th4  1  0.667395  0.332605  0.000000  1
  Th  Th5  1  0.332605  0.667395  0.000000  1
  Se  Se6  1  0.273421  0.273421  0.236489  1
  Se  Se7  1  0.431710  0.079229  0.765923  1
  Se  Se8  1  0.079229  0.431710  0.765923  1
  Se  Se9  1  0.726579  0.726579  0.763511  1
  Se  Se10  1  0.568290  0.920771  0.234077  1
  Se  Se11  1  0.920771  0.568290  0.234077  1
