# generated using pymatgen
data_Li2Tb3Ho(Co3P2)6
_symmetry_space_group_name_H-M   'P 1'
_cell_length_a   3.67423400
_cell_length_b   10.26531208
_cell_length_c   11.82574809
_cell_angle_alpha   89.98562000
_cell_angle_beta   90.00000000
_cell_angle_gamma   90.00000000
_symmetry_Int_Tables_number   1
_chemical_formula_structural   Li2Tb3Ho(Co3P2)6
_chemical_formula_sum   'Li2 Tb3 Ho1 Co18 P12'
_cell_volume   446.03360315
_cell_formula_units_Z   1
loop_
 _symmetry_equiv_pos_site_id
 _symmetry_equiv_pos_as_xyz
  1  'x, y, z'
loop_
 _atom_site_type_symbol
 _atom_site_label
 _atom_site_symmetry_multiplicity
 _atom_site_fract_x
 _atom_site_fract_y
 _atom_site_fract_z
 _atom_site_occupancy
  Li  Li0  1  0.250000  0.702566  0.990522  1
  Li  Li1  1  0.250000  0.797349  0.490926  1
  Tb  Tb2  1  0.250000  0.919997  0.201843  1
  Tb  Tb3  1  0.750000  0.419454  0.297688  1
  Tb  Tb4  1  0.750000  0.080699  0.797571  1
  Ho  Ho5  1  0.250000  0.579883  0.701892  1
  Co  Co6  1  0.750000  0.289092  0.008856  1
  Co  Co7  1  0.750000  0.211151  0.509480  1
  Co  Co8  1  0.250000  0.403843  0.487839  1
  Co  Co9  1  0.250000  0.096438  0.987489  1
  Co  Co10  1  0.750000  0.590997  0.514981  1
  Co  Co11  1  0.750000  0.909266  0.013767  1
  Co  Co12  1  0.250000  0.223588  0.174768  1
  Co  Co13  1  0.250000  0.276696  0.674851  1
  Co  Co14  1  0.750000  0.780017  0.825896  1
  Co  Co15  1  0.750000  0.719434  0.326289  1
  Co  Co16  1  0.250000  0.880948  0.698465  1
  Co  Co17  1  0.250000  0.618479  0.198236  1
  Co  Co18  1  0.750000  0.120475  0.300423  1
  Co  Co19  1  0.750000  0.380157  0.799873  1
  Co  Co20  1  0.250000  0.464361  0.931133  1
  Co  Co21  1  0.250000  0.035849  0.431883  1
  Co  Co22  1  0.750000  0.532739  0.065754  1
  Co  Co23  1  0.750000  0.966853  0.566380  1
  P  P24  1  0.250000  0.421811  0.111387  1
  P  P25  1  0.250000  0.078161  0.611776  1
  P  P26  1  0.750000  0.577844  0.883767  1
  P  P27  1  0.750000  0.922221  0.384680  1
  P  P28  1  0.250000  0.269145  0.867149  1
  P  P29  1  0.250000  0.230953  0.367363  1
  P  P30  1  0.750000  0.728356  0.137953  1
  P  P31  1  0.750000  0.770374  0.638101  1
  P  P32  1  0.250000  0.601453  0.393370  1
  P  P33  1  0.250000  0.898559  0.893252  1
  P  P34  1  0.750000  0.396088  0.607410  1
  P  P35  1  0.750000  0.104701  0.106989  1
