# generated using pymatgen
data_Hf3GaRe3Si2
_symmetry_space_group_name_H-M   'P 1'
_cell_length_a   7.03842300
_cell_length_b   7.03842315
_cell_length_c   3.39954800
_cell_angle_alpha   90.00000000
_cell_angle_beta   90.00000000
_cell_angle_gamma   120.00000402
_symmetry_Int_Tables_number   1
_chemical_formula_structural   Hf3GaRe3Si2
_chemical_formula_sum   'Hf3 Ga1 Re3 Si2'
_cell_volume   145.84868853
_cell_formula_units_Z   1
loop_
 _symmetry_equiv_pos_site_id
 _symmetry_equiv_pos_as_xyz
  1  'x, y, z'
loop_
 _atom_site_type_symbol
 _atom_site_label
 _atom_site_symmetry_multiplicity
 _atom_site_fract_x
 _atom_site_fract_y
 _atom_site_fract_z
 _atom_site_occupancy
  Hf  Hf0  1  0.395936  0.403311  0.500000  1
  Hf  Hf1  1  0.596689  0.992626  0.500000  1
  Hf  Hf2  1  0.007374  0.604064  0.500000  1
  Ga  Ga3  1  0.666667  0.333333  0.000000  1
  Re  Re4  1  0.741269  0.748190  0.000000  1
  Re  Re5  1  0.251810  0.993079  0.000000  1
  Re  Re6  1  0.006921  0.258731  0.000000  1
  Si  Si7  1  0.333333  0.666667  0.000000  1
  Si  Si8  1  0.000000  0.000000  0.500000  1
