# generated using pymatgen
data_Li4Sm3Y(Si2Sn)2
_symmetry_space_group_name_H-M   'P 1'
_cell_length_a   9.68207003
_cell_length_b   9.68206928
_cell_length_c   6.79251800
_cell_angle_alpha   90.00000000
_cell_angle_beta   90.00000000
_cell_angle_gamma   153.28074566
_symmetry_Int_Tables_number   1
_chemical_formula_structural   Li4Sm3Y(Si2Sn)2
_chemical_formula_sum   'Li4 Sm3 Y1 Si4 Sn2'
_cell_volume   286.29386688
_cell_formula_units_Z   1
loop_
 _symmetry_equiv_pos_site_id
 _symmetry_equiv_pos_as_xyz
  1  'x, y, z'
loop_
 _atom_site_type_symbol
 _atom_site_label
 _atom_site_symmetry_multiplicity
 _atom_site_fract_x
 _atom_site_fract_y
 _atom_site_fract_z
 _atom_site_occupancy
  Li  Li0  1  0.815568  0.184432  0.554069  1
  Li  Li1  1  0.184363  0.815637  0.445842  1
  Li  Li2  1  0.184363  0.815637  0.054158  1
  Li  Li3  1  0.815568  0.184432  0.945931  1
  Sm  Sm4  1  0.451890  0.548110  0.750000  1
  Sm  Sm5  1  0.350822  0.649178  0.250000  1
  Sm  Sm6  1  0.649227  0.350773  0.750000  1
  Y  Y7  1  0.548160  0.451840  0.250000  1
  Si  Si8  1  0.942678  0.057322  0.073871  1
  Si  Si9  1  0.057538  0.942462  0.927316  1
  Si  Si10  1  0.057538  0.942462  0.572684  1
  Si  Si11  1  0.942678  0.057322  0.426129  1
  Sn  Sn12  1  0.718519  0.281481  0.250000  1
  Sn  Sn13  1  0.281091  0.718909  0.750000  1
