# generated using pymatgen
data_Cs4InGa3I16
_symmetry_space_group_name_H-M   'P 1'
_cell_length_a   19.22159061
_cell_length_b   7.66004903
_cell_length_c   8.89577291
_cell_angle_alpha   71.18719185
_cell_angle_beta   90.27678613
_cell_angle_gamma   90.50828490
_symmetry_Int_Tables_number   1
_chemical_formula_structural   Cs4InGa3I16
_chemical_formula_sum   'Cs4 In1 Ga3 I16'
_cell_volume   1239.77412343
_cell_formula_units_Z   1
loop_
 _symmetry_equiv_pos_site_id
 _symmetry_equiv_pos_as_xyz
  1  'x, y, z'
loop_
 _atom_site_type_symbol
 _atom_site_label
 _atom_site_symmetry_multiplicity
 _atom_site_fract_x
 _atom_site_fract_y
 _atom_site_fract_z
 _atom_site_occupancy
  Cs  Cs0  1  0.869235  0.183277  0.704905  1
  Cs  Cs1  1  0.628872  0.182787  0.205523  1
  Cs  Cs2  1  0.372571  0.815438  0.793778  1
  Cs  Cs3  1  0.128664  0.818073  0.292265  1
  In  In4  1  0.128691  0.191919  0.704144  1
  Ga  Ga5  1  0.870761  0.810568  0.298175  1
  Ga  Ga6  1  0.371840  0.189036  0.201270  1
  Ga  Ga7  1  0.628956  0.810306  0.798536  1
  I  I8  1  0.252493  0.382213  0.636009  1
  I  I9  1  0.050837  0.276957  0.427265  1
  I  I10  1  0.755530  0.627104  0.359683  1
  I  I11  1  0.555950  0.729648  0.058389  1
  I  I12  1  0.655475  0.163906  0.705241  1
  I  I13  1  0.844024  0.162850  0.205916  1
  I  I14  1  0.445158  0.270617  0.941577  1
  I  I15  1  0.255971  0.365044  0.142492  1
  I  I16  1  0.744150  0.631483  0.858707  1
  I  I17  1  0.944620  0.730442  0.557911  1
  I  I18  1  0.444675  0.269664  0.415720  1
  I  I19  1  0.941469  0.732275  0.081689  1
  I  I20  1  0.344915  0.836062  0.293922  1
  I  I21  1  0.157476  0.818081  0.801884  1
  I  I22  1  0.556953  0.729635  0.582740  1
  I  I23  1  0.050714  0.272614  0.932257  1
