# generated using pymatgen
data_Yb3Ga6Ni7Pd2
_symmetry_space_group_name_H-M   'P 1'
_cell_length_a   8.97598600
_cell_length_b   9.15962493
_cell_length_c   3.90290600
_cell_angle_alpha   90.00000000
_cell_angle_beta   90.00000000
_cell_angle_gamma   119.33897983
_symmetry_Int_Tables_number   1
_chemical_formula_structural   Yb3Ga6Ni7Pd2
_chemical_formula_sum   'Yb3 Ga6 Ni7 Pd2'
_cell_volume   279.72610321
_cell_formula_units_Z   1
loop_
 _symmetry_equiv_pos_site_id
 _symmetry_equiv_pos_as_xyz
  1  'x, y, z'
loop_
 _atom_site_type_symbol
 _atom_site_label
 _atom_site_symmetry_multiplicity
 _atom_site_fract_x
 _atom_site_fract_y
 _atom_site_fract_z
 _atom_site_occupancy
  Yb  Yb0  1  0.000000  0.000000  0.000000  1
  Yb  Yb1  1  0.670099  0.340197  0.500000  1
  Yb  Yb2  1  0.329901  0.659803  0.500000  1
  Ga  Ga3  1  0.694201  0.700290  0.500000  1
  Ga  Ga4  1  0.328040  0.000000  0.500000  1
  Ga  Ga5  1  0.993911  0.299710  0.500000  1
  Ga  Ga6  1  0.305799  0.299710  0.500000  1
  Ga  Ga7  1  0.671960  0.000000  0.500000  1
  Ga  Ga8  1  0.006089  0.700290  0.500000  1
  Ni  Ni9  1  0.500000  0.000000  0.000000  1
  Ni  Ni10  1  0.817887  0.169395  0.000000  1
  Ni  Ni11  1  0.832215  0.664429  0.000000  1
  Ni  Ni12  1  0.351509  0.169395  0.000000  1
  Ni  Ni13  1  0.182113  0.830605  0.000000  1
  Ni  Ni14  1  0.648491  0.830605  0.000000  1
  Ni  Ni15  1  0.167785  0.335571  0.000000  1
  Pd  Pd16  1  0.500000  0.500000  0.000000  1
  Pd  Pd17  1  0.000000  0.500000  0.000000  1
