# generated using pymatgen
data_Tb4Al18IrRu3Au2
_symmetry_space_group_name_H-M   'P 1'
_cell_length_a   7.63563550
_cell_length_b   7.63562440
_cell_length_c   9.54870287
_cell_angle_alpha   90.03630089
_cell_angle_beta   90.03640494
_cell_angle_gamma   119.27031292
_symmetry_Int_Tables_number   1
_chemical_formula_structural   Tb4Al18IrRu3Au2
_chemical_formula_sum   'Tb4 Al18 Ir1 Ru3 Au2'
_cell_volume   485.63610583
_cell_formula_units_Z   1
loop_
 _symmetry_equiv_pos_site_id
 _symmetry_equiv_pos_as_xyz
  1  'x, y, z'
loop_
 _atom_site_type_symbol
 _atom_site_label
 _atom_site_symmetry_multiplicity
 _atom_site_fract_x
 _atom_site_fract_y
 _atom_site_fract_z
 _atom_site_occupancy
  Tb  Tb0  1  0.996749  0.677586  0.249986  1
  Tb  Tb1  1  0.002750  0.321881  0.749781  1
  Tb  Tb2  1  0.678118  0.997250  0.250219  1
  Tb  Tb3  1  0.322413  0.003251  0.750014  1
  Al  Al4  1  0.144934  0.144372  0.250087  1
  Al  Al5  1  0.855628  0.855066  0.749914  1
  Al  Al6  1  0.003334  0.347887  0.076246  1
  Al  Al7  1  0.997564  0.651501  0.923932  1
  Al  Al8  1  0.999520  0.654685  0.577483  1
  Al  Al9  1  0.345315  0.000480  0.422517  1
  Al  Al10  1  0.004655  0.347959  0.422875  1
  Al  Al11  1  0.652041  0.995345  0.577125  1
  Al  Al12  1  0.652113  0.996667  0.923754  1
  Al  Al13  1  0.348499  0.002436  0.076068  1
  Al  Al14  1  0.342319  0.345256  0.554950  1
  Al  Al15  1  0.654744  0.657681  0.445050  1
  Al  Al16  1  0.656105  0.655790  0.053359  1
  Al  Al17  1  0.344210  0.343895  0.946641  1
  Al  Al18  1  0.337958  0.556481  0.249631  1
  Al  Al19  1  0.662521  0.445746  0.751671  1
  Al  Al20  1  0.554254  0.337479  0.248329  1
  Al  Al21  1  0.443519  0.662042  0.750369  1
  Ir  Ir22  1  0.672171  0.327829  0.500000  1
  Ru  Ru23  1  0.672715  0.327284  0.000000  1
  Ru  Ru24  1  0.327995  0.672006  0.000000  1
  Ru  Ru25  1  0.327613  0.672388  0.500000  1
  Au  Au26  1  0.000363  0.999637  0.000000  1
  Au  Au27  1  0.999880  0.000120  0.500000  1
