# generated using pymatgen
data_BeV10Ge3P2
_symmetry_space_group_name_H-M   'P 1'
_cell_length_a   9.42298031
_cell_length_b   7.03494140
_cell_length_c   7.07437465
_cell_angle_alpha   83.79073819
_cell_angle_beta   47.94165839
_cell_angle_gamma   48.33564441
_symmetry_Int_Tables_number   1
_chemical_formula_structural   BeV10Ge3P2
_chemical_formula_sum   'Be1 V10 Ge3 P2'
_cell_volume   206.54028310
_cell_formula_units_Z   1
loop_
 _symmetry_equiv_pos_site_id
 _symmetry_equiv_pos_as_xyz
  1  'x, y, z'
loop_
 _atom_site_type_symbol
 _atom_site_label
 _atom_site_symmetry_multiplicity
 _atom_site_fract_x
 _atom_site_fract_y
 _atom_site_fract_z
 _atom_site_occupancy
  Be  Be0  1  0.250435  0.250534  0.249546  1
  V  V1  1  0.786756  0.426326  0.567817  1
  V  V2  1  0.223441  0.562953  0.430189  1
  V  V3  1  0.713238  0.929991  0.078742  1
  V  V4  1  0.282620  0.082635  0.923982  1
  V  V5  1  0.929765  0.713367  0.277998  1
  V  V6  1  0.083682  0.282382  0.709838  1
  V  V7  1  0.425177  0.788056  0.219791  1
  V  V8  1  0.563434  0.223312  0.783366  1
  V  V9  1  0.742964  0.246548  0.257490  1
  V  V10  1  0.247016  0.742953  0.752740  1
  Ge  Ge11  1  0.664380  0.664334  0.335496  1
  Ge  Ge12  1  0.168501  0.833670  0.165619  1
  Ge  Ge13  1  0.833742  0.168669  0.832100  1
  P  P14  1  0.750666  0.750700  0.749273  1
  P  P15  1  0.334186  0.333572  0.666014  1
