# generated using pymatgen
data_Tm8TcB24RuW2
_symmetry_space_group_name_H-M   'P 1'
_cell_length_a   3.60287000
_cell_length_b   9.16377467
_cell_length_c   11.54467323
_cell_angle_alpha   89.93254217
_cell_angle_beta   90.00000000
_cell_angle_gamma   90.00000000
_symmetry_Int_Tables_number   1
_chemical_formula_structural   Tm8TcB24RuW2
_chemical_formula_sum   'Tm8 Tc1 B24 Ru1 W2'
_cell_volume   381.15738387
_cell_formula_units_Z   1
loop_
 _symmetry_equiv_pos_site_id
 _symmetry_equiv_pos_as_xyz
  1  'x, y, z'
loop_
 _atom_site_type_symbol
 _atom_site_label
 _atom_site_symmetry_multiplicity
 _atom_site_fract_x
 _atom_site_fract_y
 _atom_site_fract_z
 _atom_site_occupancy
  Tm  Tm0  1  0.000000  0.323915  0.412865  1
  Tm  Tm1  1  0.000000  0.678224  0.583467  1
  Tm  Tm2  1  0.000000  0.819501  0.087351  1
  Tm  Tm3  1  0.000000  0.177871  0.913739  1
  Tm  Tm4  1  0.000000  0.940498  0.372473  1
  Tm  Tm5  1  0.000000  0.054118  0.629379  1
  Tm  Tm6  1  0.000000  0.446603  0.129127  1
  Tm  Tm7  1  0.000000  0.559538  0.871680  1
  Tc  Tc8  1  0.000000  0.639256  0.320225  1
  B  B9  1  0.500000  0.553384  0.432119  1
  B  B10  1  0.500000  0.449656  0.563874  1
  B  B11  1  0.500000  0.049992  0.063615  1
  B  B12  1  0.500000  0.945676  0.932190  1
  B  B13  1  0.500000  0.748244  0.419260  1
  B  B14  1  0.500000  0.247547  0.577897  1
  B  B15  1  0.500000  0.252923  0.077918  1
  B  B16  1  0.500000  0.751824  0.919194  1
  B  B17  1  0.500000  0.791525  0.266151  1
  B  B18  1  0.500000  0.204074  0.736956  1
  B  B19  1  0.500000  0.295697  0.236081  1
  B  B20  1  0.500000  0.709430  0.765665  1
  B  B21  1  0.500000  0.631651  0.185613  1
  B  B22  1  0.500000  0.369528  0.818159  1
  B  B23  1  0.500000  0.130323  0.317330  1
  B  B24  1  0.500000  0.868354  0.685447  1
  B  B25  1  0.500000  0.976359  0.212713  1
  B  B26  1  0.500000  0.016493  0.788083  1
  B  B27  1  0.500000  0.482733  0.287716  1
  B  B28  1  0.500000  0.523618  0.712406  1
  B  B29  1  0.500000  0.604163  0.028510  1
  B  B30  1  0.500000  0.400452  0.971939  1
  B  B31  1  0.500000  0.100340  0.472207  1
  B  B32  1  0.500000  0.896311  0.529369  1
  Ru  Ru33  1  0.000000  0.861053  0.820608  1
  W  W34  1  0.000000  0.361170  0.679914  1
  W  W35  1  0.000000  0.137955  0.178762  1
