# generated using pymatgen
data_DyY3Tm16(CoSb2)4
_symmetry_space_group_name_H-M   'P 1'
_cell_length_a   7.78975108
_cell_length_b   8.72675200
_cell_length_c   12.10456866
_cell_angle_alpha   90.00000000
_cell_angle_beta   90.06017587
_cell_angle_gamma   90.00000000
_symmetry_Int_Tables_number   1
_chemical_formula_structural   DyY3Tm16(CoSb2)4
_chemical_formula_sum   'Dy1 Y3 Tm16 Co4 Sb8'
_cell_volume   822.85875251
_cell_formula_units_Z   1
loop_
 _symmetry_equiv_pos_site_id
 _symmetry_equiv_pos_as_xyz
  1  'x, y, z'
loop_
 _atom_site_type_symbol
 _atom_site_label
 _atom_site_symmetry_multiplicity
 _atom_site_fract_x
 _atom_site_fract_y
 _atom_site_fract_z
 _atom_site_occupancy
  Dy  Dy0  1  0.121462  0.250000  0.192848  1
  Y  Y1  1  0.622067  0.750000  0.306583  1
  Y  Y2  1  0.877999  0.750000  0.806629  1
  Y  Y3  1  0.377986  0.250000  0.693380  1
  Tm  Tm4  1  0.154842  0.750000  0.203168  1
  Tm  Tm5  1  0.345186  0.750000  0.703148  1
  Tm  Tm6  1  0.845104  0.250000  0.796735  1
  Tm  Tm7  1  0.655047  0.250000  0.296841  1
  Tm  Tm8  1  0.450307  0.750000  0.998071  1
  Tm  Tm9  1  0.049754  0.750000  0.497933  1
  Tm  Tm10  1  0.549753  0.250000  0.002011  1
  Tm  Tm11  1  0.950182  0.250000  0.501921  1
  Tm  Tm12  1  0.823200  0.536363  0.065325  1
  Tm  Tm13  1  0.676882  0.963828  0.565237  1
  Tm  Tm14  1  0.176880  0.036259  0.934835  1
  Tm  Tm15  1  0.323058  0.463514  0.434654  1
  Tm  Tm16  1  0.176880  0.463741  0.934835  1
  Tm  Tm17  1  0.323058  0.036486  0.434654  1
  Tm  Tm18  1  0.823200  0.963637  0.065325  1
  Tm  Tm19  1  0.676882  0.536172  0.565237  1
  Co  Co20  1  0.432163  0.750000  0.492185  1
  Co  Co21  1  0.067753  0.750000  0.992073  1
  Co  Co22  1  0.567788  0.250000  0.507848  1
  Co  Co23  1  0.932929  0.250000  0.008590  1
  Sb  Sb24  1  0.930105  0.508752  0.328136  1
  Sb  Sb25  1  0.569870  0.991233  0.828165  1
  Sb  Sb26  1  0.069788  0.008794  0.671864  1
  Sb  Sb27  1  0.430056  0.491156  0.171801  1
  Sb  Sb28  1  0.069788  0.491206  0.671864  1
  Sb  Sb29  1  0.430056  0.008844  0.171801  1
  Sb  Sb30  1  0.930105  0.991248  0.328136  1
  Sb  Sb31  1  0.569870  0.508767  0.828165  1
