# generated using pymatgen
data_Sr2Li4SiGe
_symmetry_space_group_name_H-M   'P 1'
_cell_length_a   4.62404300
_cell_length_b   6.18504900
_cell_length_c   6.36644700
_cell_angle_alpha   90.00000000
_cell_angle_beta   90.00000000
_cell_angle_gamma   90.00000000
_symmetry_Int_Tables_number   1
_chemical_formula_structural   Sr2Li4SiGe
_chemical_formula_sum   'Sr2 Li4 Si1 Ge1'
_cell_volume   182.07995468
_cell_formula_units_Z   1
loop_
 _symmetry_equiv_pos_site_id
 _symmetry_equiv_pos_as_xyz
  1  'x, y, z'
loop_
 _atom_site_type_symbol
 _atom_site_label
 _atom_site_symmetry_multiplicity
 _atom_site_fract_x
 _atom_site_fract_y
 _atom_site_fract_z
 _atom_site_occupancy
  Sr  Sr0  1  0.000000  0.906034  0.000000  1
  Sr  Sr1  1  0.500000  0.091182  0.500000  1
  Li  Li2  1  0.000000  0.403026  0.790779  1
  Li  Li3  1  0.500000  0.598708  0.706256  1
  Li  Li4  1  0.500000  0.598708  0.293744  1
  Li  Li5  1  0.000000  0.403026  0.209221  1
  Si  Si6  1  0.000000  0.712158  0.500000  1
  Ge  Ge7  1  0.500000  0.287159  0.000000  1
