# generated using pymatgen
data_Ti8Al14GaIr(PtRh2)2
_symmetry_space_group_name_H-M   'P 1'
_cell_length_a   8.66494050
_cell_length_b   8.65386689
_cell_length_c   8.66494100
_cell_angle_alpha   120.02136688
_cell_angle_beta   119.89746303
_cell_angle_gamma   90.10712092
_symmetry_Int_Tables_number   1
_chemical_formula_structural   Ti8Al14GaIr(PtRh2)2
_chemical_formula_sum   'Ti8 Al14 Ga1 Ir1 Pt2 Rh4'
_cell_volume   459.57031951
_cell_formula_units_Z   1
loop_
 _symmetry_equiv_pos_site_id
 _symmetry_equiv_pos_as_xyz
  1  'x, y, z'
loop_
 _atom_site_type_symbol
 _atom_site_label
 _atom_site_symmetry_multiplicity
 _atom_site_fract_x
 _atom_site_fract_y
 _atom_site_fract_z
 _atom_site_occupancy
  Ti  Ti0  1  0.789963  0.292503  0.077467  1
  Ti  Ti1  1  0.215043  0.292540  0.502562  1
  Ti  Ti2  1  0.208412  0.709202  0.500806  1
  Ti  Ti3  1  0.213295  0.712439  0.919877  1
  Ti  Ti4  1  0.792518  0.712505  0.499167  1
  Ti  Ti5  1  0.785826  0.285733  0.499928  1
  Ti  Ti6  1  0.382446  0.127273  0.744884  1
  Ti  Ti7  1  0.379449  0.636157  0.256540  1
  Al  Al8  1  0.154616  0.344409  0.189748  1
  Al  Al9  1  0.154783  0.969276  0.814659  1
  Al  Al10  1  0.150873  0.346687  0.809420  1
  Al  Al11  1  0.537211  0.346566  0.195715  1
  Al  Al12  1  0.844081  0.654065  0.810131  1
  Al  Al13  1  0.846666  0.034414  0.187711  1
  Al  Al14  1  0.841695  0.653224  0.181932  1
  Al  Al15  1  0.471215  0.653259  0.811591  1
  Al  Al16  1  0.376935  0.123218  0.261992  1
  Al  Al17  1  0.861240  0.123348  0.746359  1
  Al  Al18  1  0.618710  0.875481  0.256595  1
  Al  Al19  1  0.621768  0.363825  0.742037  1
  Al  Al20  1  0.622731  0.876380  0.738969  1
  Al  Al21  1  0.137432  0.876340  0.253571  1
  Ga  Ga22  1  0.997393  0.496081  0.498842  1
  Ir  Ir23  1  0.497089  0.497908  0.000817  1
  Pt  Pt24  1  0.999945  0.999361  0.499901  1
  Pt  Pt25  1  0.499475  0.999306  0.999400  1
  Rh  Rh26  1  0.498557  0.499618  0.498500  1
  Rh  Rh27  1  0.001141  0.499619  0.001105  1
  Rh  Rh28  1  0.000409  0.999947  0.999540  1
  Rh  Rh29  1  0.499078  0.999316  0.500235  1
