# generated using pymatgen
data_Cd2HgBi(Rh2O7)2
_symmetry_space_group_name_H-M   'P 1'
_cell_length_a   7.32274295
_cell_length_b   7.25813043
_cell_length_c   7.32274265
_cell_angle_alpha   59.23534075
_cell_angle_beta   59.25416810
_cell_angle_gamma   59.23533852
_symmetry_Int_Tables_number   1
_chemical_formula_structural   Cd2HgBi(Rh2O7)2
_chemical_formula_sum   'Cd2 Hg1 Bi1 Rh4 O14'
_cell_volume   270.45158539
_cell_formula_units_Z   1
loop_
 _symmetry_equiv_pos_site_id
 _symmetry_equiv_pos_as_xyz
  1  'x, y, z'
loop_
 _atom_site_type_symbol
 _atom_site_label
 _atom_site_symmetry_multiplicity
 _atom_site_fract_x
 _atom_site_fract_y
 _atom_site_fract_z
 _atom_site_occupancy
  Cd  Cd0  1  0.625000  0.125000  0.125000  1
  Cd  Cd1  1  0.125000  0.125000  0.625000  1
  Hg  Hg2  1  0.125000  0.625000  0.125000  1
  Bi  Bi3  1  0.125000  0.125000  0.125000  1
  Rh  Rh4  1  0.625000  0.625000  0.625000  1
  Rh  Rh5  1  0.625000  0.625000  0.125000  1
  Rh  Rh6  1  0.125000  0.625000  0.625000  1
  Rh  Rh7  1  0.625000  0.125000  0.625000  1
  O  O8  1  0.246543  0.260623  0.246543  1
  O  O9  1  0.296668  0.713333  0.296668  1
  O  O10  1  0.957857  0.958753  0.535981  1
  O  O11  1  0.549524  0.953011  0.549524  1
  O  O12  1  0.693276  0.704196  0.299135  1
  O  O13  1  0.950865  0.545804  0.556724  1
  O  O14  1  0.700476  0.296989  0.700476  1
  O  O15  1  0.292143  0.291247  0.714019  1
  O  O16  1  0.714019  0.291247  0.292143  1
  O  O17  1  0.299135  0.704196  0.693276  1
  O  O18  1  0.953332  0.536667  0.953332  1
  O  O19  1  0.556724  0.545804  0.950865  1
  O  O20  1  0.003457  0.989377  0.003457  1
  O  O21  1  0.535981  0.958753  0.957857  1
