# generated using pymatgen
data_YTa(FeGe)2
_symmetry_space_group_name_H-M   'P 1'
_cell_length_a   4.12570200
_cell_length_b   4.12570086
_cell_length_c   13.42581200
_cell_angle_alpha   90.00000000
_cell_angle_beta   90.00000000
_cell_angle_gamma   119.99999311
_symmetry_Int_Tables_number   1
_chemical_formula_structural   YTa(FeGe)2
_chemical_formula_sum   'Y2 Ta2 Fe4 Ge4'
_cell_volume   197.90957877
_cell_formula_units_Z   2
loop_
 _symmetry_equiv_pos_site_id
 _symmetry_equiv_pos_as_xyz
  1  'x, y, z'
loop_
 _atom_site_type_symbol
 _atom_site_label
 _atom_site_symmetry_multiplicity
 _atom_site_fract_x
 _atom_site_fract_y
 _atom_site_fract_z
 _atom_site_occupancy
  Y  Y0  1  0.000000  0.000000  0.250000  1
  Y  Y1  1  0.000000  0.000000  0.750000  1
  Ta  Ta2  1  0.000000  0.000000  0.000000  1
  Ta  Ta3  1  0.000000  0.000000  0.500000  1
  Fe  Fe4  1  0.666666  0.333333  0.064611  1
  Fe  Fe5  1  0.666666  0.333333  0.435389  1
  Fe  Fe6  1  0.333333  0.666666  0.564611  1
  Fe  Fe7  1  0.333333  0.666666  0.935389  1
  Ge  Ge8  1  0.333333  0.666666  0.119520  1
  Ge  Ge9  1  0.333333  0.666666  0.380480  1
  Ge  Ge10  1  0.666666  0.333333  0.619520  1
  Ge  Ge11  1  0.666666  0.333333  0.880480  1
