# generated using pymatgen
data_ScTiNb5Sn6
_symmetry_space_group_name_H-M   'P 1'
_cell_length_a   5.76513935
_cell_length_b   5.76513899
_cell_length_c   9.65183600
_cell_angle_alpha   90.00000000
_cell_angle_beta   90.00000000
_cell_angle_gamma   119.87637564
_symmetry_Int_Tables_number   1
_chemical_formula_structural   ScTiNb5Sn6
_chemical_formula_sum   'Sc1 Ti1 Nb5 Sn6'
_cell_volume   278.16329388
_cell_formula_units_Z   1
loop_
 _symmetry_equiv_pos_site_id
 _symmetry_equiv_pos_as_xyz
  1  'x, y, z'
loop_
 _atom_site_type_symbol
 _atom_site_label
 _atom_site_symmetry_multiplicity
 _atom_site_fract_x
 _atom_site_fract_y
 _atom_site_fract_z
 _atom_site_occupancy
  Sc  Sc0  1  0.000000  0.000000  0.002584  1
  Ti  Ti1  1  0.500000  0.500000  0.750970  1
  Nb  Nb2  1  0.500000  0.000000  0.750756  1
  Nb  Nb3  1  0.000000  0.500000  0.750756  1
  Nb  Nb4  1  0.500000  0.000000  0.247415  1
  Nb  Nb5  1  0.500000  0.500000  0.249997  1
  Nb  Nb6  1  0.000000  0.500000  0.247415  1
  Sn  Sn7  1  0.000000  0.000000  0.691767  1
  Sn  Sn8  1  0.000000  0.000000  0.310919  1
  Sn  Sn9  1  0.334589  0.665411  0.500423  1
  Sn  Sn10  1  0.665411  0.334589  0.500423  1
  Sn  Sn11  1  0.334849  0.665151  0.998288  1
  Sn  Sn12  1  0.665151  0.334849  0.998288  1
