# generated using pymatgen
data_Dy2Zr3Si4
_symmetry_space_group_name_H-M   'P 1'
_cell_length_a   7.33343391
_cell_length_b   7.34314300
_cell_length_c   7.12430532
_cell_angle_alpha   90.00000000
_cell_angle_beta   108.16575345
_cell_angle_gamma   90.00000000
_symmetry_Int_Tables_number   1
_chemical_formula_structural   Dy2Zr3Si4
_chemical_formula_sum   'Dy4 Zr6 Si8'
_cell_volume   364.52555592
_cell_formula_units_Z   2
loop_
 _symmetry_equiv_pos_site_id
 _symmetry_equiv_pos_as_xyz
  1  'x, y, z'
loop_
 _atom_site_type_symbol
 _atom_site_label
 _atom_site_symmetry_multiplicity
 _atom_site_fract_x
 _atom_site_fract_y
 _atom_site_fract_z
 _atom_site_occupancy
  Dy  Dy0  1  0.191531  0.172598  0.073245  1
  Dy  Dy1  1  0.808469  0.672598  0.426756  1
  Dy  Dy2  1  0.191531  0.327402  0.573244  1
  Dy  Dy3  1  0.808469  0.827402  0.926756  1
  Zr  Zr4  1  0.500000  0.500000  0.000001  1
  Zr  Zr5  1  0.251878  0.680691  0.249214  1
  Zr  Zr6  1  0.748122  0.180691  0.250785  1
  Zr  Zr7  1  0.500001  0.000000  0.500000  1
  Zr  Zr8  1  0.251878  0.819309  0.749215  1
  Zr  Zr9  1  0.748121  0.319309  0.750785  1
  Si  Si10  1  0.508967  0.877197  0.127710  1
  Si  Si11  1  0.919697  0.467846  0.130747  1
  Si  Si12  1  0.080303  0.967846  0.369254  1
  Si  Si13  1  0.491033  0.377197  0.372289  1
  Si  Si14  1  0.508966  0.622802  0.627709  1
  Si  Si15  1  0.919697  0.032154  0.630747  1
  Si  Si16  1  0.080303  0.532153  0.869253  1
  Si  Si17  1  0.491033  0.122802  0.872290  1
