# generated using pymatgen
data_SrFe3As12Pt
_symmetry_space_group_name_H-M   'P 1'
_cell_length_a   7.32632932
_cell_length_b   7.32633089
_cell_length_c   7.32633043
_cell_angle_alpha   109.54937445
_cell_angle_beta   109.54937901
_cell_angle_gamma   109.54936527
_symmetry_Int_Tables_number   1
_chemical_formula_structural   SrFe3As12Pt
_chemical_formula_sum   'Sr1 Fe3 As12 Pt1'
_cell_volume   301.83844060
_cell_formula_units_Z   1
loop_
 _symmetry_equiv_pos_site_id
 _symmetry_equiv_pos_as_xyz
  1  'x, y, z'
loop_
 _atom_site_type_symbol
 _atom_site_label
 _atom_site_symmetry_multiplicity
 _atom_site_fract_x
 _atom_site_fract_y
 _atom_site_fract_z
 _atom_site_occupancy
  Sr  Sr0  1  0.000000  0.000000  0.000000  1
  Fe  Fe1  1  0.000000  0.000000  0.500000  1
  Fe  Fe2  1  0.500000  0.000000  0.000000  1
  Fe  Fe3  1  0.000000  0.500000  0.000000  1
  As  As4  1  0.156912  0.814328  0.658449  1
  As  As5  1  0.843088  0.185672  0.341551  1
  As  As6  1  0.658449  0.156912  0.814328  1
  As  As7  1  0.500008  0.662193  0.862499  1
  As  As8  1  0.662193  0.862499  0.500008  1
  As  As9  1  0.499992  0.337807  0.137501  1
  As  As10  1  0.341551  0.843088  0.185672  1
  As  As11  1  0.185672  0.341551  0.843088  1
  As  As12  1  0.814328  0.658449  0.156912  1
  As  As13  1  0.337807  0.137501  0.499992  1
  As  As14  1  0.862499  0.500008  0.662193  1
  As  As15  1  0.137501  0.499992  0.337807  1
  Pt  Pt16  1  0.500000  0.500000  0.500000  1
