# generated using pymatgen
data_NaTb9(Bi3C)2
_symmetry_space_group_name_H-M   'P 1'
_cell_length_a   9.17328200
_cell_length_b   9.17328315
_cell_length_c   6.54341100
_cell_angle_alpha   90.00000000
_cell_angle_beta   90.00000000
_cell_angle_gamma   120.00000306
_symmetry_Int_Tables_number   1
_chemical_formula_structural   NaTb9(Bi3C)2
_chemical_formula_sum   'Na1 Tb9 Bi6 C2'
_cell_volume   476.85282698
_cell_formula_units_Z   1
loop_
 _symmetry_equiv_pos_site_id
 _symmetry_equiv_pos_as_xyz
  1  'x, y, z'
loop_
 _atom_site_type_symbol
 _atom_site_label
 _atom_site_symmetry_multiplicity
 _atom_site_fract_x
 _atom_site_fract_y
 _atom_site_fract_z
 _atom_site_occupancy
  Na  Na0  1  0.666667  0.333333  0.000000  1
  Tb  Tb1  1  0.333333  0.666667  0.000000  1
  Tb  Tb2  1  0.333333  0.666667  0.500000  1
  Tb  Tb3  1  0.666667  0.333333  0.500000  1
  Tb  Tb4  1  0.790708  0.790818  0.749900  1
  Tb  Tb5  1  0.209182  0.999890  0.749900  1
  Tb  Tb6  1  0.000110  0.209292  0.749900  1
  Tb  Tb7  1  0.209182  0.209292  0.250100  1
  Tb  Tb8  1  0.790708  0.999890  0.250100  1
  Tb  Tb9  1  0.000110  0.790818  0.250100  1
  Bi  Bi10  1  0.402068  0.402135  0.750003  1
  Bi  Bi11  1  0.597865  0.999933  0.750003  1
  Bi  Bi12  1  0.000067  0.597932  0.750003  1
  Bi  Bi13  1  0.597865  0.597932  0.249997  1
  Bi  Bi14  1  0.402068  0.999933  0.249997  1
  Bi  Bi15  1  0.000067  0.402135  0.249997  1
  C  C16  1  0.000000  0.000000  0.000000  1
  C  C17  1  0.000000  0.000000  0.500000  1
