# generated using pymatgen
data_MgZr2Co8NiB6
_symmetry_space_group_name_H-M   'P 1'
_cell_length_a   5.71037827
_cell_length_b   5.71037872
_cell_length_c   5.70585143
_cell_angle_alpha   95.39564846
_cell_angle_beta   95.39564909
_cell_angle_gamma   95.06582279
_symmetry_Int_Tables_number   1
_chemical_formula_structural   MgZr2Co8NiB6
_chemical_formula_sum   'Mg1 Zr2 Co8 Ni1 B6'
_cell_volume   183.52580220
_cell_formula_units_Z   1
loop_
 _symmetry_equiv_pos_site_id
 _symmetry_equiv_pos_as_xyz
  1  'x, y, z'
loop_
 _atom_site_type_symbol
 _atom_site_label
 _atom_site_symmetry_multiplicity
 _atom_site_fract_x
 _atom_site_fract_y
 _atom_site_fract_z
 _atom_site_occupancy
  Mg  Mg0  1  0.000000  0.000000  0.000000  1
  Zr  Zr1  1  0.673201  0.673201  0.677693  1
  Zr  Zr2  1  0.326799  0.326799  0.322307  1
  Co  Co3  1  0.500000  0.000000  0.000000  1
  Co  Co4  1  0.000000  0.500000  0.000000  1
  Co  Co5  1  0.700680  0.200399  0.699496  1
  Co  Co6  1  0.699282  0.699282  0.201506  1
  Co  Co7  1  0.200399  0.700680  0.699496  1
  Co  Co8  1  0.299320  0.799601  0.300504  1
  Co  Co9  1  0.300718  0.300718  0.798494  1
  Co  Co10  1  0.799601  0.299320  0.300504  1
  Ni  Ni11  1  0.000000  0.000000  0.500000  1
  B  B12  1  0.619446  0.380554  0.000000  1
  B  B13  1  0.000862  0.613683  0.381754  1
  B  B14  1  0.386317  0.999138  0.618246  1
  B  B15  1  0.999138  0.386317  0.618246  1
  B  B16  1  0.613683  0.000862  0.381754  1
  B  B17  1  0.380554  0.619446  0.000000  1
