# generated using pymatgen
data_Pr5Nd5Ru3Rh
_symmetry_space_group_name_H-M   'P 1'
_cell_length_a   8.98204099
_cell_length_b   9.01062619
_cell_length_c   7.39319073
_cell_angle_alpha   83.65859908
_cell_angle_beta   83.63747022
_cell_angle_gamma   43.25097767
_symmetry_Int_Tables_number   1
_chemical_formula_structural   Pr5Nd5Ru3Rh
_chemical_formula_sum   'Pr5 Nd5 Ru3 Rh1'
_cell_volume   407.07894591
_cell_formula_units_Z   1
loop_
 _symmetry_equiv_pos_site_id
 _symmetry_equiv_pos_as_xyz
  1  'x, y, z'
loop_
 _atom_site_type_symbol
 _atom_site_label
 _atom_site_symmetry_multiplicity
 _atom_site_fract_x
 _atom_site_fract_y
 _atom_site_fract_z
 _atom_site_occupancy
  Pr  Pr0  1  0.014777  0.800554  0.916578  1
  Pr  Pr1  1  0.202339  0.985149  0.585416  1
  Pr  Pr2  1  0.983151  0.202141  0.086211  1
  Pr  Pr3  1  0.795098  0.020637  0.412796  1
  Pr  Pr4  1  0.360402  0.205356  0.816016  1
  Nd  Nd5  1  0.787923  0.640782  0.685772  1
  Nd  Nd6  1  0.643379  0.789354  0.186896  1
  Nd  Nd7  1  0.209244  0.356522  0.313450  1
  Nd  Nd8  1  0.573645  0.427352  0.749957  1
  Nd  Nd9  1  0.427220  0.574888  0.246622  1
  Ru  Ru10  1  0.402628  0.820662  0.924664  1
  Ru  Ru11  1  0.821843  0.402290  0.426401  1
  Ru  Ru12  1  0.598076  0.178937  0.075325  1
  Rh  Rh13  1  0.180276  0.595376  0.573898  1
