# generated using pymatgen
data_DyHo2Er2Sn3
_symmetry_space_group_name_H-M   'P 1'
_cell_length_a   8.93053666
_cell_length_b   8.92458000
_cell_length_c   6.50124300
_cell_angle_alpha   90.00000000
_cell_angle_beta   90.00000000
_cell_angle_gamma   119.97793635
_symmetry_Int_Tables_number   1
_chemical_formula_structural   DyHo2Er2Sn3
_chemical_formula_sum   'Dy2 Ho4 Er4 Sn6'
_cell_volume   448.83724550
_cell_formula_units_Z   2
loop_
 _symmetry_equiv_pos_site_id
 _symmetry_equiv_pos_as_xyz
  1  'x, y, z'
loop_
 _atom_site_type_symbol
 _atom_site_label
 _atom_site_symmetry_multiplicity
 _atom_site_fract_x
 _atom_site_fract_y
 _atom_site_fract_z
 _atom_site_occupancy
  Dy  Dy0  1  0.000000  0.761487  0.750000  1
  Dy  Dy1  1  0.000000  0.238513  0.250000  1
  Ho  Ho2  1  0.761260  0.761259  0.250000  1
  Ho  Ho3  1  0.761260  0.000002  0.750000  1
  Ho  Ho4  1  0.238740  0.238741  0.750000  1
  Ho  Ho5  1  0.238740  0.999998  0.250000  1
  Er  Er6  1  0.333382  0.666691  0.500000  1
  Er  Er7  1  0.666618  0.333309  0.000000  1
  Er  Er8  1  0.666618  0.333309  0.500000  1
  Er  Er9  1  0.333382  0.666691  0.000000  1
  Sn  Sn10  1  0.395492  0.000098  0.750000  1
  Sn  Sn11  1  0.395492  0.395394  0.250000  1
  Sn  Sn12  1  0.000000  0.604779  0.250000  1
  Sn  Sn13  1  0.000000  0.395221  0.750000  1
  Sn  Sn14  1  0.604508  0.604606  0.750000  1
  Sn  Sn15  1  0.604508  0.999902  0.250000  1
