# generated using pymatgen
data_Yb5Ce2Sc(Si4W3)4
_symmetry_space_group_name_H-M   'P 1'
_cell_length_a   6.74334283
_cell_length_b   6.92350601
_cell_length_c   12.96343216
_cell_angle_alpha   90.17236443
_cell_angle_beta   89.87930487
_cell_angle_gamma   90.09768436
_symmetry_Int_Tables_number   1
_chemical_formula_structural   Yb5Ce2Sc(Si4W3)4
_chemical_formula_sum   'Yb5 Ce2 Sc1 Si16 W12'
_cell_volume   605.22625124
_cell_formula_units_Z   1
loop_
 _symmetry_equiv_pos_site_id
 _symmetry_equiv_pos_as_xyz
  1  'x, y, z'
loop_
 _atom_site_type_symbol
 _atom_site_label
 _atom_site_symmetry_multiplicity
 _atom_site_fract_x
 _atom_site_fract_y
 _atom_site_fract_z
 _atom_site_occupancy
  Yb  Yb0  1  0.497060  0.664440  0.589416  1
  Yb  Yb1  1  0.996129  0.834236  0.908637  1
  Yb  Yb2  1  0.503108  0.333839  0.091109  1
  Yb  Yb3  1  0.001939  0.167893  0.410661  1
  Yb  Yb4  1  0.501403  0.333904  0.413235  1
  Ce  Ce5  1  0.000494  0.169429  0.093851  1
  Ce  Ce6  1  0.498243  0.667530  0.904703  1
  Sc  Sc7  1  0.995640  0.828527  0.592679  1
  Si  Si8  1  0.662427  0.958720  0.456237  1
  Si  Si9  1  0.162011  0.547054  0.045052  1
  Si  Si10  1  0.338660  0.046628  0.952927  1
  Si  Si11  1  0.841042  0.461657  0.546349  1
  Si  Si12  1  0.333785  0.035700  0.546483  1
  Si  Si13  1  0.839891  0.456976  0.953676  1
  Si  Si14  1  0.659945  0.956766  0.044923  1
  Si  Si15  1  0.160023  0.544464  0.457172  1
  Si  Si16  1  0.464764  0.370989  0.747119  1
  Si  Si17  1  0.966681  0.121232  0.748147  1
  Si  Si18  1  0.534640  0.623274  0.250788  1
  Si  Si19  1  0.035874  0.878067  0.251447  1
  Si  Si20  1  0.703190  0.864038  0.745977  1
  Si  Si21  1  0.193356  0.636827  0.745078  1
  Si  Si22  1  0.304920  0.136434  0.253888  1
  Si  Si23  1  0.797538  0.368509  0.253617  1
  W  W24  1  0.669575  0.162814  0.625611  1
  W  W25  1  0.166583  0.337144  0.871532  1
  W  W26  1  0.333414  0.836489  0.127215  1
  W  W27  1  0.837129  0.670021  0.374808  1
  W  W28  1  0.334216  0.831737  0.374153  1
  W  W29  1  0.835025  0.664562  0.127363  1
  W  W30  1  0.668037  0.161563  0.872390  1
  W  W31  1  0.166351  0.332284  0.624985  1
  W  W32  1  0.837242  0.493253  0.748844  1
  W  W33  1  0.336961  0.001902  0.749347  1
  W  W34  1  0.160659  0.509154  0.249818  1
  W  W35  1  0.662048  0.991949  0.250767  1
