# generated using pymatgen
data_Yb3Si2Au9
_symmetry_space_group_name_H-M   'P 1'
_cell_length_a   4.47532900
_cell_length_b   9.65077600
_cell_length_c   13.06490100
_cell_angle_alpha   90.00000000
_cell_angle_beta   90.00000000
_cell_angle_gamma   90.00000000
_symmetry_Int_Tables_number   1
_chemical_formula_structural   Yb3Si2Au9
_chemical_formula_sum   'Yb6 Si4 Au18'
_cell_volume   564.27827017
_cell_formula_units_Z   2
loop_
 _symmetry_equiv_pos_site_id
 _symmetry_equiv_pos_as_xyz
  1  'x, y, z'
loop_
 _atom_site_type_symbol
 _atom_site_label
 _atom_site_symmetry_multiplicity
 _atom_site_fract_x
 _atom_site_fract_y
 _atom_site_fract_z
 _atom_site_occupancy
  Yb  Yb0  1  0.000000  0.996846  0.184731  1
  Yb  Yb1  1  0.000000  0.003154  0.815269  1
  Yb  Yb2  1  0.500000  0.503154  0.684731  1
  Yb  Yb3  1  0.500000  0.496846  0.315269  1
  Yb  Yb4  1  0.000000  0.000000  0.500000  1
  Yb  Yb5  1  0.500000  0.500000  0.000000  1
  Si  Si6  1  0.000000  0.343521  0.178245  1
  Si  Si7  1  0.000000  0.656479  0.821755  1
  Si  Si8  1  0.500000  0.156479  0.678245  1
  Si  Si9  1  0.500000  0.843521  0.321755  1
  Au  Au10  1  0.000000  0.206085  0.003120  1
  Au  Au11  1  0.000000  0.793915  0.996880  1
  Au  Au12  1  0.500000  0.293915  0.503120  1
  Au  Au13  1  0.500000  0.706085  0.496880  1
  Au  Au14  1  0.000000  0.277884  0.359014  1
  Au  Au15  1  0.000000  0.722116  0.640986  1
  Au  Au16  1  0.500000  0.222116  0.859014  1
  Au  Au17  1  0.500000  0.777884  0.140986  1
  Au  Au18  1  0.000000  0.253028  0.636025  1
  Au  Au19  1  0.000000  0.746972  0.363975  1
  Au  Au20  1  0.500000  0.246972  0.136025  1
  Au  Au21  1  0.500000  0.753028  0.863975  1
  Au  Au22  1  0.000000  0.591515  0.159260  1
  Au  Au23  1  0.000000  0.408485  0.840740  1
  Au  Au24  1  0.500000  0.908485  0.659260  1
  Au  Au25  1  0.500000  0.091515  0.340740  1
  Au  Au26  1  0.500000  0.000000  0.000000  1
  Au  Au27  1  0.000000  0.500000  0.500000  1
