# generated using pymatgen
data_Ho8Sb(Pd5Pt3)3
_symmetry_space_group_name_H-M   'P 1'
_cell_length_a   8.36393300
_cell_length_b   8.36241744
_cell_length_c   8.37680500
_cell_angle_alpha   90.00000000
_cell_angle_beta   90.00000000
_cell_angle_gamma   89.94097362
_symmetry_Int_Tables_number   1
_chemical_formula_structural   Ho8Sb(Pd5Pt3)3
_chemical_formula_sum   'Ho8 Sb1 Pd15 Pt9'
_cell_volume   585.89604118
_cell_formula_units_Z   1
loop_
 _symmetry_equiv_pos_site_id
 _symmetry_equiv_pos_as_xyz
  1  'x, y, z'
loop_
 _atom_site_type_symbol
 _atom_site_label
 _atom_site_symmetry_multiplicity
 _atom_site_fract_x
 _atom_site_fract_y
 _atom_site_fract_z
 _atom_site_occupancy
  Ho  Ho0  1  0.745383  0.745806  0.254530  1
  Ho  Ho1  1  0.744562  0.254136  0.745784  1
  Ho  Ho2  1  0.254659  0.745349  0.744767  1
  Ho  Ho3  1  0.745383  0.745806  0.745470  1
  Ho  Ho4  1  0.744562  0.254136  0.254216  1
  Ho  Ho5  1  0.255451  0.254702  0.744956  1
  Ho  Ho6  1  0.254659  0.745349  0.255233  1
  Ho  Ho7  1  0.255451  0.254702  0.255044  1
  Sb  Sb8  1  0.999681  0.999864  0.000000  1
  Pd  Pd9  1  0.000362  0.000527  0.303952  1
  Pd  Pd10  1  0.999944  0.263595  0.500000  1
  Pd  Pd11  1  0.499604  0.736048  0.000000  1
  Pd  Pd12  1  0.500098  0.745924  0.500000  1
  Pd  Pd13  1  0.746178  0.500222  0.500000  1
  Pd  Pd14  1  0.304255  0.000078  0.000000  1
  Pd  Pd15  1  0.000362  0.000527  0.696048  1
  Pd  Pd16  1  0.999855  0.499744  0.263801  1
  Pd  Pd17  1  0.000529  0.304647  0.000000  1
  Pd  Pd18  1  0.000258  0.695253  0.000000  1
  Pd  Pd19  1  0.695423  0.999769  0.000000  1
  Pd  Pd20  1  0.263821  0.500085  0.000000  1
  Pd  Pd21  1  0.262799  0.999772  0.500000  1
  Pd  Pd22  1  0.999855  0.499744  0.736199  1
  Pd  Pd23  1  0.499693  0.263684  0.000000  1
  Pt  Pt24  1  0.737043  0.999869  0.500000  1
  Pt  Pt25  1  0.736131  0.499987  0.000000  1
  Pt  Pt26  1  0.499859  0.000054  0.736671  1
  Pt  Pt27  1  0.000095  0.736393  0.500000  1
  Pt  Pt28  1  0.499859  0.000054  0.263329  1
  Pt  Pt29  1  0.253778  0.500256  0.500000  1
  Pt  Pt30  1  0.500159  0.499917  0.746210  1
  Pt  Pt31  1  0.500159  0.499917  0.253790  1
  Pt  Pt32  1  0.500091  0.254089  0.500000  1
