# generated using pymatgen
data_YbCe2Lu(InRu)2
_symmetry_space_group_name_H-M   'P 1'
_cell_length_a   8.40260243
_cell_length_b   8.40260285
_cell_length_c   4.98115189
_cell_angle_alpha   83.13946749
_cell_angle_beta   83.13946102
_cell_angle_gamma   34.53505835
_symmetry_Int_Tables_number   1
_chemical_formula_structural   YbCe2Lu(InRu)2
_chemical_formula_sum   'Yb1 Ce2 Lu1 In2 Ru2'
_cell_volume   197.80949339
_cell_formula_units_Z   1
loop_
 _symmetry_equiv_pos_site_id
 _symmetry_equiv_pos_as_xyz
  1  'x, y, z'
loop_
 _atom_site_type_symbol
 _atom_site_label
 _atom_site_symmetry_multiplicity
 _atom_site_fract_x
 _atom_site_fract_y
 _atom_site_fract_z
 _atom_site_occupancy
  Yb  Yb0  1  0.007559  0.007559  0.998163  1
  Ce  Ce1  1  0.827307  0.827307  0.574808  1
  Ce  Ce2  1  0.170186  0.170186  0.425977  1
  Lu  Lu3  1  0.372254  0.372254  0.041335  1
  In  In4  1  0.498791  0.498791  0.500396  1
  In  In5  1  0.626304  0.626304  0.954505  1
  Ru  Ru6  1  0.789582  0.789582  0.132486  1
  Ru  Ru7  1  0.208016  0.208016  0.872331  1
