# generated using pymatgen
data_La8Ga8IrRh7
_symmetry_space_group_name_H-M   'P 1'
_cell_length_a   4.22551700
_cell_length_b   7.38303680
_cell_length_c   16.26133399
_cell_angle_alpha   89.78572580
_cell_angle_beta   90.00000000
_cell_angle_gamma   90.00000000
_symmetry_Int_Tables_number   1
_chemical_formula_structural   La8Ga8IrRh7
_chemical_formula_sum   'La8 Ga8 Ir1 Rh7'
_cell_volume   507.30368722
_cell_formula_units_Z   1
loop_
 _symmetry_equiv_pos_site_id
 _symmetry_equiv_pos_as_xyz
  1  'x, y, z'
loop_
 _atom_site_type_symbol
 _atom_site_label
 _atom_site_symmetry_multiplicity
 _atom_site_fract_x
 _atom_site_fract_y
 _atom_site_fract_z
 _atom_site_occupancy
  La  La0  1  0.250000  0.533476  0.781708  1
  La  La1  1  0.750000  0.466469  0.218005  1
  La  La2  1  0.750000  0.966716  0.281777  1
  La  La3  1  0.250000  0.033212  0.718412  1
  La  La4  1  0.250000  0.664877  0.559461  1
  La  La5  1  0.750000  0.337473  0.440125  1
  La  La6  1  0.750000  0.836374  0.059625  1
  La  La7  1  0.250000  0.163692  0.940403  1
  Ga  Ga8  1  0.250000  0.637628  0.348864  1
  Ga  Ga9  1  0.750000  0.364093  0.650141  1
  Ga  Ga10  1  0.750000  0.863880  0.849574  1
  Ga  Ga11  1  0.250000  0.133676  0.150387  1
  Ga  Ga12  1  0.250000  0.503282  0.061042  1
  Ga  Ga13  1  0.750000  0.496031  0.939009  1
  Ga  Ga14  1  0.750000  0.997259  0.561149  1
  Ga  Ga15  1  0.250000  0.004257  0.439245  1
  Ir  Ir16  1  0.250000  0.755543  0.181336  1
  Rh  Rh17  1  0.750000  0.243132  0.818888  1
  Rh  Rh18  1  0.750000  0.744128  0.680984  1
  Rh  Rh19  1  0.250000  0.257581  0.320055  1
  Rh  Rh20  1  0.250000  0.729588  0.927633  1
  Rh  Rh21  1  0.750000  0.267586  0.071525  1
  Rh  Rh22  1  0.750000  0.768383  0.428888  1
  Rh  Rh23  1  0.250000  0.231666  0.571764  1
