# generated using pymatgen
data_Nd8GeAuBr12
_symmetry_space_group_name_H-M   'P 1'
_cell_length_a   4.24345000
_cell_length_b   13.83399607
_cell_length_c   14.68847783
_cell_angle_alpha   90.25371336
_cell_angle_beta   90.00000000
_cell_angle_gamma   90.00000000
_symmetry_Int_Tables_number   1
_chemical_formula_structural   Nd8GeAuBr12
_chemical_formula_sum   'Nd8 Ge1 Au1 Br12'
_cell_volume   862.26204836
_cell_formula_units_Z   1
loop_
 _symmetry_equiv_pos_site_id
 _symmetry_equiv_pos_as_xyz
  1  'x, y, z'
loop_
 _atom_site_type_symbol
 _atom_site_label
 _atom_site_symmetry_multiplicity
 _atom_site_fract_x
 _atom_site_fract_y
 _atom_site_fract_z
 _atom_site_occupancy
  Nd  Nd0  1  0.500000  0.121654  0.336721  1
  Nd  Nd1  1  0.500000  0.878346  0.663279  1
  Nd  Nd2  1  0.500000  0.619074  0.160205  1
  Nd  Nd3  1  0.500000  0.380926  0.839795  1
  Nd  Nd4  1  0.000000  0.121277  0.580476  1
  Nd  Nd5  1  0.000000  0.878723  0.419524  1
  Nd  Nd6  1  0.000000  0.619345  0.921102  1
  Nd  Nd7  1  0.000000  0.380655  0.078898  1
  Ge  Ge8  1  0.500000  0.500000  0.000000  1
  Au  Au9  1  0.500000  0.000000  0.500000  1
  Br  Br10  1  0.500000  0.245441  0.161383  1
  Br  Br11  1  0.500000  0.754559  0.838617  1
  Br  Br12  1  0.500000  0.742065  0.335905  1
  Br  Br13  1  0.500000  0.257935  0.664095  1
  Br  Br14  1  0.000000  0.254047  0.410233  1
  Br  Br15  1  0.000000  0.745953  0.589767  1
  Br  Br16  1  0.000000  0.752409  0.089223  1
  Br  Br17  1  0.000000  0.247591  0.910777  1
  Br  Br18  1  0.000000  0.002604  0.244402  1
  Br  Br19  1  0.000000  0.997396  0.755598  1
  Br  Br20  1  0.000000  0.502404  0.253757  1
  Br  Br21  1  0.000000  0.497596  0.746243  1
