# generated using pymatgen
data_Rb6TlS4Br
_symmetry_space_group_name_H-M   'P 1'
_cell_length_a   10.92387200
_cell_length_b   10.92387143
_cell_length_c   8.07663000
_cell_angle_alpha   90.00000000
_cell_angle_beta   90.00000000
_cell_angle_gamma   120.00000173
_symmetry_Int_Tables_number   1
_chemical_formula_structural   Rb6TlS4Br
_chemical_formula_sum   'Rb12 Tl2 S8 Br2'
_cell_volume   834.66844389
_cell_formula_units_Z   2
loop_
 _symmetry_equiv_pos_site_id
 _symmetry_equiv_pos_as_xyz
  1  'x, y, z'
loop_
 _atom_site_type_symbol
 _atom_site_label
 _atom_site_symmetry_multiplicity
 _atom_site_fract_x
 _atom_site_fract_y
 _atom_site_fract_z
 _atom_site_occupancy
  Rb  Rb0  1  0.139764  0.860236  0.511082  1
  Rb  Rb1  1  0.720469  0.860236  0.511082  1
  Rb  Rb2  1  0.942045  0.471022  0.322664  1
  Rb  Rb3  1  0.528978  0.471022  0.322664  1
  Rb  Rb4  1  0.860236  0.720469  0.011082  1
  Rb  Rb5  1  0.279531  0.139764  0.011082  1
  Rb  Rb6  1  0.528978  0.057955  0.322664  1
  Rb  Rb7  1  0.139764  0.279531  0.511082  1
  Rb  Rb8  1  0.860236  0.139764  0.011082  1
  Rb  Rb9  1  0.057955  0.528978  0.822664  1
  Rb  Rb10  1  0.471022  0.942045  0.822664  1
  Rb  Rb11  1  0.471022  0.528978  0.822664  1
  Tl  Tl12  1  0.666667  0.333333  0.709615  1
  Tl  Tl13  1  0.333333  0.666667  0.209615  1
  S  S14  1  0.408428  0.204214  0.607694  1
  S  S15  1  0.591572  0.795786  0.107694  1
  S  S16  1  0.666667  0.333333  0.037804  1
  S  S17  1  0.795786  0.591572  0.607694  1
  S  S18  1  0.204214  0.408428  0.107694  1
  S  S19  1  0.333333  0.666667  0.537804  1
  S  S20  1  0.204214  0.795786  0.107694  1
  S  S21  1  0.795786  0.204214  0.607694  1
  Br  Br22  1  0.000000  0.000000  0.268863  1
  Br  Br23  1  0.000000  0.000000  0.768863  1
