# generated using pymatgen
data_Sc12Al2PdI16
_symmetry_space_group_name_H-M   'P 1'
_cell_length_a   9.27539528
_cell_length_b   12.29902083
_cell_length_c   12.96121900
_cell_angle_alpha   116.88650298
_cell_angle_beta   101.09028493
_cell_angle_gamma   100.49482531
_symmetry_Int_Tables_number   1
_chemical_formula_structural   Sc12Al2PdI16
_chemical_formula_sum   'Sc12 Al2 Pd1 I16'
_cell_volume   1231.43470848
_cell_formula_units_Z   1
loop_
 _symmetry_equiv_pos_site_id
 _symmetry_equiv_pos_as_xyz
  1  'x, y, z'
loop_
 _atom_site_type_symbol
 _atom_site_label
 _atom_site_symmetry_multiplicity
 _atom_site_fract_x
 _atom_site_fract_y
 _atom_site_fract_z
 _atom_site_occupancy
  Sc  Sc0  1  0.081406  0.274443  0.362070  1
  Sc  Sc1  1  0.903191  0.730416  0.640895  1
  Sc  Sc2  1  0.772239  0.536626  0.328509  1
  Sc  Sc3  1  0.209860  0.464249  0.667812  1
  Sc  Sc4  1  0.264650  0.725592  0.637834  1
  Sc  Sc5  1  0.716100  0.269487  0.359186  1
  Sc  Sc6  1  0.136344  0.535796  0.332098  1
  Sc  Sc7  1  0.846988  0.463343  0.671705  1
  Sc  Sc8  1  0.407843  0.363973  0.280742  1
  Sc  Sc9  1  0.591454  0.635957  0.719048  1
  Sc  Sc10  1  0.460234  0.312796  0.521385  1
  Sc  Sc11  1  0.539460  0.687222  0.478485  1
  Al  Al12  1  0.987770  0.500025  0.500051  1
  Al  Al13  1  0.348297  0.500154  0.500001  1
  Pd  Pd14  1  0.660466  0.499975  0.500076  1
  I  I15  1  0.390427  0.728219  0.867765  1
  I  I16  1  0.606657  0.267656  0.125659  1
  I  I17  1  0.182833  0.951875  0.775749  1
  I  I18  1  0.816348  0.048179  0.224181  1
  I  I19  1  0.359754  0.107541  0.260142  1
  I  I20  1  0.678148  0.892410  0.739873  1
  I  I21  1  0.582006  0.437539  0.791701  1
  I  I22  1  0.456145  0.562385  0.208090  1
  I  I23  1  0.303093  0.814419  0.463704  1
  I  I24  1  0.695542  0.179617  0.536953  1
  I  I25  1  0.170199  0.185647  0.535977  1
  I  I26  1  0.830829  0.820131  0.463310  1
  I  I27  1  0.926573  0.573038  0.165233  1
  I  I28  1  0.072833  0.427040  0.835007  1
  I  I29  1  0.920129  0.732205  0.874519  1
  I  I30  1  0.082186  0.272047  0.132240  1
