# generated using pymatgen
data_Dy6Y2Os3WC8
_symmetry_space_group_name_H-M   'P 1'
_cell_length_a   5.12856000
_cell_length_b   6.55076583
_cell_length_c   9.84774600
_cell_angle_alpha   89.69646227
_cell_angle_beta   90.00000000
_cell_angle_gamma   90.00000000
_symmetry_Int_Tables_number   1
_chemical_formula_structural   Dy6Y2Os3WC8
_chemical_formula_sum   'Dy6 Y2 Os3 W1 C8'
_cell_volume   330.84018895
_cell_formula_units_Z   1
loop_
 _symmetry_equiv_pos_site_id
 _symmetry_equiv_pos_as_xyz
  1  'x, y, z'
loop_
 _atom_site_type_symbol
 _atom_site_label
 _atom_site_symmetry_multiplicity
 _atom_site_fract_x
 _atom_site_fract_y
 _atom_site_fract_z
 _atom_site_occupancy
  Dy  Dy0  1  0.250000  0.680158  0.553767  1
  Dy  Dy1  1  0.750000  0.321231  0.444827  1
  Dy  Dy2  1  0.750000  0.822253  0.055097  1
  Dy  Dy3  1  0.250000  0.181952  0.944673  1
  Dy  Dy4  1  0.250000  0.531115  0.213090  1
  Dy  Dy5  1  0.250000  0.029267  0.285520  1
  Y  Y6  1  0.750000  0.467355  0.780748  1
  Y  Y7  1  0.750000  0.970694  0.715750  1
  Os  Os8  1  0.750000  0.277597  0.136581  1
  Os  Os9  1  0.750000  0.776478  0.362925  1
  Os  Os10  1  0.250000  0.224588  0.633499  1
  W  W11  1  0.250000  0.722056  0.866807  1
  C  C12  1  0.250000  0.454143  0.759493  1
  C  C13  1  0.750000  0.541489  0.242230  1
  C  C14  1  0.750000  0.042533  0.259070  1
  C  C15  1  0.250000  0.959340  0.740004  1
  C  C16  1  0.250000  0.823488  0.055889  1
  C  C17  1  0.750000  0.176337  0.952328  1
  C  C18  1  0.750000  0.675470  0.548666  1
  C  C19  1  0.250000  0.322454  0.449035  1
