# generated using pymatgen
data_Sm3YMn4F28
_symmetry_space_group_name_H-M   'P 1'
_cell_length_a   5.49222122
_cell_length_b   8.86129351
_cell_length_c   11.87205823
_cell_angle_alpha   62.11597243
_cell_angle_beta   90.03180513
_cell_angle_gamma   90.01083877
_symmetry_Int_Tables_number   1
_chemical_formula_structural   Sm3YMn4F28
_chemical_formula_sum   'Sm3 Y1 Mn4 F28'
_cell_volume   510.70755444
_cell_formula_units_Z   1
loop_
 _symmetry_equiv_pos_site_id
 _symmetry_equiv_pos_as_xyz
  1  'x, y, z'
loop_
 _atom_site_type_symbol
 _atom_site_label
 _atom_site_symmetry_multiplicity
 _atom_site_fract_x
 _atom_site_fract_y
 _atom_site_fract_z
 _atom_site_occupancy
  Sm  Sm0  1  0.261027  0.188496  0.735942  1
  Sm  Sm1  1  0.238803  0.190373  0.235845  1
  Sm  Sm2  1  0.738580  0.809069  0.263922  1
  Y  Y3  1  0.762824  0.809180  0.763880  1
  Mn  Mn4  1  0.757684  0.276850  0.956225  1
  Mn  Mn5  1  0.259600  0.726279  0.544865  1
  Mn  Mn6  1  0.241681  0.725447  0.040806  1
  Mn  Mn7  1  0.742914  0.273127  0.458123  1
  F  F8  1  0.432364  0.706341  0.921198  1
  F  F9  1  0.930646  0.292042  0.578864  1
  F  F10  1  0.568743  0.294328  0.077057  1
  F  F11  1  0.068168  0.707527  0.425152  1
  F  F12  1  0.460396  0.281954  0.539631  1
  F  F13  1  0.959570  0.717384  0.957641  1
  F  F14  1  0.539067  0.717375  0.461337  1
  F  F15  1  0.039373  0.285208  0.038346  1
  F  F16  1  0.767239  0.512370  0.861888  1
  F  F17  1  0.270486  0.491613  0.638349  1
  F  F18  1  0.229530  0.491073  0.135492  1
  F  F19  1  0.731887  0.508084  0.364354  1
  F  F20  1  0.760525  0.043118  0.046229  1
  F  F21  1  0.260966  0.959789  0.453991  1
  F  F22  1  0.240077  0.959231  0.952027  1
  F  F23  1  0.740867  0.039401  0.547558  1
  F  F24  1  0.985484  0.729202  0.633815  1
  F  F25  1  0.482562  0.271849  0.869369  1
  F  F26  1  0.019291  0.271106  0.371163  1
  F  F27  1  0.516171  0.727893  0.129079  1
  F  F28  1  0.053476  0.740428  0.164992  1
  F  F29  1  0.557099  0.259274  0.333058  1
  F  F30  1  0.944136  0.261373  0.832004  1
  F  F31  1  0.451129  0.742644  0.667893  1
  F  F32  1  0.398260  0.965768  0.226449  1
  F  F33  1  0.898652  0.033501  0.273248  1
  F  F34  1  0.598431  0.026518  0.772406  1
  F  F35  1  0.092291  0.964783  0.727800  1
