# generated using pymatgen
data_Er16Co4Ag3Hg
_symmetry_space_group_name_H-M   'P 1'
_cell_length_a   9.33537799
_cell_length_b   9.34992820
_cell_length_c   9.34992900
_cell_angle_alpha   60.00000072
_cell_angle_beta   59.94842892
_cell_angle_gamma   59.94843054
_symmetry_Int_Tables_number   1
_chemical_formula_structural   Er16Co4Ag3Hg
_chemical_formula_sum   'Er16 Co4 Ag3 Hg1'
_cell_volume   576.62641710
_cell_formula_units_Z   1
loop_
 _symmetry_equiv_pos_site_id
 _symmetry_equiv_pos_as_xyz
  1  'x, y, z'
loop_
 _atom_site_type_symbol
 _atom_site_label
 _atom_site_symmetry_multiplicity
 _atom_site_fract_x
 _atom_site_fract_y
 _atom_site_fract_z
 _atom_site_occupancy
  Er  Er0  1  0.348100  0.348366  0.348366  1
  Er  Er1  1  0.348100  0.348366  0.955170  1
  Er  Er2  1  0.348100  0.955170  0.348366  1
  Er  Er3  1  0.954515  0.348495  0.348495  1
  Er  Er4  1  0.812191  0.188002  0.188002  1
  Er  Er5  1  0.188183  0.811812  0.811812  1
  Er  Er6  1  0.188183  0.811812  0.188192  1
  Er  Er7  1  0.812191  0.188002  0.811805  1
  Er  Er8  1  0.188183  0.188192  0.811812  1
  Er  Er9  1  0.812191  0.811805  0.188002  1
  Er  Er10  1  0.935476  0.563097  0.563097  1
  Er  Er11  1  0.562144  0.937540  0.937540  1
  Er  Er12  1  0.562144  0.937540  0.562777  1
  Er  Er13  1  0.935476  0.563097  0.938330  1
  Er  Er14  1  0.562144  0.562777  0.937540  1
  Er  Er15  1  0.935476  0.938330  0.563097  1
  Co  Co16  1  0.142030  0.141828  0.141828  1
  Co  Co17  1  0.142030  0.141828  0.574314  1
  Co  Co18  1  0.142030  0.574314  0.141828  1
  Co  Co19  1  0.575142  0.141619  0.141619  1
  Ag  Ag20  1  0.583027  0.581872  0.581872  1
  Ag  Ag21  1  0.583027  0.581872  0.253228  1
  Ag  Ag22  1  0.583027  0.253228  0.581872  1
  Hg  Hg23  1  0.256887  0.581037  0.581037  1
