# generated using pymatgen
data_Sc6Co4Sn6HgPt
_symmetry_space_group_name_H-M   'P 1'
_cell_length_a   7.45077200
_cell_length_b   7.45077128
_cell_length_c   6.96347300
_cell_angle_alpha   90.00000000
_cell_angle_beta   90.00000000
_cell_angle_gamma   120.00000319
_symmetry_Int_Tables_number   1
_chemical_formula_structural   Sc6Co4Sn6HgPt
_chemical_formula_sum   'Sc6 Co4 Sn6 Hg1 Pt1'
_cell_volume   334.77962572
_cell_formula_units_Z   1
loop_
 _symmetry_equiv_pos_site_id
 _symmetry_equiv_pos_as_xyz
  1  'x, y, z'
loop_
 _atom_site_type_symbol
 _atom_site_label
 _atom_site_symmetry_multiplicity
 _atom_site_fract_x
 _atom_site_fract_y
 _atom_site_fract_z
 _atom_site_occupancy
  Sc  Sc0  1  0.397137  0.014884  0.234495  1
  Sc  Sc1  1  0.617745  0.602863  0.234495  1
  Sc  Sc2  1  0.985116  0.382255  0.234495  1
  Sc  Sc3  1  0.396739  0.013338  0.765412  1
  Sc  Sc4  1  0.616599  0.603261  0.765412  1
  Sc  Sc5  1  0.986662  0.383401  0.765412  1
  Co  Co6  1  0.000000  0.000000  0.776732  1
  Co  Co7  1  0.000000  0.000000  0.223551  1
  Co  Co8  1  0.666667  0.333333  0.998659  1
  Co  Co9  1  0.333333  0.666667  0.002129  1
  Sn  Sn10  1  0.276003  0.285273  0.000080  1
  Sn  Sn11  1  0.009270  0.723997  0.000080  1
  Sn  Sn12  1  0.994654  0.749499  0.500221  1
  Sn  Sn13  1  0.754845  0.005346  0.500221  1
  Sn  Sn14  1  0.250501  0.245155  0.500221  1
  Sn  Sn15  1  0.714727  0.990730  0.000080  1
  Hg  Hg16  1  0.333333  0.666667  0.496720  1
  Pt  Pt17  1  0.666667  0.333333  0.501586  1
