# generated using pymatgen
data_Y10Tl8PdAu3
_symmetry_space_group_name_H-M   'P 1'
_cell_length_a   3.67063500
_cell_length_b   8.21956000
_cell_length_c   18.44743000
_cell_angle_alpha   89.99990938
_cell_angle_beta   90.00000000
_cell_angle_gamma   90.00000000
_symmetry_Int_Tables_number   1
_chemical_formula_structural   Y10Tl8PdAu3
_chemical_formula_sum   'Y10 Tl8 Pd1 Au3'
_cell_volume   556.57749577
_cell_formula_units_Z   1
loop_
 _symmetry_equiv_pos_site_id
 _symmetry_equiv_pos_as_xyz
  1  'x, y, z'
loop_
 _atom_site_type_symbol
 _atom_site_label
 _atom_site_symmetry_multiplicity
 _atom_site_fract_x
 _atom_site_fract_y
 _atom_site_fract_z
 _atom_site_occupancy
  Y  Y0  1  0.500000  0.247879  0.785364  1
  Y  Y1  1  0.500000  0.761822  0.214730  1
  Y  Y2  1  0.500000  0.262515  0.284682  1
  Y  Y3  1  0.500000  0.733287  0.717364  1
  Y  Y4  1  0.500000  0.119125  0.583135  1
  Y  Y5  1  0.500000  0.880842  0.419324  1
  Y  Y6  1  0.500000  0.381148  0.080187  1
  Y  Y7  1  0.500000  0.614708  0.914513  1
  Y  Y8  1  0.500000  0.001352  0.998158  1
  Y  Y9  1  0.500000  0.500157  0.501178  1
  Tl  Tl10  1  0.000000  0.082664  0.144587  1
  Tl  Tl11  1  0.000000  0.912568  0.854025  1
  Tl  Tl12  1  0.000000  0.418638  0.647919  1
  Tl  Tl13  1  0.000000  0.583376  0.355238  1
  Tl  Tl14  1  0.000000  0.208599  0.436820  1
  Tl  Tl15  1  0.000000  0.791641  0.565293  1
  Tl  Tl16  1  0.000000  0.294142  0.934090  1
  Tl  Tl17  1  0.000000  0.708301  0.061809  1
  Pd  Pd18  1  0.000000  0.527689  0.802181  1
  Au  Au19  1  0.000000  0.028478  0.700025  1
  Au  Au20  1  0.000000  0.970555  0.302019  1
  Au  Au21  1  0.000000  0.470513  0.197360  1
