# generated using pymatgen
data_ErCd3(Ir2O7)2
_symmetry_space_group_name_H-M   'P 1'
_cell_length_a   7.21902038
_cell_length_b   7.28951681
_cell_length_c   7.21902000
_cell_angle_alpha   60.31938320
_cell_angle_beta   59.99998343
_cell_angle_gamma   60.31939126
_symmetry_Int_Tables_number   1
_chemical_formula_structural   ErCd3(Ir2O7)2
_chemical_formula_sum   'Er1 Cd3 Ir4 O14'
_cell_volume   269.91063199
_cell_formula_units_Z   1
loop_
 _symmetry_equiv_pos_site_id
 _symmetry_equiv_pos_as_xyz
  1  'x, y, z'
loop_
 _atom_site_type_symbol
 _atom_site_label
 _atom_site_symmetry_multiplicity
 _atom_site_fract_x
 _atom_site_fract_y
 _atom_site_fract_z
 _atom_site_occupancy
  Er  Er0  1  0.125000  0.625000  0.125000  1
  Cd  Cd1  1  0.625000  0.125000  0.125000  1
  Cd  Cd2  1  0.125000  0.125000  0.625000  1
  Cd  Cd3  1  0.125000  0.125000  0.125000  1
  Ir  Ir4  1  0.125000  0.625000  0.625000  1
  Ir  Ir5  1  0.625000  0.125000  0.625000  1
  Ir  Ir6  1  0.625000  0.625000  0.125000  1
  Ir  Ir7  1  0.625000  0.625000  0.625000  1
  O  O8  1  0.716363  0.692742  0.295447  1
  O  O9  1  0.299095  0.303315  0.698795  1
  O  O10  1  0.698795  0.303315  0.698795  1
  O  O11  1  0.295447  0.692742  0.295447  1
  O  O12  1  0.295447  0.692742  0.716363  1
  O  O13  1  0.698795  0.303315  0.299095  1
  O  O14  1  0.533637  0.557258  0.954553  1
  O  O15  1  0.950905  0.946685  0.551205  1
  O  O16  1  0.551205  0.946685  0.551205  1
  O  O17  1  0.954553  0.557258  0.954553  1
  O  O18  1  0.954553  0.557258  0.533637  1
  O  O19  1  0.551205  0.946685  0.950905  1
  O  O20  1  0.250033  0.249902  0.250033  1
  O  O21  1  0.999967  0.000098  0.999967  1
