# generated using pymatgen
data_Sm4Mn3CrF28
_symmetry_space_group_name_H-M   'P 1'
_cell_length_a   5.51345015
_cell_length_b   8.89665728
_cell_length_c   11.89770403
_cell_angle_alpha   62.21416003
_cell_angle_beta   89.99270421
_cell_angle_gamma   89.97410915
_symmetry_Int_Tables_number   1
_chemical_formula_structural   Sm4Mn3CrF28
_chemical_formula_sum   'Sm4 Mn3 Cr1 F28'
_cell_volume   516.30650222
_cell_formula_units_Z   1
loop_
 _symmetry_equiv_pos_site_id
 _symmetry_equiv_pos_as_xyz
  1  'x, y, z'
loop_
 _atom_site_type_symbol
 _atom_site_label
 _atom_site_symmetry_multiplicity
 _atom_site_fract_x
 _atom_site_fract_y
 _atom_site_fract_z
 _atom_site_occupancy
  Sm  Sm0  1  0.761497  0.810955  0.763650  1
  Sm  Sm1  1  0.261710  0.191899  0.735166  1
  Sm  Sm2  1  0.237779  0.191219  0.235464  1
  Sm  Sm3  1  0.739434  0.807657  0.265362  1
  Mn  Mn4  1  0.257824  0.726132  0.542901  1
  Mn  Mn5  1  0.242598  0.725925  0.042768  1
  Mn  Mn6  1  0.742236  0.274076  0.457079  1
  Cr  Cr7  1  0.756281  0.273929  0.957399  1
  F  F8  1  0.429277  0.706872  0.921999  1
  F  F9  1  0.927840  0.292862  0.578073  1
  F  F10  1  0.568817  0.291943  0.078915  1
  F  F11  1  0.072103  0.707369  0.421789  1
  F  F12  1  0.459362  0.281688  0.538142  1
  F  F13  1  0.959821  0.718412  0.961245  1
  F  F14  1  0.540751  0.718540  0.461698  1
  F  F15  1  0.044385  0.280554  0.040910  1
  F  F16  1  0.770427  0.508150  0.863648  1
  F  F17  1  0.269333  0.492360  0.635659  1
  F  F18  1  0.230709  0.492326  0.136631  1
  F  F19  1  0.730313  0.508061  0.363818  1
  F  F20  1  0.758342  0.041306  0.046403  1
  F  F21  1  0.258669  0.958642  0.453612  1
  F  F22  1  0.240942  0.958618  0.953399  1
  F  F23  1  0.741270  0.041198  0.546490  1
  F  F24  1  0.980835  0.727816  0.629411  1
  F  F25  1  0.474656  0.271563  0.869235  1
  F  F26  1  0.019338  0.272042  0.371012  1
  F  F27  1  0.519391  0.728271  0.129168  1
  F  F28  1  0.058656  0.741606  0.167579  1
  F  F29  1  0.559123  0.258941  0.332171  1
  F  F30  1  0.941236  0.258288  0.831668  1
  F  F31  1  0.441750  0.740947  0.667955  1
  F  F32  1  0.403944  0.967849  0.226749  1
  F  F33  1  0.901389  0.031771  0.272795  1
  F  F34  1  0.598882  0.033098  0.772751  1
  F  F35  1  0.099077  0.967116  0.727287  1
