# generated using pymatgen
data_Yb5Pu5O19
_symmetry_space_group_name_H-M   'P 1'
_cell_length_a   6.61040435
_cell_length_b   7.50806311
_cell_length_c   8.56518800
_cell_angle_alpha   96.93656059
_cell_angle_beta   97.40264857
_cell_angle_gamma   107.15022454
_symmetry_Int_Tables_number   1
_chemical_formula_structural   Yb5Pu5O19
_chemical_formula_sum   'Yb5 Pu5 O19'
_cell_volume   397.11976425
_cell_formula_units_Z   1
loop_
 _symmetry_equiv_pos_site_id
 _symmetry_equiv_pos_as_xyz
  1  'x, y, z'
loop_
 _atom_site_type_symbol
 _atom_site_label
 _atom_site_symmetry_multiplicity
 _atom_site_fract_x
 _atom_site_fract_y
 _atom_site_fract_z
 _atom_site_occupancy
  Yb  Yb0  1  0.806849  0.109103  0.606294  1
  Yb  Yb1  1  0.375697  0.295097  0.796517  1
  Yb  Yb2  1  0.608977  0.706144  0.205404  1
  Yb  Yb3  1  0.996062  0.501857  0.993703  1
  Yb  Yb4  1  0.208328  0.913596  0.385045  1
  Pu  Pu5  1  0.777631  0.593911  0.601661  1
  Pu  Pu6  1  0.602269  0.205632  0.196894  1
  Pu  Pu7  1  0.995297  0.010550  0.999891  1
  Pu  Pu8  1  0.411808  0.800864  0.809347  1
  Pu  Pu9  1  0.208452  0.393725  0.396736  1
  O  O10  1  0.311537  0.036559  0.942532  1
  O  O11  1  0.430252  0.973036  0.652627  1
  O  O12  1  0.028672  0.218741  0.867407  1
  O  O13  1  0.713035  0.389904  0.730561  1
  O  O14  1  0.163595  0.183704  0.524730  1
  O  O15  1  0.375716  0.611134  0.953840  1
  O  O16  1  0.945510  0.273832  0.176159  1
  O  O17  1  0.916966  0.398205  0.478623  1
  O  O18  1  0.760262  0.854681  0.772504  1
  O  O19  1  0.553470  0.449000  0.363012  1
  O  O20  1  0.402741  0.555564  0.629750  1
  O  O21  1  0.256656  0.141970  0.223895  1
  O  O22  1  0.067684  0.689837  0.778301  1
  O  O23  1  0.626907  0.393358  0.056325  1
  O  O24  1  0.863518  0.792533  0.469454  1
  O  O25  1  0.252606  0.617520  0.287618  1
  O  O26  1  0.960396  0.793811  0.120800  1
  O  O27  1  0.582205  0.020844  0.344144  1
  O  O28  1  0.660816  0.962929  0.044463  1
