# generated using pymatgen
data_Pr5Nd3(Er3Sn4)4
_symmetry_space_group_name_H-M   'P 1'
_cell_length_a   8.11637210
_cell_length_b   8.26834906
_cell_length_c   15.59148011
_cell_angle_alpha   90.00475370
_cell_angle_beta   89.98755959
_cell_angle_gamma   89.98654419
_symmetry_Int_Tables_number   1
_chemical_formula_structural   Pr5Nd3(Er3Sn4)4
_chemical_formula_sum   'Pr5 Nd3 Er12 Sn16'
_cell_volume   1046.32854522
_cell_formula_units_Z   1
loop_
 _symmetry_equiv_pos_site_id
 _symmetry_equiv_pos_as_xyz
  1  'x, y, z'
loop_
 _atom_site_type_symbol
 _atom_site_label
 _atom_site_symmetry_multiplicity
 _atom_site_fract_x
 _atom_site_fract_y
 _atom_site_fract_z
 _atom_site_occupancy
  Pr  Pr0  1  0.982245  0.820371  0.097485  1
  Pr  Pr1  1  0.482256  0.679527  0.097385  1
  Pr  Pr2  1  0.982259  0.820386  0.402591  1
  Pr  Pr3  1  0.517727  0.320413  0.597387  1
  Pr  Pr4  1  0.017710  0.179672  0.902567  1
  Nd  Nd5  1  0.517792  0.320333  0.902401  1
  Nd  Nd6  1  0.017797  0.179660  0.597593  1
  Nd  Nd7  1  0.482206  0.679636  0.402447  1
  Er  Er8  1  0.364995  0.836144  0.877624  1
  Er  Er9  1  0.865007  0.663854  0.622383  1
  Er  Er10  1  0.635025  0.163865  0.377695  1
  Er  Er11  1  0.135063  0.336144  0.122297  1
  Er  Er12  1  0.635034  0.163900  0.122287  1
  Er  Er13  1  0.135053  0.336173  0.377723  1
  Er  Er14  1  0.364960  0.836164  0.622341  1
  Er  Er15  1  0.864914  0.663775  0.877621  1
  Er  Er16  1  0.197637  0.504511  0.750024  1
  Er  Er17  1  0.697622  0.995499  0.749980  1
  Er  Er18  1  0.802300  0.495426  0.250077  1
  Er  Er19  1  0.302423  0.004585  0.250030  1
  Sn  Sn20  1  0.299763  0.039935  0.042480  1
  Sn  Sn21  1  0.799376  0.460332  0.457441  1
  Sn  Sn22  1  0.700614  0.960330  0.542564  1
  Sn  Sn23  1  0.200747  0.539571  0.957386  1
  Sn  Sn24  1  0.700128  0.960433  0.957440  1
  Sn  Sn25  1  0.200494  0.539735  0.542426  1
  Sn  Sn26  1  0.299500  0.039711  0.457581  1
  Sn  Sn27  1  0.799356  0.459989  0.042378  1
  Sn  Sn28  1  0.563756  0.625219  0.750052  1
  Sn  Sn29  1  0.063762  0.874758  0.749942  1
  Sn  Sn30  1  0.436237  0.374784  0.250059  1
  Sn  Sn31  1  0.936207  0.125399  0.250004  1
  Sn  Sn32  1  0.325509  0.141122  0.750102  1
  Sn  Sn33  1  0.825496  0.358896  0.749899  1
  Sn  Sn34  1  0.674283  0.858906  0.250200  1
  Sn  Sn35  1  0.174748  0.640842  0.250108  1
