# generated using pymatgen
data_Y4Co8P12(IrRh3)3
_symmetry_space_group_name_H-M   'P 1'
_cell_length_a   3.81605500
_cell_length_b   10.62357628
_cell_length_c   12.23508832
_cell_angle_alpha   89.97370998
_cell_angle_beta   90.00000000
_cell_angle_gamma   90.00000000
_symmetry_Int_Tables_number   1
_chemical_formula_structural   Y4Co8P12(IrRh3)3
_chemical_formula_sum   'Y4 Co8 P12 Ir3 Rh9'
_cell_volume   496.01228050
_cell_formula_units_Z   1
loop_
 _symmetry_equiv_pos_site_id
 _symmetry_equiv_pos_as_xyz
  1  'x, y, z'
loop_
 _atom_site_type_symbol
 _atom_site_label
 _atom_site_symmetry_multiplicity
 _atom_site_fract_x
 _atom_site_fract_y
 _atom_site_fract_z
 _atom_site_occupancy
  Y  Y0  1  0.250000  0.917566  0.209647  1
  Y  Y1  1  0.750000  0.083170  0.789836  1
  Y  Y2  1  0.750000  0.416526  0.290450  1
  Y  Y3  1  0.250000  0.582560  0.709274  1
  Co  Co4  1  0.250000  0.616545  0.196682  1
  Co  Co5  1  0.750000  0.383188  0.803921  1
  Co  Co6  1  0.750000  0.116544  0.303272  1
  Co  Co7  1  0.250000  0.882707  0.696595  1
  Co  Co8  1  0.250000  0.036381  0.433061  1
  Co  Co9  1  0.750000  0.963261  0.566770  1
  Co  Co10  1  0.750000  0.536318  0.066927  1
  Co  Co11  1  0.250000  0.464070  0.933284  1
  P  P12  1  0.250000  0.068865  0.610322  1
  P  P13  1  0.750000  0.931028  0.389561  1
  P  P14  1  0.750000  0.568856  0.889459  1
  P  P15  1  0.250000  0.430957  0.110426  1
  P  P16  1  0.250000  0.226190  0.371400  1
  P  P17  1  0.750000  0.774263  0.629278  1
  P  P18  1  0.750000  0.725948  0.128985  1
  P  P19  1  0.250000  0.274771  0.870535  1
  P  P20  1  0.250000  0.900249  0.880403  1
  P  P21  1  0.750000  0.099741  0.119683  1
  P  P22  1  0.750000  0.399251  0.619355  1
  P  P23  1  0.250000  0.600238  0.380433  1
  Ir  Ir24  1  0.750000  0.725706  0.320339  1
  Ir  Ir25  1  0.750000  0.774525  0.820634  1
  Ir  Ir26  1  0.250000  0.225572  0.179464  1
  Rh  Rh27  1  0.250000  0.781768  0.490620  1
  Rh  Rh28  1  0.750000  0.216978  0.509288  1
  Rh  Rh29  1  0.750000  0.281617  0.009585  1
  Rh  Rh30  1  0.250000  0.718358  0.990627  1
  Rh  Rh31  1  0.250000  0.090811  0.977630  1
  Rh  Rh32  1  0.750000  0.909543  0.022150  1
  Rh  Rh33  1  0.750000  0.591267  0.522409  1
  Rh  Rh34  1  0.250000  0.410009  0.478117  1
  Rh  Rh35  1  0.250000  0.274650  0.679576  1
