# generated using pymatgen
data_YTh(BiRh)2
_symmetry_space_group_name_H-M   'P 1'
_cell_length_a   6.78955900
_cell_length_b   4.78444800
_cell_length_c   9.54610300
_cell_angle_alpha   90.00000000
_cell_angle_beta   90.00000000
_cell_angle_gamma   90.00000000
_symmetry_Int_Tables_number   1
_chemical_formula_structural   YTh(BiRh)2
_chemical_formula_sum   'Y2 Th2 Bi4 Rh4'
_cell_volume   310.09839711
_cell_formula_units_Z   2
loop_
 _symmetry_equiv_pos_site_id
 _symmetry_equiv_pos_as_xyz
  1  'x, y, z'
loop_
 _atom_site_type_symbol
 _atom_site_label
 _atom_site_symmetry_multiplicity
 _atom_site_fract_x
 _atom_site_fract_y
 _atom_site_fract_z
 _atom_site_occupancy
  Y  Y0  1  0.007194  0.000000  0.373091  1
  Y  Y1  1  0.507193  0.500001  0.626909  1
  Th  Th2  1  0.490636  0.500001  0.123919  1
  Th  Th3  1  0.990635  0.000000  0.876083  1
  Bi  Bi4  1  0.991547  0.500001  0.134703  1
  Bi  Bi5  1  0.505523  0.000000  0.384028  1
  Bi  Bi6  1  0.005524  0.500001  0.615972  1
  Bi  Bi7  1  0.491548  0.000000  0.865297  1
  Rh  Rh8  1  0.740180  0.000000  0.121081  1
  Rh  Rh9  1  0.264917  0.500001  0.369852  1
  Rh  Rh10  1  0.764918  0.000000  0.630148  1
  Rh  Rh11  1  0.240180  0.500001  0.878919  1
