# generated using pymatgen
data_Li4TmCoNi8As7
_symmetry_space_group_name_H-M   'P 1'
_cell_length_a   9.43089519
_cell_length_b   9.38385198
_cell_length_c   3.82968600
_cell_angle_alpha   90.00000000
_cell_angle_beta   90.00000000
_cell_angle_gamma   119.93407693
_symmetry_Int_Tables_number   1
_chemical_formula_structural   Li4TmCoNi8As7
_chemical_formula_sum   'Li4 Tm1 Co1 Ni8 As7'
_cell_volume   293.70813643
_cell_formula_units_Z   1
loop_
 _symmetry_equiv_pos_site_id
 _symmetry_equiv_pos_as_xyz
  1  'x, y, z'
loop_
 _atom_site_type_symbol
 _atom_site_label
 _atom_site_symmetry_multiplicity
 _atom_site_fract_x
 _atom_site_fract_y
 _atom_site_fract_z
 _atom_site_occupancy
  Li  Li0  1  0.774063  0.546190  0.500000  1
  Li  Li1  1  0.454401  0.227902  0.500000  1
  Li  Li2  1  0.772089  0.226149  0.500000  1
  Li  Li3  1  0.000158  0.000553  0.500000  1
  Tm  Tm4  1  0.332668  0.666452  0.000000  1
  Co  Co5  1  0.275670  0.376153  0.500000  1
  Ni  Ni6  1  0.623445  0.898126  0.500000  1
  Ni  Ni7  1  0.101764  0.725604  0.500000  1
  Ni  Ni8  1  0.496525  0.452234  0.000000  1
  Ni  Ni9  1  0.549005  0.044872  0.000000  1
  Ni  Ni10  1  0.956451  0.504603  0.000000  1
  Ni  Ni11  1  0.715246  0.760895  0.000000  1
  Ni  Ni12  1  0.238469  0.954121  0.000000  1
  Ni  Ni13  1  0.045175  0.284957  0.000000  1
  As  As14  1  0.963165  0.757225  0.000000  1
  As  As15  1  0.243162  0.209557  0.000000  1
  As  As16  1  0.793291  0.036585  0.000000  1
  As  As17  1  0.667432  0.333857  0.000000  1
  As  As18  1  0.540107  0.615561  0.500000  1
  As  As19  1  0.381547  0.924859  0.500000  1
  As  As20  1  0.076165  0.453546  0.500000  1
