# generated using pymatgen
data_DyY2(LuPt2)2
_symmetry_space_group_name_H-M   'P 1'
_cell_length_a   7.44064200
_cell_length_b   7.51573500
_cell_length_c   14.59738900
_cell_angle_alpha   90.00000000
_cell_angle_beta   90.00000000
_cell_angle_gamma   90.00000000
_symmetry_Int_Tables_number   1
_chemical_formula_structural   DyY2(LuPt2)2
_chemical_formula_sum   'Dy4 Y8 Lu8 Pt16'
_cell_volume   816.31363306
_cell_formula_units_Z   4
loop_
 _symmetry_equiv_pos_site_id
 _symmetry_equiv_pos_as_xyz
  1  'x, y, z'
loop_
 _atom_site_type_symbol
 _atom_site_label
 _atom_site_symmetry_multiplicity
 _atom_site_fract_x
 _atom_site_fract_y
 _atom_site_fract_z
 _atom_site_occupancy
  Dy  Dy0  1  0.343826  0.167204  0.377793  1
  Dy  Dy1  1  0.843826  0.332796  0.122207  1
  Dy  Dy2  1  0.156174  0.667204  0.622207  1
  Dy  Dy3  1  0.656174  0.832796  0.877793  1
  Y  Y4  1  0.997719  0.819967  0.406221  1
  Y  Y5  1  0.497719  0.680033  0.093779  1
  Y  Y6  1  0.502281  0.319967  0.593779  1
  Y  Y7  1  0.002281  0.180033  0.906221  1
  Y  Y8  1  0.001106  0.178577  0.593163  1
  Y  Y9  1  0.501106  0.321423  0.906837  1
  Y  Y10  1  0.498894  0.678577  0.406837  1
  Y  Y11  1  0.998894  0.821423  0.093163  1
  Lu  Lu12  1  0.681147  0.989652  0.249959  1
  Lu  Lu13  1  0.181147  0.510348  0.250041  1
  Lu  Lu14  1  0.818853  0.489652  0.750041  1
  Lu  Lu15  1  0.318853  0.010348  0.749959  1
  Lu  Lu16  1  0.656611  0.832259  0.623201  1
  Lu  Lu17  1  0.156611  0.667741  0.876799  1
  Lu  Lu18  1  0.843389  0.332259  0.376799  1
  Lu  Lu19  1  0.343389  0.167741  0.123201  1
  Pt  Pt20  1  0.817067  0.642816  0.251054  1
  Pt  Pt21  1  0.317067  0.857184  0.248946  1
  Pt  Pt22  1  0.682933  0.142816  0.748946  1
  Pt  Pt23  1  0.182933  0.357184  0.751054  1
  Pt  Pt24  1  0.545216  0.385434  0.250045  1
  Pt  Pt25  1  0.045216  0.114566  0.249955  1
  Pt  Pt26  1  0.954784  0.885434  0.749955  1
  Pt  Pt27  1  0.454784  0.614566  0.750045  1
  Pt  Pt28  1  0.814160  0.534055  0.541357  1
  Pt  Pt29  1  0.314160  0.965945  0.958643  1
  Pt  Pt30  1  0.685840  0.034055  0.458643  1
  Pt  Pt31  1  0.185840  0.465945  0.041357  1
  Pt  Pt32  1  0.177824  0.467129  0.456039  1
  Pt  Pt33  1  0.677824  0.032871  0.043961  1
  Pt  Pt34  1  0.322176  0.967129  0.543961  1
  Pt  Pt35  1  0.822176  0.532871  0.956039  1
