# generated using pymatgen
data_SrNdTi2O6
_symmetry_space_group_name_H-M   'P 1'
_cell_length_a   5.55778000
_cell_length_b   5.58788000
_cell_length_c   7.89478700
_cell_angle_alpha   90.00000000
_cell_angle_beta   90.00000000
_cell_angle_gamma   90.00000000
_symmetry_Int_Tables_number   1
_chemical_formula_structural   SrNdTi2O6
_chemical_formula_sum   'Sr2 Nd2 Ti4 O12'
_cell_volume   245.18214487
_cell_formula_units_Z   2
loop_
 _symmetry_equiv_pos_site_id
 _symmetry_equiv_pos_as_xyz
  1  'x, y, z'
loop_
 _atom_site_type_symbol
 _atom_site_label
 _atom_site_symmetry_multiplicity
 _atom_site_fract_x
 _atom_site_fract_y
 _atom_site_fract_z
 _atom_site_occupancy
  Sr  Sr0  1  0.255549  0.980124  0.500000  1
  Sr  Sr1  1  0.744451  0.480124  0.500000  1
  Nd  Nd2  1  0.244385  0.037029  0.000000  1
  Nd  Nd3  1  0.755615  0.537029  0.000000  1
  Ti  Ti4  1  0.254213  0.500479  0.748659  1
  Ti  Ti5  1  0.745787  0.000479  0.251341  1
  Ti  Ti6  1  0.254213  0.500479  0.251341  1
  Ti  Ti7  1  0.745787  0.000479  0.748659  1
  O  O8  1  0.028034  0.777208  0.795049  1
  O  O9  1  0.971966  0.277208  0.204951  1
  O  O10  1  0.469208  0.219124  0.271650  1
  O  O11  1  0.530792  0.719124  0.728350  1
  O  O12  1  0.469208  0.219124  0.728350  1
  O  O13  1  0.530792  0.719124  0.271650  1
  O  O14  1  0.028034  0.777208  0.204951  1
  O  O15  1  0.971966  0.277208  0.795049  1
  O  O16  1  0.323566  0.482786  0.000000  1
  O  O17  1  0.676434  0.982786  0.000000  1
  O  O18  1  0.198446  0.506438  0.500000  1
  O  O19  1  0.801554  0.006438  0.500000  1
