# generated using pymatgen
data_Ca2In2PdAu
_symmetry_space_group_name_H-M   'P 1'
_cell_length_a   4.37036900
_cell_length_b   7.57273481
_cell_length_c   8.73829605
_cell_angle_alpha   91.08782700
_cell_angle_beta   90.00000000
_cell_angle_gamma   90.00000000
_symmetry_Int_Tables_number   1
_chemical_formula_structural   Ca2In2PdAu
_chemical_formula_sum   'Ca4 In4 Pd2 Au2'
_cell_volume   289.14742529
_cell_formula_units_Z   2
loop_
 _symmetry_equiv_pos_site_id
 _symmetry_equiv_pos_as_xyz
  1  'x, y, z'
loop_
 _atom_site_type_symbol
 _atom_site_label
 _atom_site_symmetry_multiplicity
 _atom_site_fract_x
 _atom_site_fract_y
 _atom_site_fract_z
 _atom_site_occupancy
  Ca  Ca0  1  0.750000  0.032215  0.316669  1
  Ca  Ca1  1  0.250000  0.469278  0.825302  1
  Ca  Ca2  1  0.750000  0.530722  0.174698  1
  Ca  Ca3  1  0.250000  0.967785  0.683331  1
  In  In4  1  0.250000  0.853891  0.056084  1
  In  In5  1  0.250000  0.351554  0.430985  1
  In  In6  1  0.750000  0.648446  0.569015  1
  In  In7  1  0.750000  0.146109  0.943916  1
  Pd  Pd8  1  0.750000  0.769203  0.871990  1
  Pd  Pd9  1  0.250000  0.230797  0.128010  1
  Au  Au10  1  0.250000  0.737335  0.368315  1
  Au  Au11  1  0.750000  0.262665  0.631685  1
