# generated using pymatgen
data_LaU2Pa(Al3Ir)6
_symmetry_space_group_name_H-M   'P 1'
_cell_length_a   7.61860001
_cell_length_b   7.64283693
_cell_length_c   9.43929900
_cell_angle_alpha   90.00000000
_cell_angle_beta   90.00000000
_cell_angle_gamma   119.45342747
_symmetry_Int_Tables_number   1
_chemical_formula_structural   LaU2Pa(Al3Ir)6
_chemical_formula_sum   'La1 U2 Pa1 Al18 Ir6'
_cell_volume   478.59242663
_cell_formula_units_Z   1
loop_
 _symmetry_equiv_pos_site_id
 _symmetry_equiv_pos_as_xyz
  1  'x, y, z'
loop_
 _atom_site_type_symbol
 _atom_site_label
 _atom_site_symmetry_multiplicity
 _atom_site_fract_x
 _atom_site_fract_y
 _atom_site_fract_z
 _atom_site_occupancy
  La  La0  1  0.003699  0.328105  0.250000  1
  U  U1  1  0.671451  0.995685  0.750000  1
  U  U2  1  0.330346  0.004382  0.250000  1
  Pa  Pa3  1  0.998464  0.673463  0.750000  1
  Al  Al4  1  0.131703  0.130147  0.750000  1
  Al  Al5  1  0.870261  0.869159  0.250000  1
  Al  Al6  1  0.002562  0.334567  0.578150  1
  Al  Al7  1  0.997072  0.665419  0.424286  1
  Al  Al8  1  0.997072  0.665419  0.075714  1
  Al  Al9  1  0.338025  0.003930  0.926539  1
  Al  Al10  1  0.002562  0.334567  0.921850  1
  Al  Al11  1  0.662754  0.997040  0.071442  1
  Al  Al12  1  0.662754  0.997040  0.428558  1
  Al  Al13  1  0.338025  0.003930  0.573461  1
  Al  Al14  1  0.335080  0.333665  0.051429  1
  Al  Al15  1  0.663617  0.664665  0.946782  1
  Al  Al16  1  0.663617  0.664665  0.553218  1
  Al  Al17  1  0.335080  0.333665  0.448571  1
  Al  Al18  1  0.342799  0.547880  0.750000  1
  Al  Al19  1  0.653807  0.450214  0.250000  1
  Al  Al20  1  0.548181  0.339654  0.750000  1
  Al  Al21  1  0.453855  0.664579  0.250000  1
  Ir  Ir22  1  0.674330  0.331162  0.503479  1
  Ir  Ir23  1  0.326069  0.672519  0.503121  1
  Ir  Ir24  1  0.326069  0.672519  0.996879  1
  Ir  Ir25  1  0.674330  0.331162  0.996521  1
  Ir  Ir26  1  0.998208  0.995400  0.504414  1
  Ir  Ir27  1  0.998208  0.995400  0.995586  1
