# generated using pymatgen
data_Y4Lu4Tc3B24Os
_symmetry_space_group_name_H-M   'P 1'
_cell_length_a   3.64153000
_cell_length_b   9.09898782
_cell_length_c   11.49145400
_cell_angle_alpha   89.94783253
_cell_angle_beta   90.00000000
_cell_angle_gamma   90.00000000
_symmetry_Int_Tables_number   1
_chemical_formula_structural   Y4Lu4Tc3B24Os
_chemical_formula_sum   'Y4 Lu4 Tc3 B24 Os1'
_cell_volume   380.76040392
_cell_formula_units_Z   1
loop_
 _symmetry_equiv_pos_site_id
 _symmetry_equiv_pos_as_xyz
  1  'x, y, z'
loop_
 _atom_site_type_symbol
 _atom_site_label
 _atom_site_symmetry_multiplicity
 _atom_site_fract_x
 _atom_site_fract_y
 _atom_site_fract_z
 _atom_site_occupancy
  Y  Y0  1  0.000000  0.322725  0.413981  1
  Y  Y1  1  0.000000  0.676297  0.584488  1
  Y  Y2  1  0.000000  0.822212  0.087181  1
  Y  Y3  1  0.000000  0.178923  0.914511  1
  Lu  Lu4  1  0.000000  0.942895  0.370293  1
  Lu  Lu5  1  0.000000  0.057920  0.629772  1
  Lu  Lu6  1  0.000000  0.443197  0.129919  1
  Lu  Lu7  1  0.000000  0.556528  0.869676  1
  Tc  Tc8  1  0.000000  0.639451  0.319389  1
  Tc  Tc9  1  0.000000  0.360692  0.681040  1
  Tc  Tc10  1  0.000000  0.138934  0.179338  1
  B  B11  1  0.500000  0.553493  0.432498  1
  B  B12  1  0.500000  0.446397  0.567339  1
  B  B13  1  0.500000  0.053450  0.067336  1
  B  B14  1  0.500000  0.945879  0.932450  1
  B  B15  1  0.500000  0.750376  0.418359  1
  B  B16  1  0.500000  0.249278  0.581764  1
  B  B17  1  0.500000  0.250975  0.081729  1
  B  B18  1  0.500000  0.749531  0.917998  1
  B  B19  1  0.500000  0.792769  0.265572  1
  B  B20  1  0.500000  0.207445  0.734983  1
  B  B21  1  0.500000  0.292675  0.234737  1
  B  B22  1  0.500000  0.708036  0.765190  1
  B  B23  1  0.500000  0.630009  0.184869  1
  B  B24  1  0.500000  0.369851  0.815691  1
  B  B25  1  0.500000  0.129579  0.314867  1
  B  B26  1  0.500000  0.869890  0.684883  1
  B  B27  1  0.500000  0.981457  0.212673  1
  B  B28  1  0.500000  0.017341  0.787336  1
  B  B29  1  0.500000  0.481653  0.287212  1
  B  B30  1  0.500000  0.518117  0.712679  1
  B  B31  1  0.500000  0.599433  0.027195  1
  B  B32  1  0.500000  0.401720  0.972644  1
  B  B33  1  0.500000  0.099073  0.472728  1
  B  B34  1  0.500000  0.901005  0.527741  1
  Os  Os35  1  0.000000  0.860794  0.819939  1
