# generated using pymatgen
data_Sr8CaEr11Sn16
_symmetry_space_group_name_H-M   'P 1'
_cell_length_a   7.97076400
_cell_length_b   8.51895103
_cell_length_c   16.09495200
_cell_angle_alpha   90.00000000
_cell_angle_beta   90.00000000
_cell_angle_gamma   90.00447931
_symmetry_Int_Tables_number   1
_chemical_formula_structural   Sr8CaEr11Sn16
_chemical_formula_sum   'Sr8 Ca1 Er11 Sn16'
_cell_volume   1092.88824991
_cell_formula_units_Z   1
loop_
 _symmetry_equiv_pos_site_id
 _symmetry_equiv_pos_as_xyz
  1  'x, y, z'
loop_
 _atom_site_type_symbol
 _atom_site_label
 _atom_site_symmetry_multiplicity
 _atom_site_fract_x
 _atom_site_fract_y
 _atom_site_fract_z
 _atom_site_occupancy
  Sr  Sr0  1  0.496894  0.320361  0.907377  1
  Sr  Sr1  1  0.997795  0.181023  0.593194  1
  Sr  Sr2  1  0.501390  0.679027  0.406298  1
  Sr  Sr3  1  0.001856  0.821409  0.093618  1
  Sr  Sr4  1  0.501390  0.679027  0.093702  1
  Sr  Sr5  1  0.001856  0.821409  0.406382  1
  Sr  Sr6  1  0.496894  0.320361  0.592623  1
  Sr  Sr7  1  0.997795  0.181023  0.906806  1
  Ca  Ca8  1  0.163901  0.494679  0.750000  1
  Er  Er9  1  0.329392  0.831904  0.876727  1
  Er  Er10  1  0.828844  0.665924  0.622634  1
  Er  Er11  1  0.672013  0.164991  0.375621  1
  Er  Er12  1  0.171708  0.334132  0.124770  1
  Er  Er13  1  0.672013  0.164991  0.124379  1
  Er  Er14  1  0.171708  0.334132  0.375230  1
  Er  Er15  1  0.329392  0.831904  0.623273  1
  Er  Er16  1  0.828844  0.665924  0.877366  1
  Er  Er17  1  0.663426  0.003010  0.750000  1
  Er  Er18  1  0.837106  0.503206  0.250000  1
  Er  Er19  1  0.337970  0.997291  0.250000  1
  Sn  Sn20  1  0.334158  0.040698  0.042754  1
  Sn  Sn21  1  0.834331  0.459551  0.456945  1
  Sn  Sn22  1  0.665778  0.960030  0.542153  1
  Sn  Sn23  1  0.165437  0.542522  0.961048  1
  Sn  Sn24  1  0.665778  0.960030  0.957847  1
  Sn  Sn25  1  0.165437  0.542522  0.538952  1
  Sn  Sn26  1  0.334158  0.040698  0.457246  1
  Sn  Sn27  1  0.834331  0.459551  0.043055  1
  Sn  Sn28  1  0.533569  0.634265  0.750000  1
  Sn  Sn29  1  0.027338  0.875192  0.750000  1
  Sn  Sn30  1  0.472931  0.370463  0.250000  1
  Sn  Sn31  1  0.972732  0.131587  0.250000  1
  Sn  Sn32  1  0.295300  0.122155  0.750000  1
  Sn  Sn33  1  0.784590  0.366609  0.750000  1
  Sn  Sn34  1  0.705601  0.866507  0.250000  1
  Sn  Sn35  1  0.206339  0.631885  0.250000  1
