# generated using pymatgen
data_Y9HoGaBi5
_symmetry_space_group_name_H-M   'P 1'
_cell_length_a   9.10211200
_cell_length_b   9.10242070
_cell_length_c   6.43706800
_cell_angle_alpha   90.00362567
_cell_angle_beta   89.99955307
_cell_angle_gamma   119.76037280
_symmetry_Int_Tables_number   1
_chemical_formula_structural   Y9HoGaBi5
_chemical_formula_sum   'Y9 Ho1 Ga1 Bi5'
_cell_volume   462.97913231
_cell_formula_units_Z   1
loop_
 _symmetry_equiv_pos_site_id
 _symmetry_equiv_pos_as_xyz
  1  'x, y, z'
loop_
 _atom_site_type_symbol
 _atom_site_label
 _atom_site_symmetry_multiplicity
 _atom_site_fract_x
 _atom_site_fract_y
 _atom_site_fract_z
 _atom_site_occupancy
  Y  Y0  1  0.657893  0.335649  0.996409  1
  Y  Y1  1  0.335685  0.657812  0.996482  1
  Y  Y2  1  0.335697  0.657779  0.503549  1
  Y  Y3  1  0.749087  0.749093  0.750047  1
  Y  Y4  1  0.244880  0.014572  0.750078  1
  Y  Y5  1  0.014591  0.244900  0.750072  1
  Y  Y6  1  0.242574  0.242619  0.249943  1
  Y  Y7  1  0.758506  0.000389  0.249965  1
  Y  Y8  1  0.000394  0.758502  0.250004  1
  Ho  Ho9  1  0.657522  0.335687  0.503435  1
  Ga  Ga10  1  0.393035  0.392912  0.749854  1
  Bi  Bi11  1  0.612169  0.002869  0.749905  1
  Bi  Bi12  1  0.002716  0.612050  0.749916  1
  Bi  Bi13  1  0.609473  0.609385  0.250126  1
  Bi  Bi14  1  0.390466  0.995392  0.250101  1
  Bi  Bi15  1  0.995315  0.390392  0.250111  1
