# generated using pymatgen
data_ScNb2(Co3B2)3
_symmetry_space_group_name_H-M   'P 1'
_cell_length_a   5.65282976
_cell_length_b   5.65283001
_cell_length_c   5.65282998
_cell_angle_alpha   95.39577837
_cell_angle_beta   95.39576713
_cell_angle_gamma   95.39577207
_symmetry_Int_Tables_number   1
_chemical_formula_structural   ScNb2(Co3B2)3
_chemical_formula_sum   'Sc1 Nb2 Co9 B6'
_cell_volume   178.06898600
_cell_formula_units_Z   1
loop_
 _symmetry_equiv_pos_site_id
 _symmetry_equiv_pos_as_xyz
  1  'x, y, z'
loop_
 _atom_site_type_symbol
 _atom_site_label
 _atom_site_symmetry_multiplicity
 _atom_site_fract_x
 _atom_site_fract_y
 _atom_site_fract_z
 _atom_site_occupancy
  Sc  Sc0  1  0.670132  0.670132  0.670132  1
  Nb  Nb1  1  0.007599  0.007599  0.007599  1
  Nb  Nb2  1  0.320795  0.320795  0.320795  1
  Co  Co3  1  0.498174  0.001803  0.001803  1
  Co  Co4  1  0.001803  0.498174  0.001803  1
  Co  Co5  1  0.001803  0.001803  0.498174  1
  Co  Co6  1  0.702058  0.198572  0.702058  1
  Co  Co7  1  0.702058  0.702058  0.198572  1
  Co  Co8  1  0.198572  0.702058  0.702058  1
  Co  Co9  1  0.299878  0.797788  0.299878  1
  Co  Co10  1  0.299878  0.299878  0.797788  1
  Co  Co11  1  0.797788  0.299878  0.299878  1
  B  B12  1  0.383689  0.001457  0.614586  1
  B  B13  1  0.614586  0.383689  0.001457  1
  B  B14  1  0.001457  0.614586  0.383689  1
  B  B15  1  0.614586  0.001457  0.383689  1
  B  B16  1  0.383689  0.614586  0.001457  1
  B  B17  1  0.001457  0.383689  0.614586  1
