# generated using pymatgen
data_Cs4DyTaCl12
_symmetry_space_group_name_H-M   'P 1'
_cell_length_a   12.96746995
_cell_length_b   12.96746927
_cell_length_c   12.96746800
_cell_angle_alpha   131.79075266
_cell_angle_beta   131.79075589
_cell_angle_gamma   70.55971164
_symmetry_Int_Tables_number   1
_chemical_formula_structural   Cs4DyTaCl12
_chemical_formula_sum   'Cs8 Dy2 Ta2 Cl24'
_cell_volume   1187.61948480
_cell_formula_units_Z   2
loop_
 _symmetry_equiv_pos_site_id
 _symmetry_equiv_pos_as_xyz
  1  'x, y, z'
loop_
 _atom_site_type_symbol
 _atom_site_label
 _atom_site_symmetry_multiplicity
 _atom_site_fract_x
 _atom_site_fract_y
 _atom_site_fract_z
 _atom_site_occupancy
  Cs  Cs0  1  0.374996  0.845517  0.970509  1
  Cs  Cs1  1  0.595517  0.624996  0.470509  1
  Cs  Cs2  1  0.875011  0.845532  0.470535  1
  Cs  Cs3  1  0.595532  0.125011  0.970535  1
  Cs  Cs4  1  0.874989  0.404468  0.029465  1
  Cs  Cs5  1  0.154468  0.124989  0.529465  1
  Cs  Cs6  1  0.375004  0.404483  0.529491  1
  Cs  Cs7  1  0.154483  0.625004  0.029491  1
  Dy  Dy8  1  0.500001  0.499999  0.000000  1
  Dy  Dy9  1  0.249999  0.750001  0.500000  1
  Ta  Ta10  1  0.999998  0.000002  0.000000  1
  Ta  Ta11  1  0.750002  0.249998  0.500000  1
  Cl  Cl12  1  0.744770  0.495254  0.249498  1
  Cl  Cl13  1  0.504746  0.255230  0.750502  1
  Cl  Cl14  1  0.375168  0.375158  0.000064  1
  Cl  Cl15  1  0.125158  0.625168  0.500064  1
  Cl  Cl16  1  0.374832  0.874842  0.499936  1
  Cl  Cl17  1  0.624842  0.624832  0.999936  1
  Cl  Cl18  1  0.111814  0.111828  0.999826  1
  Cl  Cl19  1  0.861828  0.361814  0.499826  1
  Cl  Cl20  1  0.638186  0.138172  0.500174  1
  Cl  Cl21  1  0.888172  0.888186  0.000174  1
  Cl  Cl22  1  0.225146  0.001155  0.223990  1
  Cl  Cl23  1  0.751254  0.027254  0.276018  1
  Cl  Cl24  1  0.504702  0.754199  0.249498  1
  Cl  Cl25  1  0.524854  0.248845  0.276010  1
  Cl  Cl26  1  0.972746  0.248746  0.723982  1
  Cl  Cl27  1  0.998746  0.222746  0.223982  1
  Cl  Cl28  1  0.998845  0.774854  0.776010  1
  Cl  Cl29  1  0.777254  0.001254  0.776018  1
  Cl  Cl30  1  0.751155  0.475146  0.723990  1
  Cl  Cl31  1  0.245298  0.495801  0.250502  1
  Cl  Cl32  1  0.245254  0.994770  0.749498  1
  Cl  Cl33  1  0.005230  0.754746  0.250502  1
  Cl  Cl34  1  0.504199  0.754702  0.749498  1
  Cl  Cl35  1  0.245801  0.495298  0.750502  1
