# generated using pymatgen
data_Pr2Mn5(PIr)7
_symmetry_space_group_name_H-M   'P 1'
_cell_length_a   9.46018918
_cell_length_b   9.44505509
_cell_length_c   3.93496000
_cell_angle_alpha   90.00000000
_cell_angle_beta   90.00000000
_cell_angle_gamma   120.32253933
_symmetry_Int_Tables_number   1
_chemical_formula_structural   Pr2Mn5(PIr)7
_chemical_formula_sum   'Pr2 Mn5 P7 Ir7'
_cell_volume   303.49711414
_cell_formula_units_Z   1
loop_
 _symmetry_equiv_pos_site_id
 _symmetry_equiv_pos_as_xyz
  1  'x, y, z'
loop_
 _atom_site_type_symbol
 _atom_site_label
 _atom_site_symmetry_multiplicity
 _atom_site_fract_x
 _atom_site_fract_y
 _atom_site_fract_z
 _atom_site_occupancy
  Pr  Pr0  1  0.332801  0.667891  0.000000  1
  Pr  Pr1  1  0.668552  0.333981  0.500000  1
  Mn  Mn2  1  0.160025  0.897009  0.000000  1
  Mn  Mn3  1  0.109848  0.267798  0.000000  1
  Mn  Mn4  1  0.731294  0.838401  0.000000  1
  Mn  Mn5  1  0.878199  0.093351  0.500000  1
  Mn  Mn6  1  0.906185  0.782377  0.500000  1
  P  P7  1  0.413362  0.106668  0.000000  1
  P  P8  1  0.893414  0.299227  0.000000  1
  P  P9  1  0.701385  0.591116  0.000000  1
  P  P10  1  0.111834  0.721598  0.500000  1
  P  P11  1  0.276511  0.397045  0.500000  1
  P  P12  1  0.608750  0.885249  0.500000  1
  P  P13  1  0.997347  0.000228  0.000000  1
  Ir  Ir14  1  0.423525  0.358732  0.000000  1
  Ir  Ir15  1  0.639781  0.059591  0.000000  1
  Ir  Ir16  1  0.941371  0.579107  0.000000  1
  Ir  Ir17  1  0.385354  0.947926  0.500000  1
  Ir  Ir18  1  0.050264  0.436492  0.500000  1
  Ir  Ir19  1  0.559498  0.611268  0.500000  1
  Ir  Ir20  1  0.210702  0.124947  0.500000  1
