# generated using pymatgen
data_Dy2YHg5
_symmetry_space_group_name_H-M   'P 1'
_cell_length_a   6.39080206
_cell_length_b   6.39080110
_cell_length_c   10.17314160
_cell_angle_alpha   89.95070534
_cell_angle_beta   89.95070724
_cell_angle_gamma   105.12568385
_symmetry_Int_Tables_number   1
_chemical_formula_structural   Dy2YHg5
_chemical_formula_sum   'Dy4 Y2 Hg10'
_cell_volume   401.10004743
_cell_formula_units_Z   2
loop_
 _symmetry_equiv_pos_site_id
 _symmetry_equiv_pos_as_xyz
  1  'x, y, z'
loop_
 _atom_site_type_symbol
 _atom_site_label
 _atom_site_symmetry_multiplicity
 _atom_site_fract_x
 _atom_site_fract_y
 _atom_site_fract_z
 _atom_site_occupancy
  Dy  Dy0  1  0.211945  0.788055  0.500000  1
  Dy  Dy1  1  0.788055  0.211945  0.500000  1
  Dy  Dy2  1  0.568641  0.568641  0.249924  1
  Dy  Dy3  1  0.431359  0.431359  0.750076  1
  Y  Y4  1  0.788237  0.211763  0.000000  1
  Y  Y5  1  0.211763  0.788237  0.000000  1
  Hg  Hg6  1  0.037209  0.477046  0.250687  1
  Hg  Hg7  1  0.962791  0.522954  0.749313  1
  Hg  Hg8  1  0.477046  0.037209  0.250687  1
  Hg  Hg9  1  0.522954  0.962791  0.749313  1
  Hg  Hg10  1  0.970313  0.970313  0.250680  1
  Hg  Hg11  1  0.029687  0.029687  0.749320  1
  Hg  Hg12  1  0.292487  0.292487  0.029500  1
  Hg  Hg13  1  0.707513  0.707513  0.970500  1
  Hg  Hg14  1  0.708136  0.708136  0.529064  1
  Hg  Hg15  1  0.291864  0.291864  0.470936  1
