# generated using pymatgen
data_Sn6Ir3RhSe6
_symmetry_space_group_name_H-M   'P 1'
_cell_length_a   9.09303551
_cell_length_b   9.09237544
_cell_length_c   9.09292729
_cell_angle_alpha   89.91625660
_cell_angle_beta   89.91842677
_cell_angle_gamma   89.87536752
_symmetry_Int_Tables_number   1
_chemical_formula_structural   Sn6Ir3RhSe6
_chemical_formula_sum   'Sn12 Ir6 Rh2 Se12'
_cell_volume   751.77527119
_cell_formula_units_Z   2
loop_
 _symmetry_equiv_pos_site_id
 _symmetry_equiv_pos_as_xyz
  1  'x, y, z'
loop_
 _atom_site_type_symbol
 _atom_site_label
 _atom_site_symmetry_multiplicity
 _atom_site_fract_x
 _atom_site_fract_y
 _atom_site_fract_z
 _atom_site_occupancy
  Sn  Sn0  1  0.500487  0.349480  0.167557  1
  Sn  Sn1  1  0.167852  0.500722  0.349773  1
  Sn  Sn2  1  0.349825  0.167493  0.500645  1
  Sn  Sn3  1  0.498299  0.651020  0.833039  1
  Sn  Sn4  1  0.833156  0.498508  0.651332  1
  Sn  Sn5  1  0.650259  0.832561  0.499302  1
  Sn  Sn6  1  0.998345  0.848591  0.332990  1
  Sn  Sn7  1  0.333409  0.997402  0.848622  1
  Sn  Sn8  1  0.848570  0.333123  0.997231  1
  Sn  Sn9  1  0.000664  0.151871  0.667244  1
  Sn  Sn10  1  0.667081  0.001420  0.151015  1
  Sn  Sn11  1  0.152269  0.667353  0.000827  1
  Ir  Ir12  1  0.245115  0.245160  0.245134  1
  Ir  Ir13  1  0.754312  0.754703  0.754814  1
  Ir  Ir14  1  0.745425  0.743761  0.244317  1
  Ir  Ir15  1  0.755703  0.254520  0.255504  1
  Ir  Ir16  1  0.256298  0.756054  0.254767  1
  Ir  Ir17  1  0.254522  0.255758  0.755932  1
  Rh  Rh18  1  0.244056  0.745348  0.743564  1
  Rh  Rh19  1  0.743459  0.244242  0.745178  1
  Se  Se20  1  0.653919  0.998005  0.851655  1
  Se  Se21  1  0.851443  0.653786  0.998283  1
  Se  Se22  1  0.997583  0.851760  0.654016  1
  Se  Se23  1  0.346476  0.001580  0.148783  1
  Se  Se24  1  0.148836  0.346427  0.001433  1
  Se  Se25  1  0.001410  0.148763  0.346443  1
  Se  Se26  1  0.153289  0.498845  0.650298  1
  Se  Se27  1  0.650422  0.153133  0.498776  1
  Se  Se28  1  0.499602  0.649776  0.153217  1
  Se  Se29  1  0.846986  0.500177  0.350239  1
  Se  Se30  1  0.350855  0.847827  0.500469  1
  Se  Se31  1  0.500072  0.350832  0.847601  1
