# generated using pymatgen
data_YbDyTm2(Al8Pt3)3
_symmetry_space_group_name_H-M   'P 1'
_cell_length_a   7.52298399
_cell_length_b   7.54160359
_cell_length_c   13.17858163
_cell_angle_alpha   84.61289828
_cell_angle_beta   79.11849264
_cell_angle_gamma   59.92562283
_symmetry_Int_Tables_number   1
_chemical_formula_structural   YbDyTm2(Al8Pt3)3
_chemical_formula_sum   'Yb1 Dy1 Tm2 Al24 Pt9'
_cell_volume   635.39998930
_cell_formula_units_Z   1
loop_
 _symmetry_equiv_pos_site_id
 _symmetry_equiv_pos_as_xyz
  1  'x, y, z'
loop_
 _atom_site_type_symbol
 _atom_site_label
 _atom_site_symmetry_multiplicity
 _atom_site_fract_x
 _atom_site_fract_y
 _atom_site_fract_z
 _atom_site_occupancy
  Yb  Yb0  1  0.606297  0.831606  0.192465  1
  Dy  Dy1  1  0.394650  0.167547  0.808265  1
  Tm  Tm2  1  0.733421  0.499317  0.807283  1
  Tm  Tm3  1  0.266113  0.501492  0.192719  1
  Al  Al4  1  0.684707  0.833126  0.944625  1
  Al  Al5  1  0.315862  0.166543  0.055858  1
  Al  Al6  1  0.146650  0.832019  0.561967  1
  Al  Al7  1  0.853340  0.167797  0.438935  1
  Al  Al8  1  0.479737  0.166265  0.559181  1
  Al  Al9  1  0.519940  0.833464  0.441109  1
  Al  Al10  1  0.218165  0.164653  0.328932  1
  Al  Al11  1  0.782226  0.834370  0.671396  1
  Al  Al12  1  0.436797  0.506643  0.671269  1
  Al  Al13  1  0.563010  0.494146  0.329465  1
  Al  Al14  1  0.109054  0.160219  0.669823  1
  Al  Al15  1  0.889947  0.839842  0.330856  1
  Al  Al16  1  0.353904  0.499186  0.943736  1
  Al  Al17  1  0.646957  0.500954  0.055114  1
  Al  Al18  1  0.015537  0.168702  0.952396  1
  Al  Al19  1  0.984916  0.831779  0.046082  1
  Al  Al20  1  0.186482  0.499575  0.441509  1
  Al  Al21  1  0.813029  0.500817  0.559143  1
  Al  Al22  1  0.732049  0.168267  0.183145  1
  Al  Al23  1  0.266465  0.834579  0.816413  1
  Al  Al24  1  0.060749  0.630715  0.815357  1
  Al  Al25  1  0.941941  0.367444  0.184051  1
  Al  Al26  1  0.854872  0.042443  0.816001  1
  Al  Al27  1  0.143100  0.956235  0.183506  1
  Pt  Pt28  1  0.119448  0.491476  0.638910  1
  Pt  Pt29  1  0.880570  0.507693  0.361611  1
  Pt  Pt30  1  0.657534  0.171653  0.999063  1
  Pt  Pt31  1  0.343105  0.828741  0.999468  1
  Pt  Pt32  1  0.537553  0.167551  0.361755  1
  Pt  Pt33  1  0.462399  0.832875  0.638788  1
  Pt  Pt34  1  0.778399  0.175474  0.637492  1
  Pt  Pt35  1  0.220626  0.824945  0.363147  1
  Pt  Pt36  1  0.000452  0.499852  0.999163  1
