# generated using pymatgen
data_Li4CeNi9As7
_symmetry_space_group_name_H-M   'P 1'
_cell_length_a   9.43782900
_cell_length_b   9.43782867
_cell_length_c   3.84523800
_cell_angle_alpha   90.00000000
_cell_angle_beta   90.00000000
_cell_angle_gamma   120.00000466
_symmetry_Int_Tables_number   1
_chemical_formula_structural   Li4CeNi9As7
_chemical_formula_sum   'Li4 Ce1 Ni9 As7'
_cell_volume   296.61836053
_cell_formula_units_Z   1
loop_
 _symmetry_equiv_pos_site_id
 _symmetry_equiv_pos_as_xyz
  1  'x, y, z'
loop_
 _atom_site_type_symbol
 _atom_site_label
 _atom_site_symmetry_multiplicity
 _atom_site_fract_x
 _atom_site_fract_y
 _atom_site_fract_z
 _atom_site_occupancy
  Li  Li0  1  0.773904  0.546427  0.500000  1
  Li  Li1  1  0.453573  0.227477  0.500000  1
  Li  Li2  1  0.772523  0.226096  0.500000  1
  Li  Li3  1  0.000000  0.000000  0.500000  1
  Ce  Ce4  1  0.333333  0.666667  0.000000  1
  Ni  Ni5  1  0.273456  0.372257  0.500000  1
  Ni  Ni6  1  0.627743  0.901198  0.500000  1
  Ni  Ni7  1  0.098802  0.726544  0.500000  1
  Ni  Ni8  1  0.496107  0.450841  0.000000  1
  Ni  Ni9  1  0.549159  0.045266  0.000000  1
  Ni  Ni10  1  0.954734  0.503893  0.000000  1
  Ni  Ni11  1  0.716108  0.761326  0.000000  1
  Ni  Ni12  1  0.238674  0.954781  0.000000  1
  Ni  Ni13  1  0.045219  0.283892  0.000000  1
  As  As14  1  0.963532  0.756543  0.000000  1
  As  As15  1  0.243457  0.206989  0.000000  1
  As  As16  1  0.793011  0.036468  0.000000  1
  As  As17  1  0.666667  0.333333  0.000000  1
  As  As18  1  0.546325  0.618433  0.500000  1
  As  As19  1  0.381567  0.927892  0.500000  1
  As  As20  1  0.072108  0.453675  0.500000  1
