# generated using pymatgen
data_Dy3HoAl12(GaIr)6
_symmetry_space_group_name_H-M   'P 1'
_cell_length_a   7.52666800
_cell_length_b   7.52701421
_cell_length_c   9.56882900
_cell_angle_alpha   90.00000000
_cell_angle_beta   90.00000000
_cell_angle_gamma   119.66165777
_symmetry_Int_Tables_number   1
_chemical_formula_structural   Dy3HoAl12(GaIr)6
_chemical_formula_sum   'Dy3 Ho1 Al12 Ga6 Ir6'
_cell_volume   471.07007254
_cell_formula_units_Z   1
loop_
 _symmetry_equiv_pos_site_id
 _symmetry_equiv_pos_as_xyz
  1  'x, y, z'
loop_
 _atom_site_type_symbol
 _atom_site_label
 _atom_site_symmetry_multiplicity
 _atom_site_fract_x
 _atom_site_fract_y
 _atom_site_fract_z
 _atom_site_occupancy
  Dy  Dy0  1  0.996115  0.669247  0.250000  1
  Dy  Dy1  1  0.003903  0.330747  0.750000  1
  Dy  Dy2  1  0.669245  0.996112  0.250000  1
  Ho  Ho3  1  0.330750  0.003878  0.750000  1
  Al  Al4  1  0.001569  0.334382  0.072910  1
  Al  Al5  1  0.998550  0.665743  0.927020  1
  Al  Al6  1  0.998550  0.665743  0.572980  1
  Al  Al7  1  0.334381  0.001565  0.427190  1
  Al  Al8  1  0.001569  0.334382  0.427090  1
  Al  Al9  1  0.665495  0.998430  0.572981  1
  Al  Al10  1  0.665495  0.998430  0.927019  1
  Al  Al11  1  0.334381  0.001565  0.072810  1
  Al  Al12  1  0.334026  0.333914  0.555386  1
  Al  Al13  1  0.665976  0.665977  0.444699  1
  Al  Al14  1  0.665976  0.665977  0.055301  1
  Al  Al15  1  0.334026  0.333914  0.944614  1
  Ga  Ga16  1  0.127592  0.127584  0.250000  1
  Ga  Ga17  1  0.872575  0.872485  0.750000  1
  Ga  Ga18  1  0.338195  0.546476  0.250000  1
  Ga  Ga19  1  0.661688  0.453346  0.750000  1
  Ga  Ga20  1  0.546446  0.338168  0.250000  1
  Ga  Ga21  1  0.453479  0.661916  0.750000  1
  Ir  Ir22  1  0.671732  0.328161  0.999943  1
  Ir  Ir23  1  0.328197  0.671827  0.999942  1
  Ir  Ir24  1  0.328197  0.671827  0.500058  1
  Ir  Ir25  1  0.671732  0.328161  0.500057  1
  Ir  Ir26  1  0.000080  0.000023  0.999936  1
  Ir  Ir27  1  0.000080  0.000023  0.500064  1
