# generated using pymatgen
data_Hf16GaFe4Ir3
_symmetry_space_group_name_H-M   'P 1'
_cell_length_a   8.60139009
_cell_length_b   8.60139087
_cell_length_c   8.60139100
_cell_angle_alpha   59.76580583
_cell_angle_beta   59.76580281
_cell_angle_gamma   59.76580173
_symmetry_Int_Tables_number   1
_chemical_formula_structural   Hf16GaFe4Ir3
_chemical_formula_sum   'Hf16 Ga1 Fe4 Ir3'
_cell_volume   447.58493252
_cell_formula_units_Z   1
loop_
 _symmetry_equiv_pos_site_id
 _symmetry_equiv_pos_as_xyz
  1  'x, y, z'
loop_
 _atom_site_type_symbol
 _atom_site_label
 _atom_site_symmetry_multiplicity
 _atom_site_fract_x
 _atom_site_fract_y
 _atom_site_fract_z
 _atom_site_occupancy
  Hf  Hf0  1  0.188572  0.602553  0.602553  1
  Hf  Hf1  1  0.602553  0.188572  0.602553  1
  Hf  Hf2  1  0.602553  0.602553  0.188572  1
  Hf  Hf3  1  0.603325  0.603325  0.603325  1
  Hf  Hf4  1  0.811833  0.811833  0.196873  1
  Hf  Hf5  1  0.189961  0.189961  0.812095  1
  Hf  Hf6  1  0.811833  0.196873  0.811833  1
  Hf  Hf7  1  0.189961  0.812095  0.189961  1
  Hf  Hf8  1  0.196873  0.811833  0.811833  1
  Hf  Hf9  1  0.812095  0.189961  0.189961  1
  Hf  Hf10  1  0.444665  0.444665  0.055433  1
  Hf  Hf11  1  0.055900  0.055900  0.444684  1
  Hf  Hf12  1  0.444665  0.055433  0.444665  1
  Hf  Hf13  1  0.055900  0.444684  0.055900  1
  Hf  Hf14  1  0.055433  0.444665  0.444665  1
  Hf  Hf15  1  0.444684  0.055900  0.055900  1
  Ga  Ga16  1  0.828456  0.828456  0.828456  1
  Fe  Fe17  1  0.825901  0.390683  0.390683  1
  Fe  Fe18  1  0.390683  0.825901  0.390683  1
  Fe  Fe19  1  0.390683  0.390683  0.825901  1
  Fe  Fe20  1  0.392321  0.392321  0.392321  1
  Ir  Ir21  1  0.491179  0.834985  0.834985  1
  Ir  Ir22  1  0.834985  0.491179  0.834985  1
  Ir  Ir23  1  0.834985  0.834985  0.491179  1
