# generated using pymatgen
data_Pa2Zn16Pt
_symmetry_space_group_name_H-M   'P 1'
_cell_length_a   6.77747239
_cell_length_b   6.80524514
_cell_length_c   6.80524495
_cell_angle_alpha   83.35007744
_cell_angle_beta   82.66359404
_cell_angle_gamma   82.66361201
_symmetry_Int_Tables_number   1
_chemical_formula_structural   Pa2Zn16Pt
_chemical_formula_sum   'Pa2 Zn16 Pt1'
_cell_volume   307.17253146
_cell_formula_units_Z   1
loop_
 _symmetry_equiv_pos_site_id
 _symmetry_equiv_pos_as_xyz
  1  'x, y, z'
loop_
 _atom_site_type_symbol
 _atom_site_label
 _atom_site_symmetry_multiplicity
 _atom_site_fract_x
 _atom_site_fract_y
 _atom_site_fract_z
 _atom_site_occupancy
  Pa  Pa0  1  0.666113  0.649694  0.649694  1
  Pa  Pa1  1  0.334007  0.340929  0.340929  1
  Zn  Zn2  1  0.353629  0.353517  0.843086  1
  Zn  Zn3  1  0.101164  0.101866  0.101866  1
  Zn  Zn4  1  0.895579  0.894951  0.894951  1
  Zn  Zn5  1  0.999168  0.001225  0.499749  1
  Zn  Zn6  1  0.999168  0.499749  0.001225  1
  Zn  Zn7  1  0.498800  0.002096  0.002096  1
  Zn  Zn8  1  0.299522  0.702713  0.998669  1
  Zn  Zn9  1  0.705289  0.003268  0.296050  1
  Zn  Zn10  1  0.001845  0.294881  0.705027  1
  Zn  Zn11  1  0.705289  0.296050  0.003268  1
  Zn  Zn12  1  0.299522  0.998669  0.702713  1
  Zn  Zn13  1  0.001845  0.705027  0.294881  1
  Zn  Zn14  1  0.161849  0.648270  0.648270  1
  Zn  Zn15  1  0.644010  0.649943  0.151664  1
  Zn  Zn16  1  0.644010  0.151664  0.649943  1
  Zn  Zn17  1  0.353629  0.843086  0.353517  1
  Pt  Pt18  1  0.835565  0.362403  0.362403  1
