# generated using pymatgen
data_Be10OsRu3
_symmetry_space_group_name_H-M   'P 1'
_cell_length_a   5.63737231
_cell_length_b   5.64706857
_cell_length_c   5.88415698
_cell_angle_alpha   97.85893328
_cell_angle_beta   97.83769116
_cell_angle_gamma   45.32969788
_symmetry_Int_Tables_number   1
_chemical_formula_structural   Be10OsRu3
_chemical_formula_sum   'Be10 Os1 Ru3'
_cell_volume   131.74855738
_cell_formula_units_Z   1
loop_
 _symmetry_equiv_pos_site_id
 _symmetry_equiv_pos_as_xyz
  1  'x, y, z'
loop_
 _atom_site_type_symbol
 _atom_site_label
 _atom_site_symmetry_multiplicity
 _atom_site_fract_x
 _atom_site_fract_y
 _atom_site_fract_z
 _atom_site_occupancy
  Be  Be0  1  0.048038  0.770240  0.917420  1
  Be  Be1  1  0.231592  0.949195  0.582878  1
  Be  Be2  1  0.948592  0.230966  0.083746  1
  Be  Be3  1  0.769655  0.049974  0.416237  1
  Be  Be4  1  0.070810  0.364547  0.813544  1
  Be  Be5  1  0.638406  0.928182  0.685303  1
  Be  Be6  1  0.928385  0.636748  0.188078  1
  Be  Be7  1  0.363804  0.071786  0.313463  1
  Be  Be8  1  0.780156  0.219581  0.749291  1
  Be  Be9  1  0.221009  0.778205  0.250749  1
  Os  Os10  1  0.244082  0.520012  0.558736  1
  Ru  Ru11  1  0.479333  0.756513  0.941087  1
  Ru  Ru12  1  0.757644  0.479210  0.442723  1
  Ru  Ru13  1  0.518493  0.244841  0.056744  1
