# generated using pymatgen
data_Sr2Zn5Si2Ge
_symmetry_space_group_name_H-M   'P 1'
_cell_length_a   4.31297100
_cell_length_b   4.31297100
_cell_length_c   10.71945200
_cell_angle_alpha   90.00000000
_cell_angle_beta   90.00000000
_cell_angle_gamma   90.00000000
_symmetry_Int_Tables_number   1
_chemical_formula_structural   Sr2Zn5Si2Ge
_chemical_formula_sum   'Sr2 Zn5 Si2 Ge1'
_cell_volume   199.40023230
_cell_formula_units_Z   1
loop_
 _symmetry_equiv_pos_site_id
 _symmetry_equiv_pos_as_xyz
  1  'x, y, z'
loop_
 _atom_site_type_symbol
 _atom_site_label
 _atom_site_symmetry_multiplicity
 _atom_site_fract_x
 _atom_site_fract_y
 _atom_site_fract_z
 _atom_site_occupancy
  Sr  Sr0  1  0.000000  0.000000  0.996731  1
  Sr  Sr1  1  0.500000  0.500000  0.500560  1
  Zn  Zn2  1  0.000000  0.500000  0.251873  1
  Zn  Zn3  1  0.500000  0.000000  0.752613  1
  Zn  Zn4  1  0.500000  0.000000  0.251873  1
  Zn  Zn5  1  0.000000  0.500000  0.752613  1
  Zn  Zn6  1  0.500000  0.500000  0.115841  1
  Si  Si7  1  0.000000  0.000000  0.382253  1
  Si  Si8  1  0.500000  0.500000  0.882621  1
  Ge  Ge9  1  0.000000  0.000000  0.613023  1
