# generated using pymatgen
data_CaCeSc2(Zn4Ru)2
_symmetry_space_group_name_H-M   'P 1'
_cell_length_a   6.95978800
_cell_length_b   6.95978800
_cell_length_c   5.09433900
_cell_angle_alpha   90.00000000
_cell_angle_beta   90.00000000
_cell_angle_gamma   90.00000000
_symmetry_Int_Tables_number   1
_chemical_formula_structural   CaCeSc2(Zn4Ru)2
_chemical_formula_sum   'Ca1 Ce1 Sc2 Zn8 Ru2'
_cell_volume   246.76289873
_cell_formula_units_Z   1
loop_
 _symmetry_equiv_pos_site_id
 _symmetry_equiv_pos_as_xyz
  1  'x, y, z'
loop_
 _atom_site_type_symbol
 _atom_site_label
 _atom_site_symmetry_multiplicity
 _atom_site_fract_x
 _atom_site_fract_y
 _atom_site_fract_z
 _atom_site_occupancy
  Ca  Ca0  1  0.000000  0.500000  0.763168  1
  Ce  Ce1  1  0.500000  0.000000  0.235574  1
  Sc  Sc2  1  0.000000  0.000000  0.999553  1
  Sc  Sc3  1  0.500000  0.500000  0.999553  1
  Zn  Zn4  1  0.189797  0.689797  0.276295  1
  Zn  Zn5  1  0.810203  0.689797  0.276295  1
  Zn  Zn6  1  0.810203  0.310203  0.276295  1
  Zn  Zn7  1  0.308530  0.191470  0.725758  1
  Zn  Zn8  1  0.189797  0.310203  0.276295  1
  Zn  Zn9  1  0.691470  0.191470  0.725758  1
  Zn  Zn10  1  0.691470  0.808530  0.725758  1
  Zn  Zn11  1  0.308530  0.808530  0.725758  1
  Ru  Ru12  1  0.500000  0.500000  0.496971  1
  Ru  Ru13  1  0.000000  0.000000  0.496971  1
