# generated using pymatgen
data_HoTl3(IO3)6
_symmetry_space_group_name_H-M   'P 1'
_cell_length_a   7.24537909
_cell_length_b   7.23977297
_cell_length_c   11.02280600
_cell_angle_alpha   87.67444114
_cell_angle_beta   107.58610031
_cell_angle_gamma   107.67604344
_symmetry_Int_Tables_number   1
_chemical_formula_structural   HoTl3(IO3)6
_chemical_formula_sum   'Ho1 Tl3 I6 O18'
_cell_volume   524.32167376
_cell_formula_units_Z   1
loop_
 _symmetry_equiv_pos_site_id
 _symmetry_equiv_pos_as_xyz
  1  'x, y, z'
loop_
 _atom_site_type_symbol
 _atom_site_label
 _atom_site_symmetry_multiplicity
 _atom_site_fract_x
 _atom_site_fract_y
 _atom_site_fract_z
 _atom_site_occupancy
  Ho  Ho0  1  0.500000  0.500000  0.000000  1
  Tl  Tl1  1  0.000000  0.000000  0.000000  1
  Tl  Tl2  1  0.828673  0.033640  0.598757  1
  Tl  Tl3  1  0.171327  0.966360  0.401243  1
  I  I4  1  0.032410  0.475040  0.190923  1
  I  I5  1  0.967590  0.524960  0.809077  1
  I  I6  1  0.559434  0.961346  0.193697  1
  I  I7  1  0.440566  0.038654  0.806303  1
  I  I8  1  0.412742  0.552519  0.633336  1
  I  I9  1  0.587258  0.447481  0.366664  1
  O  O10  1  0.837772  0.539399  0.054871  1
  O  O11  1  0.162228  0.460601  0.945129  1
  O  O12  1  0.958788  0.549170  0.321118  1
  O  O13  1  0.041212  0.450830  0.678882  1
  O  O14  1  0.922447  0.210206  0.182504  1
  O  O15  1  0.077553  0.789794  0.817496  1
  O  O16  1  0.569392  0.818250  0.059693  1
  O  O17  1  0.430608  0.181750  0.940307  1
  O  O18  1  0.292182  0.853064  0.188043  1
  O  O19  1  0.707818  0.146936  0.811957  1
  O  O20  1  0.686717  0.840641  0.326829  1
  O  O21  1  0.313283  0.159359  0.673171  1
  O  O22  1  0.517279  0.595690  0.809040  1
  O  O23  1  0.482721  0.404310  0.190960  1
  O  O24  1  0.660843  0.567896  0.612324  1
  O  O25  1  0.339157  0.432104  0.387676  1
  O  O26  1  0.410156  0.801888  0.598910  1
  O  O27  1  0.589844  0.198112  0.401090  1
