# generated using pymatgen
data_Ta6PbS12
_symmetry_space_group_name_H-M   'P 1'
_cell_length_a   5.81730702
_cell_length_b   5.81730691
_cell_length_c   14.67582659
_cell_angle_alpha   86.20005396
_cell_angle_beta   86.20005555
_cell_angle_gamma   119.99632719
_symmetry_Int_Tables_number   1
_chemical_formula_structural   Ta6PbS12
_chemical_formula_sum   'Ta6 Pb1 S12'
_cell_volume   426.32895244
_cell_formula_units_Z   1
loop_
 _symmetry_equiv_pos_site_id
 _symmetry_equiv_pos_as_xyz
  1  'x, y, z'
loop_
 _atom_site_type_symbol
 _atom_site_label
 _atom_site_symmetry_multiplicity
 _atom_site_fract_x
 _atom_site_fract_y
 _atom_site_fract_z
 _atom_site_occupancy
  Ta  Ta0  1  0.086487  0.086487  0.741300  1
  Ta  Ta1  1  0.419933  0.753192  0.740629  1
  Ta  Ta2  1  0.753192  0.419933  0.740629  1
  Ta  Ta3  1  0.246808  0.580067  0.259371  1
  Ta  Ta4  1  0.580067  0.246808  0.259371  1
  Ta  Ta5  1  0.913513  0.913513  0.258700  1
  Pb  Pb6  1  0.000000  0.000000  0.000000  1
  S  S7  1  0.286423  0.286423  0.150986  1
  S  S8  1  0.612599  0.949813  0.150976  1
  S  S9  1  0.949813  0.612599  0.150976  1
  S  S10  1  0.050187  0.387401  0.849024  1
  S  S11  1  0.387401  0.050187  0.849024  1
  S  S12  1  0.713577  0.713577  0.849014  1
  S  S13  1  0.210673  0.210673  0.364490  1
  S  S14  1  0.546046  0.878458  0.364486  1
  S  S15  1  0.878458  0.546046  0.364486  1
  S  S16  1  0.121542  0.453954  0.635514  1
  S  S17  1  0.453954  0.121542  0.635514  1
  S  S18  1  0.789327  0.789327  0.635510  1
