# generated using pymatgen
data_Ti2AsRh5
_symmetry_space_group_name_H-M   'P 1'
_cell_length_a   3.97539900
_cell_length_b   5.47633800
_cell_length_c   10.62667600
_cell_angle_alpha   90.00000000
_cell_angle_beta   90.00000000
_cell_angle_gamma   90.00000000
_symmetry_Int_Tables_number   1
_chemical_formula_structural   Ti2AsRh5
_chemical_formula_sum   'Ti4 As2 Rh10'
_cell_volume   231.34941654
_cell_formula_units_Z   2
loop_
 _symmetry_equiv_pos_site_id
 _symmetry_equiv_pos_as_xyz
  1  'x, y, z'
loop_
 _atom_site_type_symbol
 _atom_site_label
 _atom_site_symmetry_multiplicity
 _atom_site_fract_x
 _atom_site_fract_y
 _atom_site_fract_z
 _atom_site_occupancy
  Ti  Ti0  1  0.500000  0.332089  0.144104  1
  Ti  Ti1  1  0.500000  0.667911  0.855896  1
  Ti  Ti2  1  0.500000  0.832089  0.355896  1
  Ti  Ti3  1  0.500000  0.167911  0.644104  1
  As  As4  1  0.000000  0.000000  0.000000  1
  As  As5  1  0.000000  0.500000  0.500000  1
  Rh  Rh6  1  0.000000  0.000000  0.500000  1
  Rh  Rh7  1  0.000000  0.500000  0.000000  1
  Rh  Rh8  1  0.000000  0.075673  0.242099  1
  Rh  Rh9  1  0.000000  0.924327  0.757901  1
  Rh  Rh10  1  0.000000  0.575673  0.257901  1
  Rh  Rh11  1  0.000000  0.424327  0.742099  1
  Rh  Rh12  1  0.500000  0.310507  0.392398  1
  Rh  Rh13  1  0.500000  0.689493  0.607602  1
  Rh  Rh14  1  0.500000  0.810507  0.107602  1
  Rh  Rh15  1  0.500000  0.189493  0.892398  1
