# generated using pymatgen
data_Sc8Re2B24OsRu
_symmetry_space_group_name_H-M   'P 1'
_cell_length_a   3.50918100
_cell_length_b   8.88659707
_cell_length_c   11.19930437
_cell_angle_alpha   90.13550357
_cell_angle_beta   90.00000000
_cell_angle_gamma   90.00000000
_symmetry_Int_Tables_number   1
_chemical_formula_structural   Sc8Re2B24OsRu
_chemical_formula_sum   'Sc8 Re2 B24 Os1 Ru1'
_cell_volume   349.24571914
_cell_formula_units_Z   1
loop_
 _symmetry_equiv_pos_site_id
 _symmetry_equiv_pos_as_xyz
  1  'x, y, z'
loop_
 _atom_site_type_symbol
 _atom_site_label
 _atom_site_symmetry_multiplicity
 _atom_site_fract_x
 _atom_site_fract_y
 _atom_site_fract_z
 _atom_site_occupancy
  Sc  Sc0  1  0.000000  0.317055  0.412218  1
  Sc  Sc1  1  0.000000  0.682779  0.587907  1
  Sc  Sc2  1  0.000000  0.823549  0.084533  1
  Sc  Sc3  1  0.000000  0.177057  0.915427  1
  Sc  Sc4  1  0.000000  0.944141  0.372095  1
  Sc  Sc5  1  0.000000  0.056130  0.627999  1
  Sc  Sc6  1  0.000000  0.443276  0.128035  1
  Sc  Sc7  1  0.000000  0.556706  0.871697  1
  Re  Re8  1  0.000000  0.138626  0.180113  1
  Re  Re9  1  0.000000  0.861506  0.819918  1
  B  B10  1  0.500000  0.553157  0.435344  1
  B  B11  1  0.500000  0.446263  0.565084  1
  B  B12  1  0.500000  0.052952  0.064954  1
  B  B13  1  0.500000  0.947532  0.934857  1
  B  B14  1  0.500000  0.752362  0.421119  1
  B  B15  1  0.500000  0.247541  0.578903  1
  B  B16  1  0.500000  0.252848  0.078586  1
  B  B17  1  0.500000  0.747345  0.921390  1
  B  B18  1  0.500000  0.793607  0.264291  1
  B  B19  1  0.500000  0.206715  0.735566  1
  B  B20  1  0.500000  0.294764  0.236458  1
  B  B21  1  0.500000  0.705000  0.763484  1
  B  B22  1  0.500000  0.629414  0.182694  1
  B  B23  1  0.500000  0.370428  0.817258  1
  B  B24  1  0.500000  0.129637  0.318057  1
  B  B25  1  0.500000  0.870146  0.682023  1
  B  B26  1  0.500000  0.978615  0.212756  1
  B  B27  1  0.500000  0.021668  0.787112  1
  B  B28  1  0.500000  0.479354  0.287710  1
  B  B29  1  0.500000  0.520128  0.712330  1
  B  B30  1  0.500000  0.599295  0.027388  1
  B  B31  1  0.500000  0.400608  0.972421  1
  B  B32  1  0.500000  0.100122  0.472725  1
  B  B33  1  0.500000  0.899802  0.527424  1
  Os  Os34  1  0.000000  0.638193  0.321097  1
  Ru  Ru35  1  0.000000  0.361678  0.679030  1
