# generated using pymatgen
data_TbDyCdNi2
_symmetry_space_group_name_H-M   'P 1'
_cell_length_a   7.35661626
_cell_length_b   7.35661686
_cell_length_c   3.69868700
_cell_angle_alpha   90.00000000
_cell_angle_beta   90.00000000
_cell_angle_gamma   149.16349579
_symmetry_Int_Tables_number   1
_chemical_formula_structural   TbDyCdNi2
_chemical_formula_sum   'Tb1 Dy1 Cd1 Ni2'
_cell_volume   102.60628607
_cell_formula_units_Z   1
loop_
 _symmetry_equiv_pos_site_id
 _symmetry_equiv_pos_as_xyz
  1  'x, y, z'
loop_
 _atom_site_type_symbol
 _atom_site_label
 _atom_site_symmetry_multiplicity
 _atom_site_fract_x
 _atom_site_fract_y
 _atom_site_fract_z
 _atom_site_occupancy
  Tb  Tb0  1  0.362267  0.637733  0.500000  1
  Dy  Dy1  1  0.638003  0.361997  0.500000  1
  Cd  Cd2  1  0.000372  0.999628  0.000000  1
  Ni  Ni3  1  0.799431  0.200569  0.000000  1
  Ni  Ni4  1  0.199927  0.800073  0.000000  1
