# generated using pymatgen
data_Ce9Si16Mo11
_symmetry_space_group_name_H-M   'P 1'
_cell_length_a   6.93758310
_cell_length_b   7.07540667
_cell_length_c   13.11782700
_cell_angle_alpha   90.00000000
_cell_angle_beta   90.00000000
_cell_angle_gamma   90.18958912
_symmetry_Int_Tables_number   1
_chemical_formula_structural   Ce9Si16Mo11
_chemical_formula_sum   'Ce9 Si16 Mo11'
_cell_volume   643.90103934
_cell_formula_units_Z   1
loop_
 _symmetry_equiv_pos_site_id
 _symmetry_equiv_pos_as_xyz
  1  'x, y, z'
loop_
 _atom_site_type_symbol
 _atom_site_label
 _atom_site_symmetry_multiplicity
 _atom_site_fract_x
 _atom_site_fract_y
 _atom_site_fract_z
 _atom_site_occupancy
  Ce  Ce0  1  0.003831  0.163550  0.095110  1
  Ce  Ce1  1  0.506708  0.341691  0.404541  1
  Ce  Ce2  1  0.495505  0.666983  0.906380  1
  Ce  Ce3  1  0.007600  0.835294  0.594085  1
  Ce  Ce4  1  0.007600  0.835294  0.905915  1
  Ce  Ce5  1  0.495505  0.666983  0.593620  1
  Ce  Ce6  1  0.506708  0.341691  0.095459  1
  Ce  Ce7  1  0.003831  0.163550  0.404890  1
  Ce  Ce8  1  0.317382  0.987120  0.750000  1
  Si  Si9  1  0.811767  0.380704  0.250000  1
  Si  Si10  1  0.310979  0.123582  0.250000  1
  Si  Si11  1  0.712646  0.877132  0.750000  1
  Si  Si12  1  0.188862  0.594692  0.750000  1
  Si  Si13  1  0.038103  0.862017  0.250000  1
  Si  Si14  1  0.544652  0.643146  0.250000  1
  Si  Si15  1  0.464763  0.372597  0.750000  1
  Si  Si16  1  0.938354  0.152425  0.750000  1
  Si  Si17  1  0.839779  0.455642  0.953531  1
  Si  Si18  1  0.345696  0.046462  0.532694  1
  Si  Si19  1  0.657101  0.954692  0.049478  1
  Si  Si20  1  0.157188  0.544317  0.452337  1
  Si  Si21  1  0.157188  0.544317  0.047663  1
  Si  Si22  1  0.657101  0.954692  0.450522  1
  Si  Si23  1  0.345696  0.046462  0.967306  1
  Si  Si24  1  0.839779  0.455642  0.546469  1
  Mo  Mo25  1  0.669700  0.002007  0.250000  1
  Mo  Mo26  1  0.170641  0.501361  0.250000  1
  Mo  Mo27  1  0.827417  0.501262  0.750000  1
  Mo  Mo28  1  0.836724  0.664745  0.125043  1
  Mo  Mo29  1  0.332144  0.834082  0.370280  1
  Mo  Mo30  1  0.658418  0.167827  0.877611  1
  Mo  Mo31  1  0.161672  0.325695  0.621830  1
  Mo  Mo32  1  0.161672  0.325695  0.878170  1
  Mo  Mo33  1  0.658418  0.167827  0.622389  1
  Mo  Mo34  1  0.332144  0.834082  0.129720  1
  Mo  Mo35  1  0.836724  0.664745  0.374957  1
