# generated using pymatgen
data_DyEr15(In3Ir)2
_symmetry_space_group_name_H-M   'P 1'
_cell_length_a   10.34242000
_cell_length_b   10.34567034
_cell_length_c   7.02025210
_cell_angle_alpha   90.01069031
_cell_angle_beta   90.00000000
_cell_angle_gamma   119.98960135
_symmetry_Int_Tables_number   1
_chemical_formula_structural   DyEr15(In3Ir)2
_chemical_formula_sum   'Dy1 Er15 In6 Ir2'
_cell_volume   650.59336994
_cell_formula_units_Z   1
loop_
 _symmetry_equiv_pos_site_id
 _symmetry_equiv_pos_as_xyz
  1  'x, y, z'
loop_
 _atom_site_type_symbol
 _atom_site_label
 _atom_site_symmetry_multiplicity
 _atom_site_fract_x
 _atom_site_fract_y
 _atom_site_fract_z
 _atom_site_occupancy
  Dy  Dy0  1  0.532938  0.065876  0.792882  1
  Er  Er1  1  0.933459  0.466774  0.793061  1
  Er  Er2  1  0.533316  0.466774  0.793061  1
  Er  Er3  1  0.466469  0.932939  0.292963  1
  Er  Er4  1  0.066752  0.533369  0.293053  1
  Er  Er5  1  0.466617  0.533369  0.293053  1
  Er  Er6  1  0.823341  0.646680  0.499277  1
  Er  Er7  1  0.353265  0.176869  0.498994  1
  Er  Er8  1  0.823605  0.176869  0.498994  1
  Er  Er9  1  0.176725  0.353450  0.999372  1
  Er  Er10  1  0.646825  0.823072  0.999643  1
  Er  Er11  1  0.176248  0.823072  0.999643  1
  Er  Er12  1  0.666864  0.333725  0.174597  1
  Er  Er13  1  0.333148  0.666295  0.674506  1
  Er  Er14  1  0.999997  0.999992  0.778504  1
  Er  Er15  1  0.000046  0.000091  0.278637  1
  In  In16  1  0.837151  0.674304  0.039304  1
  In  In17  1  0.325266  0.162806  0.039695  1
  In  In18  1  0.837540  0.162806  0.039695  1
  In  In19  1  0.162775  0.325550  0.539522  1
  In  In20  1  0.674425  0.837238  0.539342  1
  In  In21  1  0.162814  0.837238  0.539342  1
  Ir  Ir22  1  0.667079  0.334155  0.569212  1
  Ir  Ir23  1  0.333342  0.666684  0.069556  1
