# generated using pymatgen
data_Er3FeSi3Ru
_symmetry_space_group_name_H-M   'P 1'
_cell_length_a   5.64951494
_cell_length_b   5.64951521
_cell_length_c   13.58756505
_cell_angle_alpha   89.80316229
_cell_angle_beta   90.19683783
_cell_angle_gamma   137.31809868
_symmetry_Int_Tables_number   1
_chemical_formula_structural   Er3FeSi3Ru
_chemical_formula_sum   'Er6 Fe2 Si6 Ru2'
_cell_volume   293.99792848
_cell_formula_units_Z   2
loop_
 _symmetry_equiv_pos_site_id
 _symmetry_equiv_pos_as_xyz
  1  'x, y, z'
loop_
 _atom_site_type_symbol
 _atom_site_label
 _atom_site_symmetry_multiplicity
 _atom_site_fract_x
 _atom_site_fract_y
 _atom_site_fract_z
 _atom_site_occupancy
  Er  Er0  1  0.638230  0.361770  0.248441  1
  Er  Er1  1  0.361770  0.638230  0.751559  1
  Er  Er2  1  0.919894  0.080106  0.109855  1
  Er  Er3  1  0.080106  0.919894  0.890145  1
  Er  Er4  1  0.077821  0.922179  0.616938  1
  Er  Er5  1  0.922179  0.077821  0.383062  1
  Fe  Fe6  1  0.214881  0.785119  0.079350  1
  Fe  Fe7  1  0.785119  0.214881  0.920650  1
  Si  Si8  1  0.327055  0.672945  0.245205  1
  Si  Si9  1  0.672945  0.327055  0.754795  1
  Si  Si10  1  0.626255  0.373745  0.039308  1
  Si  Si11  1  0.373745  0.626255  0.960692  1
  Si  Si12  1  0.385550  0.614450  0.538357  1
  Si  Si13  1  0.614450  0.385550  0.461643  1
  Ru  Ru14  1  0.787471  0.212529  0.583166  1
  Ru  Ru15  1  0.212529  0.787471  0.416834  1
