# generated using pymatgen
data_Er3CdIr8
_symmetry_space_group_name_H-M   'P 1'
_cell_length_a   5.32434300
_cell_length_b   5.32434386
_cell_length_c   8.65034900
_cell_angle_alpha   90.00000000
_cell_angle_beta   90.00000000
_cell_angle_gamma   120.00000087
_symmetry_Int_Tables_number   1
_chemical_formula_structural   Er3CdIr8
_chemical_formula_sum   'Er3 Cd1 Ir8'
_cell_volume   212.37157032
_cell_formula_units_Z   1
loop_
 _symmetry_equiv_pos_site_id
 _symmetry_equiv_pos_as_xyz
  1  'x, y, z'
loop_
 _atom_site_type_symbol
 _atom_site_label
 _atom_site_symmetry_multiplicity
 _atom_site_fract_x
 _atom_site_fract_y
 _atom_site_fract_z
 _atom_site_occupancy
  Er  Er0  1  0.333334  0.666667  0.419447  1
  Er  Er1  1  0.666667  0.333333  0.569745  1
  Er  Er2  1  0.666667  0.333333  0.942226  1
  Cd  Cd3  1  0.333334  0.666667  0.059492  1
  Ir  Ir4  1  0.000000  0.000000  0.002226  1
  Ir  Ir5  1  0.339358  0.169679  0.251552  1
  Ir  Ir6  1  0.830320  0.169679  0.251552  1
  Ir  Ir7  1  0.830321  0.660640  0.251552  1
  Ir  Ir8  1  0.000000  0.000000  0.503050  1
  Ir  Ir9  1  0.170764  0.341528  0.749721  1
  Ir  Ir10  1  0.170765  0.829237  0.749721  1
  Ir  Ir11  1  0.658472  0.829237  0.749721  1
