# generated using pymatgen
data_Lu3ScAl17GaIr6
_symmetry_space_group_name_H-M   'P 1'
_cell_length_a   7.50462597
_cell_length_b   7.50053883
_cell_length_c   9.40943400
_cell_angle_alpha   90.00000000
_cell_angle_beta   90.00000000
_cell_angle_gamma   119.49856764
_symmetry_Int_Tables_number   1
_chemical_formula_structural   Lu3ScAl17GaIr6
_chemical_formula_sum   'Lu3 Sc1 Al17 Ga1 Ir6'
_cell_volume   460.98621056
_cell_formula_units_Z   1
loop_
 _symmetry_equiv_pos_site_id
 _symmetry_equiv_pos_as_xyz
  1  'x, y, z'
loop_
 _atom_site_type_symbol
 _atom_site_label
 _atom_site_symmetry_multiplicity
 _atom_site_fract_x
 _atom_site_fract_y
 _atom_site_fract_z
 _atom_site_occupancy
  Lu  Lu0  1  0.993968  0.674087  0.250000  1
  Lu  Lu1  1  0.674308  0.994156  0.250000  1
  Lu  Lu2  1  0.328038  0.004700  0.750000  1
  Sc  Sc3  1  0.004736  0.328256  0.750000  1
  Al  Al4  1  0.872059  0.873326  0.750000  1
  Al  Al5  1  0.000632  0.335225  0.071046  1
  Al  Al6  1  0.999279  0.661995  0.922844  1
  Al  Al7  1  0.999279  0.661995  0.577156  1
  Al  Al8  1  0.335710  0.001087  0.425847  1
  Al  Al9  1  0.000632  0.335225  0.428954  1
  Al  Al10  1  0.666943  0.001724  0.577123  1
  Al  Al11  1  0.666943  0.001724  0.922877  1
  Al  Al12  1  0.335710  0.001087  0.074153  1
  Al  Al13  1  0.330836  0.332740  0.558646  1
  Al  Al14  1  0.666125  0.666115  0.447395  1
  Al  Al15  1  0.666125  0.666115  0.052605  1
  Al  Al16  1  0.330836  0.332740  0.941354  1
  Al  Al17  1  0.338204  0.549938  0.250000  1
  Al  Al18  1  0.662501  0.449725  0.750000  1
  Al  Al19  1  0.550430  0.339009  0.250000  1
  Al  Al20  1  0.447037  0.658949  0.750000  1
  Ga  Ga21  1  0.133272  0.133800  0.250000  1
  Ir  Ir22  1  0.671327  0.327211  0.000266  1
  Ir  Ir23  1  0.327506  0.671951  0.000283  1
  Ir  Ir24  1  0.327506  0.671951  0.499717  1
  Ir  Ir25  1  0.671327  0.327211  0.499734  1
  Ir  Ir26  1  0.999364  0.998978  0.997710  1
  Ir  Ir27  1  0.999364  0.998978  0.502290  1
