# generated using pymatgen
data_Ca4Zn4IrPd3
_symmetry_space_group_name_H-M   'P 1'
_cell_length_a   4.45170800
_cell_length_b   7.11843412
_cell_length_c   7.68599776
_cell_angle_alpha   90.19247026
_cell_angle_beta   90.00000000
_cell_angle_gamma   90.00000000
_symmetry_Int_Tables_number   1
_chemical_formula_structural   Ca4Zn4IrPd3
_chemical_formula_sum   'Ca4 Zn4 Ir1 Pd3'
_cell_volume   243.56166993
_cell_formula_units_Z   1
loop_
 _symmetry_equiv_pos_site_id
 _symmetry_equiv_pos_as_xyz
  1  'x, y, z'
loop_
 _atom_site_type_symbol
 _atom_site_label
 _atom_site_symmetry_multiplicity
 _atom_site_fract_x
 _atom_site_fract_y
 _atom_site_fract_z
 _atom_site_occupancy
  Ca  Ca0  1  0.250000  0.514677  0.188640  1
  Ca  Ca1  1  0.750000  0.495591  0.809768  1
  Ca  Ca2  1  0.750000  0.985144  0.696773  1
  Ca  Ca3  1  0.250000  0.008692  0.304661  1
  Zn  Zn4  1  0.250000  0.668914  0.583362  1
  Zn  Zn5  1  0.750000  0.333212  0.423653  1
  Zn  Zn6  1  0.750000  0.829925  0.071157  1
  Zn  Zn7  1  0.250000  0.160132  0.921578  1
  Ir  Ir8  1  0.250000  0.794485  0.898286  1
  Pd  Pd9  1  0.750000  0.208376  0.103207  1
  Pd  Pd10  1  0.750000  0.708374  0.397792  1
  Pd  Pd11  1  0.250000  0.292478  0.601125  1
