# generated using pymatgen
data_Tb4Co17Re3(Si5P)2
_symmetry_space_group_name_H-M   'P 1'
_cell_length_a   3.73408900
_cell_length_b   10.48142703
_cell_length_c   11.95986520
_cell_angle_alpha   90.27249946
_cell_angle_beta   90.00000000
_cell_angle_gamma   90.00000000
_symmetry_Int_Tables_number   1
_chemical_formula_structural   Tb4Co17Re3(Si5P)2
_chemical_formula_sum   'Tb4 Co17 Re3 Si10 P2'
_cell_volume   468.08686344
_cell_formula_units_Z   1
loop_
 _symmetry_equiv_pos_site_id
 _symmetry_equiv_pos_as_xyz
  1  'x, y, z'
loop_
 _atom_site_type_symbol
 _atom_site_label
 _atom_site_symmetry_multiplicity
 _atom_site_fract_x
 _atom_site_fract_y
 _atom_site_fract_z
 _atom_site_occupancy
  Tb  Tb0  1  0.250000  0.581709  0.703811  1
  Tb  Tb1  1  0.250000  0.919073  0.204214  1
  Tb  Tb2  1  0.750000  0.419353  0.298004  1
  Tb  Tb3  1  0.750000  0.077003  0.797483  1
  Co  Co4  1  0.750000  0.204319  0.508787  1
  Co  Co5  1  0.250000  0.408457  0.488053  1
  Co  Co6  1  0.250000  0.090576  0.988276  1
  Co  Co7  1  0.750000  0.593738  0.508118  1
  Co  Co8  1  0.750000  0.905540  0.009821  1
  Co  Co9  1  0.250000  0.214396  0.176004  1
  Co  Co10  1  0.250000  0.285919  0.671502  1
  Co  Co11  1  0.750000  0.785832  0.826591  1
  Co  Co12  1  0.750000  0.715305  0.326446  1
  Co  Co13  1  0.250000  0.885589  0.701877  1
  Co  Co14  1  0.250000  0.615281  0.200740  1
  Co  Co15  1  0.750000  0.116313  0.303037  1
  Co  Co16  1  0.750000  0.382939  0.799420  1
  Co  Co17  1  0.250000  0.466963  0.932957  1
  Co  Co18  1  0.250000  0.031714  0.433435  1
  Co  Co19  1  0.750000  0.532893  0.066501  1
  Co  Co20  1  0.750000  0.970963  0.568059  1
  Re  Re21  1  0.250000  0.704620  0.989522  1
  Re  Re22  1  0.250000  0.793674  0.489985  1
  Re  Re23  1  0.750000  0.298232  0.007923  1
  Si  Si24  1  0.250000  0.416446  0.114678  1
  Si  Si25  1  0.250000  0.085599  0.611550  1
  Si  Si26  1  0.750000  0.582812  0.885353  1
  Si  Si27  1  0.750000  0.917922  0.387811  1
  Si  Si28  1  0.250000  0.267897  0.864203  1
  Si  Si29  1  0.250000  0.228518  0.369851  1
  Si  Si30  1  0.750000  0.730711  0.134835  1
  Si  Si31  1  0.750000  0.772749  0.634925  1
  Si  Si32  1  0.750000  0.397169  0.603994  1
  Si  Si33  1  0.750000  0.100044  0.108451  1
  P  P34  1  0.250000  0.599406  0.390773  1
  P  P35  1  0.250000  0.900324  0.893011  1
