# generated using pymatgen
data_ErMnAl10Rh
_symmetry_space_group_name_H-M   'P 1'
_cell_length_a   6.82138170
_cell_length_b   6.82138205
_cell_length_c   9.08611620
_cell_angle_alpha   90.56416700
_cell_angle_beta   90.56416743
_cell_angle_gamma   96.82408173
_symmetry_Int_Tables_number   1
_chemical_formula_structural   ErMnAl10Rh
_chemical_formula_sum   'Er2 Mn2 Al20 Rh2'
_cell_volume   419.74698175
_cell_formula_units_Z   2
loop_
 _symmetry_equiv_pos_site_id
 _symmetry_equiv_pos_as_xyz
  1  'x, y, z'
loop_
 _atom_site_type_symbol
 _atom_site_label
 _atom_site_symmetry_multiplicity
 _atom_site_fract_x
 _atom_site_fract_y
 _atom_site_fract_z
 _atom_site_occupancy
  Er  Er0  1  0.873493  0.126507  0.750000  1
  Er  Er1  1  0.126507  0.873493  0.250000  1
  Mn  Mn2  1  0.000000  0.500000  0.000000  1
  Mn  Mn3  1  0.500000  0.000000  0.500000  1
  Al  Al4  1  0.619725  0.372276  0.548810  1
  Al  Al5  1  0.380275  0.627724  0.451190  1
  Al  Al6  1  0.372276  0.619725  0.048810  1
  Al  Al7  1  0.627724  0.380275  0.951190  1
  Al  Al8  1  0.229277  0.221612  0.496424  1
  Al  Al9  1  0.770723  0.778388  0.503576  1
  Al  Al10  1  0.778388  0.770723  0.003576  1
  Al  Al11  1  0.221612  0.229277  0.996424  1
  Al  Al12  1  0.848828  0.160793  0.098684  1
  Al  Al13  1  0.151172  0.839207  0.901316  1
  Al  Al14  1  0.160793  0.848828  0.598684  1
  Al  Al15  1  0.839207  0.151172  0.401316  1
  Al  Al16  1  0.861474  0.587106  0.753748  1
  Al  Al17  1  0.138526  0.412894  0.246252  1
  Al  Al18  1  0.412894  0.138526  0.746252  1
  Al  Al19  1  0.587106  0.861474  0.253748  1
  Al  Al20  1  0.221626  0.478219  0.755787  1
  Al  Al21  1  0.778374  0.521781  0.244213  1
  Al  Al22  1  0.521781  0.778374  0.744213  1
  Al  Al23  1  0.478219  0.221626  0.255787  1
  Rh  Rh24  1  0.000000  0.500000  0.500000  1
  Rh  Rh25  1  0.500000  0.000000  0.000000  1
