# generated using pymatgen
data_TbEr3HgPt
_symmetry_space_group_name_H-M   'P 1'
_cell_length_a   9.60795242
_cell_length_b   9.60795208
_cell_length_c   9.60795100
_cell_angle_alpha   60.00000028
_cell_angle_beta   60.00000146
_cell_angle_gamma   59.99999979
_symmetry_Int_Tables_number   1
_chemical_formula_structural   TbEr3HgPt
_chemical_formula_sum   'Tb4 Er12 Hg4 Pt4'
_cell_volume   627.15871129
_cell_formula_units_Z   4
loop_
 _symmetry_equiv_pos_site_id
 _symmetry_equiv_pos_as_xyz
  1  'x, y, z'
loop_
 _atom_site_type_symbol
 _atom_site_label
 _atom_site_symmetry_multiplicity
 _atom_site_fract_x
 _atom_site_fract_y
 _atom_site_fract_z
 _atom_site_occupancy
  Tb  Tb0  1  0.355481  0.355481  0.355481  1
  Tb  Tb1  1  0.355481  0.355481  0.933558  1
  Tb  Tb2  1  0.355481  0.933558  0.355481  1
  Tb  Tb3  1  0.933558  0.355481  0.355481  1
  Er  Er4  1  0.811081  0.188919  0.188919  1
  Er  Er5  1  0.188919  0.811081  0.811081  1
  Er  Er6  1  0.188919  0.811081  0.188919  1
  Er  Er7  1  0.811081  0.188919  0.811081  1
  Er  Er8  1  0.188919  0.188919  0.811081  1
  Er  Er9  1  0.811081  0.811081  0.188919  1
  Er  Er10  1  0.935260  0.564740  0.564740  1
  Er  Er11  1  0.564740  0.935260  0.935260  1
  Er  Er12  1  0.564740  0.935260  0.564740  1
  Er  Er13  1  0.935260  0.564740  0.935260  1
  Er  Er14  1  0.564740  0.564740  0.935260  1
  Er  Er15  1  0.935260  0.935260  0.564740  1
  Hg  Hg16  1  0.586891  0.586891  0.586891  1
  Hg  Hg17  1  0.586891  0.586891  0.239329  1
  Hg  Hg18  1  0.586891  0.239329  0.586891  1
  Hg  Hg19  1  0.239329  0.586891  0.586891  1
  Pt  Pt20  1  0.143320  0.143320  0.143320  1
  Pt  Pt21  1  0.143320  0.143320  0.570039  1
  Pt  Pt22  1  0.143320  0.570039  0.143320  1
  Pt  Pt23  1  0.570039  0.143320  0.143320  1
