# generated using pymatgen
data_Er8B24IrOsRu2
_symmetry_space_group_name_H-M   'P 1'
_cell_length_a   3.63583600
_cell_length_b   9.10524912
_cell_length_c   11.45789240
_cell_angle_alpha   90.06972215
_cell_angle_beta   90.00000000
_cell_angle_gamma   90.00000000
_symmetry_Int_Tables_number   1
_chemical_formula_structural   Er8B24IrOsRu2
_chemical_formula_sum   'Er8 B24 Ir1 Os1 Ru2'
_cell_volume   379.31545338
_cell_formula_units_Z   1
loop_
 _symmetry_equiv_pos_site_id
 _symmetry_equiv_pos_as_xyz
  1  'x, y, z'
loop_
 _atom_site_type_symbol
 _atom_site_label
 _atom_site_symmetry_multiplicity
 _atom_site_fract_x
 _atom_site_fract_y
 _atom_site_fract_z
 _atom_site_occupancy
  Er  Er0  1  0.000000  0.319181  0.414555  1
  Er  Er1  1  0.000000  0.679355  0.589132  1
  Er  Er2  1  0.000000  0.822920  0.084103  1
  Er  Er3  1  0.000000  0.178437  0.913414  1
  Er  Er4  1  0.000000  0.945845  0.372998  1
  Er  Er5  1  0.000000  0.056253  0.626353  1
  Er  Er6  1  0.000000  0.441766  0.125796  1
  Er  Er7  1  0.000000  0.555279  0.873534  1
  B  B8  1  0.500000  0.553840  0.434057  1
  B  B9  1  0.500000  0.446163  0.566526  1
  B  B10  1  0.500000  0.054157  0.066749  1
  B  B11  1  0.500000  0.946231  0.933285  1
  B  B12  1  0.500000  0.749843  0.421447  1
  B  B13  1  0.500000  0.251479  0.579577  1
  B  B14  1  0.500000  0.248218  0.079600  1
  B  B15  1  0.500000  0.751562  0.920313  1
  B  B16  1  0.500000  0.792487  0.265369  1
  B  B17  1  0.500000  0.208586  0.733754  1
  B  B18  1  0.500000  0.291796  0.234481  1
  B  B19  1  0.500000  0.708106  0.766090  1
  B  B20  1  0.500000  0.631886  0.183619  1
  B  B21  1  0.500000  0.368253  0.815046  1
  B  B22  1  0.500000  0.131933  0.315185  1
  B  B23  1  0.500000  0.868123  0.685037  1
  B  B24  1  0.500000  0.982729  0.212923  1
  B  B25  1  0.500000  0.017350  0.786787  1
  B  B26  1  0.500000  0.481670  0.286754  1
  B  B27  1  0.500000  0.516999  0.713226  1
  B  B28  1  0.500000  0.608720  0.030432  1
  B  B29  1  0.500000  0.390860  0.970171  1
  B  B30  1  0.500000  0.108864  0.469835  1
  B  B31  1  0.500000  0.891015  0.529484  1
  Ir  Ir32  1  0.000000  0.637677  0.321776  1
  Os  Os33  1  0.000000  0.862123  0.821182  1
  Ru  Ru34  1  0.000000  0.362458  0.678414  1
  Ru  Ru35  1  0.000000  0.137839  0.178996  1
