# generated using pymatgen
data_Yb2YHo(Ga2Ag)4
_symmetry_space_group_name_H-M   'P 1'
_cell_length_a   4.35445400
_cell_length_b   6.97445588
_cell_length_c   10.35266699
_cell_angle_alpha   90.69983543
_cell_angle_beta   90.00000000
_cell_angle_gamma   90.00000000
_symmetry_Int_Tables_number   1
_chemical_formula_structural   Yb2YHo(Ga2Ag)4
_chemical_formula_sum   'Yb2 Y1 Ho1 Ga8 Ag4'
_cell_volume   314.38649742
_cell_formula_units_Z   1
loop_
 _symmetry_equiv_pos_site_id
 _symmetry_equiv_pos_as_xyz
  1  'x, y, z'
loop_
 _atom_site_type_symbol
 _atom_site_label
 _atom_site_symmetry_multiplicity
 _atom_site_fract_x
 _atom_site_fract_y
 _atom_site_fract_z
 _atom_site_occupancy
  Yb  Yb0  1  0.750000  0.723711  0.328343  1
  Yb  Yb1  1  0.250000  0.276221  0.671542  1
  Y  Y2  1  0.250000  0.777071  0.827911  1
  Ho  Ho3  1  0.750000  0.223019  0.171848  1
  Ga  Ga4  1  0.250000  0.702337  0.534790  1
  Ga  Ga5  1  0.750000  0.297501  0.464863  1
  Ga  Ga6  1  0.750000  0.796310  0.036279  1
  Ga  Ga7  1  0.250000  0.203967  0.964266  1
  Ga  Ga8  1  0.250000  0.927216  0.150919  1
  Ga  Ga9  1  0.750000  0.073735  0.849181  1
  Ga  Ga10  1  0.750000  0.572196  0.651383  1
  Ga  Ga11  1  0.250000  0.427506  0.348315  1
  Ag  Ag12  1  0.250000  0.541904  0.099581  1
  Ag  Ag13  1  0.750000  0.457222  0.900894  1
  Ag  Ag14  1  0.750000  0.960040  0.598935  1
  Ag  Ag15  1  0.250000  0.040045  0.400950  1
