# generated using pymatgen
data_Yb2Tc2B4Ru3
_symmetry_space_group_name_H-M   'P 1'
_cell_length_a   3.01079200
_cell_length_b   8.77197902
_cell_length_c   10.15929200
_cell_angle_alpha   89.99520720
_cell_angle_beta   90.00000000
_cell_angle_gamma   90.00000000
_symmetry_Int_Tables_number   1
_chemical_formula_structural   Yb2Tc2B4Ru3
_chemical_formula_sum   'Yb4 Tc4 B8 Ru6'
_cell_volume   268.31303958
_cell_formula_units_Z   2
loop_
 _symmetry_equiv_pos_site_id
 _symmetry_equiv_pos_as_xyz
  1  'x, y, z'
loop_
 _atom_site_type_symbol
 _atom_site_label
 _atom_site_symmetry_multiplicity
 _atom_site_fract_x
 _atom_site_fract_y
 _atom_site_fract_z
 _atom_site_occupancy
  Yb  Yb0  1  0.500000  0.835982  0.182066  1
  Yb  Yb1  1  0.500000  0.164018  0.817934  1
  Yb  Yb2  1  0.500000  0.664417  0.682405  1
  Yb  Yb3  1  0.500000  0.335583  0.317595  1
  Tc  Tc4  1  0.000000  0.658464  0.954931  1
  Tc  Tc5  1  0.000000  0.341536  0.045069  1
  Tc  Tc6  1  0.000000  0.841609  0.454930  1
  Tc  Tc7  1  0.000000  0.158391  0.545070  1
  B  B8  1  0.500000  0.967155  0.587008  1
  B  B9  1  0.500000  0.032845  0.412992  1
  B  B10  1  0.500000  0.850184  0.902471  1
  B  B11  1  0.500000  0.149816  0.097529  1
  B  B12  1  0.500000  0.649913  0.402487  1
  B  B13  1  0.500000  0.350087  0.597513  1
  B  B14  1  0.500000  0.467185  0.913060  1
  B  B15  1  0.500000  0.532815  0.086940  1
  Ru  Ru16  1  0.000000  0.000000  0.000000  1
  Ru  Ru17  1  0.000000  0.412955  0.759154  1
  Ru  Ru18  1  0.000000  0.587045  0.240846  1
  Ru  Ru19  1  0.000000  0.500000  0.500000  1
  Ru  Ru20  1  0.000000  0.912940  0.740785  1
  Ru  Ru21  1  0.000000  0.087060  0.259215  1
