# generated using pymatgen
data_Er3ZnCd3AgPd
_symmetry_space_group_name_H-M   'P 1'
_cell_length_a   7.85569100
_cell_length_b   7.85568991
_cell_length_c   3.73527200
_cell_angle_alpha   90.00000000
_cell_angle_beta   90.00000000
_cell_angle_gamma   120.00000038
_symmetry_Int_Tables_number   1
_chemical_formula_structural   Er3ZnCd3AgPd
_chemical_formula_sum   'Er3 Zn1 Cd3 Ag1 Pd1'
_cell_volume   199.62806023
_cell_formula_units_Z   1
loop_
 _symmetry_equiv_pos_site_id
 _symmetry_equiv_pos_as_xyz
  1  'x, y, z'
loop_
 _atom_site_type_symbol
 _atom_site_label
 _atom_site_symmetry_multiplicity
 _atom_site_fract_x
 _atom_site_fract_y
 _atom_site_fract_z
 _atom_site_occupancy
  Er  Er0  1  0.601064  0.018702  0.000000  1
  Er  Er1  1  0.981298  0.582362  0.000000  1
  Er  Er2  1  0.417638  0.398936  0.000000  1
  Zn  Zn3  1  0.000000  0.000000  0.000000  1
  Cd  Cd4  1  0.259194  0.998233  0.500000  1
  Cd  Cd5  1  0.001767  0.260961  0.500000  1
  Cd  Cd6  1  0.739039  0.740806  0.500000  1
  Ag  Ag7  1  0.333333  0.666667  0.500000  1
  Pd  Pd8  1  0.666667  0.333333  0.500000  1
