# generated using pymatgen
data_MnCdCo4(PO4)4
_symmetry_space_group_name_H-M   'P 1'
_cell_length_a   5.10603925
_cell_length_b   7.85160814
_cell_length_c   8.74417110
_cell_angle_alpha   89.99189431
_cell_angle_beta   90.09630197
_cell_angle_gamma   93.68563914
_symmetry_Int_Tables_number   1
_chemical_formula_structural   MnCdCo4(PO4)4
_chemical_formula_sum   'Mn1 Cd1 Co4 P4 O16'
_cell_volume   349.83370005
_cell_formula_units_Z   1
loop_
 _symmetry_equiv_pos_site_id
 _symmetry_equiv_pos_as_xyz
  1  'x, y, z'
loop_
 _atom_site_type_symbol
 _atom_site_label
 _atom_site_symmetry_multiplicity
 _atom_site_fract_x
 _atom_site_fract_y
 _atom_site_fract_z
 _atom_site_occupancy
  Mn  Mn0  1  0.500377  0.999985  0.999623  1
  Cd  Cd1  1  0.000011  0.500007  0.499998  1
  Co  Co2  1  0.905181  0.386430  0.866636  1
  Co  Co3  1  0.094914  0.613550  0.133461  1
  Co  Co4  1  0.416935  0.888924  0.638162  1
  Co  Co5  1  0.582919  0.111051  0.361764  1
  P  P6  1  0.463726  0.291667  0.701398  1
  P  P7  1  0.969887  0.797852  0.805319  1
  P  P8  1  0.536325  0.708357  0.298622  1
  P  P9  1  0.030041  0.202118  0.194716  1
  O  O10  1  0.469756  0.140469  0.584146  1
  O  O11  1  0.968021  0.639942  0.915607  1
  O  O12  1  0.530263  0.859532  0.415902  1
  O  O13  1  0.031976  0.360065  0.084459  1
  O  O14  1  0.566834  0.234040  0.860948  1
  O  O15  1  0.071778  0.747336  0.643299  1
  O  O16  1  0.433213  0.766014  0.139094  1
  O  O17  1  0.928126  0.252643  0.356730  1
  O  O18  1  0.179610  0.348043  0.709656  1
  O  O19  1  0.687776  0.858812  0.799191  1
  O  O20  1  0.820467  0.652021  0.290396  1
  O  O21  1  0.312024  0.141048  0.200782  1
  O  O22  1  0.655665  0.442659  0.655294  1
  O  O23  1  0.168471  0.941218  0.858866  1
  O  O24  1  0.344456  0.557344  0.344777  1
  O  O25  1  0.831249  0.058873  0.141156  1
