# generated using pymatgen
data_Ca2ErTm5(B6Os)4
_symmetry_space_group_name_H-M   'P 1'
_cell_length_a   3.62210200
_cell_length_b   9.11259585
_cell_length_c   11.51526617
_cell_angle_alpha   89.81440164
_cell_angle_beta   90.00000000
_cell_angle_gamma   90.00000000
_symmetry_Int_Tables_number   1
_chemical_formula_structural   Ca2ErTm5(B6Os)4
_chemical_formula_sum   'Ca2 Er1 Tm5 B24 Os4'
_cell_volume   380.07953670
_cell_formula_units_Z   1
loop_
 _symmetry_equiv_pos_site_id
 _symmetry_equiv_pos_as_xyz
  1  'x, y, z'
loop_
 _atom_site_type_symbol
 _atom_site_label
 _atom_site_symmetry_multiplicity
 _atom_site_fract_x
 _atom_site_fract_y
 _atom_site_fract_z
 _atom_site_occupancy
  Ca  Ca0  1  0.000000  0.323182  0.414705  1
  Ca  Ca1  1  0.000000  0.676812  0.585318  1
  Er  Er2  1  0.000000  0.821774  0.086123  1
  Tm  Tm3  1  0.000000  0.178248  0.913765  1
  Tm  Tm4  1  0.000000  0.942360  0.370067  1
  Tm  Tm5  1  0.000000  0.057689  0.629963  1
  Tm  Tm6  1  0.000000  0.442847  0.129501  1
  Tm  Tm7  1  0.000000  0.557045  0.870460  1
  B  B8  1  0.500000  0.554204  0.431872  1
  B  B9  1  0.500000  0.445751  0.568178  1
  B  B10  1  0.500000  0.053528  0.066048  1
  B  B11  1  0.500000  0.946735  0.933806  1
  B  B12  1  0.500000  0.748968  0.417090  1
  B  B13  1  0.500000  0.251037  0.582976  1
  B  B14  1  0.500000  0.248712  0.080356  1
  B  B15  1  0.500000  0.751302  0.919410  1
  B  B16  1  0.500000  0.791916  0.263928  1
  B  B17  1  0.500000  0.207990  0.736260  1
  B  B18  1  0.500000  0.290232  0.233325  1
  B  B19  1  0.500000  0.709786  0.766632  1
  B  B20  1  0.500000  0.631284  0.184241  1
  B  B21  1  0.500000  0.368540  0.815889  1
  B  B22  1  0.500000  0.129963  0.313370  1
  B  B23  1  0.500000  0.870107  0.686639  1
  B  B24  1  0.500000  0.982325  0.211324  1
  B  B25  1  0.500000  0.017936  0.788743  1
  B  B26  1  0.500000  0.483518  0.286949  1
  B  B27  1  0.500000  0.516406  0.713072  1
  B  B28  1  0.500000  0.602940  0.028261  1
  B  B29  1  0.500000  0.396747  0.971658  1
  B  B30  1  0.500000  0.098435  0.472827  1
  B  B31  1  0.500000  0.901592  0.527204  1
  Os  Os32  1  0.000000  0.640562  0.317426  1
  Os  Os33  1  0.000000  0.359315  0.682697  1
  Os  Os34  1  0.000000  0.136417  0.176988  1
  Os  Os35  1  0.000000  0.863793  0.822929  1
