# generated using pymatgen
data_Y2Ho2Al18PdRh5
_symmetry_space_group_name_H-M   'P 1'
_cell_length_a   7.57298498
_cell_length_b   7.57388384
_cell_length_c   9.46284202
_cell_angle_alpha   90.02361200
_cell_angle_beta   90.02845503
_cell_angle_gamma   119.48422958
_symmetry_Int_Tables_number   1
_chemical_formula_structural   Y2Ho2Al18PdRh5
_chemical_formula_sum   'Y2 Ho2 Al18 Pd1 Rh5'
_cell_volume   472.46705776
_cell_formula_units_Z   1
loop_
 _symmetry_equiv_pos_site_id
 _symmetry_equiv_pos_as_xyz
  1  'x, y, z'
loop_
 _atom_site_type_symbol
 _atom_site_label
 _atom_site_symmetry_multiplicity
 _atom_site_fract_x
 _atom_site_fract_y
 _atom_site_fract_z
 _atom_site_occupancy
  Y  Y0  1  0.993937  0.670155  0.249506  1
  Y  Y1  1  0.004220  0.328473  0.750280  1
  Ho  Ho2  1  0.671520  0.995793  0.249696  1
  Ho  Ho3  1  0.329796  0.006000  0.750515  1
  Al  Al4  1  0.127406  0.126602  0.249540  1
  Al  Al5  1  0.873525  0.872495  0.750460  1
  Al  Al6  1  0.000438  0.334919  0.075908  1
  Al  Al7  1  0.000698  0.665002  0.924710  1
  Al  Al8  1  0.003044  0.668705  0.576921  1
  Al  Al9  1  0.331557  0.997090  0.423199  1
  Al  Al10  1  0.005052  0.335562  0.422795  1
  Al  Al11  1  0.664195  0.994839  0.577098  1
  Al  Al12  1  0.664829  0.999443  0.924202  1
  Al  Al13  1  0.335253  0.999427  0.075164  1
  Al  Al14  1  0.330029  0.333220  0.553424  1
  Al  Al15  1  0.666678  0.670078  0.446582  1
  Al  Al16  1  0.667673  0.667752  0.049376  1
  Al  Al17  1  0.332342  0.332219  0.950623  1
  Al  Al18  1  0.340975  0.551195  0.249421  1
  Al  Al19  1  0.659551  0.452585  0.753340  1
  Al  Al20  1  0.547268  0.340199  0.246655  1
  Al  Al21  1  0.448909  0.659252  0.750580  1
  Pd  Pd22  1  0.672191  0.327736  0.499992  1
  Rh  Rh23  1  0.672365  0.327527  0.000009  1
  Rh  Rh24  1  0.328204  0.671922  0.000005  1
  Rh  Rh25  1  0.328196  0.671938  0.499998  1
  Rh  Rh26  1  0.000178  0.999839  0.000011  1
  Rh  Rh27  1  0.999974  0.000035  0.499992  1
