# generated using pymatgen
data_Zr16Re2Ni4MoPt
_symmetry_space_group_name_H-M   'P 1'
_cell_length_a   8.76821935
_cell_length_b   8.76386328
_cell_length_c   8.77971742
_cell_angle_alpha   60.05971440
_cell_angle_beta   60.05054589
_cell_angle_gamma   60.01642735
_symmetry_Int_Tables_number   1
_chemical_formula_structural   Zr16Re2Ni4MoPt
_chemical_formula_sum   'Zr16 Re2 Ni4 Mo1 Pt1'
_cell_volume   477.51597397
_cell_formula_units_Z   1
loop_
 _symmetry_equiv_pos_site_id
 _symmetry_equiv_pos_as_xyz
  1  'x, y, z'
loop_
 _atom_site_type_symbol
 _atom_site_label
 _atom_site_symmetry_multiplicity
 _atom_site_fract_x
 _atom_site_fract_y
 _atom_site_fract_z
 _atom_site_occupancy
  Zr  Zr0  1  0.194597  0.601769  0.601865  1
  Zr  Zr1  1  0.603223  0.192353  0.602861  1
  Zr  Zr2  1  0.603223  0.601563  0.602861  1
  Zr  Zr3  1  0.603966  0.602701  0.190632  1
  Zr  Zr4  1  0.455367  0.452087  0.046156  1
  Zr  Zr5  1  0.047165  0.045143  0.454273  1
  Zr  Zr6  1  0.455367  0.046391  0.046156  1
  Zr  Zr7  1  0.047165  0.453417  0.454273  1
  Zr  Zr8  1  0.046860  0.454182  0.044777  1
  Zr  Zr9  1  0.452334  0.048662  0.450341  1
  Zr  Zr10  1  0.813561  0.816145  0.185358  1
  Zr  Zr11  1  0.176292  0.191283  0.816448  1
  Zr  Zr12  1  0.813561  0.184937  0.185358  1
  Zr  Zr13  1  0.176292  0.815978  0.816448  1
  Zr  Zr14  1  0.176553  0.816363  0.190721  1
  Zr  Zr15  1  0.813414  0.185140  0.816306  1
  Re  Re16  1  0.836447  0.501440  0.831747  1
  Re  Re17  1  0.836447  0.830366  0.831747  1
  Ni  Ni18  1  0.826970  0.391183  0.390664  1
  Ni  Ni19  1  0.394038  0.827271  0.388896  1
  Ni  Ni20  1  0.394038  0.389796  0.388896  1
  Ni  Ni21  1  0.393193  0.389554  0.827699  1
  Mo  Mo22  1  0.834797  0.830671  0.503861  1
  Pt  Pt23  1  0.505130  0.831604  0.831661  1
