# generated using pymatgen
data_NdDy2(Co3P2)3
_symmetry_space_group_name_H-M   'P 1'
_cell_length_a   3.71369400
_cell_length_b   10.54845900
_cell_length_c   12.21276500
_cell_angle_alpha   90.00000000
_cell_angle_beta   90.00000000
_cell_angle_gamma   90.00000000
_symmetry_Int_Tables_number   1
_chemical_formula_structural   NdDy2(Co3P2)3
_chemical_formula_sum   'Nd2 Dy4 Co18 P12'
_cell_volume   478.41978945
_cell_formula_units_Z   2
loop_
 _symmetry_equiv_pos_site_id
 _symmetry_equiv_pos_as_xyz
  1  'x, y, z'
loop_
 _atom_site_type_symbol
 _atom_site_label
 _atom_site_symmetry_multiplicity
 _atom_site_fract_x
 _atom_site_fract_y
 _atom_site_fract_z
 _atom_site_occupancy
  Nd  Nd0  1  0.000000  0.500000  0.522085  1
  Nd  Nd1  1  0.500000  0.000000  0.477915  1
  Dy  Dy2  1  0.500000  0.817415  0.204715  1
  Dy  Dy3  1  0.500000  0.182585  0.204715  1
  Dy  Dy4  1  0.000000  0.682585  0.795285  1
  Dy  Dy5  1  0.000000  0.317415  0.795285  1
  Co  Co6  1  0.500000  0.500000  0.156391  1
  Co  Co7  1  0.000000  0.000000  0.843609  1
  Co  Co8  1  0.500000  0.500000  0.706569  1
  Co  Co9  1  0.000000  0.000000  0.293431  1
  Co  Co10  1  0.000000  0.500000  0.986830  1
  Co  Co11  1  0.500000  0.000000  0.013170  1
  Co  Co12  1  0.500000  0.333311  0.995120  1
  Co  Co13  1  0.500000  0.666689  0.995120  1
  Co  Co14  1  0.000000  0.166689  0.004880  1
  Co  Co15  1  0.000000  0.833311  0.004880  1
  Co  Co16  1  0.500000  0.296499  0.429185  1
  Co  Co17  1  0.500000  0.703501  0.429185  1
  Co  Co18  1  0.000000  0.203501  0.570815  1
  Co  Co19  1  0.000000  0.796499  0.570815  1
  Co  Co20  1  0.500000  0.879729  0.712782  1
  Co  Co21  1  0.500000  0.120271  0.712782  1
  Co  Co22  1  0.000000  0.620271  0.287218  1
  Co  Co23  1  0.000000  0.379729  0.287218  1
  P  P24  1  0.500000  0.500000  0.884097  1
  P  P25  1  0.000000  0.000000  0.115903  1
  P  P26  1  0.500000  0.500000  0.339372  1
  P  P27  1  0.000000  0.000000  0.660628  1
  P  P28  1  0.500000  0.307334  0.617521  1
  P  P29  1  0.500000  0.692666  0.617521  1
  P  P30  1  0.000000  0.192666  0.382479  1
  P  P31  1  0.000000  0.807334  0.382479  1
  P  P32  1  0.500000  0.846718  0.894411  1
  P  P33  1  0.500000  0.153282  0.894411  1
  P  P34  1  0.000000  0.653282  0.105589  1
  P  P35  1  0.000000  0.346718  0.105589  1
