# generated using pymatgen
data_HoLuNi12As7
_symmetry_space_group_name_H-M   'P 1'
_cell_length_a   9.37564800
_cell_length_b   9.37564820
_cell_length_c   3.83148000
_cell_angle_alpha   90.00000000
_cell_angle_beta   90.00000000
_cell_angle_gamma   120.00000635
_symmetry_Int_Tables_number   1
_chemical_formula_structural   HoLuNi12As7
_chemical_formula_sum   'Ho1 Lu1 Ni12 As7'
_cell_volume   291.67537423
_cell_formula_units_Z   1
loop_
 _symmetry_equiv_pos_site_id
 _symmetry_equiv_pos_as_xyz
  1  'x, y, z'
loop_
 _atom_site_type_symbol
 _atom_site_label
 _atom_site_symmetry_multiplicity
 _atom_site_fract_x
 _atom_site_fract_y
 _atom_site_fract_z
 _atom_site_occupancy
  Ho  Ho0  1  0.666667  0.333333  0.500000  1
  Lu  Lu1  1  0.000000  0.000000  0.000000  1
  Ni  Ni2  1  0.389758  0.284448  0.000000  1
  Ni  Ni3  1  0.894689  0.610242  0.000000  1
  Ni  Ni4  1  0.715552  0.105311  0.000000  1
  Ni  Ni5  1  0.613879  0.795641  0.000000  1
  Ni  Ni6  1  0.181761  0.386121  0.000000  1
  Ni  Ni7  1  0.204359  0.818239  0.000000  1
  Ni  Ni8  1  0.760079  0.717681  0.500000  1
  Ni  Ni9  1  0.957603  0.239921  0.500000  1
  Ni  Ni10  1  0.282319  0.042397  0.500000  1
  Ni  Ni11  1  0.429090  0.552589  0.500000  1
  Ni  Ni12  1  0.123498  0.570910  0.500000  1
  Ni  Ni13  1  0.447411  0.876502  0.500000  1
  As  As14  1  0.619649  0.549292  0.000000  1
  As  As15  1  0.929642  0.380351  0.000000  1
  As  As16  1  0.450708  0.070358  0.000000  1
  As  As17  1  0.741805  0.965161  0.500000  1
  As  As18  1  0.223356  0.258195  0.500000  1
  As  As19  1  0.034839  0.776644  0.500000  1
  As  As20  1  0.333333  0.666667  0.000000  1
