# generated using pymatgen
data_Te(PdO3)2
_symmetry_space_group_name_H-M   'P 1'
_cell_length_a   4.74137500
_cell_length_b   4.74137500
_cell_length_c   9.59376400
_cell_angle_alpha   90.00000000
_cell_angle_beta   90.00000000
_cell_angle_gamma   90.00000000
_symmetry_Int_Tables_number   1
_chemical_formula_structural   Te(PdO3)2
_chemical_formula_sum   'Te2 Pd4 O12'
_cell_volume   215.67392490
_cell_formula_units_Z   2
loop_
 _symmetry_equiv_pos_site_id
 _symmetry_equiv_pos_as_xyz
  1  'x, y, z'
loop_
 _atom_site_type_symbol
 _atom_site_label
 _atom_site_symmetry_multiplicity
 _atom_site_fract_x
 _atom_site_fract_y
 _atom_site_fract_z
 _atom_site_occupancy
  Te  Te0  1  0.000000  0.000000  0.000000  1
  Te  Te1  1  0.500000  0.500000  0.500000  1
  Pd  Pd2  1  0.500000  0.500000  0.167906  1
  Pd  Pd3  1  0.000000  0.000000  0.332093  1
  Pd  Pd4  1  0.000000  0.000000  0.667906  1
  Pd  Pd5  1  0.500000  0.500000  0.832093  1
  O  O6  1  0.303130  0.303130  0.000000  1
  O  O7  1  0.696868  0.696868  0.000000  1
  O  O8  1  0.808499  0.191501  0.163401  1
  O  O9  1  0.191501  0.808499  0.163401  1
  O  O10  1  0.308499  0.308499  0.336599  1
  O  O11  1  0.691499  0.691499  0.336599  1
  O  O12  1  0.803130  0.196868  0.500000  1
  O  O13  1  0.196868  0.803130  0.500000  1
  O  O14  1  0.308499  0.308499  0.663402  1
  O  O15  1  0.691499  0.691499  0.663402  1
  O  O16  1  0.808499  0.191501  0.836599  1
  O  O17  1  0.191501  0.808499  0.836599  1
