# generated using pymatgen
data_HoTm11Tc3Pd
_symmetry_space_group_name_H-M   'P 1'
_cell_length_a   6.21730300
_cell_length_b   7.33252744
_cell_length_c   9.01460200
_cell_angle_alpha   90.00000000
_cell_angle_beta   90.00000000
_cell_angle_gamma   89.93023731
_symmetry_Int_Tables_number   1
_chemical_formula_structural   HoTm11Tc3Pd
_chemical_formula_sum   'Ho1 Tm11 Tc3 Pd1'
_cell_volume   410.96228269
_cell_formula_units_Z   1
loop_
 _symmetry_equiv_pos_site_id
 _symmetry_equiv_pos_as_xyz
  1  'x, y, z'
loop_
 _atom_site_type_symbol
 _atom_site_label
 _atom_site_symmetry_multiplicity
 _atom_site_fract_x
 _atom_site_fract_y
 _atom_site_fract_z
 _atom_site_occupancy
  Ho  Ho0  1  0.126079  0.456078  0.750000  1
  Tm  Tm1  1  0.330411  0.676792  0.067550  1
  Tm  Tm2  1  0.163442  0.177353  0.436380  1
  Tm  Tm3  1  0.663937  0.315942  0.557089  1
  Tm  Tm4  1  0.840752  0.829190  0.942213  1
  Tm  Tm5  1  0.663937  0.315942  0.942911  1
  Tm  Tm6  1  0.840752  0.829190  0.557787  1
  Tm  Tm7  1  0.330411  0.676792  0.432450  1
  Tm  Tm8  1  0.163442  0.177353  0.063620  1
  Tm  Tm9  1  0.873603  0.541432  0.250000  1
  Tm  Tm10  1  0.621757  0.037121  0.250000  1
  Tm  Tm11  1  0.371954  0.966598  0.750000  1
  Tc  Tc12  1  0.037567  0.884433  0.250000  1
  Tc  Tc13  1  0.464554  0.385750  0.250000  1
  Tc  Tc14  1  0.958036  0.115643  0.750000  1
  Pd  Pd15  1  0.549365  0.614388  0.750000  1
