# generated using pymatgen
data_Sr2Nb3Si7Pt9
_symmetry_space_group_name_H-M   'P 1'
_cell_length_a   9.98806900
_cell_length_b   9.98806833
_cell_length_c   4.04899000
_cell_angle_alpha   90.00000000
_cell_angle_beta   90.00000000
_cell_angle_gamma   119.99999892
_symmetry_Int_Tables_number   1
_chemical_formula_structural   Sr2Nb3Si7Pt9
_chemical_formula_sum   'Sr2 Nb3 Si7 Pt9'
_cell_volume   349.81657159
_cell_formula_units_Z   1
loop_
 _symmetry_equiv_pos_site_id
 _symmetry_equiv_pos_as_xyz
  1  'x, y, z'
loop_
 _atom_site_type_symbol
 _atom_site_label
 _atom_site_symmetry_multiplicity
 _atom_site_fract_x
 _atom_site_fract_y
 _atom_site_fract_z
 _atom_site_occupancy
  Sr  Sr0  1  0.000000  0.000000  0.000000  1
  Sr  Sr1  1  0.333333  0.666667  0.500000  1
  Nb  Nb2  1  0.880709  0.453451  0.500000  1
  Nb  Nb3  1  0.572742  0.119291  0.500000  1
  Nb  Nb4  1  0.546549  0.427258  0.500000  1
  Si  Si5  1  0.260680  0.216864  0.500000  1
  Si  Si6  1  0.783136  0.043817  0.500000  1
  Si  Si7  1  0.956183  0.739320  0.500000  1
  Si  Si8  1  0.554931  0.635628  0.000000  1
  Si  Si9  1  0.364372  0.919302  0.000000  1
  Si  Si10  1  0.080698  0.445069  0.000000  1
  Si  Si11  1  0.666667  0.333333  0.000000  1
  Pt  Pt12  1  0.228665  0.942765  0.500000  1
  Pt  Pt13  1  0.057235  0.285902  0.500000  1
  Pt  Pt14  1  0.714098  0.771335  0.500000  1
  Pt  Pt15  1  0.303669  0.402974  0.000000  1
  Pt  Pt16  1  0.597026  0.900695  0.000000  1
  Pt  Pt17  1  0.099305  0.696331  0.000000  1
  Pt  Pt18  1  0.389567  0.173413  0.000000  1
  Pt  Pt19  1  0.826587  0.216153  0.000000  1
  Pt  Pt20  1  0.783847  0.610433  0.000000  1
