# generated using pymatgen
data_TmHg4Se2Br5
_symmetry_space_group_name_H-M   'P 1'
_cell_length_a   8.62151596
_cell_length_b   10.97989900
_cell_length_c   9.38227313
_cell_angle_alpha   90.00000000
_cell_angle_beta   113.54685990
_cell_angle_gamma   90.00000000
_symmetry_Int_Tables_number   1
_chemical_formula_structural   TmHg4Se2Br5
_chemical_formula_sum   'Tm2 Hg8 Se4 Br10'
_cell_volume   814.20398724
_cell_formula_units_Z   2
loop_
 _symmetry_equiv_pos_site_id
 _symmetry_equiv_pos_as_xyz
  1  'x, y, z'
loop_
 _atom_site_type_symbol
 _atom_site_label
 _atom_site_symmetry_multiplicity
 _atom_site_fract_x
 _atom_site_fract_y
 _atom_site_fract_z
 _atom_site_occupancy
  Tm  Tm0  1  0.503027  0.431951  0.508948  1
  Tm  Tm1  1  0.496973  0.931951  0.491052  1
  Hg  Hg2  1  0.926333  0.185068  0.332896  1
  Hg  Hg3  1  0.073667  0.685068  0.667104  1
  Hg  Hg4  1  0.951776  0.665074  0.361288  1
  Hg  Hg5  1  0.048224  0.165074  0.638712  1
  Hg  Hg6  1  0.497133  0.181690  0.986877  1
  Hg  Hg7  1  0.502867  0.681690  0.013123  1
  Hg  Hg8  1  0.801214  0.432386  0.015255  1
  Hg  Hg9  1  0.198786  0.932386  0.984745  1
  Se  Se10  1  0.805265  0.199088  0.027067  1
  Se  Se11  1  0.194735  0.699088  0.972933  1
  Se  Se12  1  0.188727  0.163643  0.944313  1
  Se  Se13  1  0.811273  0.663643  0.055687  1
  Br  Br14  1  0.834688  0.924680  0.682806  1
  Br  Br15  1  0.165312  0.424680  0.317194  1
  Br  Br16  1  0.844683  0.438605  0.707070  1
  Br  Br17  1  0.155317  0.938605  0.292930  1
  Br  Br18  1  0.407999  0.457315  0.759454  1
  Br  Br19  1  0.592001  0.957315  0.240546  1
  Br  Br20  1  0.592129  0.393678  0.263301  1
  Br  Br21  1  0.407871  0.893678  0.736699  1
  Br  Br22  1  0.496547  0.180424  0.563027  1
  Br  Br23  1  0.503453  0.680424  0.436973  1
