# generated using pymatgen
data_Ta5Nb7Al8(AuC)4
_symmetry_space_group_name_H-M   'P 1'
_cell_length_a   8.44688851
_cell_length_b   8.44834425
_cell_length_c   8.45244905
_cell_angle_alpha   59.97943084
_cell_angle_beta   59.98788873
_cell_angle_gamma   59.93713421
_symmetry_Int_Tables_number   1
_chemical_formula_structural   Ta5Nb7Al8(AuC)4
_chemical_formula_sum   'Ta5 Nb7 Al8 Au4 C4'
_cell_volume   426.20835254
_cell_formula_units_Z   1
loop_
 _symmetry_equiv_pos_site_id
 _symmetry_equiv_pos_as_xyz
  1  'x, y, z'
loop_
 _atom_site_type_symbol
 _atom_site_label
 _atom_site_symmetry_multiplicity
 _atom_site_fract_x
 _atom_site_fract_y
 _atom_site_fract_z
 _atom_site_occupancy
  Ta  Ta0  1  0.928833  0.571015  0.571396  1
  Ta  Ta1  1  0.571964  0.928881  0.928919  1
  Ta  Ta2  1  0.928905  0.928851  0.571634  1
  Ta  Ta3  1  0.678812  0.321368  0.678491  1
  Ta  Ta4  1  0.928753  0.571550  0.928701  1
  Nb  Nb5  1  0.570199  0.930256  0.569365  1
  Nb  Nb6  1  0.319831  0.679849  0.680547  1
  Nb  Nb7  1  0.680928  0.319742  0.319783  1
  Nb  Nb8  1  0.319916  0.680332  0.319815  1
  Nb  Nb9  1  0.680998  0.680052  0.319489  1
  Nb  Nb10  1  0.319749  0.319655  0.680865  1
  Nb  Nb11  1  0.570038  0.568830  0.930616  1
  Al  Al12  1  0.914558  0.913790  0.914177  1
  Al  Al13  1  0.991659  0.336278  0.335555  1
  Al  Al14  1  0.336490  0.990912  0.336715  1
  Al  Al15  1  0.335683  0.336624  0.991511  1
  Al  Al16  1  0.913785  0.258071  0.914462  1
  Al  Al17  1  0.913482  0.914322  0.258266  1
  Al  Al18  1  0.258887  0.913531  0.913369  1
  Al  Al19  1  0.336831  0.335997  0.336390  1
  Au  Au20  1  0.125057  0.125133  0.125118  1
  Au  Au21  1  0.625046  0.124958  0.123111  1
  Au  Au22  1  0.123792  0.624794  0.125688  1
  Au  Au23  1  0.122523  0.126248  0.624957  1
  C  C24  1  0.627119  0.623305  0.625213  1
  C  C25  1  0.122530  0.625816  0.626148  1
  C  C26  1  0.626895  0.123795  0.626595  1
  C  C27  1  0.626736  0.626046  0.123104  1
