# generated using pymatgen
data_Ho7Er13(Zn3Ru)2
_symmetry_space_group_name_H-M   'P 1'
_cell_length_a   9.34223900
_cell_length_b   9.34223899
_cell_length_c   9.55869200
_cell_angle_alpha   90.00000000
_cell_angle_beta   90.00000000
_cell_angle_gamma   120.00000358
_symmetry_Int_Tables_number   1
_chemical_formula_structural   Ho7Er13(Zn3Ru)2
_chemical_formula_sum   'Ho7 Er13 Zn6 Ru2'
_cell_volume   722.48865274
_cell_formula_units_Z   1
loop_
 _symmetry_equiv_pos_site_id
 _symmetry_equiv_pos_as_xyz
  1  'x, y, z'
loop_
 _atom_site_type_symbol
 _atom_site_label
 _atom_site_symmetry_multiplicity
 _atom_site_fract_x
 _atom_site_fract_y
 _atom_site_fract_z
 _atom_site_occupancy
  Ho  Ho0  1  0.000000  0.000000  0.500000  1
  Ho  Ho1  1  0.540868  0.459132  0.249981  1
  Ho  Ho2  1  0.540868  0.081735  0.249981  1
  Ho  Ho3  1  0.918265  0.459132  0.249981  1
  Ho  Ho4  1  0.459132  0.540868  0.750019  1
  Ho  Ho5  1  0.459132  0.918265  0.750019  1
  Ho  Ho6  1  0.081735  0.540868  0.750019  1
  Er  Er7  1  0.000000  0.000000  0.000000  1
  Er  Er8  1  0.207857  0.792143  0.442111  1
  Er  Er9  1  0.207857  0.415714  0.442111  1
  Er  Er10  1  0.584286  0.792143  0.442111  1
  Er  Er11  1  0.792143  0.207857  0.557889  1
  Er  Er12  1  0.792143  0.584286  0.557889  1
  Er  Er13  1  0.415714  0.207857  0.557889  1
  Er  Er14  1  0.792246  0.207754  0.942086  1
  Er  Er15  1  0.792246  0.584492  0.942086  1
  Er  Er16  1  0.415508  0.207754  0.942086  1
  Er  Er17  1  0.207754  0.792246  0.057914  1
  Er  Er18  1  0.207754  0.415508  0.057914  1
  Er  Er19  1  0.584492  0.792246  0.057914  1
  Zn  Zn20  1  0.885865  0.114135  0.249817  1
  Zn  Zn21  1  0.885865  0.771732  0.249817  1
  Zn  Zn22  1  0.228268  0.114135  0.249817  1
  Zn  Zn23  1  0.114135  0.885865  0.750183  1
  Zn  Zn24  1  0.114135  0.228268  0.750183  1
  Zn  Zn25  1  0.771732  0.885865  0.750183  1
  Ru  Ru26  1  0.333333  0.666667  0.249926  1
  Ru  Ru27  1  0.666667  0.333333  0.750074  1
