# generated using pymatgen
data_Tb6Al24Fe2CoOs5
_symmetry_space_group_name_H-M   'P 1'
_cell_length_a   8.81568400
_cell_length_b   8.77673003
_cell_length_c   9.45942171
_cell_angle_alpha   90.37924248
_cell_angle_beta   90.00000000
_cell_angle_gamma   120.14691993
_symmetry_Int_Tables_number   1
_chemical_formula_structural   Tb6Al24Fe2CoOs5
_chemical_formula_sum   'Tb6 Al24 Fe2 Co1 Os5'
_cell_volume   632.88731062
_cell_formula_units_Z   1
loop_
 _symmetry_equiv_pos_site_id
 _symmetry_equiv_pos_as_xyz
  1  'x, y, z'
loop_
 _atom_site_type_symbol
 _atom_site_label
 _atom_site_symmetry_multiplicity
 _atom_site_fract_x
 _atom_site_fract_y
 _atom_site_fract_z
 _atom_site_occupancy
  Tb  Tb0  1  0.194764  0.389526  0.247629  1
  Tb  Tb1  1  0.805236  0.610474  0.752371  1
  Tb  Tb2  1  0.614043  0.804549  0.250805  1
  Tb  Tb3  1  0.385957  0.195451  0.749195  1
  Tb  Tb4  1  0.190506  0.804549  0.250805  1
  Tb  Tb5  1  0.809494  0.195451  0.749195  1
  Al  Al6  1  0.337122  0.674246  0.013926  1
  Al  Al7  1  0.662878  0.325754  0.986074  1
  Al  Al8  1  0.666826  0.333650  0.511731  1
  Al  Al9  1  0.333174  0.666350  0.488269  1
  Al  Al10  1  0.159100  0.318200  0.574034  1
  Al  Al11  1  0.840900  0.681800  0.425966  1
  Al  Al12  1  0.682675  0.842240  0.576339  1
  Al  Al13  1  0.840345  0.680691  0.074720  1
  Al  Al14  1  0.317325  0.157760  0.423661  1
  Al  Al15  1  0.159655  0.319309  0.925280  1
  Al  Al16  1  0.159566  0.842240  0.576339  1
  Al  Al17  1  0.318655  0.157241  0.074419  1
  Al  Al18  1  0.840434  0.157760  0.423661  1
  Al  Al19  1  0.681345  0.842759  0.925581  1
  Al  Al20  1  0.838585  0.157241  0.074419  1
  Al  Al21  1  0.161415  0.842759  0.925581  1
  Al  Al22  1  0.558110  0.116218  0.243757  1
  Al  Al23  1  0.441890  0.883782  0.756243  1
  Al  Al24  1  0.876352  0.437022  0.249155  1
  Al  Al25  1  0.123648  0.562978  0.750845  1
  Al  Al26  1  0.560670  0.437022  0.249155  1
  Al  Al27  1  0.439330  0.562978  0.750845  1
  Al  Al28  1  0.000185  0.000369  0.249805  1
  Al  Al29  1  0.999815  0.999631  0.750195  1
  Fe  Fe30  1  0.000000  0.000000  0.000000  1
  Fe  Fe31  1  0.000000  0.000000  0.500000  1
  Co  Co32  1  0.500000  0.000000  0.000000  1
  Os  Os33  1  0.000000  0.500000  0.000000  1
  Os  Os34  1  0.500000  0.000000  0.500000  1
  Os  Os35  1  0.500000  0.500000  0.000000  1
  Os  Os36  1  0.000000  0.500000  0.500000  1
  Os  Os37  1  0.500000  0.500000  0.500000  1
