# generated using pymatgen
data_YBiCl6
_symmetry_space_group_name_H-M   'P 1'
_cell_length_a   7.08972813
_cell_length_b   7.08972722
_cell_length_c   7.19402703
_cell_angle_alpha   80.30171245
_cell_angle_beta   80.30171491
_cell_angle_gamma   119.84018470
_symmetry_Int_Tables_number   1
_chemical_formula_structural   YBiCl6
_chemical_formula_sum   'Y1 Bi1 Cl6'
_cell_volume   295.41218740
_cell_formula_units_Z   1
loop_
 _symmetry_equiv_pos_site_id
 _symmetry_equiv_pos_as_xyz
  1  'x, y, z'
loop_
 _atom_site_type_symbol
 _atom_site_label
 _atom_site_symmetry_multiplicity
 _atom_site_fract_x
 _atom_site_fract_y
 _atom_site_fract_z
 _atom_site_occupancy
  Y  Y0  1  0.833442  0.166558  0.000000  1
  Bi  Bi1  1  0.166551  0.833449  0.000000  1
  Cl  Cl2  1  0.945461  0.568423  0.776045  1
  Cl  Cl3  1  0.431577  0.054539  0.223955  1
  Cl  Cl4  1  0.797165  0.805216  0.228575  1
  Cl  Cl5  1  0.194784  0.202835  0.771425  1
  Cl  Cl6  1  0.584400  0.953380  0.775981  1
  Cl  Cl7  1  0.046620  0.415600  0.224019  1
