# generated using pymatgen
data_Gd2Y2NiSn4Ru3
_symmetry_space_group_name_H-M   'P 1'
_cell_length_a   4.70964000
_cell_length_b   7.32297380
_cell_length_c   7.49250400
_cell_angle_alpha   89.67363881
_cell_angle_beta   90.00000000
_cell_angle_gamma   90.00000000
_symmetry_Int_Tables_number   1
_chemical_formula_structural   Gd2Y2NiSn4Ru3
_chemical_formula_sum   'Gd2 Y2 Ni1 Sn4 Ru3'
_cell_volume   258.40155904
_cell_formula_units_Z   1
loop_
 _symmetry_equiv_pos_site_id
 _symmetry_equiv_pos_as_xyz
  1  'x, y, z'
loop_
 _atom_site_type_symbol
 _atom_site_label
 _atom_site_symmetry_multiplicity
 _atom_site_fract_x
 _atom_site_fract_y
 _atom_site_fract_z
 _atom_site_occupancy
  Gd  Gd0  1  0.250000  0.985543  0.302204  1
  Gd  Gd1  1  0.250000  0.479833  0.198333  1
  Y  Y2  1  0.750000  0.520118  0.804033  1
  Y  Y3  1  0.750000  0.028286  0.698802  1
  Ni  Ni4  1  0.250000  0.660936  0.559714  1
  Sn  Sn5  1  0.250000  0.789767  0.888397  1
  Sn  Sn6  1  0.250000  0.303146  0.610268  1
  Sn  Sn7  1  0.750000  0.704401  0.396974  1
  Sn  Sn8  1  0.750000  0.204382  0.104275  1
  Ru  Ru9  1  0.750000  0.836446  0.058267  1
  Ru  Ru10  1  0.250000  0.151525  0.938692  1
  Ru  Ru11  1  0.750000  0.335616  0.440042  1
