# generated using pymatgen
data_Dy2Tm2GaCo4
_symmetry_space_group_name_H-M   'P 1'
_cell_length_a   5.44233235
_cell_length_b   5.44233388
_cell_length_c   8.84559158
_cell_angle_alpha   70.93209788
_cell_angle_beta   70.93209389
_cell_angle_gamma   43.31651112
_symmetry_Int_Tables_number   1
_chemical_formula_structural   Dy2Tm2GaCo4
_chemical_formula_sum   'Dy2 Tm2 Ga1 Co4'
_cell_volume   168.26790947
_cell_formula_units_Z   1
loop_
 _symmetry_equiv_pos_site_id
 _symmetry_equiv_pos_as_xyz
  1  'x, y, z'
loop_
 _atom_site_type_symbol
 _atom_site_label
 _atom_site_symmetry_multiplicity
 _atom_site_fract_x
 _atom_site_fract_y
 _atom_site_fract_z
 _atom_site_occupancy
  Dy  Dy0  1  0.746015  0.746015  0.663327  1
  Dy  Dy1  1  0.253985  0.253985  0.336673  1
  Tm  Tm2  1  0.391518  0.391518  0.886306  1
  Tm  Tm3  1  0.608482  0.608482  0.113694  1
  Ga  Ga4  1  0.500000  0.500000  0.500000  1
  Co  Co5  1  0.036444  0.036444  0.646699  1
  Co  Co6  1  0.963556  0.963556  0.353301  1
  Co  Co7  1  0.093653  0.093653  0.881295  1
  Co  Co8  1  0.906347  0.906347  0.118705  1
