# generated using pymatgen
data_Zr6Al6HgPt5
_symmetry_space_group_name_H-M   'P 1'
_cell_length_a   6.85632300
_cell_length_b   6.85632248
_cell_length_c   8.12379500
_cell_angle_alpha   90.00000000
_cell_angle_beta   90.00000000
_cell_angle_gamma   119.99999900
_symmetry_Int_Tables_number   1
_chemical_formula_structural   Zr6Al6HgPt5
_chemical_formula_sum   'Zr6 Al6 Hg1 Pt5'
_cell_volume   330.72886187
_cell_formula_units_Z   1
loop_
 _symmetry_equiv_pos_site_id
 _symmetry_equiv_pos_as_xyz
  1  'x, y, z'
loop_
 _atom_site_type_symbol
 _atom_site_label
 _atom_site_symmetry_multiplicity
 _atom_site_fract_x
 _atom_site_fract_y
 _atom_site_fract_z
 _atom_site_occupancy
  Zr  Zr0  1  0.993637  0.582178  0.758895  1
  Zr  Zr1  1  0.993081  0.582547  0.241022  1
  Zr  Zr2  1  0.589467  0.006919  0.241022  1
  Zr  Zr3  1  0.588541  0.006363  0.758895  1
  Zr  Zr4  1  0.417453  0.410533  0.241022  1
  Zr  Zr5  1  0.417822  0.411459  0.758895  1
  Al  Al6  1  0.983418  0.234629  0.500133  1
  Al  Al7  1  0.751778  0.755088  0.999914  1
  Al  Al8  1  0.003310  0.248222  0.999914  1
  Al  Al9  1  0.251211  0.016582  0.500133  1
  Al  Al10  1  0.244912  0.996690  0.999914  1
  Al  Al11  1  0.765371  0.748789  0.500133  1
  Hg  Hg12  1  0.333333  0.666667  0.499304  1
  Pt  Pt13  1  0.666667  0.333333  0.500388  1
  Pt  Pt14  1  0.666667  0.333333  0.999947  1
  Pt  Pt15  1  0.000000  0.000000  0.249579  1
  Pt  Pt16  1  0.000000  0.000000  0.750413  1
  Pt  Pt17  1  0.333333  0.666667  0.000476  1
