# generated using pymatgen
data_Tl2CdAg(Pt2O7)2
_symmetry_space_group_name_H-M   'P 1'
_cell_length_a   7.23273352
_cell_length_b   7.25054542
_cell_length_c   7.25054649
_cell_angle_alpha   60.49296736
_cell_angle_beta   60.38980955
_cell_angle_gamma   60.38980405
_symmetry_Int_Tables_number   1
_chemical_formula_structural   Tl2CdAg(Pt2O7)2
_chemical_formula_sum   'Tl2 Cd1 Ag1 Pt4 O14'
_cell_volume   271.43986411
_cell_formula_units_Z   1
loop_
 _symmetry_equiv_pos_site_id
 _symmetry_equiv_pos_as_xyz
  1  'x, y, z'
loop_
 _atom_site_type_symbol
 _atom_site_label
 _atom_site_symmetry_multiplicity
 _atom_site_fract_x
 _atom_site_fract_y
 _atom_site_fract_z
 _atom_site_occupancy
  Tl  Tl0  1  0.125000  0.625000  0.125000  1
  Tl  Tl1  1  0.125000  0.125000  0.625000  1
  Cd  Cd2  1  0.625000  0.125000  0.125000  1
  Ag  Ag3  1  0.125000  0.125000  0.125000  1
  Pt  Pt4  1  0.625000  0.625000  0.125000  1
  Pt  Pt5  1  0.625000  0.125000  0.625000  1
  Pt  Pt6  1  0.125000  0.625000  0.625000  1
  Pt  Pt7  1  0.625000  0.625000  0.625000  1
  O  O8  1  0.245310  0.240338  0.240338  1
  O  O9  1  0.701632  0.296248  0.296248  1
  O  O10  1  0.711577  0.291037  0.708106  1
  O  O11  1  0.292546  0.704563  0.293839  1
  O  O12  1  0.711577  0.708106  0.291037  1
  O  O13  1  0.292546  0.293839  0.704563  1
  O  O14  1  0.960242  0.539301  0.539301  1
  O  O15  1  0.289758  0.710699  0.710699  1
  O  O16  1  0.957454  0.956161  0.545437  1
  O  O17  1  0.538423  0.958963  0.541894  1
  O  O18  1  0.538423  0.541894  0.958963  1
  O  O19  1  0.957454  0.545437  0.956161  1
  O  O20  1  0.548368  0.953752  0.953752  1
  O  O21  1  0.004690  0.009662  0.009662  1
