# generated using pymatgen
data_Sm2Lu5Pa(ReB6)4
_symmetry_space_group_name_H-M   'P 1'
_cell_length_a   3.66865100
_cell_length_b   9.12412290
_cell_length_c   11.51006106
_cell_angle_alpha   90.12241530
_cell_angle_beta   90.00000000
_cell_angle_gamma   90.00000000
_symmetry_Int_Tables_number   1
_chemical_formula_structural   Sm2Lu5Pa(ReB6)4
_chemical_formula_sum   'Sm2 Lu5 Pa1 Re4 B24'
_cell_volume   385.27795679
_cell_formula_units_Z   1
loop_
 _symmetry_equiv_pos_site_id
 _symmetry_equiv_pos_as_xyz
  1  'x, y, z'
loop_
 _atom_site_type_symbol
 _atom_site_label
 _atom_site_symmetry_multiplicity
 _atom_site_fract_x
 _atom_site_fract_y
 _atom_site_fract_z
 _atom_site_occupancy
  Sm  Sm0  1  0.000000  0.679743  0.586996  1
  Sm  Sm1  1  0.000000  0.822792  0.085436  1
  Lu  Lu2  1  0.000000  0.176100  0.913502  1
  Lu  Lu3  1  0.000000  0.943421  0.371412  1
  Lu  Lu4  1  0.000000  0.055667  0.629509  1
  Lu  Lu5  1  0.000000  0.443135  0.127162  1
  Lu  Lu6  1  0.000000  0.556478  0.870526  1
  Pa  Pa7  1  0.000000  0.322794  0.414147  1
  Re  Re8  1  0.000000  0.635581  0.320689  1
  Re  Re9  1  0.000000  0.360049  0.678091  1
  Re  Re10  1  0.000000  0.142495  0.182103  1
  Re  Re11  1  0.000000  0.862460  0.820534  1
  B  B12  1  0.500000  0.552463  0.430935  1
  B  B13  1  0.500000  0.444021  0.567720  1
  B  B14  1  0.500000  0.055562  0.066906  1
  B  B15  1  0.500000  0.948129  0.932592  1
  B  B16  1  0.500000  0.750642  0.417284  1
  B  B17  1  0.500000  0.248806  0.581787  1
  B  B18  1  0.500000  0.250370  0.079634  1
  B  B19  1  0.500000  0.749655  0.917756  1
  B  B20  1  0.500000  0.792070  0.266169  1
  B  B21  1  0.500000  0.206837  0.735796  1
  B  B22  1  0.500000  0.292386  0.233982  1
  B  B23  1  0.500000  0.707992  0.766475  1
  B  B24  1  0.500000  0.629413  0.184768  1
  B  B25  1  0.500000  0.369104  0.815693  1
  B  B26  1  0.500000  0.131608  0.315325  1
  B  B27  1  0.500000  0.870923  0.686396  1
  B  B28  1  0.500000  0.983588  0.213179  1
  B  B29  1  0.500000  0.019570  0.788061  1
  B  B30  1  0.500000  0.481676  0.286473  1
  B  B31  1  0.500000  0.516789  0.714502  1
  B  B32  1  0.500000  0.598035  0.026639  1
  B  B33  1  0.500000  0.399011  0.971351  1
  B  B34  1  0.500000  0.101477  0.472234  1
  B  B35  1  0.500000  0.899158  0.528233  1
