# generated using pymatgen
data_Ta(Hg4Cl3)2
_symmetry_space_group_name_H-M   'P 1'
_cell_length_a   7.55633562
_cell_length_b   8.70623633
_cell_length_c   14.84438000
_cell_angle_alpha   96.01370117
_cell_angle_beta   91.20879798
_cell_angle_gamma   100.28976082
_symmetry_Int_Tables_number   1
_chemical_formula_structural   Ta(Hg4Cl3)2
_chemical_formula_sum   'Ta2 Hg16 Cl12'
_cell_volume   954.78568910
_cell_formula_units_Z   2
loop_
 _symmetry_equiv_pos_site_id
 _symmetry_equiv_pos_as_xyz
  1  'x, y, z'
loop_
 _atom_site_type_symbol
 _atom_site_label
 _atom_site_symmetry_multiplicity
 _atom_site_fract_x
 _atom_site_fract_y
 _atom_site_fract_z
 _atom_site_occupancy
  Ta  Ta0  1  0.000000  0.000000  0.000000  1
  Ta  Ta1  1  0.000000  0.000000  0.500000  1
  Hg  Hg2  1  0.580262  0.334444  0.110700  1
  Hg  Hg3  1  0.356468  0.648421  0.080279  1
  Hg  Hg4  1  0.290623  0.291027  0.268833  1
  Hg  Hg5  1  0.124989  0.588420  0.229908  1
  Hg  Hg6  1  0.698991  0.715846  0.216224  1
  Hg  Hg7  1  0.807852  0.397379  0.284362  1
  Hg  Hg8  1  0.419566  0.680811  0.372570  1
  Hg  Hg9  1  0.583013  0.330118  0.434067  1
  Hg  Hg10  1  0.416988  0.669881  0.565933  1
  Hg  Hg11  1  0.580434  0.319189  0.627430  1
  Hg  Hg12  1  0.192147  0.602621  0.715638  1
  Hg  Hg13  1  0.301008  0.284155  0.783776  1
  Hg  Hg14  1  0.875012  0.411581  0.770092  1
  Hg  Hg15  1  0.709376  0.708972  0.731167  1
  Hg  Hg16  1  0.643532  0.351579  0.919720  1
  Hg  Hg17  1  0.419738  0.665556  0.889299  1
  Cl  Cl18  1  0.085366  0.274244  0.992036  1
  Cl  Cl19  1  0.266646  0.001221  0.087632  1
  Cl  Cl20  1  0.847661  0.050902  0.134676  1
  Cl  Cl21  1  0.148943  0.965447  0.362406  1
  Cl  Cl22  1  0.730372  0.002873  0.415981  1
  Cl  Cl23  1  0.079506  0.276657  0.501537  1
  Cl  Cl24  1  0.920493  0.723344  0.498463  1
  Cl  Cl25  1  0.269627  0.997126  0.584018  1
  Cl  Cl26  1  0.851056  0.034553  0.637594  1
  Cl  Cl27  1  0.152340  0.949098  0.865324  1
  Cl  Cl28  1  0.733355  0.998778  0.912368  1
  Cl  Cl29  1  0.914633  0.725756  0.007964  1
