# generated using pymatgen
data_AcCuSeO
_symmetry_space_group_name_H-M   'P 1'
_cell_length_a   4.18300400
_cell_length_b   4.18300400
_cell_length_c   8.92767400
_cell_angle_alpha   90.00000000
_cell_angle_beta   90.00000000
_cell_angle_gamma   90.00000000
_symmetry_Int_Tables_number   1
_chemical_formula_structural   AcCuSeO
_chemical_formula_sum   'Ac2 Cu2 Se2 O2'
_cell_volume   156.21217637
_cell_formula_units_Z   2
loop_
 _symmetry_equiv_pos_site_id
 _symmetry_equiv_pos_as_xyz
  1  'x, y, z'
loop_
 _atom_site_type_symbol
 _atom_site_label
 _atom_site_symmetry_multiplicity
 _atom_site_fract_x
 _atom_site_fract_y
 _atom_site_fract_z
 _atom_site_occupancy
  Ac  Ac0  1  0.000000  0.500000  0.854101  1
  Ac  Ac1  1  0.500000  0.000000  0.145899  1
  Cu  Cu2  1  0.000000  0.000000  0.500000  1
  Cu  Cu3  1  0.500000  0.500000  0.500000  1
  Se  Se4  1  0.500000  0.000000  0.659749  1
  Se  Se5  1  0.000000  0.500000  0.340251  1
  O  O6  1  0.500000  0.500000  0.000000  1
  O  O7  1  0.000000  0.000000  0.000000  1
