# generated using pymatgen
data_MnBe2H7
_symmetry_space_group_name_H-M   'P 1'
_cell_length_a   4.19807122
_cell_length_b   4.19877955
_cell_length_c   5.72904131
_cell_angle_alpha   94.21518957
_cell_angle_beta   118.23572033
_cell_angle_gamma   99.21996674
_symmetry_Int_Tables_number   1
_chemical_formula_structural   MnBe2H7
_chemical_formula_sum   'Mn1 Be2 H7'
_cell_volume   86.51481555
_cell_formula_units_Z   1
loop_
 _symmetry_equiv_pos_site_id
 _symmetry_equiv_pos_as_xyz
  1  'x, y, z'
loop_
 _atom_site_type_symbol
 _atom_site_label
 _atom_site_symmetry_multiplicity
 _atom_site_fract_x
 _atom_site_fract_y
 _atom_site_fract_z
 _atom_site_occupancy
  Mn  Mn0  1  0.541940  0.405592  0.027008  1
  Be  Be1  1  0.075738  0.435293  0.068597  1
  Be  Be2  1  0.541893  0.903719  0.988836  1
  H  H3  1  0.883154  0.689848  0.217407  1
  H  H4  1  0.509669  0.524456  0.285612  1
  H  H5  1  0.242763  0.110590  0.018794  1
  H  H6  1  0.187175  0.544173  0.840664  1
  H  H7  1  0.444328  0.147219  0.770857  1
  H  H8  1  0.845519  0.220737  0.220022  1
  H  H9  1  0.643767  0.574021  0.829927  1
