# generated using pymatgen
data_Tb4VRe(B8Rh)2
_symmetry_space_group_name_H-M   'P 1'
_cell_length_a   3.57028400
_cell_length_b   5.98842015
_cell_length_c   11.59910546
_cell_angle_alpha   90.34306926
_cell_angle_beta   90.00000000
_cell_angle_gamma   90.00000000
_symmetry_Int_Tables_number   1
_chemical_formula_structural   Tb4VRe(B8Rh)2
_chemical_formula_sum   'Tb4 V1 Re1 B16 Rh2'
_cell_volume   247.98861228
_cell_formula_units_Z   1
loop_
 _symmetry_equiv_pos_site_id
 _symmetry_equiv_pos_as_xyz
  1  'x, y, z'
loop_
 _atom_site_type_symbol
 _atom_site_label
 _atom_site_symmetry_multiplicity
 _atom_site_fract_x
 _atom_site_fract_y
 _atom_site_fract_z
 _atom_site_occupancy
  Tb  Tb0  1  0.000000  0.125539  0.148925  1
  Tb  Tb1  1  0.000000  0.874221  0.850235  1
  Tb  Tb2  1  0.000000  0.628875  0.350783  1
  Tb  Tb3  1  0.000000  0.371235  0.650739  1
  V  V4  1  0.000000  0.373224  0.916340  1
  Re  Re5  1  0.000000  0.625939  0.084325  1
  B  B6  1  0.500000  0.475851  0.191947  1
  B  B7  1  0.500000  0.523903  0.807995  1
  B  B8  1  0.500000  0.974210  0.307914  1
  B  B9  1  0.500000  0.025576  0.692522  1
  B  B10  1  0.500000  0.286679  0.313616  1
  B  B11  1  0.500000  0.713345  0.686451  1
  B  B12  1  0.500000  0.785635  0.185253  1
  B  B13  1  0.500000  0.214358  0.814274  1
  B  B14  1  0.500000  0.364010  0.469177  1
  B  B15  1  0.500000  0.635776  0.531621  1
  B  B16  1  0.500000  0.864185  0.032110  1
  B  B17  1  0.500000  0.135612  0.967600  1
  B  B18  1  0.500000  0.386454  0.046257  1
  B  B19  1  0.500000  0.613329  0.953588  1
  B  B20  1  0.500000  0.887178  0.453191  1
  B  B21  1  0.500000  0.113209  0.547099  1
  Rh  Rh22  1  0.000000  0.141556  0.405740  1
  Rh  Rh23  1  0.000000  0.860102  0.592296  1
