# generated using pymatgen
data_Tb4DyY3(Sc3Si4)4
_symmetry_space_group_name_H-M   'P 1'
_cell_length_a   7.10524510
_cell_length_b   7.39291323
_cell_length_c   14.01809400
_cell_angle_alpha   90.00054251
_cell_angle_beta   90.00962020
_cell_angle_gamma   90.01435308
_symmetry_Int_Tables_number   1
_chemical_formula_structural   Tb4DyY3(Sc3Si4)4
_chemical_formula_sum   'Tb4 Dy1 Y3 Sc12 Si16'
_cell_volume   736.34886372
_cell_formula_units_Z   1
loop_
 _symmetry_equiv_pos_site_id
 _symmetry_equiv_pos_as_xyz
  1  'x, y, z'
loop_
 _atom_site_type_symbol
 _atom_site_label
 _atom_site_symmetry_multiplicity
 _atom_site_fract_x
 _atom_site_fract_y
 _atom_site_fract_z
 _atom_site_occupancy
  Tb  Tb0  1  0.012021  0.174850  0.097104  1
  Tb  Tb1  1  0.987957  0.825230  0.902914  1
  Tb  Tb2  1  0.488006  0.674736  0.903016  1
  Tb  Tb3  1  0.987953  0.825186  0.597002  1
  Dy  Dy4  1  0.487933  0.674876  0.597088  1
  Y  Y5  1  0.512045  0.325072  0.097188  1
  Y  Y6  1  0.012103  0.174998  0.402800  1
  Y  Y7  1  0.512058  0.325027  0.402903  1
  Sc  Sc8  1  0.160663  0.502303  0.749873  1
  Sc  Sc9  1  0.839342  0.497669  0.250065  1
  Sc  Sc10  1  0.339418  0.002346  0.250064  1
  Sc  Sc11  1  0.660646  0.997680  0.749864  1
  Sc  Sc12  1  0.330671  0.176713  0.625067  1
  Sc  Sc13  1  0.669369  0.823384  0.374904  1
  Sc  Sc14  1  0.169522  0.676580  0.374909  1
  Sc  Sc15  1  0.669345  0.823398  0.125194  1
  Sc  Sc16  1  0.830542  0.323424  0.625063  1
  Sc  Sc17  1  0.330637  0.176650  0.874873  1
  Sc  Sc18  1  0.830517  0.323420  0.874884  1
  Sc  Sc19  1  0.169513  0.676510  0.125192  1
  Si  Si20  1  0.033459  0.118508  0.749978  1
  Si  Si21  1  0.966599  0.881654  0.250089  1
  Si  Si22  1  0.466648  0.618128  0.250019  1
  Si  Si23  1  0.533401  0.381708  0.749905  1
  Si  Si24  1  0.285746  0.874582  0.749879  1
  Si  Si25  1  0.714279  0.125682  0.250131  1
  Si  Si26  1  0.214644  0.374404  0.250123  1
  Si  Si27  1  0.785393  0.625311  0.749872  1
  Si  Si28  1  0.157505  0.464395  0.539378  1
  Si  Si29  1  0.842528  0.535142  0.460485  1
  Si  Si30  1  0.342682  0.964681  0.460534  1
  Si  Si31  1  0.842544  0.535367  0.039489  1
  Si  Si32  1  0.657066  0.035512  0.539383  1
  Si  Si33  1  0.157210  0.464448  0.960611  1
  Si  Si34  1  0.657056  0.035706  0.960664  1
  Si  Si35  1  0.342982  0.964719  0.039496  1
