# generated using pymatgen
data_ErNi20(B3W)2
_symmetry_space_group_name_H-M   'P 1'
_cell_length_a   7.51469358
_cell_length_b   7.51469263
_cell_length_c   7.51469200
_cell_angle_alpha   60.00000278
_cell_angle_beta   60.00000696
_cell_angle_gamma   60.00000300
_symmetry_Int_Tables_number   1
_chemical_formula_structural   ErNi20(B3W)2
_chemical_formula_sum   'Er1 Ni20 B6 W2'
_cell_volume   300.06733919
_cell_formula_units_Z   1
loop_
 _symmetry_equiv_pos_site_id
 _symmetry_equiv_pos_as_xyz
  1  'x, y, z'
loop_
 _atom_site_type_symbol
 _atom_site_label
 _atom_site_symmetry_multiplicity
 _atom_site_fract_x
 _atom_site_fract_y
 _atom_site_fract_z
 _atom_site_occupancy
  Er  Er0  1  0.750000  0.750000  0.750000  1
  Ni  Ni1  1  0.608360  0.608360  0.174920  1
  Ni  Ni2  1  0.608360  0.174920  0.608360  1
  Ni  Ni3  1  0.174920  0.608360  0.608360  1
  Ni  Ni4  1  0.608360  0.608360  0.608360  1
  Ni  Ni5  1  0.380175  0.380175  0.859475  1
  Ni  Ni6  1  0.380175  0.859475  0.380175  1
  Ni  Ni7  1  0.859475  0.380175  0.380175  1
  Ni  Ni8  1  0.380175  0.380175  0.380175  1
  Ni  Ni9  1  0.003290  0.003290  0.337756  1
  Ni  Ni10  1  0.655663  0.003290  0.337756  1
  Ni  Ni11  1  0.003290  0.655663  0.337756  1
  Ni  Ni12  1  0.655663  0.337756  0.003290  1
  Ni  Ni13  1  0.003290  0.337756  0.003290  1
  Ni  Ni14  1  0.003290  0.337756  0.655663  1
  Ni  Ni15  1  0.337756  0.655663  0.003290  1
  Ni  Ni16  1  0.337756  0.003290  0.655663  1
  Ni  Ni17  1  0.337756  0.003290  0.003290  1
  Ni  Ni18  1  0.003290  0.003290  0.655663  1
  Ni  Ni19  1  0.003290  0.655663  0.003290  1
  Ni  Ni20  1  0.655663  0.003290  0.003290  1
  B  B21  1  0.731677  0.731677  0.268323  1
  B  B22  1  0.268323  0.731677  0.268323  1
  B  B23  1  0.731677  0.268323  0.268323  1
  B  B24  1  0.268323  0.268323  0.731677  1
  B  B25  1  0.731677  0.268323  0.731677  1
  B  B26  1  0.268323  0.731677  0.731677  1
  W  W27  1  0.000000  0.000000  0.000000  1
  W  W28  1  0.250000  0.250000  0.250000  1
