# generated using pymatgen
data_Si2Te3I2
_symmetry_space_group_name_H-M   'P 1'
_cell_length_a   12.10192600
_cell_length_b   12.10192483
_cell_length_c   10.69650700
_cell_angle_alpha   90.00000000
_cell_angle_beta   90.00000000
_cell_angle_gamma   120.00000320
_symmetry_Int_Tables_number   1
_chemical_formula_structural   Si2Te3I2
_chemical_formula_sum   'Si8 Te12 I8'
_cell_volume   1356.69286643
_cell_formula_units_Z   4
loop_
 _symmetry_equiv_pos_site_id
 _symmetry_equiv_pos_as_xyz
  1  'x, y, z'
loop_
 _atom_site_type_symbol
 _atom_site_label
 _atom_site_symmetry_multiplicity
 _atom_site_fract_x
 _atom_site_fract_y
 _atom_site_fract_z
 _atom_site_occupancy
  Si  Si0  1  0.815038  0.279954  0.768364  1
  Si  Si1  1  0.464917  0.184962  0.768364  1
  Si  Si2  1  0.333333  0.666667  0.941567  1
  Si  Si3  1  0.184962  0.720046  0.231636  1
  Si  Si4  1  0.535083  0.815038  0.231636  1
  Si  Si5  1  0.279954  0.464917  0.231636  1
  Si  Si6  1  0.666667  0.333333  0.058433  1
  Si  Si7  1  0.720046  0.535083  0.768364  1
  Te  Te8  1  0.606759  0.106895  0.676241  1
  Te  Te9  1  0.165406  0.725187  0.996801  1
  Te  Te10  1  0.559781  0.834594  0.996801  1
  Te  Te11  1  0.274813  0.440219  0.996801  1
  Te  Te12  1  0.440219  0.165406  0.003199  1
  Te  Te13  1  0.725187  0.559781  0.003199  1
  Te  Te14  1  0.834594  0.274813  0.003199  1
  Te  Te15  1  0.106895  0.500136  0.323759  1
  Te  Te16  1  0.500136  0.393241  0.676241  1
  Te  Te17  1  0.893105  0.499864  0.676241  1
  Te  Te18  1  0.393241  0.893105  0.323759  1
  Te  Te19  1  0.499864  0.606759  0.323759  1
  I  I20  1  0.972650  0.221296  0.691541  1
  I  I21  1  0.778704  0.751353  0.691541  1
  I  I22  1  0.027350  0.778704  0.308459  1
  I  I23  1  0.751353  0.972650  0.308459  1
  I  I24  1  0.221296  0.248647  0.308459  1
  I  I25  1  0.666667  0.333333  0.290229  1
  I  I26  1  0.333333  0.666667  0.709771  1
  I  I27  1  0.248647  0.027350  0.691541  1
