# generated using pymatgen
data_CaDy3Sc4(B6Os)4
_symmetry_space_group_name_H-M   'P 1'
_cell_length_a   3.56455300
_cell_length_b   8.97665089
_cell_length_c   11.37160747
_cell_angle_alpha   89.98446077
_cell_angle_beta   90.00000000
_cell_angle_gamma   90.00000000
_symmetry_Int_Tables_number   1
_chemical_formula_structural   CaDy3Sc4(B6Os)4
_chemical_formula_sum   'Ca1 Dy3 Sc4 B24 Os4'
_cell_volume   363.86581524
_cell_formula_units_Z   1
loop_
 _symmetry_equiv_pos_site_id
 _symmetry_equiv_pos_as_xyz
  1  'x, y, z'
loop_
 _atom_site_type_symbol
 _atom_site_label
 _atom_site_symmetry_multiplicity
 _atom_site_fract_x
 _atom_site_fract_y
 _atom_site_fract_z
 _atom_site_occupancy
  Ca  Ca0  1  0.000000  0.320288  0.413896  1
  Dy  Dy1  1  0.000000  0.678343  0.585473  1
  Dy  Dy2  1  0.000000  0.820169  0.086421  1
  Dy  Dy3  1  0.000000  0.180476  0.914454  1
  Sc  Sc4  1  0.000000  0.945277  0.372531  1
  Sc  Sc5  1  0.000000  0.056323  0.626671  1
  Sc  Sc6  1  0.000000  0.444717  0.127312  1
  Sc  Sc7  1  0.000000  0.554418  0.873928  1
  B  B8  1  0.500000  0.554911  0.432451  1
  B  B9  1  0.500000  0.445300  0.567678  1
  B  B10  1  0.500000  0.054140  0.066812  1
  B  B11  1  0.500000  0.945197  0.932340  1
  B  B12  1  0.500000  0.752723  0.418457  1
  B  B13  1  0.500000  0.247866  0.581544  1
  B  B14  1  0.500000  0.252414  0.081353  1
  B  B15  1  0.500000  0.747057  0.918872  1
  B  B16  1  0.500000  0.794062  0.265424  1
  B  B17  1  0.500000  0.206819  0.734681  1
  B  B18  1  0.500000  0.293121  0.234291  1
  B  B19  1  0.500000  0.706472  0.765584  1
  B  B20  1  0.500000  0.629137  0.183247  1
  B  B21  1  0.500000  0.371165  0.817660  1
  B  B22  1  0.500000  0.128808  0.316484  1
  B  B23  1  0.500000  0.871024  0.682781  1
  B  B24  1  0.500000  0.981525  0.213870  1
  B  B25  1  0.500000  0.018411  0.785255  1
  B  B26  1  0.500000  0.481749  0.285571  1
  B  B27  1  0.500000  0.518132  0.714541  1
  B  B28  1  0.500000  0.599947  0.027332  1
  B  B29  1  0.500000  0.400310  0.973304  1
  B  B30  1  0.500000  0.097844  0.473348  1
  B  B31  1  0.500000  0.901490  0.526761  1
  Os  Os32  1  0.000000  0.641347  0.318256  1
  Os  Os33  1  0.000000  0.360122  0.682808  1
  Os  Os34  1  0.000000  0.138614  0.180301  1
  Os  Os35  1  0.000000  0.860280  0.818309  1
