# generated using pymatgen
data_Tb2TmZrIn2Ir3
_symmetry_space_group_name_H-M   'P 1'
_cell_length_a   7.41675999
_cell_length_b   7.16693814
_cell_length_c   4.21186300
_cell_angle_alpha   90.00000000
_cell_angle_beta   90.00000000
_cell_angle_gamma   118.60011978
_symmetry_Int_Tables_number   1
_chemical_formula_structural   Tb2TmZrIn2Ir3
_chemical_formula_sum   'Tb2 Tm1 Zr1 In2 Ir3'
_cell_volume   196.56569087
_cell_formula_units_Z   1
loop_
 _symmetry_equiv_pos_site_id
 _symmetry_equiv_pos_as_xyz
  1  'x, y, z'
loop_
 _atom_site_type_symbol
 _atom_site_label
 _atom_site_symmetry_multiplicity
 _atom_site_fract_x
 _atom_site_fract_y
 _atom_site_fract_z
 _atom_site_occupancy
  Tb  Tb0  1  0.580565  0.994438  0.000000  1
  Tb  Tb1  1  0.999239  0.604796  0.000000  1
  Tm  Tm2  1  0.415931  0.412032  0.000000  1
  Zr  Zr3  1  0.999739  0.247070  0.500000  1
  In  In4  1  0.746888  0.747822  0.500000  1
  In  In5  1  0.254445  0.001527  0.500000  1
  Ir  Ir6  1  0.003814  0.020792  0.000000  1
  Ir  Ir7  1  0.323619  0.644733  0.500000  1
  Ir  Ir8  1  0.675759  0.326790  0.500000  1
