# generated using pymatgen
data_CaPrGa5GePd2
_symmetry_space_group_name_H-M   'P 1'
_cell_length_a   6.12751507
_cell_length_b   6.12751551
_cell_length_c   5.89934500
_cell_angle_alpha   90.00000000
_cell_angle_beta   90.00000000
_cell_angle_gamma   116.35661710
_symmetry_Int_Tables_number   1
_chemical_formula_structural   CaPrGa5GePd2
_chemical_formula_sum   'Ca1 Pr1 Ga5 Ge1 Pd2'
_cell_volume   198.47415391
_cell_formula_units_Z   1
loop_
 _symmetry_equiv_pos_site_id
 _symmetry_equiv_pos_as_xyz
  1  'x, y, z'
loop_
 _atom_site_type_symbol
 _atom_site_label
 _atom_site_symmetry_multiplicity
 _atom_site_fract_x
 _atom_site_fract_y
 _atom_site_fract_z
 _atom_site_occupancy
  Ca  Ca0  1  0.765824  0.234176  0.250000  1
  Pr  Pr1  1  0.235265  0.764735  0.750000  1
  Ga  Ga2  1  0.337162  0.662838  0.250000  1
  Ga  Ga3  1  0.719231  0.720210  0.998694  1
  Ga  Ga4  1  0.719231  0.720210  0.501306  1
  Ga  Ga5  1  0.279790  0.280769  0.998694  1
  Ga  Ga6  1  0.279790  0.280769  0.501306  1
  Ge  Ge7  1  0.664093  0.335907  0.750000  1
  Pd  Pd8  1  0.901734  0.098266  0.750000  1
  Pd  Pd9  1  0.097880  0.902120  0.250000  1
