# generated using pymatgen
data_Sc6Al8Si8Ir6Rh
_symmetry_space_group_name_H-M   'P 1'
_cell_length_a   8.61358525
_cell_length_b   8.61358505
_cell_length_c   8.61358600
_cell_angle_alpha   60.00000403
_cell_angle_beta   60.00000478
_cell_angle_gamma   60.00000243
_symmetry_Int_Tables_number   1
_chemical_formula_structural   Sc6Al8Si8Ir6Rh
_chemical_formula_sum   'Sc6 Al8 Si8 Ir6 Rh1'
_cell_volume   451.89437512
_cell_formula_units_Z   1
loop_
 _symmetry_equiv_pos_site_id
 _symmetry_equiv_pos_as_xyz
  1  'x, y, z'
loop_
 _atom_site_type_symbol
 _atom_site_label
 _atom_site_symmetry_multiplicity
 _atom_site_fract_x
 _atom_site_fract_y
 _atom_site_fract_z
 _atom_site_occupancy
  Sc  Sc0  1  0.192839  0.807161  0.807161  1
  Sc  Sc1  1  0.807161  0.192839  0.192839  1
  Sc  Sc2  1  0.807161  0.192839  0.807161  1
  Sc  Sc3  1  0.807161  0.807161  0.192839  1
  Sc  Sc4  1  0.192839  0.807161  0.192839  1
  Sc  Sc5  1  0.192839  0.192839  0.807161  1
  Al  Al6  1  0.621736  0.621736  0.621736  1
  Al  Al7  1  0.621736  0.621736  0.134790  1
  Al  Al8  1  0.134790  0.621736  0.621736  1
  Al  Al9  1  0.621736  0.134790  0.621736  1
  Al  Al10  1  0.378264  0.378264  0.378264  1
  Al  Al11  1  0.378264  0.378264  0.865210  1
  Al  Al12  1  0.378264  0.865210  0.378264  1
  Al  Al13  1  0.865210  0.378264  0.378264  1
  Si  Si14  1  0.846413  0.846413  0.846413  1
  Si  Si15  1  0.846413  0.846413  0.460762  1
  Si  Si16  1  0.460762  0.846413  0.846413  1
  Si  Si17  1  0.846413  0.460762  0.846413  1
  Si  Si18  1  0.153587  0.153587  0.153587  1
  Si  Si19  1  0.153587  0.153587  0.539238  1
  Si  Si20  1  0.153587  0.539238  0.153587  1
  Si  Si21  1  0.539238  0.153587  0.153587  1
  Ir  Ir22  1  0.000000  0.500000  0.500000  1
  Ir  Ir23  1  0.500000  0.000000  0.000000  1
  Ir  Ir24  1  0.500000  0.000000  0.500000  1
  Ir  Ir25  1  0.500000  0.500000  0.000000  1
  Ir  Ir26  1  0.000000  0.500000  0.000000  1
  Ir  Ir27  1  0.000000  0.000000  0.500000  1
  Rh  Rh28  1  0.500000  0.500000  0.500000  1
