# generated using pymatgen
data_Dy12Si12Os3Rh
_symmetry_space_group_name_H-M   'P 1'
_cell_length_a   4.20790800
_cell_length_b   10.68850224
_cell_length_c   12.33939607
_cell_angle_alpha   90.07677831
_cell_angle_beta   90.00000000
_cell_angle_gamma   90.00000000
_symmetry_Int_Tables_number   1
_chemical_formula_structural   Dy12Si12Os3Rh
_chemical_formula_sum   'Dy12 Si12 Os3 Rh1'
_cell_volume   554.97906804
_cell_formula_units_Z   1
loop_
 _symmetry_equiv_pos_site_id
 _symmetry_equiv_pos_as_xyz
  1  'x, y, z'
loop_
 _atom_site_type_symbol
 _atom_site_label
 _atom_site_symmetry_multiplicity
 _atom_site_fract_x
 _atom_site_fract_y
 _atom_site_fract_z
 _atom_site_occupancy
  Dy  Dy0  1  0.250000  0.880441  0.021263  1
  Dy  Dy1  1  0.250000  0.619930  0.520858  1
  Dy  Dy2  1  0.750000  0.120629  0.979541  1
  Dy  Dy3  1  0.750000  0.380912  0.478773  1
  Dy  Dy4  1  0.250000  0.920033  0.604648  1
  Dy  Dy5  1  0.250000  0.579159  0.104681  1
  Dy  Dy6  1  0.750000  0.078988  0.395468  1
  Dy  Dy7  1  0.750000  0.420408  0.894983  1
  Dy  Dy8  1  0.250000  0.661772  0.800401  1
  Dy  Dy9  1  0.250000  0.837846  0.299848  1
  Dy  Dy10  1  0.750000  0.338722  0.200088  1
  Dy  Dy11  1  0.750000  0.159912  0.698817  1
  Si  Si12  1  0.250000  0.012713  0.822444  1
  Si  Si13  1  0.250000  0.492459  0.320730  1
  Si  Si14  1  0.750000  0.991760  0.179133  1
  Si  Si15  1  0.750000  0.508340  0.679297  1
  Si  Si16  1  0.250000  0.248903  0.839932  1
  Si  Si17  1  0.250000  0.250616  0.341490  1
  Si  Si18  1  0.750000  0.750261  0.159078  1
  Si  Si19  1  0.750000  0.747984  0.657307  1
  Si  Si20  1  0.250000  0.203683  0.543955  1
  Si  Si21  1  0.250000  0.297547  0.044139  1
  Si  Si22  1  0.750000  0.797753  0.455832  1
  Si  Si23  1  0.750000  0.698585  0.958342  1
  Os  Os24  1  0.250000  0.389878  0.680154  1
  Os  Os25  1  0.250000  0.110592  0.180385  1
  Os  Os26  1  0.750000  0.611092  0.319619  1
  Rh  Rh27  1  0.750000  0.889085  0.818792  1
