# generated using pymatgen
data_Tm2Co7(P2Ru)3
_symmetry_space_group_name_H-M   'P 1'
_cell_length_a   3.71448400
_cell_length_b   10.41190000
_cell_length_c   11.81782500
_cell_angle_alpha   90.00000000
_cell_angle_beta   90.00000000
_cell_angle_gamma   90.00000000
_symmetry_Int_Tables_number   1
_chemical_formula_structural   Tm2Co7(P2Ru)3
_chemical_formula_sum   'Tm4 Co14 P12 Ru6'
_cell_volume   457.05244327
_cell_formula_units_Z   2
loop_
 _symmetry_equiv_pos_site_id
 _symmetry_equiv_pos_as_xyz
  1  'x, y, z'
loop_
 _atom_site_type_symbol
 _atom_site_label
 _atom_site_symmetry_multiplicity
 _atom_site_fract_x
 _atom_site_fract_y
 _atom_site_fract_z
 _atom_site_occupancy
  Tm  Tm0  1  0.250000  0.586713  0.705211  1
  Tm  Tm1  1  0.250000  0.913287  0.205211  1
  Tm  Tm2  1  0.750000  0.415007  0.292151  1
  Tm  Tm3  1  0.750000  0.084993  0.792151  1
  Co  Co4  1  0.750000  0.597143  0.513802  1
  Co  Co5  1  0.750000  0.902857  0.013802  1
  Co  Co6  1  0.250000  0.225191  0.179601  1
  Co  Co7  1  0.250000  0.274809  0.679601  1
  Co  Co8  1  0.750000  0.776847  0.821936  1
  Co  Co9  1  0.750000  0.723153  0.321936  1
  Co  Co10  1  0.250000  0.884639  0.700655  1
  Co  Co11  1  0.250000  0.615361  0.200655  1
  Co  Co12  1  0.750000  0.113252  0.298218  1
  Co  Co13  1  0.750000  0.386748  0.798218  1
  Co  Co14  1  0.250000  0.465290  0.930771  1
  Co  Co15  1  0.250000  0.034710  0.430771  1
  Co  Co16  1  0.750000  0.537479  0.068337  1
  Co  Co17  1  0.750000  0.962521  0.568337  1
  P  P18  1  0.250000  0.422325  0.112616  1
  P  P19  1  0.250000  0.077675  0.612616  1
  P  P20  1  0.750000  0.579392  0.886580  1
  P  P21  1  0.750000  0.920608  0.386580  1
  P  P22  1  0.250000  0.271914  0.866473  1
  P  P23  1  0.250000  0.228086  0.366473  1
  P  P24  1  0.750000  0.730647  0.132771  1
  P  P25  1  0.750000  0.769353  0.632771  1
  P  P26  1  0.250000  0.600167  0.386388  1
  P  P27  1  0.250000  0.899833  0.886388  1
  P  P28  1  0.750000  0.403478  0.612863  1
  P  P29  1  0.750000  0.096522  0.112863  1
  Ru  Ru30  1  0.250000  0.714782  0.990114  1
  Ru  Ru31  1  0.250000  0.785218  0.490114  1
  Ru  Ru32  1  0.750000  0.289633  0.013169  1
  Ru  Ru33  1  0.750000  0.210367  0.513169  1
  Ru  Ru34  1  0.250000  0.409250  0.488342  1
  Ru  Ru35  1  0.250000  0.090750  0.988342  1
