# generated using pymatgen
data_La8Er2AlSn5
_symmetry_space_group_name_H-M   'P 1'
_cell_length_a   9.41832532
_cell_length_b   9.41840174
_cell_length_c   9.41832679
_cell_angle_alpha   96.27996323
_cell_angle_beta   96.29864796
_cell_angle_gamma   141.34260629
_symmetry_Int_Tables_number   1
_chemical_formula_structural   La8Er2AlSn5
_chemical_formula_sum   'La8 Er2 Al1 Sn5'
_cell_volume   492.46547264
_cell_formula_units_Z   1
loop_
 _symmetry_equiv_pos_site_id
 _symmetry_equiv_pos_as_xyz
  1  'x, y, z'
loop_
 _atom_site_type_symbol
 _atom_site_label
 _atom_site_symmetry_multiplicity
 _atom_site_fract_x
 _atom_site_fract_y
 _atom_site_fract_z
 _atom_site_occupancy
  La  La0  1  0.906884  0.217974  0.132726  1
  La  La1  1  0.217952  0.085237  0.311062  1
  La  La2  1  0.774121  0.906845  0.688943  1
  La  La3  1  0.085247  0.774174  0.867276  1
  La  La4  1  0.725824  0.414763  0.132715  1
  La  La5  1  0.282098  0.593155  0.867276  1
  La  La6  1  0.593103  0.725826  0.311074  1
  La  La7  1  0.414752  0.282026  0.688909  1
  Er  Er8  1  0.749997  0.250000  0.499997  1
  Er  Er9  1  0.250006  0.750000  0.500006  1
  Al  Al10  1  0.750003  0.750000  0.000003  1
  Sn  Sn11  1  0.249992  0.250000  0.999992  1
  Sn  Sn12  1  0.846368  0.653642  0.500015  1
  Sn  Sn13  1  0.653638  0.153629  0.807272  1
  Sn  Sn14  1  0.346373  0.846358  0.192726  1
  Sn  Sn15  1  0.153643  0.346371  0.500009  1
