# generated using pymatgen
data_YbDy3(Rh2O7)2
_symmetry_space_group_name_H-M   'P 1'
_cell_length_a   7.21385006
_cell_length_b   7.21930726
_cell_length_c   7.21385000
_cell_angle_alpha   60.02501182
_cell_angle_beta   60.00000942
_cell_angle_gamma   60.02501133
_symmetry_Int_Tables_number   1
_chemical_formula_structural   YbDy3(Rh2O7)2
_chemical_formula_sum   'Yb1 Dy3 Rh4 O14'
_cell_volume   265.75341823
_cell_formula_units_Z   1
loop_
 _symmetry_equiv_pos_site_id
 _symmetry_equiv_pos_as_xyz
  1  'x, y, z'
loop_
 _atom_site_type_symbol
 _atom_site_label
 _atom_site_symmetry_multiplicity
 _atom_site_fract_x
 _atom_site_fract_y
 _atom_site_fract_z
 _atom_site_occupancy
  Yb  Yb0  1  0.125000  0.625000  0.125000  1
  Dy  Dy1  1  0.125000  0.125000  0.625000  1
  Dy  Dy2  1  0.625000  0.125000  0.125000  1
  Dy  Dy3  1  0.125000  0.125000  0.125000  1
  Rh  Rh4  1  0.625000  0.625000  0.625000  1
  Rh  Rh5  1  0.125000  0.625000  0.625000  1
  Rh  Rh6  1  0.625000  0.125000  0.625000  1
  Rh  Rh7  1  0.625000  0.625000  0.125000  1
  O  O8  1  0.292091  0.713861  0.701957  1
  O  O9  1  0.539564  0.961307  0.959564  1
  O  O10  1  0.710436  0.288693  0.710436  1
  O  O11  1  0.290436  0.288693  0.710436  1
  O  O12  1  0.701957  0.713861  0.292091  1
  O  O13  1  0.998319  0.005044  0.998319  1
  O  O14  1  0.292091  0.713861  0.292091  1
  O  O15  1  0.957909  0.536139  0.957909  1
  O  O16  1  0.959564  0.961307  0.539564  1
  O  O17  1  0.548043  0.536139  0.957909  1
  O  O18  1  0.251681  0.244956  0.251681  1
  O  O19  1  0.539564  0.961307  0.539564  1
  O  O20  1  0.710436  0.288693  0.290436  1
  O  O21  1  0.957909  0.536139  0.548043  1
