# generated using pymatgen
data_HfNb8SnSe16
_symmetry_space_group_name_H-M   'P 1'
_cell_length_a   7.02991300
_cell_length_b   7.02991340
_cell_length_c   14.22629600
_cell_angle_alpha   90.00000000
_cell_angle_beta   90.00000000
_cell_angle_gamma   119.99999339
_symmetry_Int_Tables_number   1
_chemical_formula_structural   HfNb8SnSe16
_chemical_formula_sum   'Hf1 Nb8 Sn1 Se16'
_cell_volume   608.86698680
_cell_formula_units_Z   1
loop_
 _symmetry_equiv_pos_site_id
 _symmetry_equiv_pos_as_xyz
  1  'x, y, z'
loop_
 _atom_site_type_symbol
 _atom_site_label
 _atom_site_symmetry_multiplicity
 _atom_site_fract_x
 _atom_site_fract_y
 _atom_site_fract_z
 _atom_site_occupancy
  Hf  Hf0  1  0.000000  0.000000  0.000000  1
  Nb  Nb1  1  0.000000  0.000000  0.233453  1
  Nb  Nb2  1  0.000000  0.000000  0.766547  1
  Nb  Nb3  1  0.506678  0.013355  0.234691  1
  Nb  Nb4  1  0.986645  0.493322  0.234691  1
  Nb  Nb5  1  0.506678  0.493322  0.234691  1
  Nb  Nb6  1  0.493322  0.986645  0.765309  1
  Nb  Nb7  1  0.013355  0.506678  0.765309  1
  Nb  Nb8  1  0.493322  0.506678  0.765309  1
  Sn  Sn9  1  0.000000  0.000000  0.500000  1
  Se  Se10  1  0.333333  0.666667  0.885503  1
  Se  Se11  1  0.666667  0.333333  0.114497  1
  Se  Se12  1  0.666667  0.333333  0.355835  1
  Se  Se13  1  0.333333  0.666667  0.644165  1
  Se  Se14  1  0.168637  0.831363  0.350685  1
  Se  Se15  1  0.168637  0.337274  0.350685  1
  Se  Se16  1  0.662726  0.831363  0.350685  1
  Se  Se17  1  0.831363  0.168637  0.649315  1
  Se  Se18  1  0.831363  0.662726  0.649315  1
  Se  Se19  1  0.337274  0.168637  0.649315  1
  Se  Se20  1  0.830196  0.169804  0.883086  1
  Se  Se21  1  0.830196  0.660394  0.883086  1
  Se  Se22  1  0.339606  0.169804  0.883086  1
  Se  Se23  1  0.169804  0.830196  0.116914  1
  Se  Se24  1  0.169804  0.339606  0.116914  1
  Se  Se25  1  0.660394  0.830196  0.116914  1
