# generated using pymatgen
data_Hf4Nb2Al16Pt2Rh5
_symmetry_space_group_name_H-M   'P 1'
_cell_length_a   8.63619505
_cell_length_b   8.69048513
_cell_length_c   8.69048604
_cell_angle_alpha   59.58711962
_cell_angle_beta   60.20643639
_cell_angle_gamma   60.20643649
_symmetry_Int_Tables_number   1
_chemical_formula_structural   Hf4Nb2Al16Pt2Rh5
_chemical_formula_sum   'Hf4 Nb2 Al16 Pt2 Rh5'
_cell_volume   461.17081799
_cell_formula_units_Z   1
loop_
 _symmetry_equiv_pos_site_id
 _symmetry_equiv_pos_as_xyz
  1  'x, y, z'
loop_
 _atom_site_type_symbol
 _atom_site_label
 _atom_site_symmetry_multiplicity
 _atom_site_fract_x
 _atom_site_fract_y
 _atom_site_fract_z
 _atom_site_occupancy
  Hf  Hf0  1  0.316803  0.683196  0.316803  1
  Hf  Hf1  1  0.316803  0.316803  0.683196  1
  Hf  Hf2  1  0.683196  0.316803  0.683196  1
  Hf  Hf3  1  0.683196  0.683196  0.316803  1
  Nb  Nb4  1  0.680129  0.319870  0.319870  1
  Nb  Nb5  1  0.319870  0.680129  0.680129  1
  Al  Al6  1  0.342693  0.334477  0.334477  1
  Al  Al7  1  0.334477  0.342693  0.988352  1
  Al  Al8  1  0.988352  0.334477  0.334477  1
  Al  Al9  1  0.334477  0.988352  0.342693  1
  Al  Al10  1  0.657307  0.665523  0.665523  1
  Al  Al11  1  0.665523  0.657307  0.011648  1
  Al  Al12  1  0.665523  0.011648  0.657307  1
  Al  Al13  1  0.011648  0.665523  0.665523  1
  Al  Al14  1  0.113986  0.122176  0.122176  1
  Al  Al15  1  0.122176  0.113986  0.641663  1
  Al  Al16  1  0.641663  0.122176  0.122176  1
  Al  Al17  1  0.122176  0.641663  0.113986  1
  Al  Al18  1  0.886013  0.877823  0.877823  1
  Al  Al19  1  0.877823  0.886013  0.358340  1
  Al  Al20  1  0.877823  0.358340  0.886013  1
  Al  Al21  1  0.358340  0.877823  0.877823  1
  Pt  Pt22  1  0.500000  0.000000  0.000000  1
  Pt  Pt23  1  0.000000  0.500000  0.500000  1
  Rh  Rh24  1  0.000000  0.000000  0.000000  1
  Rh  Rh25  1  0.000000  0.500000  0.000000  1
  Rh  Rh26  1  0.000000  0.000000  0.500000  1
  Rh  Rh27  1  0.500000  0.000000  0.500000  1
  Rh  Rh28  1  0.500000  0.500000  0.000000  1
