# generated using pymatgen
data_Nd8Lu12Si15Bi
_symmetry_space_group_name_H-M   'P 1'
_cell_length_a   7.46205721
_cell_length_b   7.66788360
_cell_length_c   14.54213700
_cell_angle_alpha   90.06996948
_cell_angle_beta   87.55986456
_cell_angle_gamma   90.11950652
_symmetry_Int_Tables_number   1
_chemical_formula_structural   Nd8Lu12Si15Bi
_chemical_formula_sum   'Nd8 Lu12 Si15 Bi1'
_cell_volume   831.31787684
_cell_formula_units_Z   1
loop_
 _symmetry_equiv_pos_site_id
 _symmetry_equiv_pos_as_xyz
  1  'x, y, z'
loop_
 _atom_site_type_symbol
 _atom_site_label
 _atom_site_symmetry_multiplicity
 _atom_site_fract_x
 _atom_site_fract_y
 _atom_site_fract_z
 _atom_site_occupancy
  Nd  Nd0  1  0.016679  0.177854  0.098459  1
  Nd  Nd1  1  0.983870  0.824280  0.901776  1
  Nd  Nd2  1  0.484675  0.676570  0.901989  1
  Nd  Nd3  1  0.998618  0.828341  0.599758  1
  Nd  Nd4  1  0.516633  0.323241  0.099263  1
  Nd  Nd5  1  0.996954  0.173152  0.398984  1
  Nd  Nd6  1  0.509044  0.316341  0.397101  1
  Nd  Nd7  1  0.512185  0.685427  0.601821  1
  Lu  Lu8  1  0.167529  0.503085  0.754668  1
  Lu  Lu9  1  0.830963  0.497230  0.252913  1
  Lu  Lu10  1  0.331153  0.005168  0.252196  1
  Lu  Lu11  1  0.671680  0.995861  0.749636  1
  Lu  Lu12  1  0.354878  0.152641  0.626619  1
  Lu  Lu13  1  0.651101  0.831000  0.377104  1
  Lu  Lu14  1  0.147450  0.680111  0.370666  1
  Lu  Lu15  1  0.670540  0.822895  0.122498  1
  Lu  Lu16  1  0.832404  0.330220  0.624200  1
  Lu  Lu17  1  0.327631  0.175142  0.876839  1
  Lu  Lu18  1  0.827700  0.323451  0.876866  1
  Lu  Lu19  1  0.171670  0.677003  0.123442  1
  Si  Si20  1  0.041782  0.121539  0.751116  1
  Si  Si21  1  0.954804  0.884489  0.246062  1
  Si  Si22  1  0.456707  0.617919  0.247772  1
  Si  Si23  1  0.538925  0.382000  0.752569  1
  Si  Si24  1  0.291560  0.870835  0.753532  1
  Si  Si25  1  0.710890  0.121815  0.246496  1
  Si  Si26  1  0.210040  0.377890  0.248108  1
  Si  Si27  1  0.793637  0.625109  0.752415  1
  Si  Si28  1  0.807657  0.540173  0.456092  1
  Si  Si29  1  0.313975  0.962015  0.457213  1
  Si  Si30  1  0.851345  0.532767  0.040040  1
  Si  Si31  1  0.687630  0.038649  0.541907  1
  Si  Si32  1  0.148036  0.467665  0.960709  1
  Si  Si33  1  0.647764  0.032558  0.959950  1
  Si  Si34  1  0.350764  0.968340  0.040552  1
  Bi  Bi35  1  0.191124  0.457228  0.538670  1
