# generated using pymatgen
data_Ba4Mo(IN2)2
_symmetry_space_group_name_H-M   'P 1'
_cell_length_a   6.36036100
_cell_length_b   8.60546385
_cell_length_c   11.88780012
_cell_angle_alpha   84.40664021
_cell_angle_beta   90.00000000
_cell_angle_gamma   90.00000000
_symmetry_Int_Tables_number   1
_chemical_formula_structural   Ba4Mo(IN2)2
_chemical_formula_sum   'Ba8 Mo2 I4 N8'
_cell_volume   647.56713771
_cell_formula_units_Z   2
loop_
 _symmetry_equiv_pos_site_id
 _symmetry_equiv_pos_as_xyz
  1  'x, y, z'
loop_
 _atom_site_type_symbol
 _atom_site_label
 _atom_site_symmetry_multiplicity
 _atom_site_fract_x
 _atom_site_fract_y
 _atom_site_fract_z
 _atom_site_occupancy
  Ba  Ba0  1  0.750000  0.262009  0.311414  1
  Ba  Ba1  1  0.750000  0.012333  0.618225  1
  Ba  Ba2  1  0.750000  0.449820  0.596558  1
  Ba  Ba3  1  0.750000  0.762822  0.131752  1
  Ba  Ba4  1  0.250000  0.987667  0.381775  1
  Ba  Ba5  1  0.250000  0.550180  0.403442  1
  Ba  Ba6  1  0.250000  0.237178  0.868248  1
  Ba  Ba7  1  0.250000  0.737991  0.688586  1
  Mo  Mo8  1  0.750000  0.766189  0.412497  1
  Mo  Mo9  1  0.250000  0.233811  0.587503  1
  I  I10  1  0.250000  0.348901  0.158986  1
  I  I11  1  0.750000  0.651099  0.841014  1
  I  I12  1  0.250000  0.875063  0.083370  1
  I  I13  1  0.750000  0.124937  0.916630  1
  N  N14  1  0.250000  0.061251  0.694323  1
  N  N15  1  0.005478  0.234992  0.495206  1
  N  N16  1  0.505478  0.765008  0.504794  1
  N  N17  1  0.994522  0.765008  0.504794  1
  N  N18  1  0.750000  0.589416  0.330963  1
  N  N19  1  0.750000  0.938749  0.305677  1
  N  N20  1  0.494522  0.234992  0.495206  1
  N  N21  1  0.250000  0.410584  0.669037  1
