# generated using pymatgen
data_Dy2Er3Co16(TcP4)3
_symmetry_space_group_name_H-M   'P 1'
_cell_length_a   12.01161800
_cell_length_b   12.01161758
_cell_length_c   3.69913600
_cell_angle_alpha   90.00000000
_cell_angle_beta   90.00000000
_cell_angle_gamma   119.99999014
_symmetry_Int_Tables_number   1
_chemical_formula_structural   Dy2Er3Co16(TcP4)3
_chemical_formula_sum   'Dy2 Er3 Co16 Tc3 P12'
_cell_volume   462.20430103
_cell_formula_units_Z   1
loop_
 _symmetry_equiv_pos_site_id
 _symmetry_equiv_pos_as_xyz
  1  'x, y, z'
loop_
 _atom_site_type_symbol
 _atom_site_label
 _atom_site_symmetry_multiplicity
 _atom_site_fract_x
 _atom_site_fract_y
 _atom_site_fract_z
 _atom_site_occupancy
  Dy  Dy0  1  0.666667  0.333333  0.000000  1
  Dy  Dy1  1  0.333333  0.666667  0.000000  1
  Er  Er2  1  0.184440  0.184440  0.500000  1
  Er  Er3  1  0.815560  0.000000  0.500000  1
  Er  Er4  1  0.000000  0.815560  0.500000  1
  Co  Co5  1  0.821618  0.196235  0.000000  1
  Co  Co6  1  0.803765  0.625383  0.000000  1
  Co  Co7  1  0.374617  0.178382  0.000000  1
  Co  Co8  1  0.196235  0.821618  0.000000  1
  Co  Co9  1  0.625383  0.803765  0.000000  1
  Co  Co10  1  0.178382  0.374617  0.000000  1
  Co  Co11  1  0.643992  0.126047  0.500000  1
  Co  Co12  1  0.873953  0.517944  0.500000  1
  Co  Co13  1  0.482056  0.356008  0.500000  1
  Co  Co14  1  0.126047  0.643992  0.500000  1
  Co  Co15  1  0.517944  0.873953  0.500000  1
  Co  Co16  1  0.356008  0.482056  0.500000  1
  Co  Co17  1  0.718288  0.718288  0.500000  1
  Co  Co18  1  0.281712  0.000000  0.500000  1
  Co  Co19  1  0.000000  0.281712  0.500000  1
  Co  Co20  1  0.000000  0.000000  0.000000  1
  Tc  Tc21  1  0.553949  0.553949  0.000000  1
  Tc  Tc22  1  0.446051  0.000000  0.000000  1
  Tc  Tc23  1  0.000000  0.446051  0.000000  1
  P  P24  1  0.362074  0.362074  0.000000  1
  P  P25  1  0.637926  0.000000  0.000000  1
  P  P26  1  0.000000  0.637926  0.000000  1
  P  P27  1  0.835438  0.314291  0.500000  1
  P  P28  1  0.685709  0.521147  0.500000  1
  P  P29  1  0.478853  0.164562  0.500000  1
  P  P30  1  0.314291  0.835438  0.500000  1
  P  P31  1  0.521147  0.685709  0.500000  1
  P  P32  1  0.164562  0.478853  0.500000  1
  P  P33  1  0.821733  0.821733  0.000000  1
  P  P34  1  0.178267  0.000000  0.000000  1
  P  P35  1  0.000000  0.178267  0.000000  1
