# generated using pymatgen
data_Yb8Ag7PdPb4
_symmetry_space_group_name_H-M   'P 1'
_cell_length_a   8.25587042
_cell_length_b   8.25587021
_cell_length_c   7.31082500
_cell_angle_alpha   90.12101989
_cell_angle_beta   89.87898011
_cell_angle_gamma   89.97507734
_symmetry_Int_Tables_number   1
_chemical_formula_structural   Yb8Ag7PdPb4
_chemical_formula_sum   'Yb8 Ag7 Pd1 Pb4'
_cell_volume   498.29913521
_cell_formula_units_Z   1
loop_
 _symmetry_equiv_pos_site_id
 _symmetry_equiv_pos_as_xyz
  1  'x, y, z'
loop_
 _atom_site_type_symbol
 _atom_site_label
 _atom_site_symmetry_multiplicity
 _atom_site_fract_x
 _atom_site_fract_y
 _atom_site_fract_z
 _atom_site_occupancy
  Yb  Yb0  1  0.674982  0.689941  0.995996  1
  Yb  Yb1  1  0.330210  0.344751  0.505141  1
  Yb  Yb2  1  0.814425  0.185575  0.499478  1
  Yb  Yb3  1  0.655249  0.669790  0.505141  1
  Yb  Yb4  1  0.310059  0.325018  0.995996  1
  Yb  Yb5  1  0.194449  0.805551  0.505826  1
  Yb  Yb6  1  0.836500  0.163500  0.001092  1
  Yb  Yb7  1  0.175156  0.824844  0.993514  1
  Ag  Ag8  1  0.882066  0.877516  0.726120  1
  Ag  Ag9  1  0.122484  0.117934  0.726120  1
  Ag  Ag10  1  0.621051  0.378949  0.773803  1
  Ag  Ag11  1  0.620690  0.379310  0.227757  1
  Ag  Ag12  1  0.379871  0.620129  0.227780  1
  Ag  Ag13  1  0.126121  0.115235  0.273384  1
  Ag  Ag14  1  0.884765  0.873879  0.273384  1
  Pd  Pd15  1  0.380040  0.619960  0.767552  1
  Pb  Pb16  1  0.499418  0.001405  0.750050  1
  Pb  Pb17  1  0.499389  0.005523  0.250907  1
  Pb  Pb18  1  0.998595  0.500582  0.750050  1
  Pb  Pb19  1  0.994477  0.500611  0.250907  1
