# generated using pymatgen
data_SmPa5(Al3Fe)8
_symmetry_space_group_name_H-M   'P 1'
_cell_length_a   8.73669462
_cell_length_b   8.73669439
_cell_length_c   9.20706400
_cell_angle_alpha   90.00000000
_cell_angle_beta   90.00000000
_cell_angle_gamma   119.93011577
_symmetry_Int_Tables_number   1
_chemical_formula_structural   SmPa5(Al3Fe)8
_chemical_formula_sum   'Sm1 Pa5 Al24 Fe8'
_cell_volume   609.04796140
_cell_formula_units_Z   1
loop_
 _symmetry_equiv_pos_site_id
 _symmetry_equiv_pos_as_xyz
  1  'x, y, z'
loop_
 _atom_site_type_symbol
 _atom_site_label
 _atom_site_symmetry_multiplicity
 _atom_site_fract_x
 _atom_site_fract_y
 _atom_site_fract_z
 _atom_site_occupancy
  Sm  Sm0  1  0.804397  0.195603  0.750000  1
  Pa  Pa1  1  0.199390  0.800610  0.250000  1
  Pa  Pa2  1  0.394357  0.199609  0.750000  1
  Pa  Pa3  1  0.602707  0.802482  0.250000  1
  Pa  Pa4  1  0.800391  0.605643  0.750000  1
  Pa  Pa5  1  0.197518  0.397293  0.250000  1
  Al  Al6  1  0.668277  0.331723  0.989121  1
  Al  Al7  1  0.333866  0.666134  0.008087  1
  Al  Al8  1  0.333866  0.666134  0.491913  1
  Al  Al9  1  0.668277  0.331723  0.510879  1
  Al  Al10  1  0.840160  0.159840  0.421402  1
  Al  Al11  1  0.159920  0.840080  0.578404  1
  Al  Al12  1  0.320093  0.159748  0.421486  1
  Al  Al13  1  0.159920  0.840080  0.921596  1
  Al  Al14  1  0.679521  0.840005  0.576968  1
  Al  Al15  1  0.840160  0.159840  0.078598  1
  Al  Al16  1  0.840252  0.679907  0.421486  1
  Al  Al17  1  0.679521  0.840005  0.923032  1
  Al  Al18  1  0.159995  0.320479  0.576968  1
  Al  Al19  1  0.320093  0.159748  0.078514  1
  Al  Al20  1  0.159995  0.320479  0.923032  1
  Al  Al21  1  0.840252  0.679907  0.078514  1
  Al  Al22  1  0.438446  0.561554  0.750000  1
  Al  Al23  1  0.560483  0.439517  0.250000  1
  Al  Al24  1  0.118477  0.559114  0.750000  1
  Al  Al25  1  0.877318  0.438659  0.250000  1
  Al  Al26  1  0.440886  0.881523  0.750000  1
  Al  Al27  1  0.561341  0.122682  0.250000  1
  Al  Al28  1  0.000936  0.999064  0.750000  1
  Al  Al29  1  0.000163  0.999837  0.250000  1
  Fe  Fe30  1  0.500509  0.499491  0.999610  1
  Fe  Fe31  1  0.005239  0.505993  0.006111  1
  Fe  Fe32  1  0.500509  0.499491  0.500390  1
  Fe  Fe33  1  0.494007  0.994761  0.006111  1
  Fe  Fe34  1  0.005239  0.505993  0.493889  1
  Fe  Fe35  1  0.494007  0.994761  0.493889  1
  Fe  Fe36  1  0.999755  0.000245  0.000213  1
  Fe  Fe37  1  0.999755  0.000245  0.499787  1
