# generated using pymatgen
data_Li4Ac3LaSi8
_symmetry_space_group_name_H-M   'P 1'
_cell_length_a   3.97995700
_cell_length_b   7.98052008
_cell_length_c   11.01799792
_cell_angle_alpha   90.12717580
_cell_angle_beta   90.00000000
_cell_angle_gamma   90.00000000
_symmetry_Int_Tables_number   1
_chemical_formula_structural   Li4Ac3LaSi8
_chemical_formula_sum   'Li4 Ac3 La1 Si8'
_cell_volume   349.95418416
_cell_formula_units_Z   1
loop_
 _symmetry_equiv_pos_site_id
 _symmetry_equiv_pos_as_xyz
  1  'x, y, z'
loop_
 _atom_site_type_symbol
 _atom_site_label
 _atom_site_symmetry_multiplicity
 _atom_site_fract_x
 _atom_site_fract_y
 _atom_site_fract_z
 _atom_site_occupancy
  Li  Li0  1  0.250000  0.997989  0.389765  1
  Li  Li1  1  0.750000  0.002432  0.607214  1
  Li  Li2  1  0.250000  0.498277  0.113249  1
  Li  Li3  1  0.750000  0.501423  0.890042  1
  Ac  Ac4  1  0.250000  0.138263  0.866496  1
  Ac  Ac5  1  0.750000  0.863513  0.134358  1
  Ac  Ac6  1  0.250000  0.636315  0.632736  1
  La  La7  1  0.750000  0.365820  0.365873  1
  Si  Si8  1  0.750000  0.283043  0.079149  1
  Si  Si9  1  0.250000  0.717855  0.925117  1
  Si  Si10  1  0.750000  0.774743  0.424485  1
  Si  Si11  1  0.250000  0.224231  0.568610  1
  Si  Si12  1  0.750000  0.827993  0.824270  1
  Si  Si13  1  0.250000  0.176013  0.181216  1
  Si  Si14  1  0.750000  0.326290  0.673249  1
  Si  Si15  1  0.250000  0.665795  0.324172  1
