# generated using pymatgen
data_In2Hg(P2O7)2
_symmetry_space_group_name_H-M   'P 1'
_cell_length_a   5.12635834
_cell_length_b   7.08180866
_cell_length_c   8.62587612
_cell_angle_alpha   93.27730320
_cell_angle_beta   94.32548614
_cell_angle_gamma   105.24784344
_symmetry_Int_Tables_number   1
_chemical_formula_structural   In2Hg(P2O7)2
_chemical_formula_sum   'In2 Hg1 P4 O14'
_cell_volume   300.30181965
_cell_formula_units_Z   1
loop_
 _symmetry_equiv_pos_site_id
 _symmetry_equiv_pos_as_xyz
  1  'x, y, z'
loop_
 _atom_site_type_symbol
 _atom_site_label
 _atom_site_symmetry_multiplicity
 _atom_site_fract_x
 _atom_site_fract_y
 _atom_site_fract_z
 _atom_site_occupancy
  In  In0  1  0.500000  0.500000  0.500000  1
  In  In1  1  0.000000  0.000000  0.000000  1
  Hg  Hg2  1  0.000000  0.000000  0.500000  1
  P  P3  1  0.010787  0.637533  0.260178  1
  P  P4  1  0.989213  0.362467  0.739822  1
  P  P5  1  0.621561  0.240990  0.199093  1
  P  P6  1  0.378439  0.759010  0.800907  1
  O  O7  1  0.772252  0.469671  0.167507  1
  O  O8  1  0.227748  0.530329  0.832493  1
  O  O9  1  0.535209  0.247680  0.367609  1
  O  O10  1  0.464791  0.752320  0.632391  1
  O  O11  1  0.232472  0.549732  0.320484  1
  O  O12  1  0.767528  0.450268  0.679516  1
  O  O13  1  0.861497  0.709067  0.401964  1
  O  O14  1  0.168131  0.877688  0.804635  1
  O  O15  1  0.831869  0.122312  0.195365  1
  O  O16  1  0.895915  0.197252  0.841187  1
  O  O17  1  0.104085  0.802748  0.158813  1
  O  O18  1  0.606269  0.810584  0.929752  1
  O  O19  1  0.393731  0.189416  0.070248  1
  O  O20  1  0.138503  0.290933  0.598036  1
