# generated using pymatgen
data_HoEr3B12RhW
_symmetry_space_group_name_H-M   'P 1'
_cell_length_a   3.62860500
_cell_length_b   9.17468757
_cell_length_c   11.58410193
_cell_angle_alpha   90.46081440
_cell_angle_beta   90.00000000
_cell_angle_gamma   90.00000000
_symmetry_Int_Tables_number   1
_chemical_formula_structural   HoEr3B12RhW
_chemical_formula_sum   'Ho2 Er6 B24 Rh2 W2'
_cell_volume   385.63753884
_cell_formula_units_Z   2
loop_
 _symmetry_equiv_pos_site_id
 _symmetry_equiv_pos_as_xyz
  1  'x, y, z'
loop_
 _atom_site_type_symbol
 _atom_site_label
 _atom_site_symmetry_multiplicity
 _atom_site_fract_x
 _atom_site_fract_y
 _atom_site_fract_z
 _atom_site_occupancy
  Ho  Ho0  1  0.500000  0.319893  0.411848  1
  Ho  Ho1  1  0.500000  0.680107  0.588152  1
  Er  Er2  1  0.500000  0.175100  0.916682  1
  Er  Er3  1  0.500000  0.824900  0.083318  1
  Er  Er4  1  0.500000  0.444500  0.126589  1
  Er  Er5  1  0.500000  0.555500  0.873411  1
  Er  Er6  1  0.500000  0.055181  0.627604  1
  Er  Er7  1  0.500000  0.944819  0.372396  1
  B  B8  1  0.000000  0.108082  0.471684  1
  B  B9  1  0.000000  0.891918  0.528316  1
  B  B10  1  0.000000  0.394091  0.969882  1
  B  B11  1  0.000000  0.605909  0.030118  1
  B  B12  1  0.000000  0.133244  0.317878  1
  B  B13  1  0.000000  0.866756  0.682122  1
  B  B14  1  0.000000  0.367267  0.815839  1
  B  B15  1  0.000000  0.632733  0.184161  1
  B  B16  1  0.000000  0.051413  0.065359  1
  B  B17  1  0.000000  0.948587  0.934641  1
  B  B18  1  0.000000  0.446185  0.565796  1
  B  B19  1  0.000000  0.553815  0.434204  1
  B  B20  1  0.000000  0.484106  0.288279  1
  B  B21  1  0.000000  0.515894  0.711721  1
  B  B22  1  0.000000  0.020735  0.786016  1
  B  B23  1  0.000000  0.979265  0.213984  1
  B  B24  1  0.000000  0.251099  0.078430  1
  B  B25  1  0.000000  0.748901  0.921570  1
  B  B26  1  0.000000  0.251061  0.579269  1
  B  B27  1  0.000000  0.748939  0.420731  1
  B  B28  1  0.000000  0.297076  0.236552  1
  B  B29  1  0.000000  0.702924  0.763448  1
  B  B30  1  0.000000  0.208623  0.734363  1
  B  B31  1  0.000000  0.791377  0.265637  1
  Rh  Rh32  1  0.500000  0.360936  0.678926  1
  Rh  Rh33  1  0.500000  0.639064  0.321074  1
  W  W34  1  0.500000  0.139627  0.180679  1
  W  W35  1  0.500000  0.860373  0.819321  1
