# generated using pymatgen
data_Ac3Si5Hg
_symmetry_space_group_name_H-M   'P 1'
_cell_length_a   4.55040316
_cell_length_b   4.49539015
_cell_length_c   22.28943400
_cell_angle_alpha   84.21236870
_cell_angle_beta   95.85867834
_cell_angle_gamma   89.99999834
_symmetry_Int_Tables_number   1
_chemical_formula_structural   Ac3Si5Hg
_chemical_formula_sum   'Ac6 Si10 Hg2'
_cell_volume   451.23101144
_cell_formula_units_Z   2
loop_
 _symmetry_equiv_pos_site_id
 _symmetry_equiv_pos_as_xyz
  1  'x, y, z'
loop_
 _atom_site_type_symbol
 _atom_site_label
 _atom_site_symmetry_multiplicity
 _atom_site_fract_x
 _atom_site_fract_y
 _atom_site_fract_z
 _atom_site_occupancy
  Ac  Ac0  1  0.369550  0.879962  0.240180  1
  Ac  Ac1  1  0.040558  0.210254  0.580987  1
  Ac  Ac2  1  0.709097  0.541241  0.918879  1
  Ac  Ac3  1  0.288905  0.460946  0.078087  1
  Ac  Ac4  1  0.959936  0.790113  0.418945  1
  Ac  Ac5  1  0.630728  0.119765  0.759849  1
  Si  Si6  1  0.236293  0.013569  0.972731  1
  Si  Si7  1  0.762713  0.988234  0.025359  1
  Si  Si8  1  0.432106  0.317682  0.364770  1
  Si  Si9  1  0.102428  0.648109  0.704617  1
  Si  Si10  1  0.838522  0.408987  0.183211  1
  Si  Si11  1  0.506935  0.738825  0.523969  1
  Si  Si12  1  0.181323  0.066727  0.865556  1
  Si  Si13  1  0.818353  0.934637  0.133490  1
  Si  Si14  1  0.491970  0.263131  0.472607  1
  Si  Si15  1  0.157377  0.593733  0.811989  1
  Hg  Hg16  1  0.900993  0.346138  0.302118  1
  Hg  Hg17  1  0.572216  0.677944  0.642658  1
