# generated using pymatgen
data_Lu2Pa(AlRh)3
_symmetry_space_group_name_H-M   'P 1'
_cell_length_a   7.15500732
_cell_length_b   7.15500718
_cell_length_c   3.80185700
_cell_angle_alpha   90.00000000
_cell_angle_beta   90.00000000
_cell_angle_gamma   118.92876142
_symmetry_Int_Tables_number   1
_chemical_formula_structural   Lu2Pa(AlRh)3
_chemical_formula_sum   'Lu2 Pa1 Al3 Rh3'
_cell_volume   170.34683519
_cell_formula_units_Z   1
loop_
 _symmetry_equiv_pos_site_id
 _symmetry_equiv_pos_as_xyz
  1  'x, y, z'
loop_
 _atom_site_type_symbol
 _atom_site_label
 _atom_site_symmetry_multiplicity
 _atom_site_fract_x
 _atom_site_fract_y
 _atom_site_fract_z
 _atom_site_occupancy
  Lu  Lu0  1  0.584897  0.994269  0.500000  1
  Lu  Lu1  1  0.994269  0.584897  0.500000  1
  Pa  Pa2  1  0.423130  0.423130  0.500000  1
  Al  Al3  1  0.772360  0.772360  0.000000  1
  Al  Al4  1  0.245580  0.987428  0.000000  1
  Al  Al5  1  0.987428  0.245580  0.000000  1
  Rh  Rh6  1  0.642453  0.334499  0.000000  1
  Rh  Rh7  1  0.334499  0.642453  0.000000  1
  Rh  Rh8  1  0.015384  0.015384  0.500000  1
