# generated using pymatgen
data_Rb(AsPd2)4
_symmetry_space_group_name_H-M   'P 1'
_cell_length_a   8.32118253
_cell_length_b   8.32118184
_cell_length_c   8.32237718
_cell_angle_alpha   93.13311075
_cell_angle_beta   93.15575424
_cell_angle_gamma   152.90819848
_symmetry_Int_Tables_number   1
_chemical_formula_structural   Rb(AsPd2)4
_chemical_formula_sum   'Rb1 As4 Pd8'
_cell_volume   255.14004731
_cell_formula_units_Z   1
loop_
 _symmetry_equiv_pos_site_id
 _symmetry_equiv_pos_as_xyz
  1  'x, y, z'
loop_
 _atom_site_type_symbol
 _atom_site_label
 _atom_site_symmetry_multiplicity
 _atom_site_fract_x
 _atom_site_fract_y
 _atom_site_fract_z
 _atom_site_occupancy
  Rb  Rb0  1  0.999999  0.000003  0.000001  1
  As  As1  1  0.769392  0.418060  0.187452  1
  As  As2  1  0.418088  0.230534  0.648621  1
  As  As3  1  0.581912  0.769466  0.351378  1
  As  As4  1  0.230608  0.581939  0.812548  1
  Pd  Pd5  1  0.015596  0.632908  0.648502  1
  Pd  Pd6  1  0.660870  0.232023  0.892891  1
  Pd  Pd7  1  0.232016  0.339099  0.571115  1
  Pd  Pd8  1  0.767984  0.660901  0.428885  1
  Pd  Pd9  1  0.339132  0.767975  0.107110  1
  Pd  Pd10  1  0.984405  0.367092  0.351498  1
  Pd  Pd11  1  0.366981  0.015580  0.382562  1
  Pd  Pd12  1  0.633018  0.984420  0.617437  1
