# generated using pymatgen
data_NaLa4Pr2PtBr12
_symmetry_space_group_name_H-M   'P 1'
_cell_length_a   9.79263085
_cell_length_b   9.79618664
_cell_length_c   9.63339532
_cell_angle_alpha   107.50264114
_cell_angle_beta   107.30252781
_cell_angle_gamma   107.29712014
_symmetry_Int_Tables_number   1
_chemical_formula_structural   NaLa4Pr2PtBr12
_chemical_formula_sum   'Na1 La4 Pr2 Pt1 Br12'
_cell_volume   761.78104257
_cell_formula_units_Z   1
loop_
 _symmetry_equiv_pos_site_id
 _symmetry_equiv_pos_as_xyz
  1  'x, y, z'
loop_
 _atom_site_type_symbol
 _atom_site_label
 _atom_site_symmetry_multiplicity
 _atom_site_fract_x
 _atom_site_fract_y
 _atom_site_fract_z
 _atom_site_occupancy
  Na  Na0  1  0.500538  0.500985  0.501162  1
  La  La1  1  0.118120  0.330836  0.030753  1
  La  La2  1  0.330459  0.031328  0.119289  1
  La  La3  1  0.029978  0.112499  0.316431  1
  La  La4  1  0.969716  0.885059  0.682539  1
  Pr  Pr5  1  0.674026  0.968441  0.881374  1
  Pr  Pr6  1  0.879980  0.672859  0.968393  1
  Pt  Pt7  1  0.000627  0.000022  0.999720  1
  Br  Br8  1  0.210640  0.685243  0.071873  1
  Br  Br9  1  0.454628  0.371125  0.159176  1
  Br  Br10  1  0.685788  0.072868  0.214163  1
  Br  Br11  1  0.927351  0.784199  0.315966  1
  Br  Br12  1  0.161001  0.456082  0.373961  1
  Br  Br13  1  0.372333  0.161790  0.458952  1
  Br  Br14  1  0.627825  0.839279  0.542939  1
  Br  Br15  1  0.838666  0.543056  0.628617  1
  Br  Br16  1  0.071733  0.213200  0.681340  1
  Br  Br17  1  0.315672  0.926490  0.783684  1
  Br  Br18  1  0.546105  0.630942  0.842355  1
  Br  Br19  1  0.784818  0.313702  0.927315  1
