# generated using pymatgen
data_Nd2Y3(SnBi)2
_symmetry_space_group_name_H-M   'P 1'
_cell_length_a   8.33390800
_cell_length_b   8.34368500
_cell_length_c   15.85167200
_cell_angle_alpha   90.00000000
_cell_angle_beta   90.00000000
_cell_angle_gamma   90.00000000
_symmetry_Int_Tables_number   1
_chemical_formula_structural   Nd2Y3(SnBi)2
_chemical_formula_sum   'Nd8 Y12 Sn8 Bi8'
_cell_volume   1102.25398862
_cell_formula_units_Z   4
loop_
 _symmetry_equiv_pos_site_id
 _symmetry_equiv_pos_as_xyz
  1  'x, y, z'
loop_
 _atom_site_type_symbol
 _atom_site_label
 _atom_site_symmetry_multiplicity
 _atom_site_fract_x
 _atom_site_fract_y
 _atom_site_fract_z
 _atom_site_occupancy
  Nd  Nd0  1  0.543907  0.325583  0.892950  1
  Nd  Nd1  1  0.043907  0.174417  0.607050  1
  Nd  Nd2  1  0.456093  0.674417  0.392950  1
  Nd  Nd3  1  0.956093  0.825583  0.107050  1
  Nd  Nd4  1  0.456093  0.674417  0.107050  1
  Nd  Nd5  1  0.956093  0.825583  0.392950  1
  Nd  Nd6  1  0.543907  0.325583  0.607050  1
  Nd  Nd7  1  0.043907  0.174417  0.892950  1
  Y  Y8  1  0.382410  0.838436  0.875504  1
  Y  Y9  1  0.882410  0.661564  0.624496  1
  Y  Y10  1  0.617590  0.161564  0.375504  1
  Y  Y11  1  0.117590  0.338436  0.124496  1
  Y  Y12  1  0.617590  0.161564  0.124496  1
  Y  Y13  1  0.117590  0.338436  0.375504  1
  Y  Y14  1  0.382410  0.838436  0.624496  1
  Y  Y15  1  0.882410  0.661564  0.875504  1
  Y  Y16  1  0.215355  0.497441  0.750000  1
  Y  Y17  1  0.715355  0.002559  0.750000  1
  Y  Y18  1  0.784645  0.502559  0.250000  1
  Y  Y19  1  0.284645  0.997441  0.250000  1
  Sn  Sn20  1  0.581215  0.629598  0.750000  1
  Sn  Sn21  1  0.081215  0.870402  0.750000  1
  Sn  Sn22  1  0.418785  0.370402  0.250000  1
  Sn  Sn23  1  0.918785  0.129598  0.250000  1
  Sn  Sn24  1  0.352253  0.139655  0.750000  1
  Sn  Sn25  1  0.852253  0.360345  0.750000  1
  Sn  Sn26  1  0.647747  0.860345  0.250000  1
  Sn  Sn27  1  0.147747  0.639655  0.250000  1
  Bi  Bi28  1  0.279663  0.029500  0.044513  1
  Bi  Bi29  1  0.779663  0.470500  0.455487  1
  Bi  Bi30  1  0.720337  0.970500  0.544513  1
  Bi  Bi31  1  0.220337  0.529500  0.955487  1
  Bi  Bi32  1  0.720337  0.970500  0.955487  1
  Bi  Bi33  1  0.220337  0.529500  0.544513  1
  Bi  Bi34  1  0.279663  0.029500  0.455487  1
  Bi  Bi35  1  0.779663  0.470500  0.044513  1
