# generated using pymatgen
data_Dy15Th(TlPt)4
_symmetry_space_group_name_H-M   'P 1'
_cell_length_a   9.74028768
_cell_length_b   9.74028681
_cell_length_c   9.74028700
_cell_angle_alpha   60.09469056
_cell_angle_beta   60.09469351
_cell_angle_gamma   60.09469187
_symmetry_Int_Tables_number   1
_chemical_formula_structural   Dy15Th(TlPt)4
_chemical_formula_sum   'Dy15 Th1 Tl4 Pt4'
_cell_volume   654.83384386
_cell_formula_units_Z   1
loop_
 _symmetry_equiv_pos_site_id
 _symmetry_equiv_pos_as_xyz
  1  'x, y, z'
loop_
 _atom_site_type_symbol
 _atom_site_label
 _atom_site_symmetry_multiplicity
 _atom_site_fract_x
 _atom_site_fract_y
 _atom_site_fract_z
 _atom_site_occupancy
  Dy  Dy0  1  0.351634  0.351634  0.942978  1
  Dy  Dy1  1  0.351634  0.942978  0.351634  1
  Dy  Dy2  1  0.942978  0.351634  0.351634  1
  Dy  Dy3  1  0.812305  0.189103  0.189103  1
  Dy  Dy4  1  0.192673  0.810183  0.810183  1
  Dy  Dy5  1  0.189103  0.812305  0.189103  1
  Dy  Dy6  1  0.810183  0.192673  0.810183  1
  Dy  Dy7  1  0.189103  0.189103  0.812305  1
  Dy  Dy8  1  0.810183  0.810183  0.192673  1
  Dy  Dy9  1  0.936039  0.562818  0.562818  1
  Dy  Dy10  1  0.561611  0.939189  0.939189  1
  Dy  Dy11  1  0.562818  0.936039  0.562818  1
  Dy  Dy12  1  0.939189  0.561610  0.939189  1
  Dy  Dy13  1  0.562818  0.562818  0.936039  1
  Dy  Dy14  1  0.939189  0.939189  0.561610  1
  Th  Th15  1  0.348699  0.348699  0.348699  1
  Tl  Tl16  1  0.588279  0.588279  0.588279  1
  Tl  Tl17  1  0.586959  0.586959  0.241538  1
  Tl  Tl18  1  0.586959  0.241538  0.586959  1
  Tl  Tl19  1  0.241538  0.586959  0.586959  1
  Pt  Pt20  1  0.143630  0.143630  0.143630  1
  Pt  Pt21  1  0.140631  0.140631  0.571216  1
  Pt  Pt22  1  0.140631  0.571216  0.140631  1
  Pt  Pt23  1  0.571216  0.140631  0.140631  1
