# generated using pymatgen
data_Al5V12Cu3N4
_symmetry_space_group_name_H-M   'P 1'
_cell_length_a   6.57371711
_cell_length_b   6.57371703
_cell_length_c   6.57371722
_cell_angle_alpha   90.08943468
_cell_angle_beta   90.08944056
_cell_angle_gamma   90.08944239
_symmetry_Int_Tables_number   1
_chemical_formula_structural   Al5V12Cu3N4
_chemical_formula_sum   'Al5 V12 Cu3 N4'
_cell_volume   284.07397345
_cell_formula_units_Z   1
loop_
 _symmetry_equiv_pos_site_id
 _symmetry_equiv_pos_as_xyz
  1  'x, y, z'
loop_
 _atom_site_type_symbol
 _atom_site_label
 _atom_site_symmetry_multiplicity
 _atom_site_fract_x
 _atom_site_fract_y
 _atom_site_fract_z
 _atom_site_occupancy
  Al  Al0  1  0.677108  0.677108  0.677108  1
  Al  Al1  1  0.570824  0.416481  0.934614  1
  Al  Al2  1  0.416481  0.934614  0.570824  1
  Al  Al3  1  0.934614  0.570824  0.416481  1
  Al  Al4  1  0.073774  0.073774  0.073774  1
  V  V5  1  0.787510  0.959573  0.378361  1
  V  V6  1  0.710915  0.037946  0.872038  1
  V  V7  1  0.211033  0.459707  0.126911  1
  V  V8  1  0.290669  0.540083  0.626636  1
  V  V9  1  0.959573  0.378361  0.787510  1
  V  V10  1  0.037946  0.872038  0.710915  1
  V  V11  1  0.459707  0.126911  0.211033  1
  V  V12  1  0.540083  0.626636  0.290669  1
  V  V13  1  0.378361  0.787510  0.959573  1
  V  V14  1  0.872038  0.710915  0.037946  1
  V  V15  1  0.126911  0.211033  0.459707  1
  V  V16  1  0.626636  0.290669  0.540083  1
  Cu  Cu17  1  0.177951  0.822900  0.318857  1
  Cu  Cu18  1  0.318857  0.177951  0.822900  1
  Cu  Cu19  1  0.822900  0.318857  0.177951  1
  N  N20  1  0.879441  0.125755  0.623975  1
  N  N21  1  0.623975  0.879441  0.125755  1
  N  N22  1  0.125755  0.623975  0.879441  1
  N  N23  1  0.376938  0.376938  0.376938  1
