# generated using pymatgen
data_Tb7Ho9Cd4Os3Pt
_symmetry_space_group_name_H-M   'P 1'
_cell_length_a   9.60688787
_cell_length_b   9.67642577
_cell_length_c   9.70156700
_cell_angle_alpha   59.91401859
_cell_angle_beta   59.67345244
_cell_angle_gamma   59.62547233
_symmetry_Int_Tables_number   1
_chemical_formula_structural   Tb7Ho9Cd4Os3Pt
_chemical_formula_sum   'Tb7 Ho9 Cd4 Os3 Pt1'
_cell_volume   633.90322941
_cell_formula_units_Z   1
loop_
 _symmetry_equiv_pos_site_id
 _symmetry_equiv_pos_as_xyz
  1  'x, y, z'
loop_
 _atom_site_type_symbol
 _atom_site_label
 _atom_site_symmetry_multiplicity
 _atom_site_fract_x
 _atom_site_fract_y
 _atom_site_fract_z
 _atom_site_occupancy
  Tb  Tb0  1  0.814509  0.804899  0.190296  1
  Tb  Tb1  1  0.938008  0.559839  0.560997  1
  Tb  Tb2  1  0.552345  0.941193  0.940513  1
  Tb  Tb3  1  0.552345  0.941193  0.565949  1
  Tb  Tb4  1  0.938008  0.559839  0.941156  1
  Tb  Tb5  1  0.552408  0.565951  0.940821  1
  Tb  Tb6  1  0.938055  0.941301  0.560322  1
  Ho  Ho7  1  0.346549  0.350360  0.349081  1
  Ho  Ho8  1  0.346549  0.350360  0.954009  1
  Ho  Ho9  1  0.346743  0.954938  0.349159  1
  Ho  Ho10  1  0.968516  0.343646  0.343918  1
  Ho  Ho11  1  0.814047  0.189693  0.190275  1
  Ho  Ho12  1  0.186145  0.811048  0.811116  1
  Ho  Ho13  1  0.186145  0.811048  0.191691  1
  Ho  Ho14  1  0.814047  0.189693  0.805986  1
  Ho  Ho15  1  0.186497  0.190188  0.811658  1
  Cd  Cd16  1  0.580720  0.579379  0.580260  1
  Cd  Cd17  1  0.580720  0.579379  0.259641  1
  Cd  Cd18  1  0.580861  0.258647  0.580246  1
  Cd  Cd19  1  0.255196  0.581269  0.581766  1
  Os  Os20  1  0.147868  0.137635  0.136022  1
  Os  Os21  1  0.147868  0.137635  0.578476  1
  Os  Os22  1  0.149238  0.578282  0.136241  1
  Pt  Pt23  1  0.576614  0.142585  0.140401  1
