# generated using pymatgen
data_Er6Al24FeCoOs6
_symmetry_space_group_name_H-M   'P 1'
_cell_length_a   8.76920600
_cell_length_b   8.76920586
_cell_length_c   9.50911400
_cell_angle_alpha   90.00000000
_cell_angle_beta   90.00000000
_cell_angle_gamma   120.00000055
_symmetry_Int_Tables_number   1
_chemical_formula_structural   Er6Al24FeCoOs6
_chemical_formula_sum   'Er6 Al24 Fe1 Co1 Os6'
_cell_volume   633.27336277
_cell_formula_units_Z   1
loop_
 _symmetry_equiv_pos_site_id
 _symmetry_equiv_pos_as_xyz
  1  'x, y, z'
loop_
 _atom_site_type_symbol
 _atom_site_label
 _atom_site_symmetry_multiplicity
 _atom_site_fract_x
 _atom_site_fract_y
 _atom_site_fract_z
 _atom_site_occupancy
  Er  Er0  1  0.194306  0.388613  0.249818  1
  Er  Er1  1  0.805694  0.611387  0.750182  1
  Er  Er2  1  0.611387  0.805694  0.249818  1
  Er  Er3  1  0.388613  0.194306  0.750182  1
  Er  Er4  1  0.194306  0.805694  0.249818  1
  Er  Er5  1  0.805694  0.194306  0.750182  1
  Al  Al6  1  0.333333  0.666667  0.017098  1
  Al  Al7  1  0.666667  0.333333  0.982902  1
  Al  Al8  1  0.666667  0.333333  0.517196  1
  Al  Al9  1  0.333333  0.666667  0.482804  1
  Al  Al10  1  0.159776  0.319553  0.576352  1
  Al  Al11  1  0.840224  0.680447  0.423648  1
  Al  Al12  1  0.680447  0.840224  0.576352  1
  Al  Al13  1  0.841437  0.682873  0.075965  1
  Al  Al14  1  0.319553  0.159776  0.423648  1
  Al  Al15  1  0.158563  0.317127  0.924035  1
  Al  Al16  1  0.159776  0.840224  0.576352  1
  Al  Al17  1  0.317127  0.158563  0.075965  1
  Al  Al18  1  0.840224  0.159776  0.423648  1
  Al  Al19  1  0.682873  0.841437  0.924035  1
  Al  Al20  1  0.841437  0.158563  0.075965  1
  Al  Al21  1  0.158563  0.841437  0.924035  1
  Al  Al22  1  0.561346  0.122692  0.250122  1
  Al  Al23  1  0.438654  0.877308  0.749878  1
  Al  Al24  1  0.877308  0.438654  0.250122  1
  Al  Al25  1  0.122692  0.561346  0.749878  1
  Al  Al26  1  0.561346  0.438654  0.250122  1
  Al  Al27  1  0.438654  0.561346  0.749878  1
  Al  Al28  1  0.000000  0.000000  0.250396  1
  Al  Al29  1  0.000000  0.000000  0.749604  1
  Fe  Fe30  1  0.000000  0.000000  0.000000  1
  Co  Co31  1  0.000000  0.000000  0.500000  1
  Os  Os32  1  0.500000  0.000000  0.000000  1
  Os  Os33  1  0.000000  0.500000  0.000000  1
  Os  Os34  1  0.500000  0.000000  0.500000  1
  Os  Os35  1  0.500000  0.500000  0.000000  1
  Os  Os36  1  0.000000  0.500000  0.500000  1
  Os  Os37  1  0.500000  0.500000  0.500000  1
