# generated using pymatgen
data_La4Nd12Cd4Ir2PdPt
_symmetry_space_group_name_H-M   'P 1'
_cell_length_a   10.03845058
_cell_length_b   10.03835146
_cell_length_c   10.01969300
_cell_angle_alpha   60.09215235
_cell_angle_beta   60.09500621
_cell_angle_gamma   60.21180096
_symmetry_Int_Tables_number   1
_chemical_formula_structural   La4Nd12Cd4Ir2PdPt
_chemical_formula_sum   'La4 Nd12 Cd4 Ir2 Pd1 Pt1'
_cell_volume   716.09997513
_cell_formula_units_Z   1
loop_
 _symmetry_equiv_pos_site_id
 _symmetry_equiv_pos_as_xyz
  1  'x, y, z'
loop_
 _atom_site_type_symbol
 _atom_site_label
 _atom_site_symmetry_multiplicity
 _atom_site_fract_x
 _atom_site_fract_y
 _atom_site_fract_z
 _atom_site_occupancy
  La  La0  1  0.349290  0.349282  0.345346  1
  La  La1  1  0.351228  0.351214  0.953047  1
  La  La2  1  0.355662  0.947742  0.349639  1
  La  La3  1  0.947721  0.355690  0.349646  1
  Nd  Nd4  1  0.806461  0.189633  0.189341  1
  Nd  Nd5  1  0.189295  0.806515  0.813544  1
  Nd  Nd6  1  0.189605  0.806433  0.189379  1
  Nd  Nd7  1  0.806532  0.189306  0.813556  1
  Nd  Nd8  1  0.190287  0.190353  0.809260  1
  Nd  Nd9  1  0.811260  0.811273  0.187597  1
  Nd  Nd10  1  0.938489  0.565588  0.561750  1
  Nd  Nd11  1  0.564769  0.937356  0.935593  1
  Nd  Nd12  1  0.565644  0.938472  0.561749  1
  Nd  Nd13  1  0.937347  0.564752  0.935586  1
  Nd  Nd14  1  0.563924  0.563942  0.937445  1
  Nd  Nd15  1  0.936927  0.936929  0.562745  1
  Cd  Cd16  1  0.580516  0.580507  0.580465  1
  Cd  Cd17  1  0.580385  0.580371  0.258042  1
  Cd  Cd18  1  0.579858  0.258971  0.580379  1
  Cd  Cd19  1  0.258965  0.579854  0.580382  1
  Ir  Ir20  1  0.141105  0.571971  0.143662  1
  Ir  Ir21  1  0.571984  0.141096  0.143670  1
  Pd  Pd22  1  0.141767  0.141771  0.144688  1
  Pt  Pt23  1  0.140979  0.140974  0.573491  1
