# generated using pymatgen
data_Zr8Al15Ru7
_symmetry_space_group_name_H-M   'P 1'
_cell_length_a   8.92045238
_cell_length_b   8.92045317
_cell_length_c   8.92045211
_cell_angle_alpha   120.05390196
_cell_angle_beta   119.99520552
_cell_angle_gamma   89.95748654
_symmetry_Int_Tables_number   1
_chemical_formula_structural   Zr8Al15Ru7
_chemical_formula_sum   'Zr8 Al15 Ru7'
_cell_volume   501.74629608
_cell_formula_units_Z   1
loop_
 _symmetry_equiv_pos_site_id
 _symmetry_equiv_pos_as_xyz
  1  'x, y, z'
loop_
 _atom_site_type_symbol
 _atom_site_label
 _atom_site_symmetry_multiplicity
 _atom_site_fract_x
 _atom_site_fract_y
 _atom_site_fract_z
 _atom_site_occupancy
  Zr  Zr0  1  0.797377  0.287262  0.071577  1
  Zr  Zr1  1  0.215685  0.287262  0.489885  1
  Zr  Zr2  1  0.204486  0.704486  0.500000  1
  Zr  Zr3  1  0.215685  0.725800  0.928423  1
  Zr  Zr4  1  0.797377  0.725800  0.510115  1
  Zr  Zr5  1  0.774427  0.274427  0.500000  1
  Zr  Zr6  1  0.378750  0.119291  0.740541  1
  Zr  Zr7  1  0.378750  0.638210  0.259459  1
  Al  Al8  1  0.988633  0.488633  0.500000  1
  Al  Al9  1  0.160806  0.334654  0.173848  1
  Al  Al10  1  0.160806  0.986958  0.826152  1
  Al  Al11  1  0.152770  0.342914  0.809856  1
  Al  Al12  1  0.533057  0.342914  0.190144  1
  Al  Al13  1  0.840872  0.657669  0.816798  1
  Al  Al14  1  0.840872  0.024074  0.183202  1
  Al  Al15  1  0.837097  0.660419  0.176678  1
  Al  Al16  1  0.483741  0.660419  0.823322  1
  Al  Al17  1  0.376664  0.122560  0.254105  1
  Al  Al18  1  0.868457  0.122560  0.745895  1
  Al  Al19  1  0.620730  0.872980  0.252250  1
  Al  Al20  1  0.620730  0.368479  0.747750  1
  Al  Al21  1  0.622826  0.878267  0.744559  1
  Al  Al22  1  0.133708  0.878267  0.255441  1
  Ru  Ru23  1  0.994904  0.997613  0.498477  1
  Ru  Ru24  1  0.499135  0.997613  0.002709  1
  Ru  Ru25  1  0.499397  0.499397  0.000000  1
  Ru  Ru26  1  0.499135  0.496426  0.501523  1
  Ru  Ru27  1  0.994904  0.496426  0.997291  1
  Ru  Ru28  1  0.999605  0.999605  0.000000  1
  Ru  Ru29  1  0.508611  0.008611  0.500000  1
