# generated using pymatgen
data_Th7TcIrAu
_symmetry_space_group_name_H-M   'P 1'
_cell_length_a   10.19546476
_cell_length_b   10.07851590
_cell_length_c   6.32874456
_cell_angle_alpha   90.00000115
_cell_angle_beta   90.11328823
_cell_angle_gamma   119.62126703
_symmetry_Int_Tables_number   1
_chemical_formula_structural   Th7TcIrAu
_chemical_formula_sum   'Th14 Tc2 Ir2 Au2'
_cell_volume   565.32149174
_cell_formula_units_Z   2
loop_
 _symmetry_equiv_pos_site_id
 _symmetry_equiv_pos_as_xyz
  1  'x, y, z'
loop_
 _atom_site_type_symbol
 _atom_site_label
 _atom_site_symmetry_multiplicity
 _atom_site_fract_x
 _atom_site_fract_y
 _atom_site_fract_z
 _atom_site_occupancy
  Th  Th0  1  0.455218  0.532645  0.279815  1
  Th  Th1  1  0.087941  0.543970  0.295264  1
  Th  Th2  1  0.907395  0.453696  0.795238  1
  Th  Th3  1  0.248744  0.124373  0.512672  1
  Th  Th4  1  0.551846  0.083039  0.782296  1
  Th  Th5  1  0.758253  0.879126  0.012462  1
  Th  Th6  1  0.676171  0.338085  0.309004  1
  Th  Th7  1  0.116069  0.857445  0.996374  1
  Th  Th8  1  0.455218  0.922574  0.279815  1
  Th  Th9  1  0.551846  0.468806  0.782296  1
  Th  Th10  1  0.879457  0.138921  0.497187  1
  Th  Th11  1  0.116069  0.258624  0.996374  1
  Th  Th12  1  0.879457  0.740536  0.497187  1
  Th  Th13  1  0.323791  0.661896  0.823974  1
  Tc  Tc14  1  0.806348  0.629551  0.048202  1
  Tc  Tc15  1  0.806348  0.176796  0.048202  1
  Ir  Ir16  1  0.193373  0.377086  0.553806  1
  Ir  Ir17  1  0.193373  0.816286  0.553806  1
  Au  Au18  1  0.621246  0.810623  0.561612  1
  Au  Au19  1  0.371839  0.185919  0.058414  1
