# generated using pymatgen
data_Pd(Pt2Se5)2
_symmetry_space_group_name_H-M   'P 1'
_cell_length_a   16.34253590
_cell_length_b   16.34253573
_cell_length_c   6.62221398
_cell_angle_alpha   87.46670535
_cell_angle_beta   87.46670565
_cell_angle_gamma   13.28229005
_symmetry_Int_Tables_number   1
_chemical_formula_structural   Pd(Pt2Se5)2
_chemical_formula_sum   'Pd1 Pt4 Se10'
_cell_volume   405.94311034
_cell_formula_units_Z   1
loop_
 _symmetry_equiv_pos_site_id
 _symmetry_equiv_pos_as_xyz
  1  'x, y, z'
loop_
 _atom_site_type_symbol
 _atom_site_label
 _atom_site_symmetry_multiplicity
 _atom_site_fract_x
 _atom_site_fract_y
 _atom_site_fract_z
 _atom_site_occupancy
  Pd  Pd0  1  0.405829  0.405829  0.001223  1
  Pt  Pt1  1  0.005669  0.005669  0.003615  1
  Pt  Pt2  1  0.605564  0.605564  0.000694  1
  Pt  Pt3  1  0.205723  0.205723  0.996976  1
  Pt  Pt4  1  0.805802  0.805802  0.997531  1
  Se  Se5  1  0.674831  0.674831  0.804713  1
  Se  Se6  1  0.275338  0.275338  0.803483  1
  Se  Se7  1  0.875341  0.875341  0.805964  1
  Se  Se8  1  0.536293  0.536293  0.197064  1
  Se  Se9  1  0.136476  0.136476  0.192387  1
  Se  Se10  1  0.736357  0.736357  0.190009  1
  Se  Se11  1  0.335916  0.335916  0.191812  1
  Se  Se12  1  0.936280  0.936280  0.196580  1
  Se  Se13  1  0.074763  0.074763  0.808303  1
  Se  Se14  1  0.475541  0.475541  0.809646  1
