# generated using pymatgen
data_Be6Co12Si5B
_symmetry_space_group_name_H-M   'P 1'
_cell_length_a   3.75590300
_cell_length_b   5.30504400
_cell_length_c   11.24399800
_cell_angle_alpha   90.00000000
_cell_angle_beta   89.99976076
_cell_angle_gamma   90.00000000
_symmetry_Int_Tables_number   1
_chemical_formula_structural   Be6Co12Si5B
_chemical_formula_sum   'Be6 Co12 Si5 B1'
_cell_volume   224.03925386
_cell_formula_units_Z   1
loop_
 _symmetry_equiv_pos_site_id
 _symmetry_equiv_pos_as_xyz
  1  'x, y, z'
loop_
 _atom_site_type_symbol
 _atom_site_label
 _atom_site_symmetry_multiplicity
 _atom_site_fract_x
 _atom_site_fract_y
 _atom_site_fract_z
 _atom_site_occupancy
  Be  Be0  1  0.000000  0.499999  0.000000  1
  Be  Be1  1  0.499850  0.000000  0.166735  1
  Be  Be2  1  0.999876  0.499999  0.327289  1
  Be  Be3  1  0.500002  0.000000  0.500000  1
  Be  Be4  1  0.000123  0.499999  0.672711  1
  Be  Be5  1  0.500151  0.000000  0.833265  1
  Co  Co6  1  0.500002  0.234528  0.000000  1
  Co  Co7  1  0.500002  0.765470  0.000000  1
  Co  Co8  1  0.999909  0.242241  0.158392  1
  Co  Co9  1  0.999909  0.757757  0.158392  1
  Co  Co10  1  0.499906  0.251126  0.330972  1
  Co  Co11  1  0.499906  0.748876  0.330972  1
  Co  Co12  1  0.000000  0.249673  0.500000  1
  Co  Co13  1  0.000000  0.750327  0.500000  1
  Co  Co14  1  0.500092  0.251126  0.669028  1
  Co  Co15  1  0.500092  0.748876  0.669028  1
  Co  Co16  1  0.000092  0.242241  0.841609  1
  Co  Co17  1  0.000092  0.757757  0.841609  1
  Si  Si18  1  0.499893  0.499999  0.161459  1
  Si  Si19  1  0.999885  0.000000  0.329995  1
  Si  Si20  1  0.500002  0.499999  0.500000  1
  Si  Si21  1  0.000116  0.000000  0.670006  1
  Si  Si22  1  0.500108  0.499999  0.838541  1
  B  B23  1  0.000000  0.000000  0.000000  1
