# generated using pymatgen
data_Bi(Sb3Pd10)2
_symmetry_space_group_name_H-M   'P 1'
_cell_length_a   7.87042559
_cell_length_b   7.87042622
_cell_length_c   7.87042522
_cell_angle_alpha   99.36352358
_cell_angle_beta   99.36353408
_cell_angle_gamma   99.36352246
_symmetry_Int_Tables_number   1
_chemical_formula_structural   Bi(Sb3Pd10)2
_chemical_formula_sum   'Bi1 Sb6 Pd20'
_cell_volume   465.57116526
_cell_formula_units_Z   1
loop_
 _symmetry_equiv_pos_site_id
 _symmetry_equiv_pos_as_xyz
  1  'x, y, z'
loop_
 _atom_site_type_symbol
 _atom_site_label
 _atom_site_symmetry_multiplicity
 _atom_site_fract_x
 _atom_site_fract_y
 _atom_site_fract_z
 _atom_site_occupancy
  Bi  Bi0  1  0.000000  0.000000  0.000000  1
  Sb  Sb1  1  0.456262  0.878198  0.725903  1
  Sb  Sb2  1  0.878198  0.725903  0.456262  1
  Sb  Sb3  1  0.725903  0.456262  0.878198  1
  Sb  Sb4  1  0.543738  0.121802  0.274097  1
  Sb  Sb5  1  0.121802  0.274097  0.543738  1
  Sb  Sb6  1  0.274097  0.543738  0.121802  1
  Pd  Pd7  1  0.375531  0.375531  0.375531  1
  Pd  Pd8  1  0.624469  0.624469  0.624469  1
  Pd  Pd9  1  0.997653  0.344432  0.228663  1
  Pd  Pd10  1  0.344432  0.228663  0.997653  1
  Pd  Pd11  1  0.228663  0.997652  0.344432  1
  Pd  Pd12  1  0.002347  0.655568  0.771337  1
  Pd  Pd13  1  0.655568  0.771337  0.002348  1
  Pd  Pd14  1  0.771337  0.002348  0.655568  1
  Pd  Pd15  1  0.684344  0.145454  0.987608  1
  Pd  Pd16  1  0.145454  0.987608  0.684344  1
  Pd  Pd17  1  0.987608  0.684344  0.145454  1
  Pd  Pd18  1  0.315656  0.854546  0.012392  1
  Pd  Pd19  1  0.854546  0.012392  0.315656  1
  Pd  Pd20  1  0.012392  0.315656  0.854546  1
  Pd  Pd21  1  0.208660  0.663689  0.477393  1
  Pd  Pd22  1  0.663689  0.477393  0.208660  1
  Pd  Pd23  1  0.477393  0.208660  0.663689  1
  Pd  Pd24  1  0.791340  0.336311  0.522607  1
  Pd  Pd25  1  0.336311  0.522607  0.791340  1
  Pd  Pd26  1  0.522607  0.791340  0.336311  1
