# generated using pymatgen
data_CeTm2PaPt4
_symmetry_space_group_name_H-M   'P 1'
_cell_length_a   4.53540500
_cell_length_b   5.57336663
_cell_length_c   6.96232900
_cell_angle_alpha   88.81616188
_cell_angle_beta   90.00000000
_cell_angle_gamma   90.00000000
_symmetry_Int_Tables_number   1
_chemical_formula_structural   CeTm2PaPt4
_chemical_formula_sum   'Ce1 Tm2 Pa1 Pt4'
_cell_volume   175.95253148
_cell_formula_units_Z   1
loop_
 _symmetry_equiv_pos_site_id
 _symmetry_equiv_pos_as_xyz
  1  'x, y, z'
loop_
 _atom_site_type_symbol
 _atom_site_label
 _atom_site_symmetry_multiplicity
 _atom_site_fract_x
 _atom_site_fract_y
 _atom_site_fract_z
 _atom_site_occupancy
  Ce  Ce0  1  0.250000  0.856505  0.684569  1
  Tm  Tm1  1  0.750000  0.353300  0.817622  1
  Tm  Tm2  1  0.750000  0.147633  0.317643  1
  Pa  Pa3  1  0.250000  0.643350  0.183007  1
  Pt  Pt4  1  0.250000  0.162326  0.051525  1
  Pt  Pt5  1  0.750000  0.831265  0.964763  1
  Pt  Pt6  1  0.750000  0.659435  0.442560  1
  Pt  Pt7  1  0.250000  0.346186  0.538308  1
