# generated using pymatgen
data_PrNb3(PN3)4
_symmetry_space_group_name_H-M   'P 1'
_cell_length_a   6.60460734
_cell_length_b   6.60460530
_cell_length_c   5.27089500
_cell_angle_alpha   78.62970447
_cell_angle_beta   78.62969917
_cell_angle_gamma   82.18784146
_symmetry_Int_Tables_number   1
_chemical_formula_structural   PrNb3(PN3)4
_chemical_formula_sum   'Pr1 Nb3 P4 N12'
_cell_volume   219.85463616
_cell_formula_units_Z   1
loop_
 _symmetry_equiv_pos_site_id
 _symmetry_equiv_pos_as_xyz
  1  'x, y, z'
loop_
 _atom_site_type_symbol
 _atom_site_label
 _atom_site_symmetry_multiplicity
 _atom_site_fract_x
 _atom_site_fract_y
 _atom_site_fract_z
 _atom_site_occupancy
  Pr  Pr0  1  0.677138  0.322862  0.750000  1
  Nb  Nb1  1  0.904008  0.095992  0.250000  1
  Nb  Nb2  1  0.309243  0.690757  0.250000  1
  Nb  Nb3  1  0.105985  0.894015  0.750000  1
  P  P4  1  0.194738  0.379222  0.760756  1
  P  P5  1  0.379811  0.199181  0.260669  1
  P  P6  1  0.800819  0.620189  0.239331  1
  P  P7  1  0.620778  0.805262  0.739244  1
  N  N8  1  0.317123  0.383172  0.009766  1
  N  N9  1  0.032837  0.206138  0.851274  1
  N  N10  1  0.990954  0.768704  0.153852  1
  N  N11  1  0.367170  0.344750  0.488807  1
  N  N12  1  0.619481  0.113866  0.181458  1
  N  N13  1  0.383241  0.886695  0.849482  1
  N  N14  1  0.886134  0.380519  0.318542  1
  N  N15  1  0.655250  0.632830  0.011193  1
  N  N16  1  0.793862  0.967163  0.648726  1
  N  N17  1  0.113305  0.616759  0.650518  1
  N  N18  1  0.231296  0.009046  0.346148  1
  N  N19  1  0.616828  0.682877  0.490234  1
