# generated using pymatgen
data_Dy5Tm5Pb6
_symmetry_space_group_name_H-M   'P 1'
_cell_length_a   6.56074900
_cell_length_b   9.02042631
_cell_length_c   9.02916612
_cell_angle_alpha   120.02493514
_cell_angle_beta   89.99959609
_cell_angle_gamma   90.00005027
_symmetry_Int_Tables_number   1
_chemical_formula_structural   Dy5Tm5Pb6
_chemical_formula_sum   'Dy5 Tm5 Pb6'
_cell_volume   462.64682262
_cell_formula_units_Z   1
loop_
 _symmetry_equiv_pos_site_id
 _symmetry_equiv_pos_as_xyz
  1  'x, y, z'
loop_
 _atom_site_type_symbol
 _atom_site_label
 _atom_site_symmetry_multiplicity
 _atom_site_fract_x
 _atom_site_fract_y
 _atom_site_fract_z
 _atom_site_occupancy
  Dy  Dy0  1  0.750002  0.238398  0.999823  1
  Dy  Dy1  1  0.749998  0.761541  0.761408  1
  Dy  Dy2  1  0.749998  0.999956  0.238831  1
  Dy  Dy3  1  0.250001  0.761482  0.999823  1
  Dy  Dy4  1  0.250000  0.238581  0.238360  1
  Tm  Tm5  1  0.499932  0.333287  0.666757  1
  Tm  Tm6  1  0.499932  0.666675  0.333371  1
  Tm  Tm7  1  0.000068  0.666715  0.333372  1
  Tm  Tm8  1  0.000067  0.333327  0.666760  1
  Tm  Tm9  1  0.249999  0.000046  0.761371  1
  Pb  Pb10  1  0.749995  0.605115  0.999988  1
  Pb  Pb11  1  0.750002  0.394841  0.394788  1
  Pb  Pb12  1  0.750004  0.000030  0.605140  1
  Pb  Pb13  1  0.249994  0.394184  0.999561  1
  Pb  Pb14  1  0.250003  0.605860  0.605458  1
  Pb  Pb15  1  0.250007  0.999962  0.395190  1
