# generated using pymatgen
data_ErTm9(In2Rh)4
_symmetry_space_group_name_H-M   'P 1'
_cell_length_a   3.55455800
_cell_length_b   7.98539004
_cell_length_c   18.17887710
_cell_angle_alpha   90.01201283
_cell_angle_beta   90.00000000
_cell_angle_gamma   90.00000000
_symmetry_Int_Tables_number   1
_chemical_formula_structural   ErTm9(In2Rh)4
_chemical_formula_sum   'Er1 Tm9 In8 Rh4'
_cell_volume   515.99890858
_cell_formula_units_Z   1
loop_
 _symmetry_equiv_pos_site_id
 _symmetry_equiv_pos_as_xyz
  1  'x, y, z'
loop_
 _atom_site_type_symbol
 _atom_site_label
 _atom_site_symmetry_multiplicity
 _atom_site_fract_x
 _atom_site_fract_y
 _atom_site_fract_z
 _atom_site_occupancy
  Er  Er0  1  0.000000  0.500000  0.500000  1
  Tm  Tm1  1  0.000000  0.000000  0.000000  1
  Tm  Tm2  1  0.000000  0.745470  0.278651  1
  Tm  Tm3  1  0.000000  0.254530  0.721349  1
  Tm  Tm4  1  0.000000  0.754526  0.778663  1
  Tm  Tm5  1  0.000000  0.245474  0.221337  1
  Tm  Tm6  1  0.000000  0.617923  0.086898  1
  Tm  Tm7  1  0.000000  0.382077  0.913102  1
  Tm  Tm8  1  0.000000  0.882132  0.586928  1
  Tm  Tm9  1  0.000000  0.117868  0.413072  1
  In  In10  1  0.500000  0.707259  0.932076  1
  In  In11  1  0.500000  0.292741  0.067924  1
  In  In12  1  0.500000  0.792930  0.432005  1
  In  In13  1  0.500000  0.207070  0.567995  1
  In  In14  1  0.500000  0.572079  0.650141  1
  In  In15  1  0.500000  0.427921  0.349859  1
  In  In16  1  0.500000  0.927962  0.150060  1
  In  In17  1  0.500000  0.072038  0.849940  1
  Rh  Rh18  1  0.500000  0.525122  0.195456  1
  Rh  Rh19  1  0.500000  0.474878  0.804544  1
  Rh  Rh20  1  0.500000  0.974898  0.695467  1
  Rh  Rh21  1  0.500000  0.025102  0.304533  1
