# generated using pymatgen
data_Ho2Hf4Sn5
_symmetry_space_group_name_H-M   'P 1'
_cell_length_a   11.10639924
_cell_length_b   11.10638313
_cell_length_c   11.10638165
_cell_angle_alpha   148.94615102
_cell_angle_beta   131.92830545
_cell_angle_gamma   58.33961857
_symmetry_Int_Tables_number   1
_chemical_formula_structural   Ho2Hf4Sn5
_chemical_formula_sum   'Ho4 Hf8 Sn10'
_cell_volume   521.72174844
_cell_formula_units_Z   2
loop_
 _symmetry_equiv_pos_site_id
 _symmetry_equiv_pos_as_xyz
  1  'x, y, z'
loop_
 _atom_site_type_symbol
 _atom_site_label
 _atom_site_symmetry_multiplicity
 _atom_site_fract_x
 _atom_site_fract_y
 _atom_site_fract_z
 _atom_site_occupancy
  Ho  Ho0  1  0.256118  0.143290  0.112827  1
  Ho  Ho1  1  0.743882  0.856710  0.887173  1
  Ho  Ho2  1  0.030456  0.643289  0.387167  1
  Ho  Ho3  1  0.969544  0.356711  0.612833  1
  Hf  Hf4  1  0.311041  0.561039  0.250002  1
  Hf  Hf5  1  0.688959  0.438961  0.749998  1
  Hf  Hf6  1  0.688959  0.938960  0.249998  1
  Hf  Hf7  1  0.311041  0.061040  0.750002  1
  Hf  Hf8  1  0.674038  0.435618  0.238421  1
  Hf  Hf9  1  0.325962  0.564382  0.761579  1
  Hf  Hf10  1  0.197192  0.935617  0.261575  1
  Hf  Hf11  1  0.802808  0.064383  0.738425  1
  Sn  Sn12  1  0.588502  0.289064  0.299439  1
  Sn  Sn13  1  0.411498  0.710936  0.700561  1
  Sn  Sn14  1  0.989627  0.789058  0.200569  1
  Sn  Sn15  1  0.010373  0.210942  0.799431  1
  Sn  Sn16  1  0.000000  0.250013  0.250013  1
  Sn  Sn17  1  0.000000  0.749987  0.749987  1
  Sn  Sn18  1  0.467665  0.066901  0.400763  1
  Sn  Sn19  1  0.532335  0.933099  0.599237  1
  Sn  Sn20  1  0.666132  0.566908  0.099223  1
  Sn  Sn21  1  0.333868  0.433092  0.900777  1
