# generated using pymatgen
data_Ti8Al15Pt7
_symmetry_space_group_name_H-M   'P 1'
_cell_length_a   8.71827990
_cell_length_b   8.71828038
_cell_length_c   8.71828069
_cell_angle_alpha   120.10799206
_cell_angle_beta   119.86472194
_cell_angle_gamma   90.02376178
_symmetry_Int_Tables_number   1
_chemical_formula_structural   Ti8Al15Pt7
_chemical_formula_sum   'Ti8 Al15 Pt7'
_cell_volume   468.66718806
_cell_formula_units_Z   1
loop_
 _symmetry_equiv_pos_site_id
 _symmetry_equiv_pos_as_xyz
  1  'x, y, z'
loop_
 _atom_site_type_symbol
 _atom_site_label
 _atom_site_symmetry_multiplicity
 _atom_site_fract_x
 _atom_site_fract_y
 _atom_site_fract_z
 _atom_site_occupancy
  Ti  Ti0  1  0.785819  0.289494  0.076863  1
  Ti  Ti1  1  0.212631  0.289494  0.503675  1
  Ti  Ti2  1  0.212399  0.712399  0.500000  1
  Ti  Ti3  1  0.212631  0.708956  0.923137  1
  Ti  Ti4  1  0.785819  0.708956  0.496325  1
  Ti  Ti5  1  0.788386  0.288386  0.500000  1
  Ti  Ti6  1  0.379211  0.122961  0.743750  1
  Ti  Ti7  1  0.379211  0.635461  0.256250  1
  Al  Al8  1  0.000722  0.500722  0.500000  1
  Al  Al9  1  0.154285  0.348626  0.194340  1
  Al  Al10  1  0.154285  0.959945  0.805660  1
  Al  Al11  1  0.155493  0.344722  0.810771  1
  Al  Al12  1  0.533950  0.344722  0.189229  1
  Al  Al13  1  0.846712  0.653847  0.807136  1
  Al  Al14  1  0.846712  0.039575  0.192864  1
  Al  Al15  1  0.846577  0.653623  0.192953  1
  Al  Al16  1  0.460670  0.653623  0.807047  1
  Al  Al17  1  0.377922  0.121645  0.256277  1
  Al  Al18  1  0.865369  0.121645  0.743723  1
  Al  Al19  1  0.621980  0.875950  0.253971  1
  Al  Al20  1  0.621980  0.368009  0.746029  1
  Al  Al21  1  0.621078  0.877747  0.743331  1
  Al  Al22  1  0.134415  0.877747  0.256669  1
  Pt  Pt23  1  0.996711  0.999348  0.498329  1
  Pt  Pt24  1  0.501019  0.999348  0.002638  1
  Pt  Pt25  1  0.501934  0.501934  0.000000  1
  Pt  Pt26  1  0.501019  0.498381  0.501671  1
  Pt  Pt27  1  0.996711  0.498381  0.997362  1
  Pt  Pt28  1  0.001268  0.001268  0.000000  1
  Pt  Pt29  1  0.503080  0.003080  0.500000  1
