# generated using pymatgen
data_Nd6Ho10Cd4IrPt3
_symmetry_space_group_name_H-M   'P 1'
_cell_length_a   9.77478801
_cell_length_b   9.75870703
_cell_length_c   9.75870700
_cell_angle_alpha   59.99999670
_cell_angle_beta   60.05440289
_cell_angle_gamma   60.05440783
_symmetry_Int_Tables_number   1
_chemical_formula_structural   Nd6Ho10Cd4IrPt3
_chemical_formula_sum   'Nd6 Ho10 Cd4 Ir1 Pt3'
_cell_volume   658.76959221
_cell_formula_units_Z   1
loop_
 _symmetry_equiv_pos_site_id
 _symmetry_equiv_pos_as_xyz
  1  'x, y, z'
loop_
 _atom_site_type_symbol
 _atom_site_label
 _atom_site_symmetry_multiplicity
 _atom_site_fract_x
 _atom_site_fract_y
 _atom_site_fract_z
 _atom_site_occupancy
  Nd  Nd0  1  0.937740  0.562463  0.562463  1
  Nd  Nd1  1  0.563248  0.938237  0.938237  1
  Nd  Nd2  1  0.563248  0.938237  0.560278  1
  Nd  Nd3  1  0.937740  0.562463  0.937335  1
  Nd  Nd4  1  0.563248  0.560278  0.938237  1
  Nd  Nd5  1  0.937740  0.937335  0.562463  1
  Ho  Ho6  1  0.351578  0.346958  0.346958  1
  Ho  Ho7  1  0.351578  0.346958  0.954504  1
  Ho  Ho8  1  0.351578  0.954504  0.346958  1
  Ho  Ho9  1  0.950303  0.349899  0.349899  1
  Ho  Ho10  1  0.808888  0.187408  0.187408  1
  Ho  Ho11  1  0.188195  0.811884  0.811884  1
  Ho  Ho12  1  0.188195  0.811884  0.188038  1
  Ho  Ho13  1  0.808888  0.187408  0.816297  1
  Ho  Ho14  1  0.188195  0.188038  0.811884  1
  Ho  Ho15  1  0.808888  0.816297  0.187408  1
  Cd  Cd16  1  0.579874  0.579748  0.579748  1
  Cd  Cd17  1  0.579874  0.579748  0.260631  1
  Cd  Cd18  1  0.579874  0.260631  0.579748  1
  Cd  Cd19  1  0.260752  0.579749  0.579749  1
  Ir  Ir20  1  0.574853  0.141715  0.141715  1
  Pt  Pt21  1  0.141841  0.142066  0.142066  1
  Pt  Pt22  1  0.141841  0.142066  0.574027  1
  Pt  Pt23  1  0.141841  0.574027  0.142066  1
