# generated using pymatgen
data_Ac3Ga8
_symmetry_space_group_name_H-M   'P 1'
_cell_length_a   4.60597592
_cell_length_b   4.48938968
_cell_length_c   13.07549034
_cell_angle_alpha   99.88503666
_cell_angle_beta   100.14443796
_cell_angle_gamma   89.99999404
_symmetry_Int_Tables_number   1
_chemical_formula_structural   Ac3Ga8
_chemical_formula_sum   'Ac3 Ga8'
_cell_volume   262.06978000
_cell_formula_units_Z   1
loop_
 _symmetry_equiv_pos_site_id
 _symmetry_equiv_pos_as_xyz
  1  'x, y, z'
loop_
 _atom_site_type_symbol
 _atom_site_label
 _atom_site_symmetry_multiplicity
 _atom_site_fract_x
 _atom_site_fract_y
 _atom_site_fract_z
 _atom_site_occupancy
  Ac  Ac0  1  0.147635  0.647635  0.295271  1
  Ac  Ac1  1  0.852365  0.352365  0.704729  1
  Ac  Ac2  1  0.000000  0.000000  0.000000  1
  Ga  Ga3  1  0.749909  0.749909  0.499818  1
  Ga  Ga4  1  0.250091  0.250091  0.500182  1
  Ga  Ga5  1  0.403909  0.903909  0.807819  1
  Ga  Ga6  1  0.596091  0.096091  0.192181  1
  Ga  Ga7  1  0.304698  0.804698  0.609396  1
  Ga  Ga8  1  0.695302  0.195302  0.390604  1
  Ga  Ga9  1  0.549027  0.549027  0.098053  1
  Ga  Ga10  1  0.450973  0.450973  0.901947  1
