# generated using pymatgen
data_Er2Mn3Co9As7
_symmetry_space_group_name_H-M   'P 1'
_cell_length_a   3.72202100
_cell_length_b   9.44620655
_cell_length_c   9.44620600
_cell_angle_alpha   119.99999808
_cell_angle_beta   90.00000000
_cell_angle_gamma   90.00000000
_symmetry_Int_Tables_number   1
_chemical_formula_structural   Er2Mn3Co9As7
_chemical_formula_sum   'Er2 Mn3 Co9 As7'
_cell_volume   287.62346183
_cell_formula_units_Z   1
loop_
 _symmetry_equiv_pos_site_id
 _symmetry_equiv_pos_as_xyz
  1  'x, y, z'
loop_
 _atom_site_type_symbol
 _atom_site_label
 _atom_site_symmetry_multiplicity
 _atom_site_fract_x
 _atom_site_fract_y
 _atom_site_fract_z
 _atom_site_occupancy
  Er  Er0  1  0.000000  0.666667  0.333333  1
  Er  Er1  1  0.500000  0.333333  0.666667  1
  Mn  Mn2  1  0.500000  0.777771  0.895352  1
  Mn  Mn3  1  0.500000  0.117581  0.222229  1
  Mn  Mn4  1  0.500000  0.104648  0.882419  1
  Co  Co5  1  0.000000  0.570419  0.940094  1
  Co  Co6  1  0.000000  0.369675  0.429581  1
  Co  Co7  1  0.000000  0.059906  0.630325  1
  Co  Co8  1  0.000000  0.881293  0.158826  1
  Co  Co9  1  0.000000  0.277533  0.118707  1
  Co  Co10  1  0.000000  0.841174  0.722467  1
  Co  Co11  1  0.500000  0.948962  0.384870  1
  Co  Co12  1  0.500000  0.435906  0.051038  1
  Co  Co13  1  0.500000  0.615130  0.564094  1
  As  As14  1  0.000000  0.000000  0.000000  1
  As  As15  1  0.500000  0.709577  0.119696  1
  As  As16  1  0.500000  0.410120  0.290423  1
  As  As17  1  0.500000  0.880304  0.589880  1
  As  As18  1  0.000000  0.583913  0.699326  1
  As  As19  1  0.000000  0.115413  0.416087  1
  As  As20  1  0.000000  0.300674  0.884587  1
