# generated using pymatgen
data_Pr5LuNp4O19
_symmetry_space_group_name_H-M   'P 1'
_cell_length_a   6.75994555
_cell_length_b   7.73801846
_cell_length_c   8.68280000
_cell_angle_alpha   100.88163926
_cell_angle_beta   97.16946071
_cell_angle_gamma   107.28375714
_symmetry_Int_Tables_number   1
_chemical_formula_structural   Pr5LuNp4O19
_chemical_formula_sum   'Pr5 Lu1 Np4 O19'
_cell_volume   417.87851520
_cell_formula_units_Z   1
loop_
 _symmetry_equiv_pos_site_id
 _symmetry_equiv_pos_as_xyz
  1  'x, y, z'
loop_
 _atom_site_type_symbol
 _atom_site_label
 _atom_site_symmetry_multiplicity
 _atom_site_fract_x
 _atom_site_fract_y
 _atom_site_fract_z
 _atom_site_occupancy
  Pr  Pr0  1  0.802389  0.099213  0.603936  1
  Pr  Pr1  1  0.398787  0.297944  0.798322  1
  Pr  Pr2  1  0.608089  0.704692  0.210838  1
  Pr  Pr3  1  0.993644  0.496530  0.985319  1
  Pr  Pr4  1  0.193407  0.908761  0.387755  1
  Lu  Lu5  1  0.767103  0.599150  0.601315  1
  Np  Np6  1  0.605403  0.205603  0.198930  1
  Np  Np7  1  0.998996  0.002777  0.996905  1
  Np  Np8  1  0.407714  0.804911  0.812946  1
  Np  Np9  1  0.199251  0.391997  0.391883  1
  O  O10  1  0.346375  0.056336  0.956439  1
  O  O11  1  0.424574  0.979209  0.651965  1
  O  O12  1  0.045218  0.209523  0.860760  1
  O  O13  1  0.735243  0.379207  0.739787  1
  O  O14  1  0.157874  0.190407  0.534182  1
  O  O15  1  0.364147  0.598001  0.949064  1
  O  O16  1  0.951029  0.265236  0.160091  1
  O  O17  1  0.914121  0.398982  0.458542  1
  O  O18  1  0.748691  0.860514  0.771931  1
  O  O19  1  0.537687  0.444889  0.361972  1
  O  O20  1  0.410130  0.557983  0.632466  1
  O  O21  1  0.245863  0.130457  0.228455  1
  O  O22  1  0.074971  0.720068  0.793932  1
  O  O23  1  0.643495  0.407712  0.064566  1
  O  O24  1  0.857122  0.809943  0.458850  1
  O  O25  1  0.248598  0.617219  0.279996  1
  O  O26  1  0.953749  0.785040  0.120878  1
  O  O27  1  0.570528  0.014012  0.345478  1
  O  O28  1  0.659718  0.951322  0.050733  1
