# generated using pymatgen
data_ErTm3Sc4(ReB6)4
_symmetry_space_group_name_H-M   'P 1'
_cell_length_a   3.57271700
_cell_length_b   8.98947520
_cell_length_c   11.34718727
_cell_angle_alpha   90.00016774
_cell_angle_beta   90.00000000
_cell_angle_gamma   90.00000000
_symmetry_Int_Tables_number   1
_chemical_formula_structural   ErTm3Sc4(ReB6)4
_chemical_formula_sum   'Er1 Tm3 Sc4 Re4 B24'
_cell_volume   364.43592134
_cell_formula_units_Z   1
loop_
 _symmetry_equiv_pos_site_id
 _symmetry_equiv_pos_as_xyz
  1  'x, y, z'
loop_
 _atom_site_type_symbol
 _atom_site_label
 _atom_site_symmetry_multiplicity
 _atom_site_fract_x
 _atom_site_fract_y
 _atom_site_fract_z
 _atom_site_occupancy
  Er  Er0  1  0.000000  0.178125  0.914046  1
  Tm  Tm1  1  0.000000  0.321736  0.414043  1
  Tm  Tm2  1  0.000000  0.678240  0.586031  1
  Tm  Tm3  1  0.000000  0.821845  0.085913  1
  Sc  Sc4  1  0.000000  0.944200  0.370280  1
  Sc  Sc5  1  0.000000  0.055912  0.629626  1
  Sc  Sc6  1  0.000000  0.444206  0.129274  1
  Sc  Sc7  1  0.000000  0.556018  0.870712  1
  Re  Re8  1  0.000000  0.640410  0.318559  1
  Re  Re9  1  0.000000  0.359543  0.681551  1
  Re  Re10  1  0.000000  0.140452  0.181020  1
  Re  Re11  1  0.000000  0.859359  0.818923  1
  B  B12  1  0.500000  0.553906  0.433140  1
  B  B13  1  0.500000  0.446104  0.566924  1
  B  B14  1  0.500000  0.053895  0.066985  1
  B  B15  1  0.500000  0.945459  0.933153  1
  B  B16  1  0.500000  0.754280  0.418965  1
  B  B17  1  0.500000  0.245543  0.581033  1
  B  B18  1  0.500000  0.254512  0.081203  1
  B  B19  1  0.500000  0.745590  0.919190  1
  B  B20  1  0.500000  0.795241  0.264338  1
  B  B21  1  0.500000  0.204673  0.735493  1
  B  B22  1  0.500000  0.295397  0.235426  1
  B  B23  1  0.500000  0.704638  0.764421  1
  B  B24  1  0.500000  0.629490  0.182749  1
  B  B25  1  0.500000  0.370967  0.817267  1
  B  B26  1  0.500000  0.129531  0.317247  1
  B  B27  1  0.500000  0.870485  0.682644  1
  B  B28  1  0.500000  0.980843  0.213219  1
  B  B29  1  0.500000  0.018582  0.786447  1
  B  B30  1  0.500000  0.480920  0.286658  1
  B  B31  1  0.500000  0.519279  0.713561  1
  B  B32  1  0.500000  0.595997  0.026281  1
  B  B33  1  0.500000  0.404431  0.973861  1
  B  B34  1  0.500000  0.096215  0.473624  1
  B  B35  1  0.500000  0.903976  0.526194  1
