# generated using pymatgen
data_Tm4CuPt3
_symmetry_space_group_name_H-M   'P 1'
_cell_length_a   4.48481400
_cell_length_b   5.51946921
_cell_length_c   6.86706801
_cell_angle_alpha   89.59745630
_cell_angle_beta   90.00000000
_cell_angle_gamma   90.00000000
_symmetry_Int_Tables_number   1
_chemical_formula_structural   Tm4CuPt3
_chemical_formula_sum   'Tm4 Cu1 Pt3'
_cell_volume   169.98178328
_cell_formula_units_Z   1
loop_
 _symmetry_equiv_pos_site_id
 _symmetry_equiv_pos_as_xyz
  1  'x, y, z'
loop_
 _atom_site_type_symbol
 _atom_site_label
 _atom_site_symmetry_multiplicity
 _atom_site_fract_x
 _atom_site_fract_y
 _atom_site_fract_z
 _atom_site_occupancy
  Tm  Tm0  1  0.000000  0.641335  0.318396  1
  Tm  Tm1  1  0.000000  0.855801  0.819606  1
  Tm  Tm2  1  0.500000  0.364337  0.686145  1
  Tm  Tm3  1  0.500000  0.139208  0.175911  1
  Cu  Cu4  1  0.000000  0.139948  0.463543  1
  Pt  Pt5  1  0.000000  0.338287  0.955679  1
  Pt  Pt6  1  0.500000  0.865042  0.534287  1
  Pt  Pt7  1  0.500000  0.656043  0.046434  1
