# generated using pymatgen
data_YbThZn5Sn
_symmetry_space_group_name_H-M   'P 1'
_cell_length_a   8.50479660
_cell_length_b   8.50479632
_cell_length_c   9.11827400
_cell_angle_alpha   90.00000000
_cell_angle_beta   90.00000000
_cell_angle_gamma   149.19293489
_symmetry_Int_Tables_number   1
_chemical_formula_structural   YbThZn5Sn
_chemical_formula_sum   'Yb2 Th2 Zn10 Sn2'
_cell_volume   337.78209782
_cell_formula_units_Z   2
loop_
 _symmetry_equiv_pos_site_id
 _symmetry_equiv_pos_as_xyz
  1  'x, y, z'
loop_
 _atom_site_type_symbol
 _atom_site_label
 _atom_site_symmetry_multiplicity
 _atom_site_fract_x
 _atom_site_fract_y
 _atom_site_fract_z
 _atom_site_occupancy
  Yb  Yb0  1  0.000000  0.000000  0.500000  1
  Yb  Yb1  1  0.000000  0.000000  0.000000  1
  Th  Th2  1  0.204998  0.795002  0.250000  1
  Th  Th3  1  0.795002  0.204998  0.750000  1
  Zn  Zn4  1  0.814263  0.185737  0.391353  1
  Zn  Zn5  1  0.185737  0.814263  0.608647  1
  Zn  Zn6  1  0.814263  0.185737  0.108647  1
  Zn  Zn7  1  0.185737  0.814263  0.891353  1
  Zn  Zn8  1  0.657270  0.342730  0.483470  1
  Zn  Zn9  1  0.342730  0.657270  0.516530  1
  Zn  Zn10  1  0.657270  0.342730  0.016530  1
  Zn  Zn11  1  0.342730  0.657270  0.983470  1
  Zn  Zn12  1  0.394040  0.605960  0.250000  1
  Zn  Zn13  1  0.605960  0.394040  0.750000  1
  Sn  Sn14  1  0.555588  0.444412  0.250000  1
  Sn  Sn15  1  0.444412  0.555588  0.750000  1
