# generated using pymatgen
data_Tm3AlZnGaGe2Ir
_symmetry_space_group_name_H-M   'P 1'
_cell_length_a   6.96034200
_cell_length_b   6.90898121
_cell_length_c   4.18049300
_cell_angle_alpha   90.00000000
_cell_angle_beta   90.00000000
_cell_angle_gamma   120.24621816
_symmetry_Int_Tables_number   1
_chemical_formula_structural   Tm3AlZnGaGe2Ir
_chemical_formula_sum   'Tm3 Al1 Zn1 Ga1 Ge2 Ir1'
_cell_volume   173.66802214
_cell_formula_units_Z   1
loop_
 _symmetry_equiv_pos_site_id
 _symmetry_equiv_pos_as_xyz
  1  'x, y, z'
loop_
 _atom_site_type_symbol
 _atom_site_label
 _atom_site_symmetry_multiplicity
 _atom_site_fract_x
 _atom_site_fract_y
 _atom_site_fract_z
 _atom_site_occupancy
  Tm  Tm0  1  0.412782  0.003107  0.000000  1
  Tm  Tm1  1  0.000843  0.410063  0.000000  1
  Tm  Tm2  1  0.580937  0.583027  0.000000  1
  Al  Al3  1  0.004728  0.776972  0.499999  1
  Zn  Zn4  1  0.239928  0.237478  0.499999  1
  Ga  Ga5  1  0.769149  0.001325  0.499999  1
  Ge  Ge6  1  0.670672  0.337658  0.499999  1
  Ge  Ge7  1  0.329978  0.666651  0.499999  1
  Ir  Ir8  1  0.990981  0.983719  0.000000  1
