# generated using pymatgen
data_SmHo3Sn10(PdRh2)2
_symmetry_space_group_name_H-M   'P 1'
_cell_length_a   13.52687555
_cell_length_b   13.52687560
_cell_length_c   7.32601055
_cell_angle_alpha   90.07288603
_cell_angle_beta   89.92711340
_cell_angle_gamma   161.11023982
_symmetry_Int_Tables_number   1
_chemical_formula_structural   SmHo3Sn10(PdRh2)2
_chemical_formula_sum   'Sm1 Ho3 Sn10 Pd2 Rh4'
_cell_volume   433.97999047
_cell_formula_units_Z   1
loop_
 _symmetry_equiv_pos_site_id
 _symmetry_equiv_pos_as_xyz
  1  'x, y, z'
loop_
 _atom_site_type_symbol
 _atom_site_label
 _atom_site_symmetry_multiplicity
 _atom_site_fract_x
 _atom_site_fract_y
 _atom_site_fract_z
 _atom_site_occupancy
  Sm  Sm0  1  0.174919  0.825081  0.744992  1
  Ho  Ho1  1  0.825641  0.174359  0.244044  1
  Ho  Ho2  1  0.475324  0.524676  0.762759  1
  Ho  Ho3  1  0.524213  0.475787  0.263503  1
  Sn  Sn4  1  0.878651  0.121349  0.774196  1
  Sn  Sn5  1  0.121615  0.878385  0.273057  1
  Sn  Sn6  1  0.704018  0.295982  0.450253  1
  Sn  Sn7  1  0.296165  0.703835  0.951536  1
  Sn  Sn8  1  0.597527  0.402473  0.883296  1
  Sn  Sn9  1  0.401614  0.598386  0.383572  1
  Sn  Sn10  1  0.951606  0.048394  0.101272  1
  Sn  Sn11  1  0.047974  0.952026  0.601374  1
  Sn  Sn12  1  0.290857  0.709143  0.521213  1
  Sn  Sn13  1  0.710113  0.289887  0.023649  1
  Pd  Pd14  1  0.049508  0.950492  0.986726  1
  Pd  Pd15  1  0.950110  0.049890  0.485852  1
  Rh  Rh16  1  0.776655  0.223345  0.731666  1
  Rh  Rh17  1  0.224347  0.775653  0.232672  1
  Rh  Rh18  1  0.395259  0.604741  0.015446  1
  Rh  Rh19  1  0.603882  0.396118  0.512917  1
