# generated using pymatgen
data_Zr4TlInPd4
_symmetry_space_group_name_H-M   'P 1'
_cell_length_a   7.56732800
_cell_length_b   7.56732800
_cell_length_c   6.95554500
_cell_angle_alpha   90.00000000
_cell_angle_beta   90.00000000
_cell_angle_gamma   90.00000000
_symmetry_Int_Tables_number   1
_chemical_formula_structural   Zr4TlInPd4
_chemical_formula_sum   'Zr8 Tl2 In2 Pd8'
_cell_volume   398.30548016
_cell_formula_units_Z   2
loop_
 _symmetry_equiv_pos_site_id
 _symmetry_equiv_pos_as_xyz
  1  'x, y, z'
loop_
 _atom_site_type_symbol
 _atom_site_label
 _atom_site_symmetry_multiplicity
 _atom_site_fract_x
 _atom_site_fract_y
 _atom_site_fract_z
 _atom_site_occupancy
  Zr  Zr0  1  0.652186  0.652186  0.500000  1
  Zr  Zr1  1  0.812640  0.187360  0.500000  1
  Zr  Zr2  1  0.687360  0.687360  0.000000  1
  Zr  Zr3  1  0.847814  0.152186  0.000000  1
  Zr  Zr4  1  0.187360  0.812640  0.500000  1
  Zr  Zr5  1  0.312640  0.312640  0.000000  1
  Zr  Zr6  1  0.152186  0.847814  0.000000  1
  Zr  Zr7  1  0.347814  0.347814  0.500000  1
  Tl  Tl8  1  0.000000  0.500000  0.250000  1
  Tl  Tl9  1  0.500000  0.000000  0.750000  1
  In  In10  1  0.500000  0.000000  0.250000  1
  In  In11  1  0.000000  0.500000  0.750000  1
  Pd  Pd12  1  0.626750  0.369361  0.215711  1
  Pd  Pd13  1  0.369361  0.626750  0.784289  1
  Pd  Pd14  1  0.873250  0.869361  0.715711  1
  Pd  Pd15  1  0.630639  0.373250  0.784289  1
  Pd  Pd16  1  0.373250  0.630639  0.215711  1
  Pd  Pd17  1  0.130639  0.126750  0.284289  1
  Pd  Pd18  1  0.869361  0.873250  0.284289  1
  Pd  Pd19  1  0.126750  0.130639  0.715711  1
