# generated using pymatgen
data_SmZnCoNi2B
_symmetry_space_group_name_H-M   'P 1'
_cell_length_a   5.18918118
_cell_length_b   5.14133358
_cell_length_c   6.83669700
_cell_angle_alpha   90.00000000
_cell_angle_beta   90.00000000
_cell_angle_gamma   119.71723878
_symmetry_Int_Tables_number   1
_chemical_formula_structural   SmZnCoNi2B
_chemical_formula_sum   'Sm2 Zn2 Co2 Ni4 B2'
_cell_volume   158.40977375
_cell_formula_units_Z   2
loop_
 _symmetry_equiv_pos_site_id
 _symmetry_equiv_pos_as_xyz
  1  'x, y, z'
loop_
 _atom_site_type_symbol
 _atom_site_label
 _atom_site_symmetry_multiplicity
 _atom_site_fract_x
 _atom_site_fract_y
 _atom_site_fract_z
 _atom_site_occupancy
  Sm  Sm0  1  0.999976  0.999999  0.000000  1
  Sm  Sm1  1  0.999987  0.000000  0.500000  1
  Zn  Zn2  1  0.330397  0.665203  0.000000  1
  Zn  Zn3  1  0.669559  0.334796  0.000000  1
  Co  Co4  1  0.999984  0.500000  0.299344  1
  Co  Co5  1  0.999984  0.500000  0.700655  1
  Ni  Ni6  1  0.499987  0.000000  0.298628  1
  Ni  Ni7  1  0.499987  0.500000  0.298678  1
  Ni  Ni8  1  0.499987  0.000000  0.701372  1
  Ni  Ni9  1  0.499987  0.500000  0.701321  1
  B  B10  1  0.321602  0.660781  0.500000  1
  B  B11  1  0.678363  0.339221  0.500000  1
