# generated using pymatgen
data_CaTb2Y(SiPd2)4
_symmetry_space_group_name_H-M   'P 1'
_cell_length_a   5.56044610
_cell_length_b   6.99890000
_cell_length_c   7.35851900
_cell_angle_alpha   90.00000000
_cell_angle_beta   90.01056383
_cell_angle_gamma   90.00000000
_symmetry_Int_Tables_number   1
_chemical_formula_structural   CaTb2Y(SiPd2)4
_chemical_formula_sum   'Ca1 Tb2 Y1 Si4 Pd8'
_cell_volume   286.37152453
_cell_formula_units_Z   1
loop_
 _symmetry_equiv_pos_site_id
 _symmetry_equiv_pos_as_xyz
  1  'x, y, z'
loop_
 _atom_site_type_symbol
 _atom_site_label
 _atom_site_symmetry_multiplicity
 _atom_site_fract_x
 _atom_site_fract_y
 _atom_site_fract_z
 _atom_site_occupancy
  Ca  Ca0  1  0.137801  0.250000  0.972626  1
  Tb  Tb1  1  0.640079  0.750000  0.527155  1
  Tb  Tb2  1  0.860851  0.750000  0.028148  1
  Y  Y3  1  0.359324  0.250000  0.471866  1
  Si  Si4  1  0.361142  0.750000  0.877754  1
  Si  Si5  1  0.638951  0.250000  0.122380  1
  Si  Si6  1  0.858337  0.250000  0.622003  1
  Si  Si7  1  0.140258  0.750000  0.377300  1
  Pd  Pd8  1  0.095928  0.553578  0.674567  1
  Pd  Pd9  1  0.095928  0.946422  0.674567  1
  Pd  Pd10  1  0.407900  0.552751  0.178381  1
  Pd  Pd11  1  0.900978  0.448082  0.323739  1
  Pd  Pd12  1  0.596823  0.448717  0.823696  1
  Pd  Pd13  1  0.900978  0.051918  0.323739  1
  Pd  Pd14  1  0.407900  0.947249  0.178381  1
  Pd  Pd15  1  0.596823  0.051283  0.823696  1
