# generated using pymatgen
data_Dy2Tm3Pb4
_symmetry_space_group_name_H-M   'P 1'
_cell_length_a   8.15622600
_cell_length_b   8.22648146
_cell_length_c   15.51471400
_cell_angle_alpha   90.00000000
_cell_angle_beta   90.00000000
_cell_angle_gamma   89.96581677
_symmetry_Int_Tables_number   1
_chemical_formula_structural   Dy2Tm3Pb4
_chemical_formula_sum   'Dy8 Tm12 Pb16'
_cell_volume   1040.99123170
_cell_formula_units_Z   4
loop_
 _symmetry_equiv_pos_site_id
 _symmetry_equiv_pos_as_xyz
  1  'x, y, z'
loop_
 _atom_site_type_symbol
 _atom_site_label
 _atom_site_symmetry_multiplicity
 _atom_site_fract_x
 _atom_site_fract_y
 _atom_site_fract_z
 _atom_site_occupancy
  Dy  Dy0  1  0.536665  0.323781  0.900256  1
  Dy  Dy1  1  0.036824  0.176584  0.599759  1
  Dy  Dy2  1  0.463271  0.676381  0.400252  1
  Dy  Dy3  1  0.963244  0.823606  0.099873  1
  Dy  Dy4  1  0.463271  0.676381  0.099748  1
  Dy  Dy5  1  0.963244  0.823606  0.400127  1
  Dy  Dy6  1  0.536665  0.323781  0.599744  1
  Dy  Dy7  1  0.036824  0.176584  0.900241  1
  Tm  Tm8  1  0.376406  0.841631  0.878608  1
  Tm  Tm9  1  0.876734  0.658271  0.621401  1
  Tm  Tm10  1  0.623380  0.158386  0.378524  1
  Tm  Tm11  1  0.123406  0.341587  0.121349  1
  Tm  Tm12  1  0.623380  0.158386  0.121476  1
  Tm  Tm13  1  0.123406  0.341587  0.378651  1
  Tm  Tm14  1  0.376406  0.841631  0.621392  1
  Tm  Tm15  1  0.876734  0.658271  0.878599  1
  Tm  Tm16  1  0.708190  0.995010  0.750000  1
  Tm  Tm17  1  0.791812  0.495062  0.250000  1
  Tm  Tm18  1  0.291781  0.005051  0.250000  1
  Tm  Tm19  1  0.208262  0.505115  0.750000  1
  Pb  Pb20  1  0.282176  0.033950  0.042942  1
  Pb  Pb21  1  0.782199  0.465864  0.457055  1
  Pb  Pb22  1  0.717876  0.965947  0.542877  1
  Pb  Pb23  1  0.217773  0.533961  0.956983  1
  Pb  Pb24  1  0.717876  0.965947  0.957123  1
  Pb  Pb25  1  0.217773  0.533961  0.543017  1
  Pb  Pb26  1  0.282176  0.033950  0.457058  1
  Pb  Pb27  1  0.782199  0.465864  0.042945  1
  Pb  Pb28  1  0.570996  0.627041  0.750000  1
  Pb  Pb29  1  0.071187  0.872563  0.750000  1
  Pb  Pb30  1  0.428875  0.372773  0.250000  1
  Pb  Pb31  1  0.928939  0.127407  0.250000  1
  Pb  Pb32  1  0.347988  0.154292  0.750000  1
  Pb  Pb33  1  0.847958  0.345937  0.750000  1
  Pb  Pb34  1  0.651977  0.845890  0.250000  1
  Pb  Pb35  1  0.152124  0.653953  0.250000  1
