# generated using pymatgen
data_Tm2Lu3B4P8Ir19
_symmetry_space_group_name_H-M   'P 1'
_cell_length_a   12.40083060
_cell_length_b   12.37205728
_cell_length_c   3.94234200
_cell_angle_alpha   90.00000000
_cell_angle_beta   90.00000000
_cell_angle_gamma   119.71224355
_symmetry_Int_Tables_number   1
_chemical_formula_structural   Tm2Lu3B4P8Ir19
_chemical_formula_sum   'Tm2 Lu3 B4 P8 Ir19'
_cell_volume   525.32688482
_cell_formula_units_Z   1
loop_
 _symmetry_equiv_pos_site_id
 _symmetry_equiv_pos_as_xyz
  1  'x, y, z'
loop_
 _atom_site_type_symbol
 _atom_site_label
 _atom_site_symmetry_multiplicity
 _atom_site_fract_x
 _atom_site_fract_y
 _atom_site_fract_z
 _atom_site_occupancy
  Tm  Tm0  1  0.815196  0.002688  0.000000  1
  Tm  Tm1  1  0.002245  0.816571  0.000000  1
  Lu  Lu2  1  0.332800  0.666581  0.500000  1
  Lu  Lu3  1  0.675585  0.331204  0.500000  1
  Lu  Lu4  1  0.181601  0.187301  0.000000  1
  B  B5  1  0.305531  0.815526  0.000000  1
  B  B6  1  0.178472  0.487727  0.000000  1
  B  B7  1  0.509855  0.692099  0.000000  1
  B  B8  1  0.823753  0.303872  0.000000  1
  P  P9  1  0.487193  0.173794  0.000000  1
  P  P10  1  0.692241  0.513328  0.000000  1
  P  P11  1  0.357985  0.363543  0.500000  1
  P  P12  1  0.640317  0.000840  0.500000  1
  P  P13  1  0.005949  0.640050  0.500000  1
  P  P14  1  0.816975  0.820569  0.500000  1
  P  P15  1  0.179907  0.998306  0.500000  1
  P  P16  1  0.002381  0.185734  0.500000  1
  Ir  Ir17  1  0.199328  0.817731  0.500000  1
  Ir  Ir18  1  0.182027  0.381817  0.500000  1
  Ir  Ir19  1  0.619341  0.803916  0.500000  1
  Ir  Ir20  1  0.821731  0.200715  0.500000  1
  Ir  Ir21  1  0.374736  0.181251  0.500000  1
  Ir  Ir22  1  0.807514  0.624134  0.500000  1
  Ir  Ir23  1  0.136122  0.637518  0.000000  1
  Ir  Ir24  1  0.359652  0.501443  0.000000  1
  Ir  Ir25  1  0.496464  0.858268  0.000000  1
  Ir  Ir26  1  0.643251  0.131061  0.000000  1
  Ir  Ir27  1  0.491300  0.363103  0.000000  1
  Ir  Ir28  1  0.868330  0.496985  0.000000  1
  Ir  Ir29  1  0.539280  0.548743  0.500000  1
  Ir  Ir30  1  0.454012  0.995043  0.500000  1
  Ir  Ir31  1  0.003143  0.455784  0.500000  1
  Ir  Ir32  1  0.701618  0.707283  0.000000  1
  Ir  Ir33  1  0.292343  0.994208  0.000000  1
  Ir  Ir34  1  0.002149  0.299917  0.000000  1
  Ir  Ir35  1  0.999672  0.001346  0.500000  1
