# generated using pymatgen
data_VCo(ReO4)4
_symmetry_space_group_name_H-M   'P 1'
_cell_length_a   5.83036144
_cell_length_b   10.08975899
_cell_length_c   6.74383123
_cell_angle_alpha   89.93856117
_cell_angle_beta   90.04615413
_cell_angle_gamma   90.10824763
_symmetry_Int_Tables_number   1
_chemical_formula_structural   VCo(ReO4)4
_chemical_formula_sum   'V1 Co1 Re4 O16'
_cell_volume   396.71790295
_cell_formula_units_Z   1
loop_
 _symmetry_equiv_pos_site_id
 _symmetry_equiv_pos_as_xyz
  1  'x, y, z'
loop_
 _atom_site_type_symbol
 _atom_site_label
 _atom_site_symmetry_multiplicity
 _atom_site_fract_x
 _atom_site_fract_y
 _atom_site_fract_z
 _atom_site_occupancy
  V  V0  1  0.500002  0.500000  0.999996  1
  Co  Co1  1  0.000000  0.000003  0.000000  1
  Re  Re2  1  0.999437  0.332319  0.266981  1
  Re  Re3  1  0.499359  0.834484  0.265394  1
  Re  Re4  1  0.500652  0.165524  0.734609  1
  Re  Re5  1  0.000568  0.667682  0.733012  1
  O  O6  1  0.500314  0.167188  0.477112  1
  O  O7  1  0.000332  0.666827  0.475705  1
  O  O8  1  0.999660  0.333171  0.524297  1
  O  O9  1  0.499690  0.832805  0.522896  1
  O  O10  1  0.744440  0.080963  0.822118  1
  O  O11  1  0.243527  0.582705  0.821662  1
  O  O12  1  0.994530  0.168257  0.178075  1
  O  O13  1  0.492930  0.670167  0.178081  1
  O  O14  1  0.247714  0.412583  0.178866  1
  O  O15  1  0.749228  0.913130  0.177609  1
  O  O16  1  0.756473  0.417294  0.178343  1
  O  O17  1  0.255557  0.919042  0.177874  1
  O  O18  1  0.507071  0.329838  0.821922  1
  O  O19  1  0.005461  0.831732  0.821917  1
  O  O20  1  0.250784  0.086869  0.822390  1
  O  O21  1  0.752271  0.587418  0.821141  1
