# generated using pymatgen
data_KLi5(TcH9)3
_symmetry_space_group_name_H-M   'P 1'
_cell_length_a   8.25981929
_cell_length_b   8.25981827
_cell_length_c   5.08561900
_cell_angle_alpha   90.00000000
_cell_angle_beta   90.00000000
_cell_angle_gamma   116.57226175
_symmetry_Int_Tables_number   1
_chemical_formula_structural   KLi5(TcH9)3
_chemical_formula_sum   'K1 Li5 Tc3 H27'
_cell_volume   310.31482273
_cell_formula_units_Z   1
loop_
 _symmetry_equiv_pos_site_id
 _symmetry_equiv_pos_as_xyz
  1  'x, y, z'
loop_
 _atom_site_type_symbol
 _atom_site_label
 _atom_site_symmetry_multiplicity
 _atom_site_fract_x
 _atom_site_fract_y
 _atom_site_fract_z
 _atom_site_occupancy
  K  K0  1  0.387880  0.387880  0.000000  1
  Li  Li1  1  0.301763  0.008131  0.500000  1
  Li  Li2  1  0.008131  0.301763  0.500000  1
  Li  Li3  1  0.733641  0.733641  0.500000  1
  Li  Li4  1  0.700990  0.116478  0.000000  1
  Li  Li5  1  0.116478  0.700990  0.000000  1
  Tc  Tc6  1  0.973228  0.973228  0.000000  1
  Tc  Tc7  1  0.318682  0.672917  0.500000  1
  Tc  Tc8  1  0.672917  0.318682  0.500000  1
  H  H9  1  0.824025  0.975014  0.225868  1
  H  H10  1  0.975014  0.824025  0.225868  1
  H  H11  1  0.824025  0.975014  0.774132  1
  H  H12  1  0.975014  0.824025  0.774132  1
  H  H13  1  0.098531  0.098531  0.256295  1
  H  H14  1  0.098531  0.098531  0.743705  1
  H  H15  1  0.180658  0.981722  0.000000  1
  H  H16  1  0.981722  0.180658  0.000000  1
  H  H17  1  0.783881  0.783881  0.000000  1
  H  H18  1  0.163008  0.534362  0.274213  1
  H  H19  1  0.479096  0.678472  0.293117  1
  H  H20  1  0.163008  0.534362  0.725787  1
  H  H21  1  0.534362  0.163008  0.725787  1
  H  H22  1  0.342465  0.800118  0.234958  1
  H  H23  1  0.479096  0.678472  0.706883  1
  H  H24  1  0.678472  0.479096  0.706883  1
  H  H25  1  0.534362  0.163008  0.274213  1
  H  H26  1  0.342465  0.800118  0.765042  1
  H  H27  1  0.678472  0.479096  0.293117  1
  H  H28  1  0.800118  0.342465  0.765042  1
  H  H29  1  0.800118  0.342465  0.234958  1
  H  H30  1  0.322064  0.473168  0.500000  1
  H  H31  1  0.491130  0.876108  0.500000  1
  H  H32  1  0.473168  0.322064  0.500000  1
  H  H33  1  0.150817  0.736559  0.500000  1
  H  H34  1  0.876108  0.491130  0.500000  1
  H  H35  1  0.736559  0.150817  0.500000  1
