# generated using pymatgen
data_La4Co4HgBr
_symmetry_space_group_name_H-M   'P 1'
_cell_length_a   3.99655200
_cell_length_b   3.99655188
_cell_length_c   17.26816200
_cell_angle_alpha   90.00000000
_cell_angle_beta   90.00000000
_cell_angle_gamma   119.99998443
_symmetry_Int_Tables_number   1
_chemical_formula_structural   La4Co4HgBr
_chemical_formula_sum   'La4 Co4 Hg1 Br1'
_cell_volume   238.86237015
_cell_formula_units_Z   1
loop_
 _symmetry_equiv_pos_site_id
 _symmetry_equiv_pos_as_xyz
  1  'x, y, z'
loop_
 _atom_site_type_symbol
 _atom_site_label
 _atom_site_symmetry_multiplicity
 _atom_site_fract_x
 _atom_site_fract_y
 _atom_site_fract_z
 _atom_site_occupancy
  La  La0  1  0.000000  0.000000  0.111565  1
  La  La1  1  0.000000  0.000000  0.892711  1
  La  La2  1  0.000000  0.000000  0.607289  1
  La  La3  1  0.000000  0.000000  0.388435  1
  Co  Co4  1  0.333333  0.666667  0.501018  1
  Co  Co5  1  0.666667  0.333333  0.499989  1
  Co  Co6  1  0.666667  0.333333  0.000011  1
  Co  Co7  1  0.333333  0.666667  0.998982  1
  Hg  Hg8  1  0.333333  0.666667  0.250000  1
  Br  Br9  1  0.666667  0.333333  0.750000  1
