# generated using pymatgen
data_ZnFeSnO4
_symmetry_space_group_name_H-M   'P 1'
_cell_length_a   6.36727000
_cell_length_b   6.09297700
_cell_length_c   8.86609600
_cell_angle_alpha   90.00001881
_cell_angle_beta   90.00001800
_cell_angle_gamma   90.00000940
_symmetry_Int_Tables_number   1
_chemical_formula_structural   ZnFeSnO4
_chemical_formula_sum   'Zn4 Fe4 Sn4 O16'
_cell_volume   343.96577697
_cell_formula_units_Z   4
loop_
 _symmetry_equiv_pos_site_id
 _symmetry_equiv_pos_as_xyz
  1  'x, y, z'
loop_
 _atom_site_type_symbol
 _atom_site_label
 _atom_site_symmetry_multiplicity
 _atom_site_fract_x
 _atom_site_fract_y
 _atom_site_fract_z
 _atom_site_occupancy
  Zn  Zn0  1  0.000000  0.249999  0.107180  1
  Zn  Zn1  1  0.500000  0.750000  0.607180  1
  Zn  Zn2  1  0.500000  0.250000  0.392820  1
  Zn  Zn3  1  0.000000  0.750000  0.892820  1
  Fe  Fe4  1  0.000002  0.500000  0.500001  1
  Fe  Fe5  1  0.500000  0.500001  0.000000  1
  Fe  Fe6  1  0.500000  0.000001  0.000000  1
  Fe  Fe7  1  0.999998  0.000001  0.499999  1
  Sn  Sn8  1  0.750000  0.750001  0.250000  1
  Sn  Sn9  1  0.250000  0.249999  0.750000  1
  Sn  Sn10  1  0.250000  0.750001  0.250000  1
  Sn  Sn11  1  0.750000  0.249999  0.750000  1
  O  O12  1  0.235556  0.750002  0.483367  1
  O  O13  1  0.735556  0.249998  0.983367  1
  O  O14  1  0.764444  0.750002  0.483367  1
  O  O15  1  0.264444  0.249998  0.983367  1
  O  O16  1  0.264444  0.750002  0.016633  1
  O  O17  1  0.764444  0.249998  0.516633  1
  O  O18  1  0.735556  0.750002  0.016633  1
  O  O19  1  0.235556  0.249998  0.516633  1
  O  O20  1  0.000000  0.983509  0.250181  1
  O  O21  1  0.500000  0.483509  0.750181  1
  O  O22  1  0.000000  0.516491  0.250181  1
  O  O23  1  0.500000  0.016490  0.750181  1
  O  O24  1  0.500000  0.516491  0.249820  1
  O  O25  1  0.000000  0.016491  0.749818  1
  O  O26  1  0.500000  0.983509  0.249819  1
  O  O27  1  0.000000  0.483509  0.749819  1
