# generated using pymatgen
data_DyTm15
_symmetry_space_group_name_H-M   'P 1'
_cell_length_a   7.14480200
_cell_length_b   7.14480197
_cell_length_c   11.01921500
_cell_angle_alpha   90.00000000
_cell_angle_beta   90.00000000
_cell_angle_gamma   120.00000015
_symmetry_Int_Tables_number   1
_chemical_formula_structural   DyTm15
_chemical_formula_sum   'Dy1 Tm15'
_cell_volume   487.14885014
_cell_formula_units_Z   1
loop_
 _symmetry_equiv_pos_site_id
 _symmetry_equiv_pos_as_xyz
  1  'x, y, z'
loop_
 _atom_site_type_symbol
 _atom_site_label
 _atom_site_symmetry_multiplicity
 _atom_site_fract_x
 _atom_site_fract_y
 _atom_site_fract_z
 _atom_site_occupancy
  Dy  Dy0  1  0.000000  0.000000  0.500000  1
  Tm  Tm1  1  0.000000  0.000000  0.000000  1
  Tm  Tm2  1  0.000993  0.500497  0.500000  1
  Tm  Tm3  1  0.999571  0.499786  0.000000  1
  Tm  Tm4  1  0.499503  0.500497  0.500000  1
  Tm  Tm5  1  0.500214  0.499786  0.000000  1
  Tm  Tm6  1  0.499503  0.999007  0.500000  1
  Tm  Tm7  1  0.500214  0.000429  0.000000  1
  Tm  Tm8  1  0.167007  0.334012  0.249170  1
  Tm  Tm9  1  0.167007  0.334012  0.750830  1
  Tm  Tm10  1  0.167007  0.832993  0.249170  1
  Tm  Tm11  1  0.167007  0.832993  0.750830  1
  Tm  Tm12  1  0.665988  0.832993  0.249170  1
  Tm  Tm13  1  0.665988  0.832993  0.750830  1
  Tm  Tm14  1  0.666667  0.333333  0.250803  1
  Tm  Tm15  1  0.666667  0.333333  0.749197  1
