# generated using pymatgen
data_Ca10Si4GeSb
_symmetry_space_group_name_H-M   'P 1'
_cell_length_a   9.31234180
_cell_length_b   9.31234071
_cell_length_c   9.31234168
_cell_angle_alpha   130.65517178
_cell_angle_beta   130.65517373
_cell_angle_gamma   72.36152158
_symmetry_Int_Tables_number   1
_chemical_formula_structural   Ca10Si4GeSb
_chemical_formula_sum   'Ca10 Si4 Ge1 Sb1'
_cell_volume   454.32017040
_cell_formula_units_Z   1
loop_
 _symmetry_equiv_pos_site_id
 _symmetry_equiv_pos_as_xyz
  1  'x, y, z'
loop_
 _atom_site_type_symbol
 _atom_site_label
 _atom_site_symmetry_multiplicity
 _atom_site_fract_x
 _atom_site_fract_y
 _atom_site_fract_z
 _atom_site_occupancy
  Ca  Ca0  1  0.807515  0.321884  0.852693  1
  Ca  Ca1  1  0.178116  0.692485  0.147307  1
  Ca  Ca2  1  0.469191  0.954822  0.147307  1
  Ca  Ca3  1  0.321884  0.469191  0.514369  1
  Ca  Ca4  1  0.030809  0.178116  0.485631  1
  Ca  Ca5  1  0.545178  0.030809  0.852693  1
  Ca  Ca6  1  0.692485  0.545178  0.514369  1
  Ca  Ca7  1  0.954822  0.807515  0.485631  1
  Ca  Ca8  1  0.003715  0.003715  0.000000  1
  Ca  Ca9  1  0.496285  0.496285  0.000000  1
  Si  Si10  1  0.113228  0.613228  0.726456  1
  Si  Si11  1  0.886772  0.386772  0.273544  1
  Si  Si12  1  0.613228  0.886772  0.500000  1
  Si  Si13  1  0.386772  0.113228  0.500000  1
  Ge  Ge14  1  0.750000  0.750000  0.000000  1
  Sb  Sb15  1  0.250000  0.250000  0.000000  1
