# generated using pymatgen
data_NdGd(Ga2Ni)2
_symmetry_space_group_name_H-M   'P 1'
_cell_length_a   9.02845431
_cell_length_b   9.02845425
_cell_length_c   4.07081800
_cell_angle_alpha   90.00000000
_cell_angle_beta   90.00000000
_cell_angle_gamma   27.00906868
_symmetry_Int_Tables_number   1
_chemical_formula_structural   NdGd(Ga2Ni)2
_chemical_formula_sum   'Nd1 Gd1 Ga4 Ni2'
_cell_volume   150.69198003
_cell_formula_units_Z   1
loop_
 _symmetry_equiv_pos_site_id
 _symmetry_equiv_pos_as_xyz
  1  'x, y, z'
loop_
 _atom_site_type_symbol
 _atom_site_label
 _atom_site_symmetry_multiplicity
 _atom_site_fract_x
 _atom_site_fract_y
 _atom_site_fract_z
 _atom_site_occupancy
  Nd  Nd0  1  0.857902  0.857902  0.000000  1
  Gd  Gd1  1  0.140758  0.140758  0.000000  1
  Ga  Ga2  1  0.290674  0.290674  0.500002  1
  Ga  Ga3  1  0.707964  0.707964  0.500002  1
  Ga  Ga4  1  0.000894  0.000894  0.500002  1
  Ga  Ga5  1  0.500869  0.500869  0.000000  1
  Ni  Ni6  1  0.425686  0.425686  0.500002  1
  Ni  Ni7  1  0.575255  0.575255  0.500002  1
