# generated using pymatgen
data_NdLuTh3Ge3C
_symmetry_space_group_name_H-M   'P 1'
_cell_length_a   8.84339301
_cell_length_b   8.84314079
_cell_length_c   6.43362700
_cell_angle_alpha   89.99425275
_cell_angle_beta   90.00287257
_cell_angle_gamma   119.99906108
_symmetry_Int_Tables_number   1
_chemical_formula_structural   NdLuTh3Ge3C
_chemical_formula_sum   'Nd2 Lu2 Th6 Ge6 C2'
_cell_volume   435.72861532
_cell_formula_units_Z   2
loop_
 _symmetry_equiv_pos_site_id
 _symmetry_equiv_pos_as_xyz
  1  'x, y, z'
loop_
 _atom_site_type_symbol
 _atom_site_label
 _atom_site_symmetry_multiplicity
 _atom_site_fract_x
 _atom_site_fract_y
 _atom_site_fract_z
 _atom_site_occupancy
  Nd  Nd0  1  0.666667  0.333333  0.500004  1
  Nd  Nd1  1  0.333333  0.666666  0.500004  1
  Lu  Lu2  1  0.333283  0.666647  0.999995  1
  Lu  Lu3  1  0.666717  0.333363  0.999995  1
  Th  Th4  1  0.769966  0.769973  0.248193  1
  Th  Th5  1  0.230034  0.000007  0.248193  1
  Th  Th6  1  0.000000  0.230077  0.248204  1
  Th  Th7  1  0.230029  0.230024  0.751805  1
  Th  Th8  1  0.769971  0.999996  0.751805  1
  Th  Th9  1  0.000000  0.769924  0.751801  1
  Ge  Ge10  1  0.401997  0.401975  0.241686  1
  Ge  Ge11  1  0.598003  0.999977  0.241686  1
  Ge  Ge12  1  0.000000  0.597991  0.241647  1
  Ge  Ge13  1  0.598004  0.598021  0.758311  1
  Ge  Ge14  1  0.401996  0.000017  0.758311  1
  Ge  Ge15  1  0.000000  0.402013  0.758356  1
  C  C16  1  0.000000  0.999995  0.500002  1
  C  C17  1  0.000000  0.000002  0.000002  1
