# generated using pymatgen
data_LaDy3Tm12(CdNi)4
_symmetry_space_group_name_H-M   'P 1'
_cell_length_a   9.48530286
_cell_length_b   9.47611086
_cell_length_c   9.47611000
_cell_angle_alpha   60.00000300
_cell_angle_beta   60.03205469
_cell_angle_gamma   60.03206098
_symmetry_Int_Tables_number   1
_chemical_formula_structural   LaDy3Tm12(CdNi)4
_chemical_formula_sum   'La1 Dy3 Tm12 Cd4 Ni4'
_cell_volume   602.56889572
_cell_formula_units_Z   1
loop_
 _symmetry_equiv_pos_site_id
 _symmetry_equiv_pos_as_xyz
  1  'x, y, z'
loop_
 _atom_site_type_symbol
 _atom_site_label
 _atom_site_symmetry_multiplicity
 _atom_site_fract_x
 _atom_site_fract_y
 _atom_site_fract_z
 _atom_site_occupancy
  La  La0  1  0.953405  0.348865  0.348865  1
  Dy  Dy1  1  0.351822  0.349626  0.349626  1
  Dy  Dy2  1  0.351822  0.349626  0.948926  1
  Dy  Dy3  1  0.351822  0.948926  0.349626  1
  Tm  Tm4  1  0.812805  0.185781  0.185781  1
  Tm  Tm5  1  0.186473  0.813422  0.813422  1
  Tm  Tm6  1  0.186473  0.813422  0.186681  1
  Tm  Tm7  1  0.812805  0.185781  0.815633  1
  Tm  Tm8  1  0.186473  0.186681  0.813422  1
  Tm  Tm9  1  0.812805  0.815633  0.185781  1
  Tm  Tm10  1  0.934699  0.565906  0.565906  1
  Tm  Tm11  1  0.565076  0.934900  0.934900  1
  Tm  Tm12  1  0.565076  0.934900  0.565124  1
  Tm  Tm13  1  0.934699  0.565906  0.933489  1
  Tm  Tm14  1  0.565076  0.565124  0.934900  1
  Tm  Tm15  1  0.934699  0.933489  0.565906  1
  Cd  Cd16  1  0.579787  0.583583  0.583583  1
  Cd  Cd17  1  0.579787  0.583583  0.253048  1
  Cd  Cd18  1  0.579787  0.253048  0.583583  1
  Cd  Cd19  1  0.254121  0.581960  0.581960  1
  Ni  Ni20  1  0.142627  0.140577  0.140577  1
  Ni  Ni21  1  0.142627  0.140577  0.576220  1
  Ni  Ni22  1  0.142627  0.576220  0.140577  1
  Ni  Ni23  1  0.572609  0.142464  0.142464  1
