# generated using pymatgen
data_Nd8Dy11YGa16
_symmetry_space_group_name_H-M   'P 1'
_cell_length_a   7.93806600
_cell_length_b   7.93806608
_cell_length_c   14.85724700
_cell_angle_alpha   90.00041864
_cell_angle_beta   89.99958136
_cell_angle_gamma   89.99199541
_symmetry_Int_Tables_number   1
_chemical_formula_structural   Nd8Dy11YGa16
_chemical_formula_sum   'Nd8 Dy11 Y1 Ga16'
_cell_volume   936.19809796
_cell_formula_units_Z   1
loop_
 _symmetry_equiv_pos_site_id
 _symmetry_equiv_pos_as_xyz
  1  'x, y, z'
loop_
 _atom_site_type_symbol
 _atom_site_label
 _atom_site_symmetry_multiplicity
 _atom_site_fract_x
 _atom_site_fract_y
 _atom_site_fract_z
 _atom_site_occupancy
  Nd  Nd0  1  0.636748  0.987381  0.457357  1
  Nd  Nd1  1  0.363135  0.012660  0.957280  1
  Nd  Nd2  1  0.987381  0.636748  0.542643  1
  Nd  Nd3  1  0.487395  0.863157  0.207377  1
  Nd  Nd4  1  0.512565  0.136784  0.707210  1
  Nd  Nd5  1  0.863157  0.487395  0.792623  1
  Nd  Nd6  1  0.136784  0.512565  0.292790  1
  Nd  Nd7  1  0.012660  0.363135  0.042720  1
  Dy  Dy8  1  0.489600  0.360248  0.124999  1
  Dy  Dy9  1  0.989515  0.139454  0.625092  1
  Dy  Dy10  1  0.860526  0.010644  0.874751  1
  Dy  Dy11  1  0.139454  0.989515  0.374908  1
  Dy  Dy12  1  0.510322  0.639892  0.624720  1
  Dy  Dy13  1  0.360248  0.489600  0.875001  1
  Dy  Dy14  1  0.639892  0.510322  0.375280  1
  Dy  Dy15  1  0.010644  0.860526  0.125249  1
  Dy  Dy16  1  0.315951  0.315951  0.500000  1
  Dy  Dy17  1  0.184133  0.815914  0.749800  1
  Dy  Dy18  1  0.815914  0.184133  0.250200  1
  Y  Y19  1  0.684163  0.684163  0.000000  1
  Ga  Ga20  1  0.286706  0.934991  0.561857  1
  Ga  Ga21  1  0.713367  0.064875  0.061935  1
  Ga  Ga22  1  0.934991  0.286706  0.438143  1
  Ga  Ga23  1  0.434948  0.213294  0.311987  1
  Ga  Ga24  1  0.565007  0.786494  0.811946  1
  Ga  Ga25  1  0.213294  0.434948  0.688013  1
  Ga  Ga26  1  0.786494  0.565007  0.188054  1
  Ga  Ga27  1  0.064875  0.713367  0.938065  1
  Ga  Ga28  1  0.800365  0.843437  0.690551  1
  Ga  Ga29  1  0.199560  0.156450  0.190677  1
  Ga  Ga30  1  0.843437  0.800365  0.309449  1
  Ga  Ga31  1  0.343569  0.699608  0.440420  1
  Ga  Ga32  1  0.656500  0.300644  0.940477  1
  Ga  Ga33  1  0.699608  0.343569  0.559580  1
  Ga  Ga34  1  0.300644  0.656500  0.059523  1
  Ga  Ga35  1  0.156450  0.199560  0.809323  1
