# generated using pymatgen
data_Se4I2O11
_symmetry_space_group_name_H-M   'P 1'
_cell_length_a   11.08333654
_cell_length_b   11.08333538
_cell_length_c   14.11095049
_cell_angle_alpha   68.27419906
_cell_angle_beta   68.27420166
_cell_angle_gamma   24.65022622
_symmetry_Int_Tables_number   1
_chemical_formula_structural   Se4I2O11
_chemical_formula_sum   'Se8 I4 O22'
_cell_volume   669.05491863
_cell_formula_units_Z   2
loop_
 _symmetry_equiv_pos_site_id
 _symmetry_equiv_pos_as_xyz
  1  'x, y, z'
loop_
 _atom_site_type_symbol
 _atom_site_label
 _atom_site_symmetry_multiplicity
 _atom_site_fract_x
 _atom_site_fract_y
 _atom_site_fract_z
 _atom_site_occupancy
  Se  Se0  1  0.296564  0.850216  0.255954  1
  Se  Se1  1  0.149784  0.703436  0.244046  1
  Se  Se2  1  0.703436  0.149784  0.744046  1
  Se  Se3  1  0.850216  0.296564  0.755954  1
  Se  Se4  1  0.929096  0.398837  0.415898  1
  Se  Se5  1  0.601163  0.070904  0.084102  1
  Se  Se6  1  0.070904  0.601163  0.584102  1
  Se  Se7  1  0.398837  0.929096  0.915898  1
  I  I8  1  0.500000  0.000000  0.500000  1
  I  I9  1  0.000000  0.500000  0.000000  1
  I  I10  1  0.000000  0.000000  0.500000  1
  I  I11  1  0.000000  0.000000  0.000000  1
  O  O12  1  0.027261  0.972739  0.250000  1
  O  O13  1  0.972739  0.027261  0.750000  1
  O  O14  1  0.069848  0.170919  0.256968  1
  O  O15  1  0.829081  0.930152  0.243032  1
  O  O16  1  0.930152  0.829081  0.743032  1
  O  O17  1  0.170919  0.069848  0.756968  1
  O  O18  1  0.366040  0.706911  0.386395  1
  O  O19  1  0.293089  0.633960  0.113605  1
  O  O20  1  0.633960  0.293089  0.613605  1
  O  O21  1  0.706911  0.366040  0.886395  1
  O  O22  1  0.245852  0.209759  0.384081  1
  O  O23  1  0.790241  0.754148  0.115919  1
  O  O24  1  0.137823  0.059512  0.002692  1
  O  O25  1  0.940488  0.862177  0.497308  1
  O  O26  1  0.862177  0.940488  0.997308  1
  O  O27  1  0.059512  0.137823  0.502692  1
  O  O28  1  0.608209  0.743370  0.013311  1
  O  O29  1  0.256630  0.391791  0.486689  1
  O  O30  1  0.391791  0.256630  0.986689  1
  O  O31  1  0.743370  0.608209  0.513311  1
  O  O32  1  0.209759  0.245852  0.884081  1
  O  O33  1  0.754148  0.790241  0.615919  1
