# generated using pymatgen
data_Sc3Mn(Co4P3)2
_symmetry_space_group_name_H-M   'P 1'
_cell_length_a   11.96045007
_cell_length_b   11.97297535
_cell_length_c   3.60836400
_cell_angle_alpha   90.00000000
_cell_angle_beta   90.00000000
_cell_angle_gamma   120.03463849
_symmetry_Int_Tables_number   1
_chemical_formula_structural   Sc3Mn(Co4P3)2
_chemical_formula_sum   'Sc6 Mn2 Co16 P12'
_cell_volume   447.34119311
_cell_formula_units_Z   2
loop_
 _symmetry_equiv_pos_site_id
 _symmetry_equiv_pos_as_xyz
  1  'x, y, z'
loop_
 _atom_site_type_symbol
 _atom_site_label
 _atom_site_symmetry_multiplicity
 _atom_site_fract_x
 _atom_site_fract_y
 _atom_site_fract_z
 _atom_site_occupancy
  Sc  Sc0  1  0.000000  0.557402  0.000000  1
  Sc  Sc1  1  0.666032  0.332879  0.000000  1
  Sc  Sc2  1  0.333968  0.666848  0.000000  1
  Sc  Sc3  1  0.813212  0.813496  0.500000  1
  Sc  Sc4  1  0.186788  0.000282  0.500000  1
  Sc  Sc5  1  0.000000  0.180650  0.500000  1
  Mn  Mn6  1  0.444578  0.446214  0.000000  1
  Mn  Mn7  1  0.555422  0.001636  0.000000  1
  Co  Co8  1  0.198719  0.372444  0.000000  1
  Co  Co9  1  0.182692  0.809353  0.000000  1
  Co  Co10  1  0.817308  0.626662  0.000000  1
  Co  Co11  1  0.801281  0.173725  0.000000  1
  Co  Co12  1  0.377396  0.199437  0.000000  1
  Co  Co13  1  0.127632  0.479222  0.500000  1
  Co  Co14  1  0.359557  0.876982  0.500000  1
  Co  Co15  1  0.514897  0.643703  0.500000  1
  Co  Co16  1  0.640443  0.517425  0.500000  1
  Co  Co17  1  0.872368  0.351590  0.500000  1
  Co  Co18  1  0.485103  0.128806  0.500000  1
  Co  Co19  1  0.000000  0.000778  0.000000  1
  Co  Co20  1  0.716826  0.998218  0.500000  1
  Co  Co21  1  0.000000  0.722622  0.500000  1
  Co  Co22  1  0.622604  0.822042  0.000000  1
  Co  Co23  1  0.283174  0.281392  0.500000  1
  P  P24  1  0.638320  0.642616  0.000000  1
  P  P25  1  0.361680  0.004297  0.000000  1
  P  P26  1  0.000000  0.348644  0.000000  1
  P  P27  1  0.483535  0.316040  0.500000  1
  P  P28  1  0.685257  0.166768  0.500000  1
  P  P29  1  0.824571  0.515316  0.500000  1
  P  P30  1  0.516465  0.832505  0.500000  1
  P  P31  1  0.175429  0.690745  0.500000  1
  P  P32  1  0.821245  0.997512  0.000000  1
  P  P33  1  0.000000  0.823974  0.000000  1
  P  P34  1  0.314743  0.481510  0.500000  1
  P  P35  1  0.178755  0.176267  0.000000  1
