# generated using pymatgen
data_TbGd(BO3)2
_symmetry_space_group_name_H-M   'P 1'
_cell_length_a   6.65128173
_cell_length_b   6.64545134
_cell_length_c   9.70352328
_cell_angle_alpha   70.34220086
_cell_angle_beta   70.34941187
_cell_angle_gamma   60.02534662
_symmetry_Int_Tables_number   1
_chemical_formula_structural   TbGd(BO3)2
_chemical_formula_sum   'Tb3 Gd3 B6 O18'
_cell_volume   342.36310547
_cell_formula_units_Z   3
loop_
 _symmetry_equiv_pos_site_id
 _symmetry_equiv_pos_as_xyz
  1  'x, y, z'
loop_
 _atom_site_type_symbol
 _atom_site_label
 _atom_site_symmetry_multiplicity
 _atom_site_fract_x
 _atom_site_fract_y
 _atom_site_fract_z
 _atom_site_occupancy
  Tb  Tb0  1  0.829178  0.342707  0.000946  1
  Tb  Tb1  1  0.657761  0.170606  0.499052  1
  Tb  Tb2  1  0.170843  0.657212  0.999173  1
  Gd  Gd3  1  0.000250  0.499877  0.499994  1
  Gd  Gd4  1  0.500055  0.000008  0.999890  1
  Gd  Gd5  1  0.342919  0.829053  0.500991  1
  B  B6  1  0.082000  0.155590  0.252559  1
  B  B7  1  0.846001  0.917773  0.246262  1
  B  B8  1  0.916776  0.844997  0.747429  1
  B  B9  1  0.154469  0.082890  0.753964  1
  B  B10  1  0.323143  0.676623  0.249324  1
  B  B11  1  0.677588  0.322151  0.750474  1
  O  O12  1  0.033419  0.216594  0.394758  1
  O  O13  1  0.785182  0.965260  0.104370  1
  O  O14  1  0.963518  0.784895  0.605223  1
  O  O15  1  0.215062  0.034875  0.895951  1
  O  O16  1  0.128542  0.313375  0.112146  1
  O  O17  1  0.689284  0.871339  0.387442  1
  O  O18  1  0.870986  0.686875  0.887840  1
  O  O19  1  0.312244  0.130241  0.613345  1
  O  O20  1  0.480491  0.613658  0.109074  1
  O  O21  1  0.386010  0.518450  0.389829  1
  O  O22  1  0.519879  0.385891  0.890595  1
  O  O23  1  0.616179  0.478124  0.609355  1
  O  O24  1  0.084935  0.702045  0.246479  1
  O  O25  1  0.297328  0.915794  0.251816  1
  O  O26  1  0.915275  0.297861  0.753565  1
  O  O27  1  0.702002  0.084317  0.747267  1
  O  O28  1  0.867831  0.132702  0.249546  1
  O  O29  1  0.130848  0.868219  0.751346  1
