# generated using pymatgen
data_Lu4Pa(FeB3)2
_symmetry_space_group_name_H-M   'P 1'
_cell_length_a   5.37987966
_cell_length_b   5.37987808
_cell_length_c   7.80496715
_cell_angle_alpha   69.83989953
_cell_angle_beta   69.83990332
_cell_angle_gamma   59.99998114
_symmetry_Int_Tables_number   1
_chemical_formula_structural   Lu4Pa(FeB3)2
_chemical_formula_sum   'Lu4 Pa1 Fe2 B6'
_cell_volume   179.47601734
_cell_formula_units_Z   1
loop_
 _symmetry_equiv_pos_site_id
 _symmetry_equiv_pos_as_xyz
  1  'x, y, z'
loop_
 _atom_site_type_symbol
 _atom_site_label
 _atom_site_symmetry_multiplicity
 _atom_site_fract_x
 _atom_site_fract_y
 _atom_site_fract_z
 _atom_site_occupancy
  Lu  Lu0  1  0.253965  0.253965  0.238107  1
  Lu  Lu1  1  0.746035  0.746035  0.761893  1
  Lu  Lu2  1  0.413163  0.413163  0.760509  1
  Lu  Lu3  1  0.586837  0.586837  0.239491  1
  Pa  Pa4  1  0.000000  0.000000  0.000000  1
  Fe  Fe5  1  0.108123  0.108123  0.675634  1
  Fe  Fe6  1  0.891877  0.891877  0.324366  1
  B  B7  1  0.168164  0.831836  0.500000  1
  B  B8  1  0.831836  0.500000  0.500000  1
  B  B9  1  0.500000  0.168164  0.500000  1
  B  B10  1  0.168164  0.500000  0.500000  1
  B  B11  1  0.500000  0.831836  0.500000  1
  B  B12  1  0.831836  0.168164  0.500000  1
