# generated using pymatgen
data_Tm4Co9GeB4
_symmetry_space_group_name_H-M   'P 1'
_cell_length_a   5.10921800
_cell_length_b   5.10921836
_cell_length_c   19.59928100
_cell_angle_alpha   90.00000000
_cell_angle_beta   90.00000000
_cell_angle_gamma   119.99999765
_symmetry_Int_Tables_number   1
_chemical_formula_structural   Tm4Co9GeB4
_chemical_formula_sum   'Tm8 Co18 Ge2 B8'
_cell_volume   443.07748246
_cell_formula_units_Z   2
loop_
 _symmetry_equiv_pos_site_id
 _symmetry_equiv_pos_as_xyz
  1  'x, y, z'
loop_
 _atom_site_type_symbol
 _atom_site_label
 _atom_site_symmetry_multiplicity
 _atom_site_fract_x
 _atom_site_fract_y
 _atom_site_fract_z
 _atom_site_occupancy
  Tm  Tm0  1  0.666667  0.333333  0.824979  1
  Tm  Tm1  1  0.666667  0.333333  0.975703  1
  Tm  Tm2  1  0.333333  0.666667  0.475703  1
  Tm  Tm3  1  0.333333  0.666667  0.024297  1
  Tm  Tm4  1  0.333333  0.666667  0.175021  1
  Tm  Tm5  1  0.666667  0.333333  0.524297  1
  Tm  Tm6  1  0.666667  0.333333  0.675021  1
  Tm  Tm7  1  0.333333  0.666667  0.324979  1
  Co  Co8  1  0.165766  0.331532  0.895107  1
  Co  Co9  1  0.165766  0.834234  0.604893  1
  Co  Co10  1  0.834234  0.165766  0.395107  1
  Co  Co11  1  0.334139  0.167070  0.250000  1
  Co  Co12  1  0.331532  0.165766  0.395107  1
  Co  Co13  1  0.834234  0.668468  0.104893  1
  Co  Co14  1  0.834234  0.668468  0.395107  1
  Co  Co15  1  0.832930  0.665861  0.250000  1
  Co  Co16  1  0.668468  0.834234  0.604893  1
  Co  Co17  1  0.665861  0.832930  0.750000  1
  Co  Co18  1  0.834234  0.165766  0.104893  1
  Co  Co19  1  0.668468  0.834234  0.895107  1
  Co  Co20  1  0.167070  0.334139  0.750000  1
  Co  Co21  1  0.167070  0.832930  0.750000  1
  Co  Co22  1  0.832930  0.167070  0.250000  1
  Co  Co23  1  0.331532  0.165766  0.104893  1
  Co  Co24  1  0.165766  0.834234  0.895107  1
  Co  Co25  1  0.165766  0.331532  0.604893  1
  Ge  Ge26  1  0.000000  0.000000  0.000000  1
  Ge  Ge27  1  0.000000  0.000000  0.500000  1
  B  B28  1  0.333333  0.666667  0.825602  1
  B  B29  1  0.333333  0.666667  0.674398  1
  B  B30  1  0.666667  0.333333  0.325602  1
  B  B31  1  0.000000  0.000000  0.824205  1
  B  B32  1  0.666667  0.333333  0.174398  1
  B  B33  1  0.000000  0.000000  0.675795  1
  B  B34  1  0.000000  0.000000  0.324205  1
  B  B35  1  0.000000  0.000000  0.175795  1
