# generated using pymatgen
data_HoTm5Lu10(CdIr)4
_symmetry_space_group_name_H-M   'P 1'
_cell_length_a   9.48863245
_cell_length_b   9.48863199
_cell_length_c   9.50221100
_cell_angle_alpha   59.95265238
_cell_angle_beta   59.95265397
_cell_angle_gamma   59.91181747
_symmetry_Int_Tables_number   1
_chemical_formula_structural   HoTm5Lu10(CdIr)4
_chemical_formula_sum   'Ho1 Tm5 Lu10 Cd4 Ir4'
_cell_volume   604.10979049
_cell_formula_units_Z   1
loop_
 _symmetry_equiv_pos_site_id
 _symmetry_equiv_pos_as_xyz
  1  'x, y, z'
loop_
 _atom_site_type_symbol
 _atom_site_label
 _atom_site_symmetry_multiplicity
 _atom_site_fract_x
 _atom_site_fract_y
 _atom_site_fract_z
 _atom_site_occupancy
  Ho  Ho0  1  0.188773  0.188773  0.811227  1
  Tm  Tm1  1  0.188955  0.810989  0.811141  1
  Tm  Tm2  1  0.810989  0.188955  0.188916  1
  Tm  Tm3  1  0.810989  0.188955  0.811141  1
  Tm  Tm4  1  0.188955  0.810989  0.188916  1
  Tm  Tm5  1  0.811271  0.811271  0.188729  1
  Lu  Lu6  1  0.598811  0.598811  0.598337  1
  Lu  Lu7  1  0.598811  0.598811  0.204041  1
  Lu  Lu8  1  0.599197  0.203696  0.598553  1
  Lu  Lu9  1  0.203696  0.599197  0.598553  1
  Lu  Lu10  1  0.060813  0.438766  0.438803  1
  Lu  Lu11  1  0.438766  0.060813  0.061618  1
  Lu  Lu12  1  0.438766  0.060813  0.438803  1
  Lu  Lu13  1  0.060813  0.438766  0.061618  1
  Lu  Lu14  1  0.438832  0.438832  0.061168  1
  Lu  Lu15  1  0.061274  0.061274  0.438726  1
  Cd  Cd16  1  0.830773  0.830773  0.830821  1
  Cd  Cd17  1  0.830773  0.830773  0.507633  1
  Cd  Cd18  1  0.830650  0.507437  0.830956  1
  Cd  Cd19  1  0.507437  0.830650  0.830956  1
  Ir  Ir20  1  0.391800  0.391800  0.391328  1
  Ir  Ir21  1  0.391800  0.391800  0.825074  1
  Ir  Ir22  1  0.391860  0.825197  0.391472  1
  Ir  Ir23  1  0.825197  0.391860  0.391472  1
