# generated using pymatgen
data_Dy3Er5In3Ir
_symmetry_space_group_name_H-M   'P 1'
_cell_length_a   10.36561700
_cell_length_b   10.36561705
_cell_length_c   7.04877000
_cell_angle_alpha   90.00000000
_cell_angle_beta   90.00000000
_cell_angle_gamma   119.99999663
_symmetry_Int_Tables_number   1
_chemical_formula_structural   Dy3Er5In3Ir
_chemical_formula_sum   'Dy6 Er10 In6 Ir2'
_cell_volume   655.89497645
_cell_formula_units_Z   2
loop_
 _symmetry_equiv_pos_site_id
 _symmetry_equiv_pos_as_xyz
  1  'x, y, z'
loop_
 _atom_site_type_symbol
 _atom_site_label
 _atom_site_symmetry_multiplicity
 _atom_site_fract_x
 _atom_site_fract_y
 _atom_site_fract_z
 _atom_site_occupancy
  Dy  Dy0  1  0.533175  0.066350  0.792807  1
  Dy  Dy1  1  0.933650  0.466825  0.792807  1
  Dy  Dy2  1  0.533175  0.466825  0.792807  1
  Dy  Dy3  1  0.466825  0.933650  0.292807  1
  Dy  Dy4  1  0.066350  0.533175  0.292807  1
  Dy  Dy5  1  0.466825  0.533175  0.292807  1
  Er  Er6  1  0.823443  0.646887  0.499043  1
  Er  Er7  1  0.353113  0.176557  0.499043  1
  Er  Er8  1  0.823443  0.176557  0.499043  1
  Er  Er9  1  0.176557  0.353113  0.999043  1
  Er  Er10  1  0.646887  0.823443  0.999043  1
  Er  Er11  1  0.176557  0.823443  0.999043  1
  Er  Er12  1  0.666667  0.333333  0.175593  1
  Er  Er13  1  0.333333  0.666667  0.675593  1
  Er  Er14  1  0.000000  0.000000  0.778882  1
  Er  Er15  1  0.000000  0.000000  0.278882  1
  In  In16  1  0.837302  0.674606  0.039948  1
  In  In17  1  0.325394  0.162698  0.039948  1
  In  In18  1  0.837302  0.162698  0.039948  1
  In  In19  1  0.162698  0.325394  0.539948  1
  In  In20  1  0.674606  0.837302  0.539948  1
  In  In21  1  0.162698  0.837302  0.539948  1
  Ir  Ir22  1  0.666667  0.333333  0.568078  1
  Ir  Ir23  1  0.333333  0.666667  0.068078  1
