# generated using pymatgen
data_TbTh6FeCo2
_symmetry_space_group_name_H-M   'P 1'
_cell_length_a   9.72972883
_cell_length_b   9.72213071
_cell_length_c   6.13896855
_cell_angle_alpha   89.90297873
_cell_angle_beta   90.11424778
_cell_angle_gamma   120.03255662
_symmetry_Int_Tables_number   1
_chemical_formula_structural   TbTh6FeCo2
_chemical_formula_sum   'Tb2 Th12 Fe2 Co4'
_cell_volume   502.74141146
_cell_formula_units_Z   2
loop_
 _symmetry_equiv_pos_site_id
 _symmetry_equiv_pos_as_xyz
  1  'x, y, z'
loop_
 _atom_site_type_symbol
 _atom_site_label
 _atom_site_symmetry_multiplicity
 _atom_site_fract_x
 _atom_site_fract_y
 _atom_site_fract_z
 _atom_site_occupancy
  Tb  Tb0  1  0.333662  0.666638  0.048048  1
  Tb  Tb1  1  0.666699  0.333435  0.548238  1
  Th  Th2  1  0.126673  0.873599  0.242988  1
  Th  Th3  1  0.252565  0.125700  0.744157  1
  Th  Th4  1  0.872347  0.748799  0.744982  1
  Th  Th5  1  0.123400  0.251584  0.245179  1
  Th  Th6  1  0.748137  0.876525  0.244548  1
  Th  Th7  1  0.872199  0.123532  0.742932  1
  Th  Th8  1  0.543211  0.458154  0.065269  1
  Th  Th9  1  0.085206  0.541896  0.566047  1
  Th  Th10  1  0.459285  0.913435  0.566767  1
  Th  Th11  1  0.545405  0.086475  0.065659  1
  Th  Th12  1  0.912900  0.454802  0.064487  1
  Th  Th13  1  0.458493  0.545080  0.564278  1
  Fe  Fe14  1  0.818997  0.182954  0.282682  1
  Fe  Fe15  1  0.636782  0.817866  0.781317  1
  Co  Co16  1  0.181473  0.363435  0.784927  1
  Co  Co17  1  0.818887  0.636745  0.285239  1
  Co  Co18  1  0.362682  0.181559  0.285856  1
  Co  Co19  1  0.180998  0.817790  0.786402  1
