# generated using pymatgen
data_FeCoN2
_symmetry_space_group_name_H-M   'P 1'
_cell_length_a   5.19365421
_cell_length_b   5.19365408
_cell_length_c   5.19365363
_cell_angle_alpha   33.61836696
_cell_angle_beta   33.61837043
_cell_angle_gamma   33.61836802
_symmetry_Int_Tables_number   1
_chemical_formula_structural   FeCoN2
_chemical_formula_sum   'Fe1 Co1 N2'
_cell_volume   38.25512513
_cell_formula_units_Z   1
loop_
 _symmetry_equiv_pos_site_id
 _symmetry_equiv_pos_as_xyz
  1  'x, y, z'
loop_
 _atom_site_type_symbol
 _atom_site_label
 _atom_site_symmetry_multiplicity
 _atom_site_fract_x
 _atom_site_fract_y
 _atom_site_fract_z
 _atom_site_occupancy
  Fe  Fe0  1  0.313965  0.313965  0.313965  1
  Co  Co1  1  0.808898  0.808898  0.808898  1
  N  N2  1  0.937217  0.937217  0.937217  1
  N  N3  1  0.435416  0.435416  0.435416  1
