# generated using pymatgen
data_Yb3Ce(Al3Pd)6
_symmetry_space_group_name_H-M   'P 1'
_cell_length_a   7.67131010
_cell_length_b   7.66483173
_cell_length_c   9.47000200
_cell_angle_alpha   90.00000000
_cell_angle_beta   90.00000000
_cell_angle_gamma   119.59553611
_symmetry_Int_Tables_number   1
_chemical_formula_structural   Yb3Ce(Al3Pd)6
_chemical_formula_sum   'Yb3 Ce1 Al18 Pd6'
_cell_volume   484.18185260
_cell_formula_units_Z   1
loop_
 _symmetry_equiv_pos_site_id
 _symmetry_equiv_pos_as_xyz
  1  'x, y, z'
loop_
 _atom_site_type_symbol
 _atom_site_label
 _atom_site_symmetry_multiplicity
 _atom_site_fract_x
 _atom_site_fract_y
 _atom_site_fract_z
 _atom_site_occupancy
  Yb  Yb0  1  0.993970  0.669277  0.250000  1
  Yb  Yb1  1  0.004536  0.331084  0.750000  1
  Yb  Yb2  1  0.672456  0.998222  0.250000  1
  Ce  Ce3  1  0.331437  0.001086  0.750000  1
  Al  Al4  1  0.130531  0.132925  0.250000  1
  Al  Al5  1  0.871413  0.868197  0.750000  1
  Al  Al6  1  0.000974  0.335325  0.076939  1
  Al  Al7  1  0.996789  0.663051  0.924834  1
  Al  Al8  1  0.996789  0.663051  0.575166  1
  Al  Al9  1  0.334548  0.999847  0.419434  1
  Al  Al10  1  0.000974  0.335325  0.423061  1
  Al  Al11  1  0.668318  0.000084  0.575346  1
  Al  Al12  1  0.668318  0.000084  0.924654  1
  Al  Al13  1  0.334548  0.999847  0.080566  1
  Al  Al14  1  0.332634  0.332888  0.555768  1
  Al  Al15  1  0.665843  0.666706  0.442758  1
  Al  Al16  1  0.665843  0.666706  0.057242  1
  Al  Al17  1  0.332634  0.332888  0.944232  1
  Al  Al18  1  0.339834  0.548308  0.250000  1
  Al  Al19  1  0.656848  0.453061  0.750000  1
  Al  Al20  1  0.545357  0.342745  0.250000  1
  Al  Al21  1  0.457879  0.662893  0.750000  1
  Pd  Pd22  1  0.671666  0.327891  0.000697  1
  Pd  Pd23  1  0.327503  0.670686  0.999074  1
  Pd  Pd24  1  0.327503  0.670686  0.500926  1
  Pd  Pd25  1  0.671666  0.327891  0.499303  1
  Pd  Pd26  1  0.999594  0.999625  0.000693  1
  Pd  Pd27  1  0.999594  0.999625  0.499307  1
