# generated using pymatgen
data_Y3HoCo14(P2Ru)6
_symmetry_space_group_name_H-M   'P 1'
_cell_length_a   3.73116400
_cell_length_b   10.46087621
_cell_length_c   11.86489424
_cell_angle_alpha   90.02323983
_cell_angle_beta   90.00000000
_cell_angle_gamma   90.00000000
_symmetry_Int_Tables_number   1
_chemical_formula_structural   Y3HoCo14(P2Ru)6
_chemical_formula_sum   'Y3 Ho1 Co14 P12 Ru6'
_cell_volume   463.10155298
_cell_formula_units_Z   1
loop_
 _symmetry_equiv_pos_site_id
 _symmetry_equiv_pos_as_xyz
  1  'x, y, z'
loop_
 _atom_site_type_symbol
 _atom_site_label
 _atom_site_symmetry_multiplicity
 _atom_site_fract_x
 _atom_site_fract_y
 _atom_site_fract_z
 _atom_site_occupancy
  Y  Y0  1  0.250000  0.587032  0.705417  1
  Y  Y1  1  0.750000  0.414640  0.291948  1
  Y  Y2  1  0.750000  0.085318  0.792081  1
  Ho  Ho3  1  0.250000  0.913066  0.205288  1
  Co  Co4  1  0.750000  0.597809  0.512261  1
  Co  Co5  1  0.750000  0.902271  0.013310  1
  Co  Co6  1  0.250000  0.225057  0.179661  1
  Co  Co7  1  0.250000  0.274803  0.679589  1
  Co  Co8  1  0.750000  0.777240  0.822330  1
  Co  Co9  1  0.750000  0.723327  0.321939  1
  Co  Co10  1  0.250000  0.884321  0.700267  1
  Co  Co11  1  0.250000  0.616058  0.200396  1
  Co  Co12  1  0.750000  0.113168  0.298351  1
  Co  Co13  1  0.750000  0.386290  0.798782  1
  Co  Co14  1  0.250000  0.465361  0.931222  1
  Co  Co15  1  0.250000  0.034491  0.430683  1
  Co  Co16  1  0.750000  0.537609  0.067810  1
  Co  Co17  1  0.750000  0.962586  0.567326  1
  P  P18  1  0.250000  0.422644  0.111626  1
  P  P19  1  0.250000  0.077330  0.611428  1
  P  P20  1  0.750000  0.579094  0.887573  1
  P  P21  1  0.750000  0.920907  0.386762  1
  P  P22  1  0.250000  0.272993  0.867051  1
  P  P23  1  0.250000  0.226934  0.366859  1
  P  P24  1  0.750000  0.729891  0.132726  1
  P  P25  1  0.750000  0.770847  0.632418  1
  P  P26  1  0.250000  0.600771  0.387042  1
  P  P27  1  0.250000  0.899208  0.887077  1
  P  P28  1  0.750000  0.402023  0.612446  1
  P  P29  1  0.750000  0.097281  0.112608  1
  Ru  Ru30  1  0.250000  0.714292  0.989949  1
  Ru  Ru31  1  0.250000  0.785865  0.489583  1
  Ru  Ru32  1  0.750000  0.289800  0.013648  1
  Ru  Ru33  1  0.750000  0.209893  0.513314  1
  Ru  Ru34  1  0.250000  0.408810  0.489486  1
  Ru  Ru35  1  0.250000  0.090974  0.989739  1
