# generated using pymatgen
data_Ba4Pr(ReO6)2
_symmetry_space_group_name_H-M   'P 1'
_cell_length_a   10.28388142
_cell_length_b   10.28388177
_cell_length_c   10.28388240
_cell_angle_alpha   33.72937775
_cell_angle_beta   33.72937731
_cell_angle_gamma   33.72937923
_symmetry_Int_Tables_number   1
_chemical_formula_structural   Ba4Pr(ReO6)2
_chemical_formula_sum   'Ba4 Pr1 Re2 O12'
_cell_volume   298.77704540
_cell_formula_units_Z   1
loop_
 _symmetry_equiv_pos_site_id
 _symmetry_equiv_pos_as_xyz
  1  'x, y, z'
loop_
 _atom_site_type_symbol
 _atom_site_label
 _atom_site_symmetry_multiplicity
 _atom_site_fract_x
 _atom_site_fract_y
 _atom_site_fract_z
 _atom_site_occupancy
  Ba  Ba0  1  0.714248  0.714248  0.714248  1
  Ba  Ba1  1  0.285752  0.285752  0.285752  1
  Ba  Ba2  1  0.865068  0.865068  0.865068  1
  Ba  Ba3  1  0.134932  0.134932  0.134932  1
  Pr  Pr4  1  0.000000  0.000000  0.000000  1
  Re  Re5  1  0.576981  0.576981  0.576981  1
  Re  Re6  1  0.423019  0.423019  0.423019  1
  O  O7  1  0.230358  0.681231  0.230358  1
  O  O8  1  0.230358  0.230358  0.681231  1
  O  O9  1  0.681231  0.230358  0.230358  1
  O  O10  1  0.769642  0.318769  0.769642  1
  O  O11  1  0.769642  0.769642  0.318769  1
  O  O12  1  0.318769  0.769642  0.769642  1
  O  O13  1  0.388278  0.856530  0.388278  1
  O  O14  1  0.388278  0.388278  0.856530  1
  O  O15  1  0.856530  0.388278  0.388278  1
  O  O16  1  0.611722  0.143470  0.611722  1
  O  O17  1  0.611722  0.611722  0.143470  1
  O  O18  1  0.143470  0.611722  0.611722  1
