# generated using pymatgen
data_Y8Er2Si5Te
_symmetry_space_group_name_H-M   'P 1'
_cell_length_a   8.51798600
_cell_length_b   8.54459968
_cell_length_c   6.39418300
_cell_angle_alpha   90.01032646
_cell_angle_beta   90.00000000
_cell_angle_gamma   119.89702064
_symmetry_Int_Tables_number   1
_chemical_formula_structural   Y8Er2Si5Te
_chemical_formula_sum   'Y8 Er2 Si5 Te1'
_cell_volume   403.45402641
_cell_formula_units_Z   1
loop_
 _symmetry_equiv_pos_site_id
 _symmetry_equiv_pos_as_xyz
  1  'x, y, z'
loop_
 _atom_site_type_symbol
 _atom_site_label
 _atom_site_symmetry_multiplicity
 _atom_site_fract_x
 _atom_site_fract_y
 _atom_site_fract_z
 _atom_site_occupancy
  Y  Y0  1  0.986360  0.744488  0.750205  1
  Y  Y1  1  0.999593  0.245649  0.249928  1
  Y  Y2  1  0.753943  0.754351  0.250072  1
  Y  Y3  1  0.764507  0.000000  0.750000  1
  Y  Y4  1  0.241871  0.255512  0.749795  1
  Y  Y5  1  0.243247  0.000000  0.250000  1
  Y  Y6  1  0.674572  0.343663  0.496455  1
  Y  Y7  1  0.330909  0.656337  0.003545  1
  Er  Er8  1  0.330406  0.654584  0.496058  1
  Er  Er9  1  0.675822  0.345416  0.003942  1
  Si  Si10  1  0.393813  0.391384  0.249899  1
  Si  Si11  1  0.002429  0.608616  0.250101  1
  Si  Si12  1  0.999266  0.395059  0.749828  1
  Si  Si13  1  0.604207  0.604941  0.750172  1
  Si  Si14  1  0.606230  0.000000  0.250000  1
  Te  Te15  1  0.392825  0.000000  0.750000  1
