# generated using pymatgen
data_TbNp9O20
_symmetry_space_group_name_H-M   'P 1'
_cell_length_a   6.60559187
_cell_length_b   7.62283211
_cell_length_c   8.52975202
_cell_angle_alpha   102.90755716
_cell_angle_beta   97.44515427
_cell_angle_gamma   106.69752549
_symmetry_Int_Tables_number   1
_chemical_formula_structural   TbNp9O20
_chemical_formula_sum   'Tb1 Np9 O20'
_cell_volume   392.26585274
_cell_formula_units_Z   1
loop_
 _symmetry_equiv_pos_site_id
 _symmetry_equiv_pos_as_xyz
  1  'x, y, z'
loop_
 _atom_site_type_symbol
 _atom_site_label
 _atom_site_symmetry_multiplicity
 _atom_site_fract_x
 _atom_site_fract_y
 _atom_site_fract_z
 _atom_site_occupancy
  Tb  Tb0  1  0.000000  0.000000  0.000000  1
  Np  Np1  1  0.800463  0.600821  0.601018  1
  Np  Np2  1  0.000000  0.500000  0.000000  1
  Np  Np3  1  0.599677  0.199386  0.199045  1
  Np  Np4  1  0.800416  0.099985  0.601352  1
  Np  Np5  1  0.601711  0.700746  0.199658  1
  Np  Np6  1  0.199537  0.399179  0.398982  1
  Np  Np7  1  0.398289  0.299254  0.800342  1
  Np  Np8  1  0.199584  0.900015  0.398648  1
  Np  Np9  1  0.400323  0.800614  0.800955  1
  O  O10  1  0.849702  0.325115  0.451713  1
  O  O11  1  0.643560  0.923130  0.051615  1
  O  O12  1  0.949624  0.770255  0.152829  1
  O  O13  1  0.851063  0.825752  0.450411  1
  O  O14  1  0.448028  0.523335  0.649607  1
  O  O15  1  0.648862  0.425430  0.049520  1
  O  O16  1  0.747514  0.374238  0.750302  1
  O  O17  1  0.255210  0.127350  0.254726  1
  O  O18  1  0.448518  0.025387  0.648795  1
  O  O19  1  0.948974  0.280738  0.152745  1
  O  O20  1  0.551482  0.974613  0.351205  1
  O  O21  1  0.051026  0.719262  0.847255  1
  O  O22  1  0.252486  0.625762  0.249698  1
  O  O23  1  0.744790  0.872650  0.745274  1
  O  O24  1  0.351138  0.574570  0.950480  1
  O  O25  1  0.050376  0.229745  0.847171  1
  O  O26  1  0.551972  0.476665  0.350393  1
  O  O27  1  0.148937  0.174248  0.549589  1
  O  O28  1  0.356440  0.076870  0.948385  1
  O  O29  1  0.150298  0.674885  0.548287  1
