# generated using pymatgen
data_Zr5UCo16Si7
_symmetry_space_group_name_H-M   'P 1'
_cell_length_a   8.07856344
_cell_length_b   8.08282988
_cell_length_c   8.08282812
_cell_angle_alpha   59.96508450
_cell_angle_beta   60.01745285
_cell_angle_gamma   60.01745729
_symmetry_Int_Tables_number   1
_chemical_formula_structural   Zr5UCo16Si7
_chemical_formula_sum   'Zr5 U1 Co16 Si7'
_cell_volume   373.20346287
_cell_formula_units_Z   1
loop_
 _symmetry_equiv_pos_site_id
 _symmetry_equiv_pos_as_xyz
  1  'x, y, z'
loop_
 _atom_site_type_symbol
 _atom_site_label
 _atom_site_symmetry_multiplicity
 _atom_site_fract_x
 _atom_site_fract_y
 _atom_site_fract_z
 _atom_site_occupancy
  Zr  Zr0  1  0.289959  0.295316  0.710041  1
  Zr  Zr1  1  0.295191  0.704809  0.704809  1
  Zr  Zr2  1  0.704684  0.710041  0.295316  1
  Zr  Zr3  1  0.289959  0.710041  0.295316  1
  Zr  Zr4  1  0.704684  0.295316  0.710041  1
  U  U5  1  0.714053  0.285947  0.285947  1
  Co  Co6  1  0.120110  0.121186  0.638595  1
  Co  Co7  1  0.670143  0.000178  0.659536  1
  Co  Co8  1  0.361405  0.879890  0.879890  1
  Co  Co9  1  0.999822  0.329857  0.329857  1
  Co  Co10  1  0.984726  0.670156  0.670156  1
  Co  Co11  1  0.329844  0.325039  0.015274  1
  Co  Co12  1  0.670143  0.659536  0.000178  1
  Co  Co13  1  0.640227  0.120778  0.120778  1
  Co  Co14  1  0.674961  0.670156  0.670156  1
  Co  Co15  1  0.879222  0.881781  0.359773  1
  Co  Co16  1  0.118219  0.120778  0.120778  1
  Co  Co17  1  0.879222  0.359773  0.881781  1
  Co  Co18  1  0.878814  0.879890  0.879890  1
  Co  Co19  1  0.340464  0.329857  0.329857  1
  Co  Co20  1  0.120110  0.638595  0.121186  1
  Co  Co21  1  0.329844  0.015274  0.325039  1
  Si  Si22  1  0.006170  0.509110  0.993830  1
  Si  Si23  1  0.006170  0.993830  0.509110  1
  Si  Si24  1  0.002280  0.997720  0.997720  1
  Si  Si25  1  0.490890  0.509110  0.993830  1
  Si  Si26  1  0.490890  0.993830  0.509110  1
  Si  Si27  1  0.503898  0.996102  0.996102  1
  Si  Si28  1  0.003898  0.496102  0.496102  1
