# generated using pymatgen
data_Hf3Fe3Co5P6Ru
_symmetry_space_group_name_H-M   'P 1'
_cell_length_a   11.84406447
_cell_length_b   11.94873271
_cell_length_c   3.64097500
_cell_angle_alpha   90.00000000
_cell_angle_beta   90.00000000
_cell_angle_gamma   120.04286882
_symmetry_Int_Tables_number   1
_chemical_formula_structural   Hf3Fe3Co5P6Ru
_chemical_formula_sum   'Hf6 Fe6 Co10 P12 Ru2'
_cell_volume   446.04961747
_cell_formula_units_Z   2
loop_
 _symmetry_equiv_pos_site_id
 _symmetry_equiv_pos_as_xyz
  1  'x, y, z'
loop_
 _atom_site_type_symbol
 _atom_site_label
 _atom_site_symmetry_multiplicity
 _atom_site_fract_x
 _atom_site_fract_y
 _atom_site_fract_z
 _atom_site_occupancy
  Hf  Hf0  1  0.819436  0.819309  0.500000  1
  Hf  Hf1  1  0.999355  0.174313  0.500000  1
  Hf  Hf2  1  0.333593  0.666635  0.000000  1
  Hf  Hf3  1  0.667777  0.333221  0.000000  1
  Hf  Hf4  1  0.000557  0.557002  0.000000  1
  Hf  Hf5  1  0.179455  0.999992  0.500000  1
  Fe  Fe6  1  0.621448  0.820805  0.000000  1
  Fe  Fe7  1  0.378060  0.199575  0.000000  1
  Fe  Fe8  1  0.000312  0.722425  0.500000  1
  Fe  Fe9  1  0.282936  0.282763  0.500000  1
  Fe  Fe10  1  0.871807  0.349896  0.500000  1
  Fe  Fe11  1  0.716383  0.998790  0.500000  1
  Co  Co12  1  0.814982  0.626545  0.000000  1
  Co  Co13  1  0.185840  0.812396  0.000000  1
  Co  Co14  1  0.359898  0.875026  0.500000  1
  Co  Co15  1  0.132423  0.484239  0.500000  1
  Co  Co16  1  0.640399  0.514318  0.500000  1
  Co  Co17  1  0.000368  0.001185  0.000000  1
  Co  Co18  1  0.513818  0.643118  0.500000  1
  Co  Co19  1  0.486057  0.129349  0.500000  1
  Co  Co20  1  0.194027  0.370101  0.000000  1
  Co  Co21  1  0.803825  0.172905  0.000000  1
  P  P22  1  0.997261  0.345565  0.000000  1
  P  P23  1  0.826804  0.515335  0.500000  1
  P  P24  1  0.686581  0.165655  0.500000  1
  P  P25  1  0.179738  0.176438  0.000000  1
  P  P26  1  0.640663  0.646566  0.000000  1
  P  P27  1  0.819792  0.995378  0.000000  1
  P  P28  1  0.518880  0.832057  0.500000  1
  P  P29  1  0.174413  0.692102  0.500000  1
  P  P30  1  0.359204  0.006653  0.000000  1
  P  P31  1  0.481230  0.313055  0.500000  1
  P  P32  1  0.999465  0.823970  0.000000  1
  P  P33  1  0.313847  0.479128  0.500000  1
  Ru  Ru34  1  0.447933  0.451256  0.000000  1
  Ru  Ru35  1  0.551432  0.002930  0.000000  1
