# generated using pymatgen
data_Lu6MgFe(Co4P3)4
_symmetry_space_group_name_H-M   'P 1'
_cell_length_a   3.66642900
_cell_length_b   10.49496100
_cell_length_c   12.10497900
_cell_angle_alpha   90.00000000
_cell_angle_beta   90.00000000
_cell_angle_gamma   90.00000000
_symmetry_Int_Tables_number   1
_chemical_formula_structural   Lu6MgFe(Co4P3)4
_chemical_formula_sum   'Lu6 Mg1 Fe1 Co16 P12'
_cell_volume   465.78784239
_cell_formula_units_Z   1
loop_
 _symmetry_equiv_pos_site_id
 _symmetry_equiv_pos_as_xyz
  1  'x, y, z'
loop_
 _atom_site_type_symbol
 _atom_site_label
 _atom_site_symmetry_multiplicity
 _atom_site_fract_x
 _atom_site_fract_y
 _atom_site_fract_z
 _atom_site_occupancy
  Lu  Lu0  1  0.000000  0.500000  0.526332  1
  Lu  Lu1  1  0.500000  0.000000  0.477426  1
  Lu  Lu2  1  0.500000  0.822691  0.206708  1
  Lu  Lu3  1  0.500000  0.177309  0.206708  1
  Lu  Lu4  1  0.000000  0.681818  0.794641  1
  Lu  Lu5  1  0.000000  0.318182  0.794641  1
  Mg  Mg6  1  0.500000  0.500000  0.154662  1
  Fe  Fe7  1  0.000000  0.000000  0.839167  1
  Co  Co8  1  0.500000  0.500000  0.703333  1
  Co  Co9  1  0.000000  0.000000  0.297342  1
  Co  Co10  1  0.000000  0.500000  0.985968  1
  Co  Co11  1  0.500000  0.000000  0.012047  1
  Co  Co12  1  0.500000  0.329217  0.992472  1
  Co  Co13  1  0.500000  0.670783  0.992472  1
  Co  Co14  1  0.000000  0.163865  0.002215  1
  Co  Co15  1  0.000000  0.836135  0.002215  1
  Co  Co16  1  0.500000  0.295610  0.433427  1
  Co  Co17  1  0.500000  0.704390  0.433427  1
  Co  Co18  1  0.000000  0.202139  0.569839  1
  Co  Co19  1  0.000000  0.797861  0.569839  1
  Co  Co20  1  0.500000  0.878463  0.707308  1
  Co  Co21  1  0.500000  0.121537  0.707308  1
  Co  Co22  1  0.000000  0.624125  0.293893  1
  Co  Co23  1  0.000000  0.375875  0.293893  1
  P  P24  1  0.500000  0.500000  0.882122  1
  P  P25  1  0.000000  0.000000  0.117620  1
  P  P26  1  0.500000  0.500000  0.356168  1
  P  P27  1  0.000000  0.000000  0.653253  1
  P  P28  1  0.500000  0.311241  0.617943  1
  P  P29  1  0.500000  0.688759  0.617943  1
  P  P30  1  0.000000  0.187355  0.384927  1
  P  P31  1  0.000000  0.812645  0.384927  1
  P  P32  1  0.500000  0.848405  0.888535  1
  P  P33  1  0.500000  0.151595  0.888535  1
  P  P34  1  0.000000  0.663844  0.105372  1
  P  P35  1  0.000000  0.336156  0.105372  1
