# generated using pymatgen
data_La6Tb4Tl5InBr2
_symmetry_space_group_name_H-M   'P 1'
_cell_length_a   9.61815511
_cell_length_b   9.61815549
_cell_length_c   6.88679000
_cell_angle_alpha   90.00000000
_cell_angle_beta   90.00000000
_cell_angle_gamma   119.94488574
_symmetry_Int_Tables_number   1
_chemical_formula_structural   La6Tb4Tl5InBr2
_chemical_formula_sum   'La6 Tb4 Tl5 In1 Br2'
_cell_volume   552.04180546
_cell_formula_units_Z   1
loop_
 _symmetry_equiv_pos_site_id
 _symmetry_equiv_pos_as_xyz
  1  'x, y, z'
loop_
 _atom_site_type_symbol
 _atom_site_label
 _atom_site_symmetry_multiplicity
 _atom_site_fract_x
 _atom_site_fract_y
 _atom_site_fract_z
 _atom_site_occupancy
  La  La0  1  0.731322  0.731322  0.250000  1
  La  La1  1  0.999491  0.731432  0.750000  1
  La  La2  1  0.731432  0.999491  0.750000  1
  La  La3  1  0.268567  0.268567  0.750000  1
  La  La4  1  0.999949  0.268382  0.250000  1
  La  La5  1  0.268382  0.999949  0.250000  1
  Tb  Tb6  1  0.333825  0.666647  0.500400  1
  Tb  Tb7  1  0.666647  0.333825  0.500400  1
  Tb  Tb8  1  0.333825  0.666647  0.999600  1
  Tb  Tb9  1  0.666647  0.333825  0.999600  1
  Tl  Tl10  1  0.393513  0.999980  0.750000  1
  Tl  Tl11  1  0.999931  0.606296  0.250000  1
  Tl  Tl12  1  0.606296  0.999931  0.250000  1
  Tl  Tl13  1  0.999980  0.393513  0.750000  1
  Tl  Tl14  1  0.393774  0.393774  0.250000  1
  In  In15  1  0.606419  0.606419  0.750000  1
  Br  Br16  1  0.999999  0.999999  0.499995  1
  Br  Br17  1  0.999999  0.999999  0.000005  1
