# generated using pymatgen
data_Nd4Co5PtO19
_symmetry_space_group_name_H-M   'P 1'
_cell_length_a   7.53641483
_cell_length_b   7.56480930
_cell_length_c   7.53641565
_cell_angle_alpha   109.42657487
_cell_angle_beta   108.81652295
_cell_angle_gamma   110.01827497
_symmetry_Int_Tables_number   1
_chemical_formula_structural   Nd4Co5PtO19
_chemical_formula_sum   'Nd4 Co5 Pt1 O19'
_cell_volume   331.34730590
_cell_formula_units_Z   1
loop_
 _symmetry_equiv_pos_site_id
 _symmetry_equiv_pos_as_xyz
  1  'x, y, z'
loop_
 _atom_site_type_symbol
 _atom_site_label
 _atom_site_symmetry_multiplicity
 _atom_site_fract_x
 _atom_site_fract_y
 _atom_site_fract_z
 _atom_site_occupancy
  Nd  Nd0  1  0.994806  0.997071  0.326385  1
  Nd  Nd1  1  0.994660  0.326832  0.008692  1
  Nd  Nd2  1  0.681860  0.673168  0.667827  1
  Nd  Nd3  1  0.329314  0.002929  0.997735  1
  Co  Co4  1  0.836837  0.337673  0.493662  1
  Co  Co5  1  0.500953  0.154578  0.656617  1
  Co  Co6  1  0.155988  0.662327  0.499164  1
  Co  Co7  1  0.502039  0.845422  0.346375  1
  Co  Co8  1  0.662088  0.500000  0.162088  1
  Pt  Pt9  1  0.340395  0.500000  0.840395  1
  O  O10  1  0.359716  0.000000  0.359716  1
  O  O11  1  0.351722  0.346459  0.009197  1
  O  O12  1  0.003984  0.648546  0.647923  1
  O  O13  1  0.662738  0.653541  0.005263  1
  O  O14  1  0.999378  0.351454  0.355438  1
  O  O15  1  0.646594  0.000000  0.646594  1
  O  O16  1  0.999898  0.000000  0.999898  1
  O  O17  1  0.366995  0.317806  0.604774  1
  O  O18  1  0.025679  0.282825  0.671147  1
  O  O19  1  0.745945  0.380302  0.701295  1
  O  O20  1  0.388321  0.717175  0.742854  1
  O  O21  1  0.251292  0.962686  0.635968  1
  O  O22  1  0.619578  0.363972  0.323339  1
  O  O23  1  0.320993  0.619698  0.365643  1
  O  O24  1  0.673282  0.037314  0.288606  1
  O  O25  1  0.959367  0.636028  0.255606  1
  O  O26  1  0.703943  0.746394  0.381062  1
  O  O27  1  0.634668  0.253606  0.957549  1
  O  O28  1  0.286968  0.682194  0.049189  1
