# generated using pymatgen
data_BaCa5(TcH7)2
_symmetry_space_group_name_H-M   'P 1'
_cell_length_a   5.19338700
_cell_length_b   5.19338669
_cell_length_c   12.78507400
_cell_angle_alpha   90.00000000
_cell_angle_beta   90.00000000
_cell_angle_gamma   119.99999563
_symmetry_Int_Tables_number   1
_chemical_formula_structural   BaCa5(TcH7)2
_chemical_formula_sum   'Ba1 Ca5 Tc2 H14'
_cell_volume   298.63124416
_cell_formula_units_Z   1
loop_
 _symmetry_equiv_pos_site_id
 _symmetry_equiv_pos_as_xyz
  1  'x, y, z'
loop_
 _atom_site_type_symbol
 _atom_site_label
 _atom_site_symmetry_multiplicity
 _atom_site_fract_x
 _atom_site_fract_y
 _atom_site_fract_z
 _atom_site_occupancy
  Ba  Ba0  1  0.000000  0.000000  0.250000  1
  Ca  Ca1  1  0.000000  0.000000  0.750000  1
  Ca  Ca2  1  0.333333  0.666667  0.451225  1
  Ca  Ca3  1  0.666667  0.333333  0.573554  1
  Ca  Ca4  1  0.666667  0.333333  0.926446  1
  Ca  Ca5  1  0.333333  0.666667  0.048775  1
  Tc  Tc6  1  0.000000  0.000000  0.513439  1
  Tc  Tc7  1  0.000000  0.000000  0.986561  1
  H  H8  1  0.333333  0.666667  0.250000  1
  H  H9  1  0.666667  0.333333  0.750000  1
  H  H10  1  0.160536  0.839464  0.903951  1
  H  H11  1  0.160536  0.321074  0.903951  1
  H  H12  1  0.678926  0.839464  0.903951  1
  H  H13  1  0.838565  0.161435  0.069405  1
  H  H14  1  0.838565  0.677129  0.069405  1
  H  H15  1  0.322871  0.161435  0.069405  1
  H  H16  1  0.838565  0.161435  0.430595  1
  H  H17  1  0.838565  0.677129  0.430595  1
  H  H18  1  0.322871  0.161435  0.430595  1
  H  H19  1  0.160536  0.839464  0.596049  1
  H  H20  1  0.160536  0.321074  0.596049  1
  H  H21  1  0.678926  0.839464  0.596049  1
