# generated using pymatgen
data_PuCo5P3
_symmetry_space_group_name_H-M   'P 1'
_cell_length_a   3.61317600
_cell_length_b   10.24261000
_cell_length_c   11.60287000
_cell_angle_alpha   90.00000000
_cell_angle_beta   90.00000000
_cell_angle_gamma   90.00000000
_symmetry_Int_Tables_number   1
_chemical_formula_structural   PuCo5P3
_chemical_formula_sum   'Pu4 Co20 P12'
_cell_volume   429.40310447
_cell_formula_units_Z   4
loop_
 _symmetry_equiv_pos_site_id
 _symmetry_equiv_pos_as_xyz
  1  'x, y, z'
loop_
 _atom_site_type_symbol
 _atom_site_label
 _atom_site_symmetry_multiplicity
 _atom_site_fract_x
 _atom_site_fract_y
 _atom_site_fract_z
 _atom_site_occupancy
  Pu  Pu0  1  0.250000  0.584408  0.704078  1
  Pu  Pu1  1  0.250000  0.915592  0.204078  1
  Pu  Pu2  1  0.750000  0.415451  0.295790  1
  Pu  Pu3  1  0.750000  0.084549  0.795790  1
  Co  Co4  1  0.750000  0.592502  0.513293  1
  Co  Co5  1  0.750000  0.907498  0.013293  1
  Co  Co6  1  0.250000  0.218871  0.176882  1
  Co  Co7  1  0.250000  0.281129  0.676882  1
  Co  Co8  1  0.750000  0.781525  0.823201  1
  Co  Co9  1  0.750000  0.718475  0.323201  1
  Co  Co10  1  0.250000  0.881045  0.697820  1
  Co  Co11  1  0.250000  0.618955  0.197820  1
  Co  Co12  1  0.750000  0.119318  0.302274  1
  Co  Co13  1  0.750000  0.380682  0.802274  1
  Co  Co14  1  0.250000  0.466837  0.931732  1
  Co  Co15  1  0.250000  0.033163  0.431732  1
  Co  Co16  1  0.750000  0.533512  0.067926  1
  Co  Co17  1  0.750000  0.966488  0.567926  1
  Co  Co18  1  0.250000  0.715510  0.988147  1
  Co  Co19  1  0.250000  0.784490  0.488147  1
  Co  Co20  1  0.750000  0.285043  0.012298  1
  Co  Co21  1  0.750000  0.214957  0.512298  1
  Co  Co22  1  0.250000  0.406935  0.486680  1
  Co  Co23  1  0.250000  0.093065  0.986680  1
  P  P24  1  0.250000  0.418185  0.114406  1
  P  P25  1  0.250000  0.081815  0.614406  1
  P  P26  1  0.750000  0.582022  0.885244  1
  P  P27  1  0.750000  0.917978  0.385244  1
  P  P28  1  0.250000  0.270253  0.870697  1
  P  P29  1  0.250000  0.229747  0.370697  1
  P  P30  1  0.750000  0.729920  0.129360  1
  P  P31  1  0.750000  0.770080  0.629360  1
  P  P32  1  0.250000  0.601291  0.389933  1
  P  P33  1  0.250000  0.898709  0.889933  1
  P  P34  1  0.750000  0.398353  0.610237  1
  P  P35  1  0.750000  0.101647  0.110237  1
