# generated using pymatgen
data_YbDy3VOs7
_symmetry_space_group_name_H-M   'P 1'
_cell_length_a   5.39092200
_cell_length_b   5.39092029
_cell_length_c   8.56346200
_cell_angle_alpha   90.00000000
_cell_angle_beta   90.00000000
_cell_angle_gamma   119.99999825
_symmetry_Int_Tables_number   1
_chemical_formula_structural   YbDy3VOs7
_chemical_formula_sum   'Yb1 Dy3 V1 Os7'
_cell_volume   215.52912835
_cell_formula_units_Z   1
loop_
 _symmetry_equiv_pos_site_id
 _symmetry_equiv_pos_as_xyz
  1  'x, y, z'
loop_
 _atom_site_type_symbol
 _atom_site_label
 _atom_site_symmetry_multiplicity
 _atom_site_fract_x
 _atom_site_fract_y
 _atom_site_fract_z
 _atom_site_occupancy
  Yb  Yb0  1  0.333333  0.666667  0.061098  1
  Dy  Dy1  1  0.333333  0.666667  0.423751  1
  Dy  Dy2  1  0.666667  0.333333  0.569874  1
  Dy  Dy3  1  0.666667  0.333333  0.942051  1
  V  V4  1  0.000000  0.000000  0.506135  1
  Os  Os5  1  0.000000  0.000000  0.998093  1
  Os  Os6  1  0.829280  0.170720  0.254271  1
  Os  Os7  1  0.829280  0.658559  0.254271  1
  Os  Os8  1  0.341441  0.170720  0.254271  1
  Os  Os9  1  0.172490  0.827510  0.745395  1
  Os  Os10  1  0.172490  0.344979  0.745395  1
  Os  Os11  1  0.655021  0.827510  0.745395  1
