# generated using pymatgen
data_ErTm13Lu6(CoSb2)4
_symmetry_space_group_name_H-M   'P 1'
_cell_length_a   7.71071600
_cell_length_b   8.70573724
_cell_length_c   12.01172333
_cell_angle_alpha   90.02672207
_cell_angle_beta   90.00248937
_cell_angle_gamma   90.00161259
_symmetry_Int_Tables_number   1
_chemical_formula_structural   ErTm13Lu6(CoSb2)4
_chemical_formula_sum   'Er1 Tm13 Lu6 Co4 Sb8'
_cell_volume   806.31647782
_cell_formula_units_Z   1
loop_
 _symmetry_equiv_pos_site_id
 _symmetry_equiv_pos_as_xyz
  1  'x, y, z'
loop_
 _atom_site_type_symbol
 _atom_site_label
 _atom_site_symmetry_multiplicity
 _atom_site_fract_x
 _atom_site_fract_y
 _atom_site_fract_z
 _atom_site_occupancy
  Er  Er0  1  0.877631  0.750234  0.808435  1
  Tm  Tm1  1  0.156721  0.750194  0.204184  1
  Tm  Tm2  1  0.656755  0.249815  0.295833  1
  Tm  Tm3  1  0.843323  0.249934  0.795591  1
  Tm  Tm4  1  0.343464  0.750051  0.704293  1
  Tm  Tm5  1  0.449474  0.750143  0.997928  1
  Tm  Tm6  1  0.949636  0.249829  0.501994  1
  Tm  Tm7  1  0.549638  0.249725  0.002020  1
  Tm  Tm8  1  0.049932  0.750276  0.498019  1
  Tm  Tm9  1  0.622357  0.750101  0.308975  1
  Tm  Tm10  1  0.122455  0.249892  0.191157  1
  Tm  Tm11  1  0.378076  0.249756  0.691036  1
  Tm  Tm12  1  0.823917  0.536972  0.065653  1
  Tm  Tm13  1  0.323876  0.462888  0.434546  1
  Lu  Lu14  1  0.825068  0.962880  0.065609  1
  Lu  Lu15  1  0.324991  0.037272  0.434591  1
  Lu  Lu16  1  0.175352  0.462443  0.934560  1
  Lu  Lu17  1  0.675226  0.537216  0.565480  1
  Lu  Lu18  1  0.175116  0.037698  0.934645  1
  Lu  Lu19  1  0.674906  0.962702  0.565424  1
  Co  Co20  1  0.432465  0.750341  0.491081  1
  Co  Co21  1  0.932459  0.249659  0.008986  1
  Co  Co22  1  0.568594  0.249602  0.509127  1
  Co  Co23  1  0.068706  0.750405  0.990982  1
  Sb  Sb24  1  0.931693  0.991576  0.327494  1
  Sb  Sb25  1  0.431681  0.008405  0.172516  1
  Sb  Sb26  1  0.068852  0.491345  0.672366  1
  Sb  Sb27  1  0.568152  0.508165  0.827538  1
  Sb  Sb28  1  0.068749  0.008652  0.672362  1
  Sb  Sb29  1  0.568036  0.991813  0.827544  1
  Sb  Sb30  1  0.931351  0.508486  0.327521  1
  Sb  Sb31  1  0.431346  0.491532  0.172512  1
