# generated using pymatgen
data_Y16Ho4(Ir3Pt)3
_symmetry_space_group_name_H-M   'P 1'
_cell_length_a   10.99920867
_cell_length_b   10.99920820
_cell_length_c   6.35682200
_cell_angle_alpha   89.97434049
_cell_angle_beta   89.97434461
_cell_angle_gamma   90.22791885
_symmetry_Int_Tables_number   1
_chemical_formula_structural   Y16Ho4(Ir3Pt)3
_chemical_formula_sum   'Y16 Ho4 Ir9 Pt3'
_cell_volume   769.05852621
_cell_formula_units_Z   1
loop_
 _symmetry_equiv_pos_site_id
 _symmetry_equiv_pos_as_xyz
  1  'x, y, z'
loop_
 _atom_site_type_symbol
 _atom_site_label
 _atom_site_symmetry_multiplicity
 _atom_site_fract_x
 _atom_site_fract_y
 _atom_site_fract_z
 _atom_site_occupancy
  Y  Y0  1  0.293301  0.086673  0.371715  1
  Y  Y1  1  0.292667  0.908647  0.876653  1
  Y  Y2  1  0.705692  0.089871  0.873695  1
  Y  Y3  1  0.704764  0.909898  0.373100  1
  Y  Y4  1  0.585096  0.790596  0.877982  1
  Y  Y5  1  0.585464  0.209373  0.377889  1
  Y  Y6  1  0.410792  0.790883  0.377836  1
  Y  Y7  1  0.414158  0.209401  0.877773  1
  Y  Y8  1  0.209404  0.414904  0.622018  1
  Y  Y9  1  0.209117  0.589208  0.122164  1
  Y  Y10  1  0.790627  0.414536  0.122111  1
  Y  Y11  1  0.790599  0.585842  0.622227  1
  Y  Y12  1  0.913327  0.706699  0.128285  1
  Y  Y13  1  0.910129  0.294308  0.626305  1
  Y  Y14  1  0.091353  0.707333  0.623347  1
  Y  Y15  1  0.090102  0.295236  0.126900  1
  Ho  Ho16  1  0.001167  0.998032  0.499544  1
  Ho  Ho17  1  0.001968  0.998833  0.000456  1
  Ho  Ho18  1  0.499700  0.499903  0.000483  1
  Ho  Ho19  1  0.500097  0.500300  0.499517  1
  Ir  Ir20  1  0.151403  0.848597  0.250000  1
  Ir  Ir21  1  0.653536  0.346464  0.750000  1
  Ir  Ir22  1  0.653972  0.653539  0.249499  1
  Ir  Ir23  1  0.346461  0.346028  0.250501  1
  Ir  Ir24  1  0.347411  0.652589  0.750000  1
  Ir  Ir25  1  0.500411  0.000030  0.123159  1
  Ir  Ir26  1  0.500192  0.000234  0.624470  1
  Ir  Ir27  1  0.999766  0.499808  0.875530  1
  Ir  Ir28  1  0.999970  0.499589  0.376841  1
  Pt  Pt29  1  0.847819  0.152181  0.250000  1
  Pt  Pt30  1  0.846465  0.846928  0.749916  1
  Pt  Pt31  1  0.153072  0.153535  0.750084  1
