# generated using pymatgen
data_YbY3B16Os3Ru
_symmetry_space_group_name_H-M   'P 1'
_cell_length_a   3.55509900
_cell_length_b   5.96793754
_cell_length_c   11.53444730
_cell_angle_alpha   89.96009994
_cell_angle_beta   90.00000000
_cell_angle_gamma   90.00000000
_symmetry_Int_Tables_number   1
_chemical_formula_structural   YbY3B16Os3Ru
_chemical_formula_sum   'Yb1 Y3 B16 Os3 Ru1'
_cell_volume   244.72179656
_cell_formula_units_Z   1
loop_
 _symmetry_equiv_pos_site_id
 _symmetry_equiv_pos_as_xyz
  1  'x, y, z'
loop_
 _atom_site_type_symbol
 _atom_site_label
 _atom_site_symmetry_multiplicity
 _atom_site_fract_x
 _atom_site_fract_y
 _atom_site_fract_z
 _atom_site_occupancy
  Yb  Yb0  1  0.500000  0.870002  0.650011  1
  Y  Y1  1  0.500000  0.627751  0.149816  1
  Y  Y2  1  0.500000  0.371739  0.849145  1
  Y  Y3  1  0.500000  0.128313  0.350521  1
  B  B4  1  0.000000  0.975575  0.191356  1
  B  B5  1  0.000000  0.024525  0.808142  1
  B  B6  1  0.000000  0.475003  0.308875  1
  B  B7  1  0.000000  0.525806  0.690965  1
  B  B8  1  0.000000  0.788549  0.315016  1
  B  B9  1  0.000000  0.210809  0.684939  1
  B  B10  1  0.000000  0.288627  0.185607  1
  B  B11  1  0.000000  0.712691  0.814182  1
  B  B12  1  0.000000  0.863356  0.470551  1
  B  B13  1  0.000000  0.136044  0.530418  1
  B  B14  1  0.000000  0.363289  0.030208  1
  B  B15  1  0.000000  0.636578  0.969555  1
  B  B16  1  0.000000  0.887624  0.046637  1
  B  B17  1  0.000000  0.111674  0.952965  1
  B  B18  1  0.000000  0.388164  0.454082  1
  B  B19  1  0.000000  0.614118  0.547358  1
  Os  Os20  1  0.500000  0.640376  0.407308  1
  Os  Os21  1  0.500000  0.359722  0.591703  1
  Os  Os22  1  0.500000  0.140134  0.092578  1
  Ru  Ru23  1  0.500000  0.859530  0.908064  1
