# generated using pymatgen
data_Y2GaReOs2
_symmetry_space_group_name_H-M   'P 1'
_cell_length_a   5.39869072
_cell_length_b   5.29991730
_cell_length_c   8.91832300
_cell_angle_alpha   90.00000000
_cell_angle_beta   90.00000000
_cell_angle_gamma   119.39661443
_symmetry_Int_Tables_number   1
_chemical_formula_structural   Y2GaReOs2
_chemical_formula_sum   'Y4 Ga2 Re2 Os4'
_cell_volume   222.32072449
_cell_formula_units_Z   2
loop_
 _symmetry_equiv_pos_site_id
 _symmetry_equiv_pos_as_xyz
  1  'x, y, z'
loop_
 _atom_site_type_symbol
 _atom_site_label
 _atom_site_symmetry_multiplicity
 _atom_site_fract_x
 _atom_site_fract_y
 _atom_site_fract_z
 _atom_site_occupancy
  Y  Y0  1  0.327034  0.663518  0.435349  1
  Y  Y1  1  0.658562  0.329281  0.559259  1
  Y  Y2  1  0.658562  0.329281  0.940741  1
  Y  Y3  1  0.327034  0.663518  0.064651  1
  Ga  Ga4  1  0.182544  0.837425  0.750000  1
  Ga  Ga5  1  0.182544  0.345119  0.750000  1
  Re  Re6  1  0.837906  0.170593  0.250000  1
  Re  Re7  1  0.837906  0.667312  0.250000  1
  Os  Os8  1  0.976858  0.988429  0.502121  1
  Os  Os9  1  0.976858  0.988429  0.997879  1
  Os  Os10  1  0.356493  0.178246  0.250000  1
  Os  Os11  1  0.677701  0.838851  0.750000  1
