# generated using pymatgen
data_Sr6EuTl(IrO6)2
_symmetry_space_group_name_H-M   'P 1'
_cell_length_a   6.91702864
_cell_length_b   6.91702882
_cell_length_c   6.91702996
_cell_angle_alpha   89.88272007
_cell_angle_beta   89.88271318
_cell_angle_gamma   89.88273514
_symmetry_Int_Tables_number   1
_chemical_formula_structural   Sr6EuTl(IrO6)2
_chemical_formula_sum   'Sr6 Eu1 Tl1 Ir2 O12'
_cell_volume   330.94520308
_cell_formula_units_Z   1
loop_
 _symmetry_equiv_pos_site_id
 _symmetry_equiv_pos_as_xyz
  1  'x, y, z'
loop_
 _atom_site_type_symbol
 _atom_site_label
 _atom_site_symmetry_multiplicity
 _atom_site_fract_x
 _atom_site_fract_y
 _atom_site_fract_z
 _atom_site_occupancy
  Sr  Sr0  1  0.131243  0.868757  0.500000  1
  Sr  Sr1  1  0.500000  0.131243  0.868757  1
  Sr  Sr2  1  0.868757  0.500000  0.131243  1
  Sr  Sr3  1  0.000000  0.363922  0.636078  1
  Sr  Sr4  1  0.636078  0.000000  0.363922  1
  Sr  Sr5  1  0.363922  0.636078  0.000000  1
  Eu  Eu6  1  0.500000  0.500000  0.500000  1
  Tl  Tl7  1  0.000000  0.000000  0.000000  1
  Ir  Ir8  1  0.743211  0.743211  0.743211  1
  Ir  Ir9  1  0.256789  0.256789  0.256789  1
  O  O10  1  0.454166  0.797938  0.664401  1
  O  O11  1  0.664401  0.454166  0.797938  1
  O  O12  1  0.797938  0.664401  0.454166  1
  O  O13  1  0.171486  0.304377  0.973827  1
  O  O14  1  0.973827  0.171486  0.304377  1
  O  O15  1  0.304377  0.973827  0.171486  1
  O  O16  1  0.026173  0.695623  0.828514  1
  O  O17  1  0.828514  0.026173  0.695623  1
  O  O18  1  0.695623  0.828514  0.026173  1
  O  O19  1  0.335599  0.202062  0.545834  1
  O  O20  1  0.545834  0.335599  0.202062  1
  O  O21  1  0.202062  0.545834  0.335599  1
