# generated using pymatgen
data_Y7Sn23Os5Rh
_symmetry_space_group_name_H-M   'P 1'
_cell_length_a   9.90949300
_cell_length_b   9.88109013
_cell_length_c   10.11476949
_cell_angle_alpha   90.09153530
_cell_angle_beta   90.00000000
_cell_angle_gamma   120.09514230
_symmetry_Int_Tables_number   1
_chemical_formula_structural   Y7Sn23Os5Rh
_chemical_formula_sum   'Y7 Sn23 Os5 Rh1'
_cell_volume   856.88987783
_cell_formula_units_Z   1
loop_
 _symmetry_equiv_pos_site_id
 _symmetry_equiv_pos_as_xyz
  1  'x, y, z'
loop_
 _atom_site_type_symbol
 _atom_site_label
 _atom_site_symmetry_multiplicity
 _atom_site_fract_x
 _atom_site_fract_y
 _atom_site_fract_z
 _atom_site_occupancy
  Y  Y0  1  0.004564  0.009128  0.994660  1
  Y  Y1  1  0.033835  0.515253  0.305745  1
  Y  Y2  1  0.482833  0.965664  0.304974  1
  Y  Y3  1  0.481417  0.515253  0.305745  1
  Y  Y4  1  0.968334  0.483927  0.696404  1
  Y  Y5  1  0.515950  0.031900  0.696082  1
  Y  Y6  1  0.515594  0.483927  0.696404  1
  Sn  Sn7  1  0.999076  0.998154  0.498288  1
  Sn  Sn8  1  0.115938  0.883473  0.277492  1
  Sn  Sn9  1  0.767535  0.883473  0.277492  1
  Sn  Sn10  1  0.116892  0.233786  0.274736  1
  Sn  Sn11  1  0.883590  0.115875  0.719987  1
  Sn  Sn12  1  0.232285  0.115875  0.719987  1
  Sn  Sn13  1  0.882502  0.765001  0.725441  1
  Sn  Sn14  1  0.349525  0.000453  0.999928  1
  Sn  Sn15  1  0.650156  0.651853  0.001230  1
  Sn  Sn16  1  0.999158  0.350527  0.999758  1
  Sn  Sn17  1  0.351368  0.350527  0.999758  1
  Sn  Sn18  1  0.001697  0.651853  0.001230  1
  Sn  Sn19  1  0.650927  0.000453  0.999928  1
  Sn  Sn20  1  0.779177  0.558355  0.461767  1
  Sn  Sn21  1  0.778528  0.219656  0.462110  1
  Sn  Sn22  1  0.441129  0.219656  0.462110  1
  Sn  Sn23  1  0.220507  0.441016  0.539334  1
  Sn  Sn24  1  0.220800  0.779616  0.538200  1
  Sn  Sn25  1  0.558815  0.779616  0.538200  1
  Sn  Sn26  1  0.665069  0.330136  0.177203  1
  Sn  Sn27  1  0.333288  0.666577  0.824638  1
  Sn  Sn28  1  0.667148  0.334296  0.874249  1
  Sn  Sn29  1  0.333143  0.666287  0.126754  1
  Os  Os30  1  0.169441  0.830284  0.798355  1
  Os  Os31  1  0.660842  0.830284  0.798355  1
  Os  Os32  1  0.168728  0.337456  0.800066  1
  Os  Os33  1  0.830924  0.170667  0.201673  1
  Os  Os34  1  0.339742  0.170667  0.201673  1
  Rh  Rh35  1  0.829541  0.659081  0.200037  1
