# generated using pymatgen
data_UCu(P2O7)2
_symmetry_space_group_name_H-M   'P 1'
_cell_length_a   5.05017982
_cell_length_b   7.30767889
_cell_length_c   8.36059300
_cell_angle_alpha   90.78176810
_cell_angle_beta   92.86033843
_cell_angle_gamma   106.11350524
_symmetry_Int_Tables_number   1
_chemical_formula_structural   UCu(P2O7)2
_chemical_formula_sum   'U1 Cu1 P4 O14'
_cell_volume   295.93588092
_cell_formula_units_Z   1
loop_
 _symmetry_equiv_pos_site_id
 _symmetry_equiv_pos_as_xyz
  1  'x, y, z'
loop_
 _atom_site_type_symbol
 _atom_site_label
 _atom_site_symmetry_multiplicity
 _atom_site_fract_x
 _atom_site_fract_y
 _atom_site_fract_z
 _atom_site_occupancy
  U  U0  1  0.500000  0.500000  0.500000  1
  Cu  Cu1  1  0.000000  0.000000  0.000000  1
  P  P2  1  0.520483  0.125229  0.779653  1
  P  P3  1  0.121901  0.760881  0.709129  1
  P  P4  1  0.878099  0.239119  0.290871  1
  P  P5  1  0.479517  0.874771  0.220347  1
  O  O6  1  0.363171  0.156306  0.922173  1
  O  O7  1  0.040746  0.765050  0.879728  1
  O  O8  1  0.790252  0.074069  0.805663  1
  O  O9  1  0.288756  0.614325  0.676402  1
  O  O10  1  0.573648  0.303333  0.665782  1
  O  O11  1  0.312076  0.963079  0.657993  1
  O  O12  1  0.874007  0.709354  0.581255  1
  O  O13  1  0.125993  0.290646  0.418745  1
  O  O14  1  0.687924  0.036921  0.342007  1
  O  O15  1  0.426352  0.696667  0.334218  1
  O  O16  1  0.711244  0.385675  0.323598  1
  O  O17  1  0.209748  0.925931  0.194337  1
  O  O18  1  0.959254  0.234950  0.120272  1
  O  O19  1  0.636829  0.843694  0.077827  1
