# generated using pymatgen
data_Nd5Er3(P3Pd4)4
_symmetry_space_group_name_H-M   'P 1'
_cell_length_a   13.20672400
_cell_length_b   13.20672271
_cell_length_c   4.07250200
_cell_angle_alpha   90.00000000
_cell_angle_beta   90.00000000
_cell_angle_gamma   120.00000322
_symmetry_Int_Tables_number   1
_chemical_formula_structural   Nd5Er3(P3Pd4)4
_chemical_formula_sum   'Nd5 Er3 P12 Pd16'
_cell_volume   615.15149710
_cell_formula_units_Z   1
loop_
 _symmetry_equiv_pos_site_id
 _symmetry_equiv_pos_as_xyz
  1  'x, y, z'
loop_
 _atom_site_type_symbol
 _atom_site_label
 _atom_site_symmetry_multiplicity
 _atom_site_fract_x
 _atom_site_fract_y
 _atom_site_fract_z
 _atom_site_occupancy
  Nd  Nd0  1  0.187174  0.187174  0.500000  1
  Nd  Nd1  1  0.812826  0.000000  0.500000  1
  Nd  Nd2  1  0.000000  0.812826  0.500000  1
  Nd  Nd3  1  0.333333  0.666667  0.000000  1
  Nd  Nd4  1  0.666667  0.333333  0.000000  1
  Er  Er5  1  0.557190  0.557190  0.000000  1
  Er  Er6  1  0.442810  0.000000  0.000000  1
  Er  Er7  1  0.000000  0.442810  0.000000  1
  P  P8  1  0.824910  0.824910  0.000000  1
  P  P9  1  0.175090  0.000000  0.000000  1
  P  P10  1  0.000000  0.175090  0.000000  1
  P  P11  1  0.168357  0.478039  0.500000  1
  P  P12  1  0.521961  0.690318  0.500000  1
  P  P13  1  0.309682  0.831643  0.500000  1
  P  P14  1  0.690318  0.521961  0.500000  1
  P  P15  1  0.831643  0.309682  0.500000  1
  P  P16  1  0.478039  0.168357  0.500000  1
  P  P17  1  0.354263  0.354263  0.000000  1
  P  P18  1  0.645737  0.000000  0.000000  1
  P  P19  1  0.000000  0.645737  0.000000  1
  Pd  Pd20  1  0.725546  0.725546  0.500000  1
  Pd  Pd21  1  0.274454  0.000000  0.500000  1
  Pd  Pd22  1  0.000000  0.274454  0.500000  1
  Pd  Pd23  1  0.186170  0.377759  0.000000  1
  Pd  Pd24  1  0.622241  0.808410  0.000000  1
  Pd  Pd25  1  0.191590  0.813830  0.000000  1
  Pd  Pd26  1  0.808410  0.622241  0.000000  1
  Pd  Pd27  1  0.813830  0.191590  0.000000  1
  Pd  Pd28  1  0.377759  0.186170  0.000000  1
  Pd  Pd29  1  0.359049  0.488131  0.500000  1
  Pd  Pd30  1  0.511869  0.870918  0.500000  1
  Pd  Pd31  1  0.129082  0.640951  0.500000  1
  Pd  Pd32  1  0.870918  0.511869  0.500000  1
  Pd  Pd33  1  0.640951  0.129082  0.500000  1
  Pd  Pd34  1  0.488131  0.359049  0.500000  1
  Pd  Pd35  1  0.000000  0.000000  0.000000  1
