# generated using pymatgen
data_Na5Tl13
_symmetry_space_group_name_H-M   'P 1'
_cell_length_a   18.42016923
_cell_length_b   18.42016820
_cell_length_c   7.81133200
_cell_angle_alpha   95.88449684
_cell_angle_beta   95.88449339
_cell_angle_gamma   11.47330145
_symmetry_Int_Tables_number   1
_chemical_formula_structural   Na5Tl13
_chemical_formula_sum   'Na5 Tl13'
_cell_volume   524.38943582
_cell_formula_units_Z   1
loop_
 _symmetry_equiv_pos_site_id
 _symmetry_equiv_pos_as_xyz
  1  'x, y, z'
loop_
 _atom_site_type_symbol
 _atom_site_label
 _atom_site_symmetry_multiplicity
 _atom_site_fract_x
 _atom_site_fract_y
 _atom_site_fract_z
 _atom_site_occupancy
  Na  Na0  1  0.000000  0.000000  0.000000  1
  Na  Na1  1  0.667985  0.667985  0.318770  1
  Na  Na2  1  0.891608  0.891608  0.421563  1
  Na  Na3  1  0.108392  0.108392  0.578438  1
  Na  Na4  1  0.332015  0.332015  0.681230  1
  Tl  Tl5  1  0.110037  0.110037  0.062816  1
  Tl  Tl6  1  0.223613  0.223613  0.115540  1
  Tl  Tl7  1  0.333914  0.333914  0.154936  1
  Tl  Tl8  1  0.445362  0.445362  0.207312  1
  Tl  Tl9  1  0.556345  0.556345  0.288831  1
  Tl  Tl10  1  0.779419  0.779419  0.392792  1
  Tl  Tl11  1  0.000000  0.000000  0.500000  1
  Tl  Tl12  1  0.220581  0.220581  0.607209  1
  Tl  Tl13  1  0.443655  0.443655  0.711169  1
  Tl  Tl14  1  0.554638  0.554638  0.792687  1
  Tl  Tl15  1  0.666085  0.666085  0.845064  1
  Tl  Tl16  1  0.776386  0.776386  0.884459  1
  Tl  Tl17  1  0.889964  0.889964  0.937185  1
