# generated using pymatgen
data_Ba4TmTaO8
_symmetry_space_group_name_H-M   'P 1'
_cell_length_a   7.44755059
_cell_length_b   7.44754968
_cell_length_c   5.99168600
_cell_angle_alpha   90.00000000
_cell_angle_beta   90.00000000
_cell_angle_gamma   132.71397886
_symmetry_Int_Tables_number   1
_chemical_formula_structural   Ba4TmTaO8
_chemical_formula_sum   'Ba4 Tm1 Ta1 O8'
_cell_volume   244.18275510
_cell_formula_units_Z   1
loop_
 _symmetry_equiv_pos_site_id
 _symmetry_equiv_pos_as_xyz
  1  'x, y, z'
loop_
 _atom_site_type_symbol
 _atom_site_label
 _atom_site_symmetry_multiplicity
 _atom_site_fract_x
 _atom_site_fract_y
 _atom_site_fract_z
 _atom_site_occupancy
  Ba  Ba0  1  0.353008  0.646992  0.000000  1
  Ba  Ba1  1  0.853512  0.146488  0.500000  1
  Ba  Ba2  1  0.146488  0.853512  0.500000  1
  Ba  Ba3  1  0.646992  0.353008  0.000000  1
  Tm  Tm4  1  0.000000  0.000000  0.000000  1
  Ta  Ta5  1  0.500000  0.500000  0.500000  1
  O  O6  1  0.261353  0.261353  0.735204  1
  O  O7  1  0.738647  0.738647  0.264796  1
  O  O8  1  0.738647  0.738647  0.735204  1
  O  O9  1  0.261353  0.261353  0.264796  1
  O  O10  1  0.163577  0.836423  0.000000  1
  O  O11  1  0.650198  0.349802  0.500000  1
  O  O12  1  0.349802  0.650198  0.500000  1
  O  O13  1  0.836423  0.163577  0.000000  1
