# generated using pymatgen
data_CeY4Th3(TcB6)4
_symmetry_space_group_name_H-M   'P 1'
_cell_length_a   3.76977700
_cell_length_b   9.25547100
_cell_length_c   11.66132300
_cell_angle_alpha   90.00301787
_cell_angle_beta   90.00000000
_cell_angle_gamma   90.00000000
_symmetry_Int_Tables_number   1
_chemical_formula_structural   CeY4Th3(TcB6)4
_chemical_formula_sum   'Ce1 Y4 Th3 Tc4 B24'
_cell_volume   406.87594002
_cell_formula_units_Z   1
loop_
 _symmetry_equiv_pos_site_id
 _symmetry_equiv_pos_as_xyz
  1  'x, y, z'
loop_
 _atom_site_type_symbol
 _atom_site_label
 _atom_site_symmetry_multiplicity
 _atom_site_fract_x
 _atom_site_fract_y
 _atom_site_fract_z
 _atom_site_occupancy
  Ce  Ce0  1  0.000000  0.822896  0.085870  1
  Y  Y1  1  0.000000  0.445121  0.127515  1
  Y  Y2  1  0.000000  0.556220  0.873062  1
  Y  Y3  1  0.000000  0.943942  0.371384  1
  Y  Y4  1  0.000000  0.055545  0.627886  1
  Th  Th5  1  0.000000  0.176438  0.914527  1
  Th  Th6  1  0.000000  0.322778  0.413753  1
  Th  Th7  1  0.000000  0.677130  0.585971  1
  Tc  Tc8  1  0.000000  0.137975  0.179301  1
  Tc  Tc9  1  0.000000  0.860933  0.821259  1
  Tc  Tc10  1  0.000000  0.639483  0.319400  1
  Tc  Tc11  1  0.000000  0.361141  0.679882  1
  B  B12  1  0.500000  0.053997  0.069646  1
  B  B13  1  0.500000  0.943729  0.931694  1
  B  B14  1  0.500000  0.555890  0.429736  1
  B  B15  1  0.500000  0.444375  0.569892  1
  B  B16  1  0.500000  0.248382  0.082740  1
  B  B17  1  0.500000  0.751603  0.919112  1
  B  B18  1  0.500000  0.749048  0.416652  1
  B  B19  1  0.500000  0.251049  0.582706  1
  B  B20  1  0.500000  0.290312  0.233031  1
  B  B21  1  0.500000  0.709758  0.767363  1
  B  B22  1  0.500000  0.791136  0.265310  1
  B  B23  1  0.500000  0.209548  0.733414  1
  B  B24  1  0.500000  0.130207  0.313195  1
  B  B25  1  0.500000  0.869209  0.686667  1
  B  B26  1  0.500000  0.632068  0.185302  1
  B  B27  1  0.500000  0.369358  0.813939  1
  B  B28  1  0.500000  0.485556  0.285939  1
  B  B29  1  0.500000  0.515032  0.713892  1
  B  B30  1  0.500000  0.983623  0.212644  1
  B  B31  1  0.500000  0.014479  0.786938  1
  B  B32  1  0.500000  0.103859  0.471150  1
  B  B33  1  0.500000  0.895939  0.528557  1
  B  B34  1  0.500000  0.607094  0.029531  1
  B  B35  1  0.500000  0.395145  0.971141  1
