# generated using pymatgen
data_Er6Al24FeOs7
_symmetry_space_group_name_H-M   'P 1'
_cell_length_a   8.78659200
_cell_length_b   8.78659297
_cell_length_c   9.49839100
_cell_angle_alpha   90.00000000
_cell_angle_beta   90.00000000
_cell_angle_gamma   119.99999636
_symmetry_Int_Tables_number   1
_chemical_formula_structural   Er6Al24FeOs7
_chemical_formula_sum   'Er6 Al24 Fe1 Os7'
_cell_volume   635.07009117
_cell_formula_units_Z   1
loop_
 _symmetry_equiv_pos_site_id
 _symmetry_equiv_pos_as_xyz
  1  'x, y, z'
loop_
 _atom_site_type_symbol
 _atom_site_label
 _atom_site_symmetry_multiplicity
 _atom_site_fract_x
 _atom_site_fract_y
 _atom_site_fract_z
 _atom_site_occupancy
  Er  Er0  1  0.194291  0.388582  0.249907  1
  Er  Er1  1  0.805709  0.611418  0.750093  1
  Er  Er2  1  0.611418  0.805709  0.249907  1
  Er  Er3  1  0.388582  0.194291  0.750093  1
  Er  Er4  1  0.194291  0.805709  0.249907  1
  Er  Er5  1  0.805709  0.194291  0.750093  1
  Al  Al6  1  0.333333  0.666667  0.014368  1
  Al  Al7  1  0.666667  0.333333  0.985632  1
  Al  Al8  1  0.666667  0.333333  0.515889  1
  Al  Al9  1  0.333333  0.666667  0.484111  1
  Al  Al10  1  0.162056  0.324112  0.576922  1
  Al  Al11  1  0.837944  0.675888  0.423078  1
  Al  Al12  1  0.675888  0.837944  0.576922  1
  Al  Al13  1  0.840989  0.681979  0.075646  1
  Al  Al14  1  0.324112  0.162056  0.423078  1
  Al  Al15  1  0.159011  0.318021  0.924354  1
  Al  Al16  1  0.162056  0.837944  0.576922  1
  Al  Al17  1  0.318021  0.159011  0.075646  1
  Al  Al18  1  0.837944  0.162056  0.423078  1
  Al  Al19  1  0.681979  0.840989  0.924354  1
  Al  Al20  1  0.840989  0.159011  0.075646  1
  Al  Al21  1  0.159011  0.840989  0.924354  1
  Al  Al22  1  0.560237  0.120473  0.249467  1
  Al  Al23  1  0.439763  0.879527  0.750533  1
  Al  Al24  1  0.879527  0.439763  0.249467  1
  Al  Al25  1  0.120473  0.560237  0.750533  1
  Al  Al26  1  0.560237  0.439763  0.249467  1
  Al  Al27  1  0.439763  0.560237  0.750533  1
  Al  Al28  1  0.000000  0.000000  0.242760  1
  Al  Al29  1  0.000000  0.000000  0.757240  1
  Fe  Fe30  1  0.000000  0.000000  0.000000  1
  Os  Os31  1  0.500000  0.000000  0.000000  1
  Os  Os32  1  0.000000  0.500000  0.000000  1
  Os  Os33  1  0.500000  0.000000  0.500000  1
  Os  Os34  1  0.500000  0.500000  0.000000  1
  Os  Os35  1  0.000000  0.500000  0.500000  1
  Os  Os36  1  0.500000  0.500000  0.500000  1
  Os  Os37  1  0.000000  0.000000  0.500000  1
