# generated using pymatgen
data_CaY4Zr3Co15NiAs12
_symmetry_space_group_name_H-M   'P 1'
_cell_length_a   12.75735711
_cell_length_b   12.75443959
_cell_length_c   3.84884000
_cell_angle_alpha   90.00000000
_cell_angle_beta   90.00000000
_cell_angle_gamma   119.99244757
_symmetry_Int_Tables_number   1
_chemical_formula_structural   CaY4Zr3Co15NiAs12
_chemical_formula_sum   'Ca1 Y4 Zr3 Co15 Ni1 As12'
_cell_volume   542.39493980
_cell_formula_units_Z   1
loop_
 _symmetry_equiv_pos_site_id
 _symmetry_equiv_pos_as_xyz
  1  'x, y, z'
loop_
 _atom_site_type_symbol
 _atom_site_label
 _atom_site_symmetry_multiplicity
 _atom_site_fract_x
 _atom_site_fract_y
 _atom_site_fract_z
 _atom_site_occupancy
  Ca  Ca0  1  0.000000  0.816723  0.500000  1
  Y  Y1  1  0.184953  0.184612  0.500000  1
  Y  Y2  1  0.815047  0.999659  0.500000  1
  Y  Y3  1  0.333545  0.666778  0.000000  1
  Y  Y4  1  0.666455  0.333232  0.000000  1
  Zr  Zr5  1  0.561186  0.561344  0.000000  1
  Zr  Zr6  1  0.438814  0.000158  0.000000  1
  Zr  Zr7  1  0.000000  0.439534  0.000000  1
  Co  Co8  1  0.718031  0.719705  0.500000  1
  Co  Co9  1  0.281969  0.001674  0.500000  1
  Co  Co10  1  0.000000  0.280223  0.500000  1
  Co  Co11  1  0.177727  0.373401  0.000000  1
  Co  Co12  1  0.626633  0.804213  0.000000  1
  Co  Co13  1  0.197252  0.821742  0.000000  1
  Co  Co14  1  0.802748  0.624490  0.000000  1
  Co  Co15  1  0.822273  0.195675  0.000000  1
  Co  Co16  1  0.373367  0.177580  0.000000  1
  Co  Co17  1  0.357095  0.479619  0.500000  1
  Co  Co18  1  0.520772  0.878017  0.500000  1
  Co  Co19  1  0.122246  0.641260  0.500000  1
  Co  Co20  1  0.877754  0.519013  0.500000  1
  Co  Co21  1  0.642905  0.122523  0.500000  1
  Co  Co22  1  0.479228  0.357244  0.500000  1
  Ni  Ni23  1  0.000000  0.000873  0.000000  1
  As  As24  1  0.821904  0.820986  0.000000  1
  As  As25  1  0.178096  0.999082  0.000000  1
  As  As26  1  0.000000  0.179034  0.000000  1
  As  As27  1  0.173355  0.481485  0.500000  1
  As  As28  1  0.518177  0.691998  0.500000  1
  As  As29  1  0.307797  0.826367  0.500000  1
  As  As30  1  0.692203  0.518570  0.500000  1
  As  As31  1  0.826645  0.308130  0.500000  1
  As  As32  1  0.481823  0.173821  0.500000  1
  As  As33  1  0.352702  0.352541  0.000000  1
  As  As34  1  0.647298  0.999839  0.000000  1
  As  As35  1  0.000000  0.648856  0.000000  1
