# generated using pymatgen
data_YHoEr4(B7W)2
_symmetry_space_group_name_H-M   'P 1'
_cell_length_a   8.11278888
_cell_length_b   8.11278824
_cell_length_c   9.47009600
_cell_angle_alpha   90.00000000
_cell_angle_beta   90.00000000
_cell_angle_gamma   155.50715260
_symmetry_Int_Tables_number   1
_chemical_formula_structural   YHoEr4(B7W)2
_chemical_formula_sum   'Y1 Ho1 Er4 B14 W2'
_cell_volume   258.40604546
_cell_formula_units_Z   1
loop_
 _symmetry_equiv_pos_site_id
 _symmetry_equiv_pos_as_xyz
  1  'x, y, z'
loop_
 _atom_site_type_symbol
 _atom_site_label
 _atom_site_symmetry_multiplicity
 _atom_site_fract_x
 _atom_site_fract_y
 _atom_site_fract_z
 _atom_site_occupancy
  Y  Y0  1  0.246216  0.753784  0.750000  1
  Ho  Ho1  1  0.754265  0.245735  0.250000  1
  Er  Er2  1  0.892937  0.107063  0.940632  1
  Er  Er3  1  0.107184  0.892816  0.059903  1
  Er  Er4  1  0.892937  0.107063  0.559368  1
  Er  Er5  1  0.107184  0.892816  0.440097  1
  B  B6  1  0.546179  0.453821  0.250000  1
  B  B7  1  0.453708  0.546292  0.750000  1
  B  B8  1  0.519226  0.480774  0.908751  1
  B  B9  1  0.480719  0.519281  0.091386  1
  B  B10  1  0.480719  0.519281  0.408614  1
  B  B11  1  0.519226  0.480774  0.591249  1
  B  B12  1  0.635105  0.364895  0.853607  1
  B  B13  1  0.364789  0.635211  0.147248  1
  B  B14  1  0.727542  0.272458  0.968172  1
  B  B15  1  0.272203  0.727797  0.033553  1
  B  B16  1  0.272203  0.727797  0.466447  1
  B  B17  1  0.727542  0.272458  0.531828  1
  B  B18  1  0.635105  0.364895  0.646393  1
  B  B19  1  0.364789  0.635211  0.352752  1
  W  W20  1  0.052994  0.947006  0.750000  1
  W  W21  1  0.947228  0.052772  0.250000  1
