# generated using pymatgen
data_DyU2Cu2Se7
_symmetry_space_group_name_H-M   'P 1'
_cell_length_a   10.13374586
_cell_length_b   10.18704465
_cell_length_c   6.00161146
_cell_angle_alpha   90.03115112
_cell_angle_beta   89.98656493
_cell_angle_gamma   120.09043231
_symmetry_Int_Tables_number   1
_chemical_formula_structural   DyU2Cu2Se7
_chemical_formula_sum   'Dy2 U4 Cu4 Se14'
_cell_volume   536.06837430
_cell_formula_units_Z   2
loop_
 _symmetry_equiv_pos_site_id
 _symmetry_equiv_pos_as_xyz
  1  'x, y, z'
loop_
 _atom_site_type_symbol
 _atom_site_label
 _atom_site_symmetry_multiplicity
 _atom_site_fract_x
 _atom_site_fract_y
 _atom_site_fract_z
 _atom_site_occupancy
  Dy  Dy0  1  0.153231  0.378187  0.031392  1
  Dy  Dy1  1  0.846915  0.622001  0.531202  1
  U  U2  1  0.622102  0.772378  0.024570  1
  U  U3  1  0.224386  0.844019  0.024237  1
  U  U4  1  0.774861  0.155751  0.525131  1
  U  U5  1  0.377881  0.227649  0.524718  1
  Cu  Cu6  1  0.334819  0.669326  0.657469  1
  Cu  Cu7  1  0.665092  0.330788  0.158094  1
  Cu  Cu8  1  0.001221  0.000214  0.999259  1
  Cu  Cu9  1  0.999077  0.999700  0.499275  1
  Se  Se10  1  0.336274  0.671143  0.253662  1
  Se  Se11  1  0.663665  0.329198  0.754257  1
  Se  Se12  1  0.267321  0.150655  0.009406  1
  Se  Se13  1  0.732953  0.849446  0.509321  1
  Se  Se14  1  0.842736  0.106055  0.010514  1
  Se  Se15  1  0.889065  0.736445  0.012536  1
  Se  Se16  1  0.111086  0.263374  0.512750  1
  Se  Se17  1  0.157554  0.893857  0.510255  1
  Se  Se18  1  0.511662  0.076405  0.284015  1
  Se  Se19  1  0.488255  0.923682  0.784003  1
  Se  Se20  1  0.920775  0.432051  0.284476  1
  Se  Se21  1  0.561222  0.485327  0.278912  1
  Se  Se22  1  0.438801  0.514825  0.778784  1
  Se  Se23  1  0.079047  0.567531  0.783961  1
