# generated using pymatgen
data_Dy3Th(NiB10)2
_symmetry_space_group_name_H-M   'P 1'
_cell_length_a   4.15110900
_cell_length_b   5.57173786
_cell_length_c   11.12365254
_cell_angle_alpha   90.13413050
_cell_angle_beta   90.00000000
_cell_angle_gamma   90.00000000
_symmetry_Int_Tables_number   1
_chemical_formula_structural   Dy3Th(NiB10)2
_chemical_formula_sum   'Dy3 Th1 Ni2 B20'
_cell_volume   257.27704397
_cell_formula_units_Z   1
loop_
 _symmetry_equiv_pos_site_id
 _symmetry_equiv_pos_as_xyz
  1  'x, y, z'
loop_
 _atom_site_type_symbol
 _atom_site_label
 _atom_site_symmetry_multiplicity
 _atom_site_fract_x
 _atom_site_fract_y
 _atom_site_fract_z
 _atom_site_occupancy
  Dy  Dy0  1  0.500000  0.313682  0.863259  1
  Dy  Dy1  1  0.500000  0.688885  0.134553  1
  Dy  Dy2  1  0.500000  0.812549  0.639676  1
  Th  Th3  1  0.500000  0.187884  0.362511  1
  Ni  Ni4  1  0.000000  0.500115  0.501133  1
  Ni  Ni5  1  0.000000  0.999936  0.999619  1
  B  B6  1  0.000000  0.124604  0.542327  1
  B  B7  1  0.000000  0.873131  0.459849  1
  B  B8  1  0.000000  0.625695  0.958698  1
  B  B9  1  0.000000  0.374587  0.039658  1
  B  B10  1  0.000000  0.158419  0.699678  1
  B  B11  1  0.000000  0.844073  0.302287  1
  B  B12  1  0.301120  0.202179  0.112647  1
  B  B13  1  0.301373  0.798344  0.885393  1
  B  B14  1  0.698845  0.698645  0.385111  1
  B  B15  1  0.698304  0.297026  0.615612  1
  B  B16  1  0.698627  0.798344  0.885393  1
  B  B17  1  0.698880  0.202179  0.112647  1
  B  B18  1  0.301696  0.297026  0.615612  1
  B  B19  1  0.301155  0.698645  0.385111  1
  B  B20  1  0.000000  0.031516  0.186628  1
  B  B21  1  0.000000  0.969776  0.813769  1
  B  B22  1  0.000000  0.531491  0.312635  1
  B  B23  1  0.000000  0.469451  0.687586  1
  B  B24  1  0.000000  0.343825  0.196532  1
  B  B25  1  0.000000  0.657991  0.802071  1
