# generated using pymatgen
data_Al3CuPd7Pt
_symmetry_space_group_name_H-M   'P 1'
_cell_length_a   4.10673400
_cell_length_b   5.43185633
_cell_length_c   7.87513943
_cell_angle_alpha   90.18173841
_cell_angle_beta   90.00000000
_cell_angle_gamma   90.00000000
_symmetry_Int_Tables_number   1
_chemical_formula_structural   Al3CuPd7Pt
_chemical_formula_sum   'Al3 Cu1 Pd7 Pt1'
_cell_volume   175.67134061
_cell_formula_units_Z   1
loop_
 _symmetry_equiv_pos_site_id
 _symmetry_equiv_pos_as_xyz
  1  'x, y, z'
loop_
 _atom_site_type_symbol
 _atom_site_label
 _atom_site_symmetry_multiplicity
 _atom_site_fract_x
 _atom_site_fract_y
 _atom_site_fract_z
 _atom_site_occupancy
  Al  Al0  1  0.250000  0.180455  0.096044  1
  Al  Al1  1  0.750000  0.308454  0.604798  1
  Al  Al2  1  0.250000  0.685309  0.398365  1
  Cu  Cu3  1  0.750000  0.820021  0.899227  1
  Pd  Pd4  1  0.250000  0.546727  0.718383  1
  Pd  Pd5  1  0.750000  0.961149  0.218416  1
  Pd  Pd6  1  0.250000  0.047855  0.777558  1
  Pd  Pd7  1  0.750000  0.333754  0.933140  1
  Pd  Pd8  1  0.250000  0.662230  0.071913  1
  Pd  Pd9  1  0.750000  0.831584  0.566134  1
  Pd  Pd10  1  0.250000  0.162520  0.430548  1
  Pt  Pt11  1  0.750000  0.459943  0.285473  1
