# generated using pymatgen
data_Dy8Ti9Nb2Si16Pt
_symmetry_space_group_name_H-M   'P 1'
_cell_length_a   7.05140820
_cell_length_b   7.04414219
_cell_length_c   12.87952910
_cell_angle_alpha   89.76046072
_cell_angle_beta   90.23253762
_cell_angle_gamma   89.70372800
_symmetry_Int_Tables_number   1
_chemical_formula_structural   Dy8Ti9Nb2Si16Pt
_chemical_formula_sum   'Dy8 Ti9 Nb2 Si16 Pt1'
_cell_volume   639.72119221
_cell_formula_units_Z   1
loop_
 _symmetry_equiv_pos_site_id
 _symmetry_equiv_pos_as_xyz
  1  'x, y, z'
loop_
 _atom_site_type_symbol
 _atom_site_label
 _atom_site_symmetry_multiplicity
 _atom_site_fract_x
 _atom_site_fract_y
 _atom_site_fract_z
 _atom_site_occupancy
  Dy  Dy0  1  0.997883  0.659017  0.032291  1
  Dy  Dy1  1  0.001366  0.342125  0.531343  1
  Dy  Dy2  1  0.659105  0.997544  0.967530  1
  Dy  Dy3  1  0.158498  0.502914  0.782317  1
  Dy  Dy4  1  0.842552  0.498013  0.285590  1
  Dy  Dy5  1  0.503005  0.159043  0.217656  1
  Dy  Dy6  1  0.498487  0.841988  0.714526  1
  Dy  Dy7  1  0.342952  0.999922  0.468685  1
  Ti  Ti8  1  0.851201  0.996428  0.376681  1
  Ti  Ti9  1  0.007958  0.151499  0.125004  1
  Ti  Ti10  1  0.995797  0.851342  0.623218  1
  Ti  Ti11  1  0.506169  0.345780  0.623639  1
  Ti  Ti12  1  0.151875  0.008608  0.875276  1
  Ti  Ti13  1  0.824613  0.173407  0.748320  1
  Ti  Ti14  1  0.174058  0.823901  0.251920  1
  Ti  Ti15  1  0.492114  0.648822  0.126465  1
  Ti  Ti16  1  0.648921  0.492074  0.872917  1
  Nb  Nb17  1  0.345551  0.507000  0.375889  1
  Nb  Nb18  1  0.327651  0.327491  0.999893  1
  Si  Si19  1  0.051712  0.715493  0.437095  1
  Si  Si20  1  0.951236  0.290922  0.934595  1
  Si  Si21  1  0.713306  0.054791  0.564577  1
  Si  Si22  1  0.206095  0.453595  0.185611  1
  Si  Si23  1  0.789926  0.549800  0.684370  1
  Si  Si24  1  0.453761  0.207400  0.813698  1
  Si  Si25  1  0.550634  0.791824  0.315243  1
  Si  Si26  1  0.290883  0.950855  0.065244  1
  Si  Si27  1  0.798501  0.866960  0.185266  1
  Si  Si28  1  0.288825  0.627597  0.567982  1
  Si  Si29  1  0.704832  0.369711  0.065671  1
  Si  Si30  1  0.628836  0.289594  0.432192  1
  Si  Si31  1  0.369788  0.705099  0.933806  1
  Si  Si32  1  0.131549  0.201395  0.316413  1
  Si  Si33  1  0.201672  0.131810  0.683746  1
  Si  Si34  1  0.867398  0.798341  0.814401  1
  Pt  Pt35  1  0.671287  0.667890  0.500928  1
