# generated using pymatgen
data_EuVSiO5
_symmetry_space_group_name_H-M   'P 1'
_cell_length_a   8.95596400
_cell_length_b   6.71905631
_cell_length_c   7.09837619
_cell_angle_alpha   66.99997753
_cell_angle_beta   90.00000000
_cell_angle_gamma   90.00000000
_symmetry_Int_Tables_number   1
_chemical_formula_structural   EuVSiO5
_chemical_formula_sum   'Eu4 V4 Si4 O20'
_cell_volume   393.19287722
_cell_formula_units_Z   4
loop_
 _symmetry_equiv_pos_site_id
 _symmetry_equiv_pos_as_xyz
  1  'x, y, z'
loop_
 _atom_site_type_symbol
 _atom_site_label
 _atom_site_symmetry_multiplicity
 _atom_site_fract_x
 _atom_site_fract_y
 _atom_site_fract_z
 _atom_site_occupancy
  Eu  Eu0  1  0.921736  0.250658  0.250513  1
  Eu  Eu1  1  0.578264  0.250658  0.750513  1
  Eu  Eu2  1  0.421736  0.749342  0.249487  1
  Eu  Eu3  1  0.078264  0.749342  0.749487  1
  V  V4  1  0.249954  0.249898  0.500376  1
  V  V5  1  0.750046  0.750102  0.499624  1
  V  V6  1  0.250046  0.249898  0.000376  1
  V  V7  1  0.749954  0.750102  0.999624  1
  Si  Si8  1  0.069812  0.750302  0.249750  1
  Si  Si9  1  0.569812  0.249698  0.250250  1
  Si  Si10  1  0.930188  0.249698  0.750250  1
  Si  Si11  1  0.430188  0.750302  0.749750  1
  O  O12  1  0.465971  0.147654  0.116530  1
  O  O13  1  0.965971  0.852346  0.383470  1
  O  O14  1  0.534029  0.852346  0.883470  1
  O  O15  1  0.034029  0.147654  0.616530  1
  O  O16  1  0.033780  0.351496  0.884484  1
  O  O17  1  0.533780  0.648504  0.615516  1
  O  O18  1  0.966220  0.648504  0.115516  1
  O  O19  1  0.466220  0.351496  0.384484  1
  O  O20  1  0.315526  0.932057  0.591479  1
  O  O21  1  0.815526  0.067943  0.908521  1
  O  O22  1  0.684474  0.067943  0.408521  1
  O  O23  1  0.184474  0.932057  0.091479  1
  O  O24  1  0.314503  0.250158  0.750358  1
  O  O25  1  0.814503  0.749842  0.749642  1
  O  O26  1  0.685497  0.749842  0.249642  1
  O  O27  1  0.185497  0.250158  0.250358  1
  O  O28  1  0.315958  0.568265  0.908843  1
  O  O29  1  0.815958  0.431735  0.591157  1
  O  O30  1  0.684042  0.431735  0.091157  1
  O  O31  1  0.184042  0.568265  0.408843  1
