# generated using pymatgen
data_TbHo11TcOs3
_symmetry_space_group_name_H-M   'P 1'
_cell_length_a   6.29281493
_cell_length_b   7.39346355
_cell_length_c   9.03193300
_cell_angle_alpha   90.00000000
_cell_angle_beta   90.00000000
_cell_angle_gamma   90.00593806
_symmetry_Int_Tables_number   1
_chemical_formula_structural   TbHo11TcOs3
_chemical_formula_sum   'Tb1 Ho11 Tc1 Os3'
_cell_volume   420.21698372
_cell_formula_units_Z   1
loop_
 _symmetry_equiv_pos_site_id
 _symmetry_equiv_pos_as_xyz
  1  'x, y, z'
loop_
 _atom_site_type_symbol
 _atom_site_label
 _atom_site_symmetry_multiplicity
 _atom_site_fract_x
 _atom_site_fract_y
 _atom_site_fract_z
 _atom_site_occupancy
  Tb  Tb0  1  0.872333  0.540311  0.250000  1
  Ho  Ho1  1  0.336303  0.675255  0.062385  1
  Ho  Ho2  1  0.165945  0.175382  0.437165  1
  Ho  Ho3  1  0.666915  0.323610  0.562833  1
  Ho  Ho4  1  0.834285  0.825189  0.936630  1
  Ho  Ho5  1  0.666915  0.323610  0.937167  1
  Ho  Ho6  1  0.834285  0.825189  0.563370  1
  Ho  Ho7  1  0.336303  0.675255  0.437615  1
  Ho  Ho8  1  0.165945  0.175382  0.062835  1
  Ho  Ho9  1  0.625286  0.040249  0.250000  1
  Ho  Ho10  1  0.130365  0.458977  0.750000  1
  Ho  Ho11  1  0.369135  0.959894  0.750000  1
  Tc  Tc12  1  0.037643  0.883529  0.250000  1
  Os  Os13  1  0.459142  0.382494  0.250000  1
  Os  Os14  1  0.959950  0.118406  0.750000  1
  Os  Os15  1  0.539247  0.617265  0.750000  1
