# generated using pymatgen
data_Tm5Lu5InSb5
_symmetry_space_group_name_H-M   'P 1'
_cell_length_a   8.81804400
_cell_length_b   8.81286990
_cell_length_c   6.26383300
_cell_angle_alpha   90.00000000
_cell_angle_beta   90.00000000
_cell_angle_gamma   120.01942324
_symmetry_Int_Tables_number   1
_chemical_formula_structural   Tm5Lu5InSb5
_chemical_formula_sum   'Tm5 Lu5 In1 Sb5'
_cell_volume   421.47846413
_cell_formula_units_Z   1
loop_
 _symmetry_equiv_pos_site_id
 _symmetry_equiv_pos_as_xyz
  1  'x, y, z'
loop_
 _atom_site_type_symbol
 _atom_site_label
 _atom_site_symmetry_multiplicity
 _atom_site_fract_x
 _atom_site_fract_y
 _atom_site_fract_z
 _atom_site_occupancy
  Tm  Tm0  1  0.242348  0.000000  0.250000  1
  Tm  Tm1  1  0.996180  0.240228  0.250000  1
  Tm  Tm2  1  0.755952  0.759772  0.250000  1
  Tm  Tm3  1  0.244321  0.242611  0.750000  1
  Tm  Tm4  1  0.001710  0.757389  0.750000  1
  Lu  Lu5  1  0.335169  0.669049  0.999914  1
  Lu  Lu6  1  0.666119  0.330951  0.500086  1
  Lu  Lu7  1  0.666119  0.330951  0.999914  1
  Lu  Lu8  1  0.335169  0.669049  0.500086  1
  Lu  Lu9  1  0.758197  0.000000  0.750000  1
  In  In10  1  0.604924  0.000000  0.250000  1
  Sb  Sb11  1  0.392945  0.000000  0.750000  1
  Sb  Sb12  1  0.999080  0.608681  0.250000  1
  Sb  Sb13  1  0.390399  0.391319  0.250000  1
  Sb  Sb14  1  0.610032  0.608695  0.750000  1
  Sb  Sb15  1  0.001337  0.391305  0.750000  1
