# generated using pymatgen
data_Ho3AlIn2Ga2Pd
_symmetry_space_group_name_H-M   'P 1'
_cell_length_a   7.17157515
_cell_length_b   7.17157548
_cell_length_c   4.38851600
_cell_angle_alpha   90.00000000
_cell_angle_beta   90.00000000
_cell_angle_gamma   120.96093365
_symmetry_Int_Tables_number   1
_chemical_formula_structural   Ho3AlIn2Ga2Pd
_chemical_formula_sum   'Ho3 Al1 In2 Ga2 Pd1'
_cell_volume   193.54867235
_cell_formula_units_Z   1
loop_
 _symmetry_equiv_pos_site_id
 _symmetry_equiv_pos_as_xyz
  1  'x, y, z'
loop_
 _atom_site_type_symbol
 _atom_site_label
 _atom_site_symmetry_multiplicity
 _atom_site_fract_x
 _atom_site_fract_y
 _atom_site_fract_z
 _atom_site_occupancy
  Ho  Ho0  1  0.000914  0.586025  0.000000  1
  Ho  Ho1  1  0.421719  0.421719  0.000000  1
  Ho  Ho2  1  0.586025  0.000914  0.000000  1
  Al  Al3  1  0.759498  0.759498  0.500000  1
  In  In4  1  0.995355  0.244062  0.500000  1
  In  In5  1  0.244062  0.995355  0.500000  1
  Ga  Ga6  1  0.347331  0.668316  0.500000  1
  Ga  Ga7  1  0.668316  0.347331  0.500000  1
  Pd  Pd8  1  0.976781  0.976781  0.000000  1
