# generated using pymatgen
data_TbHoTm2(B6Os)2
_symmetry_space_group_name_H-M   'P 1'
_cell_length_a   3.63485200
_cell_length_b   9.10828200
_cell_length_c   11.49708800
_cell_angle_alpha   90.00280315
_cell_angle_beta   90.00000000
_cell_angle_gamma   90.00000000
_symmetry_Int_Tables_number   1
_chemical_formula_structural   TbHoTm2(B6Os)2
_chemical_formula_sum   'Tb2 Ho2 Tm4 B24 Os4'
_cell_volume   380.63704745
_cell_formula_units_Z   2
loop_
 _symmetry_equiv_pos_site_id
 _symmetry_equiv_pos_as_xyz
  1  'x, y, z'
loop_
 _atom_site_type_symbol
 _atom_site_label
 _atom_site_symmetry_multiplicity
 _atom_site_fract_x
 _atom_site_fract_y
 _atom_site_fract_z
 _atom_site_occupancy
  Tb  Tb0  1  0.000000  0.321777  0.413870  1
  Tb  Tb1  1  0.000000  0.678223  0.586130  1
  Ho  Ho2  1  0.000000  0.821649  0.085898  1
  Ho  Ho3  1  0.000000  0.178351  0.914102  1
  Tm  Tm4  1  0.000000  0.944010  0.372747  1
  Tm  Tm5  1  0.000000  0.055990  0.627254  1
  Tm  Tm6  1  0.000000  0.443957  0.126781  1
  Tm  Tm7  1  0.000000  0.556043  0.873218  1
  B  B8  1  0.500000  0.554358  0.432592  1
  B  B9  1  0.500000  0.445642  0.567408  1
  B  B10  1  0.500000  0.053937  0.066727  1
  B  B11  1  0.500000  0.946063  0.933273  1
  B  B12  1  0.500000  0.749131  0.419238  1
  B  B13  1  0.500000  0.250869  0.580762  1
  B  B14  1  0.500000  0.248742  0.080034  1
  B  B15  1  0.500000  0.751258  0.919966  1
  B  B16  1  0.500000  0.791742  0.265821  1
  B  B17  1  0.500000  0.208258  0.734179  1
  B  B18  1  0.500000  0.291283  0.233347  1
  B  B19  1  0.500000  0.708716  0.766653  1
  B  B20  1  0.500000  0.631313  0.184509  1
  B  B21  1  0.500000  0.368687  0.815491  1
  B  B22  1  0.500000  0.130813  0.314846  1
  B  B23  1  0.500000  0.869187  0.685154  1
  B  B24  1  0.500000  0.982397  0.213112  1
  B  B25  1  0.500000  0.017603  0.786888  1
  B  B26  1  0.500000  0.482982  0.286199  1
  B  B27  1  0.500000  0.517018  0.713801  1
  B  B28  1  0.500000  0.605802  0.029203  1
  B  B29  1  0.500000  0.394198  0.970797  1
  B  B30  1  0.500000  0.104690  0.471063  1
  B  B31  1  0.500000  0.895310  0.528937  1
  Os  Os32  1  0.000000  0.638200  0.320289  1
  Os  Os33  1  0.000000  0.361800  0.679711  1
  Os  Os34  1  0.000000  0.137371  0.178789  1
  Os  Os35  1  0.000000  0.862629  0.821211  1
