# generated using pymatgen
data_Dy11Th8MgSn16
_symmetry_space_group_name_H-M   'P 1'
_cell_length_a   8.13254500
_cell_length_b   8.23314401
_cell_length_c   15.55468700
_cell_angle_alpha   90.00000000
_cell_angle_beta   90.00000000
_cell_angle_gamma   89.99781482
_symmetry_Int_Tables_number   1
_chemical_formula_structural   Dy11Th8MgSn16
_chemical_formula_sum   'Dy11 Th8 Mg1 Sn16'
_cell_volume   1041.48606352
_cell_formula_units_Z   1
loop_
 _symmetry_equiv_pos_site_id
 _symmetry_equiv_pos_as_xyz
  1  'x, y, z'
loop_
 _atom_site_type_symbol
 _atom_site_label
 _atom_site_symmetry_multiplicity
 _atom_site_fract_x
 _atom_site_fract_y
 _atom_site_fract_z
 _atom_site_occupancy
  Dy  Dy0  1  0.361890  0.834901  0.876569  1
  Dy  Dy1  1  0.860988  0.663252  0.623488  1
  Dy  Dy2  1  0.632699  0.162856  0.375866  1
  Dy  Dy3  1  0.142107  0.332783  0.123644  1
  Dy  Dy4  1  0.632699  0.162856  0.124134  1
  Dy  Dy5  1  0.142107  0.332783  0.376356  1
  Dy  Dy6  1  0.361890  0.834901  0.623431  1
  Dy  Dy7  1  0.860988  0.663252  0.876512  1
  Dy  Dy8  1  0.189457  0.497480  0.750000  1
  Dy  Dy9  1  0.690889  0.002883  0.750000  1
  Dy  Dy10  1  0.811474  0.501222  0.250000  1
  Th  Th11  1  0.516168  0.319451  0.905425  1
  Th  Th12  1  0.016416  0.179022  0.595911  1
  Th  Th13  1  0.482464  0.680754  0.403514  1
  Th  Th14  1  0.985582  0.822698  0.096479  1
  Th  Th15  1  0.482464  0.680754  0.096486  1
  Th  Th16  1  0.985582  0.822698  0.403521  1
  Th  Th17  1  0.516168  0.319451  0.594575  1
  Th  Th18  1  0.016416  0.179022  0.904089  1
  Mg  Mg19  1  0.305322  0.000051  0.250000  1
  Sn  Sn20  1  0.299265  0.040020  0.040162  1
  Sn  Sn21  1  0.799388  0.461682  0.456957  1
  Sn  Sn22  1  0.701717  0.960378  0.541171  1
  Sn  Sn23  1  0.200649  0.538801  0.959018  1
  Sn  Sn24  1  0.701717  0.960378  0.958829  1
  Sn  Sn25  1  0.200649  0.538801  0.540982  1
  Sn  Sn26  1  0.299265  0.040020  0.459838  1
  Sn  Sn27  1  0.799388  0.461682  0.043043  1
  Sn  Sn28  1  0.556964  0.620761  0.750000  1
  Sn  Sn29  1  0.057761  0.879065  0.750000  1
  Sn  Sn30  1  0.442920  0.388037  0.250000  1
  Sn  Sn31  1  0.939695  0.120179  0.250000  1
  Sn  Sn32  1  0.324296  0.142072  0.750000  1
  Sn  Sn33  1  0.823027  0.356962  0.750000  1
  Sn  Sn34  1  0.683529  0.856924  0.250000  1
  Sn  Sn35  1  0.176000  0.641172  0.250000  1
