# generated using pymatgen
data_Lu8ReTc11Ge16
_symmetry_space_group_name_H-M   'P 1'
_cell_length_a   6.91277325
_cell_length_b   6.91277319
_cell_length_c   12.89079600
_cell_angle_alpha   89.98472449
_cell_angle_beta   89.98472449
_cell_angle_gamma   90.02988387
_symmetry_Int_Tables_number   1
_chemical_formula_structural   Lu8ReTc11Ge16
_chemical_formula_sum   'Lu8 Re1 Tc11 Ge16'
_cell_volume   616.00503867
_cell_formula_units_Z   1
loop_
 _symmetry_equiv_pos_site_id
 _symmetry_equiv_pos_as_xyz
  1  'x, y, z'
loop_
 _atom_site_type_symbol
 _atom_site_label
 _atom_site_symmetry_multiplicity
 _atom_site_fract_x
 _atom_site_fract_y
 _atom_site_fract_z
 _atom_site_occupancy
  Lu  Lu0  1  0.005851  0.658286  0.027997  1
  Lu  Lu1  1  0.993485  0.341606  0.528263  1
  Lu  Lu2  1  0.341714  0.994149  0.472003  1
  Lu  Lu3  1  0.157690  0.493625  0.777631  1
  Lu  Lu4  1  0.841977  0.505988  0.277922  1
  Lu  Lu5  1  0.494012  0.158023  0.222078  1
  Lu  Lu6  1  0.506375  0.842310  0.722369  1
  Lu  Lu7  1  0.658394  0.006515  0.971737  1
  Re  Re8  1  0.834696  0.165304  0.750000  1
  Tc  Tc9  1  0.665199  0.665046  0.500330  1
  Tc  Tc10  1  0.165012  0.834988  0.250000  1
  Tc  Tc11  1  0.334954  0.334801  0.999670  1
  Tc  Tc12  1  0.021971  0.812414  0.628298  1
  Tc  Tc13  1  0.977624  0.187060  0.128787  1
  Tc  Tc14  1  0.812940  0.022376  0.371213  1
  Tc  Tc15  1  0.313886  0.478663  0.378195  1
  Tc  Tc16  1  0.688013  0.522425  0.878969  1
  Tc  Tc17  1  0.477575  0.311987  0.621031  1
  Tc  Tc18  1  0.521337  0.686114  0.121805  1
  Tc  Tc19  1  0.187586  0.978029  0.871702  1
  Ge  Ge20  1  0.020480  0.724571  0.434022  1
  Ge  Ge21  1  0.616473  0.311467  0.431669  1
  Ge  Ge22  1  0.383740  0.688368  0.931744  1
  Ge  Ge23  1  0.188999  0.115866  0.681312  1
  Ge  Ge24  1  0.311632  0.616260  0.568256  1
  Ge  Ge25  1  0.688533  0.383527  0.068331  1
  Ge  Ge26  1  0.811281  0.883319  0.181667  1
  Ge  Ge27  1  0.116681  0.188719  0.318333  1
  Ge  Ge28  1  0.979777  0.275479  0.934221  1
  Ge  Ge29  1  0.724521  0.020223  0.565779  1
  Ge  Ge30  1  0.223937  0.479314  0.183997  1
  Ge  Ge31  1  0.774360  0.520956  0.684021  1
  Ge  Ge32  1  0.479044  0.225640  0.815979  1
  Ge  Ge33  1  0.520686  0.776063  0.316003  1
  Ge  Ge34  1  0.275429  0.979520  0.065978  1
  Ge  Ge35  1  0.884134  0.811001  0.818688  1
