# generated using pymatgen
data_Co3TeBrO8
_symmetry_space_group_name_H-M   'P 1'
_cell_length_a   5.83507760
_cell_length_b   6.80798074
_cell_length_c   5.83735915
_cell_angle_alpha   67.99901364
_cell_angle_beta   119.98447756
_cell_angle_gamma   86.87472761
_symmetry_Int_Tables_number   1
_chemical_formula_structural   Co3TeBrO8
_chemical_formula_sum   'Co3 Te1 Br1 O8'
_cell_volume   177.58957157
_cell_formula_units_Z   1
loop_
 _symmetry_equiv_pos_site_id
 _symmetry_equiv_pos_as_xyz
  1  'x, y, z'
loop_
 _atom_site_type_symbol
 _atom_site_label
 _atom_site_symmetry_multiplicity
 _atom_site_fract_x
 _atom_site_fract_y
 _atom_site_fract_z
 _atom_site_occupancy
  Co  Co0  1  0.000000  0.000000  0.500000  1
  Co  Co1  1  0.000000  0.000000  0.000000  1
  Co  Co2  1  0.500000  0.000000  0.000000  1
  Te  Te3  1  0.500000  0.000000  0.500000  1
  Br  Br4  1  0.000000  0.500000  0.500000  1
  O  O5  1  0.391975  0.835650  0.772491  1
  O  O6  1  0.608025  0.164350  0.227509  1
  O  O7  1  0.892184  0.841592  0.266326  1
  O  O8  1  0.107816  0.158408  0.733674  1
  O  O9  1  0.902448  0.836504  0.772397  1
  O  O10  1  0.391244  0.836525  0.261240  1
  O  O11  1  0.097552  0.163496  0.227603  1
  O  O12  1  0.608756  0.163475  0.738760  1
