# generated using pymatgen
data_Zr10Be2(InTe)3
_symmetry_space_group_name_H-M   'P 1'
_cell_length_a   8.62105800
_cell_length_b   8.62105866
_cell_length_c   5.81340000
_cell_angle_alpha   90.00000000
_cell_angle_beta   90.00000000
_cell_angle_gamma   119.99999746
_symmetry_Int_Tables_number   1
_chemical_formula_structural   Zr10Be2(InTe)3
_chemical_formula_sum   'Zr10 Be2 In3 Te3'
_cell_volume   374.18124553
_cell_formula_units_Z   1
loop_
 _symmetry_equiv_pos_site_id
 _symmetry_equiv_pos_as_xyz
  1  'x, y, z'
loop_
 _atom_site_type_symbol
 _atom_site_label
 _atom_site_symmetry_multiplicity
 _atom_site_fract_x
 _atom_site_fract_y
 _atom_site_fract_z
 _atom_site_occupancy
  Zr  Zr0  1  0.759338  0.759338  0.250000  1
  Zr  Zr1  1  0.240662  0.000000  0.250000  1
  Zr  Zr2  1  0.000000  0.240662  0.250000  1
  Zr  Zr3  1  0.264076  0.264076  0.750000  1
  Zr  Zr4  1  0.735924  0.000000  0.750000  1
  Zr  Zr5  1  0.000000  0.735924  0.750000  1
  Zr  Zr6  1  0.666667  0.333333  0.504901  1
  Zr  Zr7  1  0.333333  0.666667  0.504901  1
  Zr  Zr8  1  0.333333  0.666667  0.995099  1
  Zr  Zr9  1  0.666667  0.333333  0.995099  1
  Be  Be10  1  0.000000  0.000000  0.538709  1
  Be  Be11  1  0.000000  0.000000  0.961291  1
  In  In12  1  0.618220  0.618220  0.750000  1
  In  In13  1  0.381780  0.000000  0.750000  1
  In  In14  1  0.000000  0.381780  0.750000  1
  Te  Te15  1  0.396082  0.396082  0.250000  1
  Te  Te16  1  0.603918  0.000000  0.250000  1
  Te  Te17  1  0.000000  0.603918  0.250000  1
