# generated using pymatgen
data_Cr2Te2(PbO4)3
_symmetry_space_group_name_H-M   'P 1'
_cell_length_a   9.25425641
_cell_length_b   9.25407084
_cell_length_c   7.31219522
_cell_angle_alpha   78.49961330
_cell_angle_beta   78.49993542
_cell_angle_gamma   114.51011274
_symmetry_Int_Tables_number   1
_chemical_formula_structural   Cr2Te2(PbO4)3
_chemical_formula_sum   'Cr4 Te4 Pb6 O24'
_cell_volume   529.66592325
_cell_formula_units_Z   2
loop_
 _symmetry_equiv_pos_site_id
 _symmetry_equiv_pos_as_xyz
  1  'x, y, z'
loop_
 _atom_site_type_symbol
 _atom_site_label
 _atom_site_symmetry_multiplicity
 _atom_site_fract_x
 _atom_site_fract_y
 _atom_site_fract_z
 _atom_site_occupancy
  Cr  Cr0  1  0.479555  0.475995  0.871522  1
  Cr  Cr1  1  0.476008  0.479542  0.371484  1
  Cr  Cr2  1  0.824426  0.146135  0.331579  1
  Cr  Cr3  1  0.146168  0.824470  0.831554  1
  Te  Te4  1  0.090548  0.099970  0.603971  1
  Te  Te5  1  0.099957  0.090541  0.103970  1
  Te  Te6  1  0.755616  0.429502  0.134562  1
  Te  Te7  1  0.429528  0.755640  0.634569  1
  Pb  Pb8  1  0.696800  0.828818  0.992770  1
  Pb  Pb9  1  0.828764  0.696792  0.492874  1
  Pb  Pb10  1  0.027971  0.408988  0.759800  1
  Pb  Pb11  1  0.408843  0.027730  0.259869  1
  Pb  Pb12  1  0.551144  0.198773  0.684827  1
  Pb  Pb13  1  0.198737  0.551077  0.184847  1
  O  O14  1  0.294101  0.521265  0.809907  1
  O  O15  1  0.521243  0.294058  0.309886  1
  O  O16  1  0.572518  0.994162  0.482745  1
  O  O17  1  0.994170  0.572552  0.982776  1
  O  O18  1  0.062412  0.273373  0.158490  1
  O  O19  1  0.273380  0.062442  0.658490  1
  O  O20  1  0.142332  0.036267  0.363543  1
  O  O21  1  0.036300  0.142376  0.863516  1
  O  O22  1  0.338139  0.225465  0.989218  1
  O  O23  1  0.225480  0.338150  0.489220  1
  O  O24  1  0.758648  0.226998  0.091791  1
  O  O25  1  0.227007  0.758663  0.591780  1
  O  O26  1  0.548448  0.448542  0.608032  1
  O  O27  1  0.448522  0.548441  0.108030  1
  O  O28  1  0.892741  0.108928  0.579014  1
  O  O29  1  0.108932  0.892741  0.078999  1
  O  O30  1  0.612463  0.729758  0.712739  1
  O  O31  1  0.729734  0.612463  0.212714  1
  O  O32  1  0.692796  0.469130  0.899289  1
  O  O33  1  0.469118  0.692800  0.399313  1
  O  O34  1  0.859672  0.960527  0.255282  1
  O  O35  1  0.960536  0.859688  0.755283  1
  O  O36  1  0.819680  0.359073  0.367658  1
  O  O37  1  0.359085  0.819682  0.867644  1
