# generated using pymatgen
data_PdRhBr18
_symmetry_space_group_name_H-M   'P 1'
_cell_length_a   9.28836790
_cell_length_b   9.04187917
_cell_length_c   9.08298880
_cell_angle_alpha   91.98844162
_cell_angle_beta   89.84072335
_cell_angle_gamma   92.20412258
_symmetry_Int_Tables_number   1
_chemical_formula_structural   PdRhBr18
_chemical_formula_sum   'Pd1 Rh1 Br18'
_cell_volume   761.80428453
_cell_formula_units_Z   1
loop_
 _symmetry_equiv_pos_site_id
 _symmetry_equiv_pos_as_xyz
  1  'x, y, z'
loop_
 _atom_site_type_symbol
 _atom_site_label
 _atom_site_symmetry_multiplicity
 _atom_site_fract_x
 _atom_site_fract_y
 _atom_site_fract_z
 _atom_site_occupancy
  Pd  Pd0  1  0.500000  0.500000  0.500000  1
  Rh  Rh1  1  0.000000  0.000000  0.000000  1
  Br  Br2  1  0.792560  0.470946  0.527686  1
  Br  Br3  1  0.523416  0.776284  0.477419  1
  Br  Br4  1  0.472437  0.524059  0.776196  1
  Br  Br5  1  0.207440  0.529054  0.472314  1
  Br  Br6  1  0.476584  0.223716  0.522581  1
  Br  Br7  1  0.527563  0.475941  0.223804  1
  Br  Br8  1  0.897849  0.369888  0.755496  1
  Br  Br9  1  0.758740  0.885676  0.369055  1
  Br  Br10  1  0.362910  0.760710  0.884396  1
  Br  Br11  1  0.102151  0.630112  0.244504  1
  Br  Br12  1  0.241260  0.114324  0.630945  1
  Br  Br13  1  0.637090  0.239290  0.115604  1
  Br  Br14  1  0.021776  0.965450  0.726291  1
  Br  Br15  1  0.733103  0.015094  0.970287  1
  Br  Br16  1  0.964157  0.724181  0.014146  1
  Br  Br17  1  0.978224  0.034550  0.273709  1
  Br  Br18  1  0.266897  0.984906  0.029713  1
  Br  Br19  1  0.035843  0.275819  0.985854  1
