# generated using pymatgen
data_Li2FeSn3S8
_symmetry_space_group_name_H-M   'P 1'
_cell_length_a   7.35879792
_cell_length_b   7.35879812
_cell_length_c   7.35879818
_cell_angle_alpha   61.30450990
_cell_angle_beta   61.30450896
_cell_angle_gamma   61.30451107
_symmetry_Int_Tables_number   1
_chemical_formula_structural   Li2FeSn3S8
_chemical_formula_sum   'Li2 Fe1 Sn3 S8'
_cell_volume   290.03956350
_cell_formula_units_Z   1
loop_
 _symmetry_equiv_pos_site_id
 _symmetry_equiv_pos_as_xyz
  1  'x, y, z'
loop_
 _atom_site_type_symbol
 _atom_site_label
 _atom_site_symmetry_multiplicity
 _atom_site_fract_x
 _atom_site_fract_y
 _atom_site_fract_z
 _atom_site_occupancy
  Li  Li0  1  0.382526  0.382526  0.382526  1
  Li  Li1  1  0.617474  0.617474  0.617474  1
  Fe  Fe2  1  0.000000  0.000000  0.000000  1
  Sn  Sn3  1  0.000000  0.500000  0.000000  1
  Sn  Sn4  1  0.000000  0.000000  0.500000  1
  Sn  Sn5  1  0.500000  0.000000  0.000000  1
  S  S6  1  0.778544  0.213109  0.778544  1
  S  S7  1  0.750240  0.750240  0.750240  1
  S  S8  1  0.786891  0.221456  0.221456  1
  S  S9  1  0.221456  0.221456  0.786891  1
  S  S10  1  0.221456  0.786891  0.221456  1
  S  S11  1  0.249760  0.249760  0.249760  1
  S  S12  1  0.213109  0.778544  0.778544  1
  S  S13  1  0.778544  0.778544  0.213109  1
