# generated using pymatgen
data_Dy4Y6Bi5Pb
_symmetry_space_group_name_H-M   'P 1'
_cell_length_a   9.15371100
_cell_length_b   9.17189056
_cell_length_c   6.42579700
_cell_angle_alpha   90.00000000
_cell_angle_beta   90.00000000
_cell_angle_gamma   119.93445804
_symmetry_Int_Tables_number   1
_chemical_formula_structural   Dy4Y6Bi5Pb
_chemical_formula_sum   'Dy4 Y6 Bi5 Pb1'
_cell_volume   467.51994463
_cell_formula_units_Z   1
loop_
 _symmetry_equiv_pos_site_id
 _symmetry_equiv_pos_as_xyz
  1  'x, y, z'
loop_
 _atom_site_type_symbol
 _atom_site_label
 _atom_site_symmetry_multiplicity
 _atom_site_fract_x
 _atom_site_fract_y
 _atom_site_fract_z
 _atom_site_occupancy
  Dy  Dy0  1  0.333604  0.668180  0.999610  1
  Dy  Dy1  1  0.665425  0.331820  0.500390  1
  Dy  Dy2  1  0.665425  0.331820  0.999610  1
  Dy  Dy3  1  0.333604  0.668180  0.500390  1
  Y  Y4  1  0.242500  0.000000  0.250000  1
  Y  Y5  1  0.244546  0.240964  0.750000  1
  Y  Y6  1  0.003581  0.759036  0.750000  1
  Y  Y7  1  0.998397  0.243261  0.250000  1
  Y  Y8  1  0.755136  0.756739  0.250000  1
  Y  Y9  1  0.756381  0.000000  0.750000  1
  Bi  Bi10  1  0.608954  0.000000  0.250000  1
  Bi  Bi11  1  0.611431  0.610570  0.750000  1
  Bi  Bi12  1  0.000859  0.389430  0.750000  1
  Bi  Bi13  1  0.998943  0.610329  0.250000  1
  Bi  Bi14  1  0.388614  0.389671  0.250000  1
  Pb  Pb15  1  0.392600  0.000000  0.750000  1
