# generated using pymatgen
data_Nd2B8Ru7
_symmetry_space_group_name_H-M   'P 1'
_cell_length_a   6.46779100
_cell_length_b   6.46779100
_cell_length_c   10.10298100
_cell_angle_alpha   90.00000000
_cell_angle_beta   90.00000000
_cell_angle_gamma   90.00000000
_symmetry_Int_Tables_number   1
_chemical_formula_structural   Nd2B8Ru7
_chemical_formula_sum   'Nd4 B16 Ru14'
_cell_volume   422.63113839
_cell_formula_units_Z   2
loop_
 _symmetry_equiv_pos_site_id
 _symmetry_equiv_pos_as_xyz
  1  'x, y, z'
loop_
 _atom_site_type_symbol
 _atom_site_label
 _atom_site_symmetry_multiplicity
 _atom_site_fract_x
 _atom_site_fract_y
 _atom_site_fract_z
 _atom_site_occupancy
  Nd  Nd0  1  0.735754  0.877997  0.000000  1
  Nd  Nd1  1  0.122003  0.735754  0.500000  1
  Nd  Nd2  1  0.877997  0.264246  0.500000  1
  Nd  Nd3  1  0.264246  0.122003  0.000000  1
  B  B4  1  0.500000  0.000000  0.588973  1
  B  B5  1  0.500000  0.000000  0.411027  1
  B  B6  1  0.897277  0.274973  0.169242  1
  B  B7  1  0.102723  0.725027  0.830758  1
  B  B8  1  0.500000  0.500000  0.341093  1
  B  B9  1  0.500000  0.500000  0.841093  1
  B  B10  1  0.274973  0.102723  0.669242  1
  B  B11  1  0.102723  0.725027  0.169242  1
  B  B12  1  0.274973  0.102723  0.330758  1
  B  B13  1  0.897277  0.274973  0.830758  1
  B  B14  1  0.500000  0.500000  0.658907  1
  B  B15  1  0.500000  0.500000  0.158907  1
  B  B16  1  0.000000  0.500000  0.911027  1
  B  B17  1  0.725027  0.897277  0.669242  1
  B  B18  1  0.725027  0.897277  0.330758  1
  B  B19  1  0.000000  0.500000  0.088973  1
  Ru  Ru20  1  0.204130  0.399272  0.751860  1
  Ru  Ru21  1  0.399387  0.286916  0.500000  1
  Ru  Ru22  1  0.399272  0.795870  0.251860  1
  Ru  Ru23  1  0.204130  0.399272  0.248140  1
  Ru  Ru24  1  0.600613  0.713084  0.500000  1
  Ru  Ru25  1  0.600728  0.204130  0.748140  1
  Ru  Ru26  1  0.286916  0.600613  0.000000  1
  Ru  Ru27  1  0.713084  0.399387  0.000000  1
  Ru  Ru28  1  0.795870  0.600728  0.248140  1
  Ru  Ru29  1  0.795870  0.600728  0.751860  1
  Ru  Ru30  1  0.399272  0.795870  0.748140  1
  Ru  Ru31  1  0.000000  0.000000  0.250000  1
  Ru  Ru32  1  0.600728  0.204130  0.251860  1
  Ru  Ru33  1  0.000000  0.000000  0.750000  1
