# generated using pymatgen
data_Hf12Tc6Ir5Rh
_symmetry_space_group_name_H-M   'P 1'
_cell_length_a   4.61797600
_cell_length_b   6.50451000
_cell_length_c   13.88675300
_cell_angle_alpha   90.00000000
_cell_angle_beta   90.00019831
_cell_angle_gamma   90.00000000
_symmetry_Int_Tables_number   1
_chemical_formula_structural   Hf12Tc6Ir5Rh
_chemical_formula_sum   'Hf12 Tc6 Ir5 Rh1'
_cell_volume   417.12571887
_cell_formula_units_Z   1
loop_
 _symmetry_equiv_pos_site_id
 _symmetry_equiv_pos_as_xyz
  1  'x, y, z'
loop_
 _atom_site_type_symbol
 _atom_site_label
 _atom_site_symmetry_multiplicity
 _atom_site_fract_x
 _atom_site_fract_y
 _atom_site_fract_z
 _atom_site_occupancy
  Hf  Hf0  1  0.499999  0.249952  0.999837  1
  Hf  Hf1  1  0.499999  0.750048  0.999837  1
  Hf  Hf2  1  0.999965  0.250378  0.166514  1
  Hf  Hf3  1  0.999965  0.749622  0.166514  1
  Hf  Hf4  1  0.499963  0.249969  0.333338  1
  Hf  Hf5  1  0.499963  0.750031  0.333338  1
  Hf  Hf6  1  0.000001  0.250377  0.500158  1
  Hf  Hf7  1  0.000001  0.749623  0.500158  1
  Hf  Hf8  1  0.500035  0.249946  0.666825  1
  Hf  Hf9  1  0.500035  0.750054  0.666825  1
  Hf  Hf10  1  0.000029  0.250093  0.833329  1
  Hf  Hf11  1  0.000029  0.749907  0.833329  1
  Tc  Tc12  1  0.000002  0.500000  0.000043  1
  Tc  Tc13  1  0.499954  0.000000  0.166547  1
  Tc  Tc14  1  0.999974  0.500000  0.333341  1
  Tc  Tc15  1  0.500000  0.000000  0.500116  1
  Tc  Tc16  1  0.000025  0.500000  0.666612  1
  Tc  Tc17  1  0.500042  0.000000  0.833338  1
  Ir  Ir18  1  0.000001  0.000000  0.000083  1
  Ir  Ir19  1  0.499956  0.500000  0.166843  1
  Ir  Ir20  1  0.999975  0.000000  0.333333  1
  Ir  Ir21  1  0.500004  0.500000  0.499835  1
  Ir  Ir22  1  0.000026  0.000000  0.666588  1
  Rh  Rh23  1  0.500058  0.500000  0.833316  1
