# generated using pymatgen
data_Hf6Tc5Ge4As2Ru
_symmetry_space_group_name_H-M   'P 1'
_cell_length_a   7.78903525
_cell_length_b   7.82137243
_cell_length_c   7.79900224
_cell_angle_alpha   127.12778042
_cell_angle_beta   125.42241731
_cell_angle_gamma   79.38965830
_symmetry_Int_Tables_number   1
_chemical_formula_structural   Hf6Tc5Ge4As2Ru
_chemical_formula_sum   'Hf6 Tc5 Ge4 As2 Ru1'
_cell_volume   298.48379242
_cell_formula_units_Z   1
loop_
 _symmetry_equiv_pos_site_id
 _symmetry_equiv_pos_as_xyz
  1  'x, y, z'
loop_
 _atom_site_type_symbol
 _atom_site_label
 _atom_site_symmetry_multiplicity
 _atom_site_fract_x
 _atom_site_fract_y
 _atom_site_fract_z
 _atom_site_occupancy
  Hf  Hf0  1  0.454810  0.668124  0.710424  1
  Hf  Hf1  1  0.540480  0.253887  0.210728  1
  Hf  Hf2  1  0.746838  0.846637  0.597738  1
  Hf  Hf3  1  0.250128  0.845111  0.095241  1
  Hf  Hf4  1  0.053656  0.253580  0.701260  1
  Hf  Hf5  1  0.949584  0.654194  0.205994  1
  Tc  Tc6  1  0.495114  0.505282  0.999072  1
  Tc  Tc7  1  0.004638  0.506160  0.511583  1
  Tc  Tc8  1  0.109388  0.252491  0.109035  1
  Tc  Tc9  1  0.886878  0.000271  0.139687  1
  Tc  Tc10  1  0.361729  0.001728  0.614599  1
  Ge  Ge11  1  0.263850  0.257973  0.495291  1
  Ge  Ge12  1  0.740756  0.246582  0.007341  1
  Ge  Ge13  1  0.330978  0.585945  0.251370  1
  Ge  Ge14  1  0.667452  0.921769  0.255781  1
  As  As15  1  0.163872  0.921888  0.752088  1
  As  As16  1  0.833093  0.585310  0.755111  1
  Ru  Ru17  1  0.646755  0.252669  0.647258  1
