# generated using pymatgen
data_Ba12Co4O19F
_symmetry_space_group_name_H-M   'P 1'
_cell_length_a   7.37320900
_cell_length_b   7.37304201
_cell_length_c   11.75686900
_cell_angle_alpha   90.00000302
_cell_angle_beta   90.00002765
_cell_angle_gamma   89.99523643
_symmetry_Int_Tables_number   1
_chemical_formula_structural   Ba12Co4O19F
_chemical_formula_sum   'Ba12 Co4 O19 F1'
_cell_volume   639.13842899
_cell_formula_units_Z   1
loop_
 _symmetry_equiv_pos_site_id
 _symmetry_equiv_pos_as_xyz
  1  'x, y, z'
loop_
 _atom_site_type_symbol
 _atom_site_label
 _atom_site_symmetry_multiplicity
 _atom_site_fract_x
 _atom_site_fract_y
 _atom_site_fract_z
 _atom_site_occupancy
  Ba  Ba0  1  0.000001  0.000000  0.261887  1
  Ba  Ba1  1  0.500001  0.500000  0.744164  1
  Ba  Ba2  1  0.500000  0.500000  0.256515  1
  Ba  Ba3  1  0.999999  0.000000  0.737292  1
  Ba  Ba4  1  0.666676  0.179315  0.002508  1
  Ba  Ba5  1  0.178331  0.675117  0.498911  1
  Ba  Ba6  1  0.333324  0.820685  0.002507  1
  Ba  Ba7  1  0.821669  0.324883  0.498911  1
  Ba  Ba8  1  0.816838  0.669432  0.001105  1
  Ba  Ba9  1  0.328351  0.174745  0.497607  1
  Ba  Ba10  1  0.183162  0.330568  0.001105  1
  Ba  Ba11  1  0.671649  0.825256  0.497607  1
  Co  Co12  1  0.500000  0.000000  0.751489  1
  Co  Co13  1  0.000000  0.500000  0.751363  1
  Co  Co14  1  0.000001  0.500000  0.248708  1
  Co  Co15  1  0.500000  0.000000  0.248235  1
  O  O16  1  0.500000  0.500000  0.502255  1
  O  O17  1  0.500000  0.500000  0.999085  1
  O  O18  1  0.000000  0.000000  0.505190  1
  O  O19  1  0.132365  0.640778  0.154119  1
  O  O20  1  0.634918  0.139742  0.658165  1
  O  O21  1  0.360593  0.863225  0.350578  1
  O  O22  1  0.867652  0.357547  0.845401  1
  O  O23  1  0.867636  0.359222  0.154120  1
  O  O24  1  0.365082  0.860258  0.658166  1
  O  O25  1  0.353796  0.128321  0.144868  1
  O  O26  1  0.859905  0.635394  0.658295  1
  O  O27  1  0.860703  0.635060  0.342188  1
  O  O28  1  0.358623  0.132775  0.845293  1
  O  O29  1  0.639406  0.136776  0.350578  1
  O  O30  1  0.132347  0.642453  0.845401  1
  O  O31  1  0.139298  0.364940  0.342188  1
  O  O32  1  0.641377  0.867225  0.845293  1
  O  O33  1  0.646204  0.871679  0.144868  1
  O  O34  1  0.140094  0.364606  0.658295  1
  F  F35  1  0.000000  0.000000  0.995736  1
