# generated using pymatgen
data_YEr7Ga12CoPd3
_symmetry_space_group_name_H-M   'P 1'
_cell_length_a   6.96133100
_cell_length_b   8.83222816
_cell_length_c   8.83222800
_cell_angle_alpha   119.99999942
_cell_angle_beta   90.00000000
_cell_angle_gamma   90.00000000
_symmetry_Int_Tables_number   1
_chemical_formula_structural   YEr7Ga12CoPd3
_chemical_formula_sum   'Y1 Er7 Ga12 Co1 Pd3'
_cell_volume   470.28753669
_cell_formula_units_Z   1
loop_
 _symmetry_equiv_pos_site_id
 _symmetry_equiv_pos_as_xyz
  1  'x, y, z'
loop_
 _atom_site_type_symbol
 _atom_site_label
 _atom_site_symmetry_multiplicity
 _atom_site_fract_x
 _atom_site_fract_y
 _atom_site_fract_z
 _atom_site_occupancy
  Y  Y0  1  0.743496  0.000000  0.000000  1
  Er  Er1  1  0.247593  0.000000  0.000000  1
  Er  Er2  1  0.750898  0.480900  0.519100  1
  Er  Er3  1  0.255832  0.524443  0.475557  1
  Er  Er4  1  0.750898  0.038201  0.519100  1
  Er  Er5  1  0.255832  0.951115  0.475557  1
  Er  Er6  1  0.750898  0.480900  0.961799  1
  Er  Er7  1  0.255832  0.524443  0.048885  1
  Ga  Ga8  1  0.954672  0.833530  0.166470  1
  Ga  Ga9  1  0.047988  0.167619  0.832381  1
  Ga  Ga10  1  0.954672  0.332943  0.166470  1
  Ga  Ga11  1  0.453876  0.166709  0.833291  1
  Ga  Ga12  1  0.047988  0.664762  0.832381  1
  Ga  Ga13  1  0.547098  0.826372  0.173628  1
  Ga  Ga14  1  0.954672  0.833530  0.667057  1
  Ga  Ga15  1  0.453876  0.666581  0.833291  1
  Ga  Ga16  1  0.047988  0.167619  0.335238  1
  Ga  Ga17  1  0.547098  0.347258  0.173628  1
  Ga  Ga18  1  0.453876  0.166709  0.333419  1
  Ga  Ga19  1  0.547098  0.826372  0.652742  1
  Co  Co20  1  0.517357  0.666667  0.333333  1
  Pd  Pd21  1  0.959186  0.666667  0.333333  1
  Pd  Pd22  1  0.033075  0.333333  0.666667  1
  Pd  Pd23  1  0.468211  0.333333  0.666667  1
