# generated using pymatgen
data_TmLuPa(InPt)3
_symmetry_space_group_name_H-M   'P 1'
_cell_length_a   7.56550377
_cell_length_b   7.58396086
_cell_length_c   3.92955200
_cell_angle_alpha   90.00000000
_cell_angle_beta   90.00000000
_cell_angle_gamma   119.98896833
_symmetry_Int_Tables_number   1
_chemical_formula_structural   TmLuPa(InPt)3
_chemical_formula_sum   'Tm1 Lu1 Pa1 In3 Pt3'
_cell_volume   195.27914864
_cell_formula_units_Z   1
loop_
 _symmetry_equiv_pos_site_id
 _symmetry_equiv_pos_as_xyz
  1  'x, y, z'
loop_
 _atom_site_type_symbol
 _atom_site_label
 _atom_site_symmetry_multiplicity
 _atom_site_fract_x
 _atom_site_fract_y
 _atom_site_fract_z
 _atom_site_occupancy
  Tm  Tm0  1  0.595281  0.002299  0.500000  1
  Lu  Lu1  1  0.404518  0.406720  0.500000  1
  Pa  Pa2  1  0.999936  0.589780  0.500000  1
  In  In3  1  0.000468  0.247423  0.000000  1
  In  In4  1  0.270893  0.012500  0.000000  1
  In  In5  1  0.729014  0.741425  0.000000  1
  Pt  Pt6  1  0.000641  0.988237  0.500000  1
  Pt  Pt7  1  0.681777  0.347540  0.000000  1
  Pt  Pt8  1  0.317472  0.664077  0.000000  1
