# generated using pymatgen
data_Pr8Si13Ir3
_symmetry_space_group_name_H-M   'P 1'
_cell_length_a   8.26130800
_cell_length_b   8.26130972
_cell_length_c   8.59297600
_cell_angle_alpha   90.00000000
_cell_angle_beta   90.00000000
_cell_angle_gamma   120.00000114
_symmetry_Int_Tables_number   1
_chemical_formula_structural   Pr8Si13Ir3
_chemical_formula_sum   'Pr8 Si13 Ir3'
_cell_volume   507.89266827
_cell_formula_units_Z   1
loop_
 _symmetry_equiv_pos_site_id
 _symmetry_equiv_pos_as_xyz
  1  'x, y, z'
loop_
 _atom_site_type_symbol
 _atom_site_label
 _atom_site_symmetry_multiplicity
 _atom_site_fract_x
 _atom_site_fract_y
 _atom_site_fract_z
 _atom_site_occupancy
  Pr  Pr0  1  0.499507  0.500493  0.752214  1
  Pr  Pr1  1  0.500184  0.499816  0.248042  1
  Pr  Pr2  1  0.000986  0.500493  0.752214  1
  Pr  Pr3  1  0.999634  0.499816  0.248042  1
  Pr  Pr4  1  0.499507  0.999014  0.752214  1
  Pr  Pr5  1  0.500184  0.000366  0.248042  1
  Pr  Pr6  1  0.000000  0.000000  0.750796  1
  Pr  Pr7  1  0.000000  0.000000  0.248020  1
  Si  Si8  1  0.832691  0.167309  0.999850  1
  Si  Si9  1  0.167640  0.832360  0.999894  1
  Si  Si10  1  0.334616  0.167309  0.999850  1
  Si  Si11  1  0.169098  0.830902  0.501708  1
  Si  Si12  1  0.664719  0.832360  0.999894  1
  Si  Si13  1  0.836491  0.163509  0.498593  1
  Si  Si14  1  0.832691  0.665384  0.999850  1
  Si  Si15  1  0.661804  0.830902  0.501708  1
  Si  Si16  1  0.167640  0.335281  0.999894  1
  Si  Si17  1  0.327017  0.163509  0.498593  1
  Si  Si18  1  0.169098  0.338196  0.501708  1
  Si  Si19  1  0.836491  0.672983  0.498593  1
  Si  Si20  1  0.666667  0.333333  0.502664  1
  Ir  Ir21  1  0.666667  0.333333  0.000496  1
  Ir  Ir22  1  0.333333  0.666667  0.001511  1
  Ir  Ir23  1  0.333333  0.666667  0.495605  1
