# generated using pymatgen
data_Sr4Dy2SbRuO12
_symmetry_space_group_name_H-M   'P 1'
_cell_length_a   5.90750990
_cell_length_b   5.83636934
_cell_length_c   10.11712193
_cell_angle_alpha   55.04787606
_cell_angle_beta   89.76265347
_cell_angle_gamma   89.96214844
_symmetry_Int_Tables_number   1
_chemical_formula_structural   Sr4Dy2SbRuO12
_chemical_formula_sum   'Sr4 Dy2 Sb1 Ru1 O12'
_cell_volume   285.90248514
_cell_formula_units_Z   1
loop_
 _symmetry_equiv_pos_site_id
 _symmetry_equiv_pos_as_xyz
  1  'x, y, z'
loop_
 _atom_site_type_symbol
 _atom_site_label
 _atom_site_symmetry_multiplicity
 _atom_site_fract_x
 _atom_site_fract_y
 _atom_site_fract_z
 _atom_site_occupancy
  Sr  Sr0  1  0.534065  0.744924  0.745976  1
  Sr  Sr1  1  0.038697  0.263163  0.745130  1
  Sr  Sr2  1  0.961303  0.736837  0.254870  1
  Sr  Sr3  1  0.465935  0.255076  0.254024  1
  Dy  Dy4  1  0.000000  0.000000  0.500000  1
  Dy  Dy5  1  0.500000  0.000000  0.000000  1
  Sb  Sb6  1  0.000000  0.500000  0.000000  1
  Ru  Ru7  1  0.500000  0.500000  0.500000  1
  O  O8  1  0.520905  0.808248  0.266715  1
  O  O9  1  0.021062  0.185651  0.236250  1
  O  O10  1  0.479095  0.191752  0.733285  1
  O  O11  1  0.978938  0.814349  0.763750  1
  O  O12  1  0.771041  0.656354  0.540298  1
  O  O13  1  0.274723  0.347244  0.956270  1
  O  O14  1  0.228959  0.343646  0.459702  1
  O  O15  1  0.725277  0.652756  0.043730  1
  O  O16  1  0.199447  0.732635  0.040825  1
  O  O17  1  0.699687  0.267687  0.461945  1
  O  O18  1  0.800553  0.267365  0.959175  1
  O  O19  1  0.300313  0.732313  0.538055  1
