# generated using pymatgen
data_DyHoEr4(B7W)2
_symmetry_space_group_name_H-M   'P 1'
_cell_length_a   8.12290902
_cell_length_b   8.12290945
_cell_length_c   9.47526700
_cell_angle_alpha   90.00000000
_cell_angle_beta   90.00000000
_cell_angle_gamma   155.54271441
_symmetry_Int_Tables_number   1
_chemical_formula_structural   DyHoEr4(B7W)2
_chemical_formula_sum   'Dy1 Ho1 Er4 B14 W2'
_cell_volume   258.83944867
_cell_formula_units_Z   1
loop_
 _symmetry_equiv_pos_site_id
 _symmetry_equiv_pos_as_xyz
  1  'x, y, z'
loop_
 _atom_site_type_symbol
 _atom_site_label
 _atom_site_symmetry_multiplicity
 _atom_site_fract_x
 _atom_site_fract_y
 _atom_site_fract_z
 _atom_site_occupancy
  Dy  Dy0  1  0.754061  0.245939  0.750000  1
  Ho  Ho1  1  0.245334  0.754666  0.250000  1
  Er  Er2  1  0.892715  0.107285  0.439819  1
  Er  Er3  1  0.107222  0.892778  0.559533  1
  Er  Er4  1  0.892715  0.107285  0.060181  1
  Er  Er5  1  0.107222  0.892778  0.940467  1
  B  B6  1  0.727895  0.272105  0.466266  1
  B  B7  1  0.272412  0.727588  0.531718  1
  B  B8  1  0.727895  0.272105  0.033734  1
  B  B9  1  0.272412  0.727588  0.968282  1
  B  B10  1  0.635285  0.364715  0.147124  1
  B  B11  1  0.364725  0.635275  0.853543  1
  B  B12  1  0.635285  0.364715  0.352876  1
  B  B13  1  0.364725  0.635275  0.646457  1
  B  B14  1  0.519269  0.480731  0.091282  1
  B  B15  1  0.480767  0.519233  0.908756  1
  B  B16  1  0.519269  0.480731  0.408718  1
  B  B17  1  0.480767  0.519233  0.591244  1
  B  B18  1  0.453852  0.546148  0.250000  1
  B  B19  1  0.546278  0.453722  0.750000  1
  W  W20  1  0.052874  0.947126  0.250000  1
  W  W21  1  0.947020  0.052980  0.750000  1
