# generated using pymatgen
data_Tb12Th4Cd4Ir3Rh
_symmetry_space_group_name_H-M   'P 1'
_cell_length_a   9.78335945
_cell_length_b   9.78336021
_cell_length_c   9.78336000
_cell_angle_alpha   60.00110869
_cell_angle_beta   60.00110316
_cell_angle_gamma   60.00110602
_symmetry_Int_Tables_number   1
_chemical_formula_structural   Tb12Th4Cd4Ir3Rh
_chemical_formula_sum   'Tb12 Th4 Cd4 Ir3 Rh1'
_cell_volume   662.15548476
_cell_formula_units_Z   1
loop_
 _symmetry_equiv_pos_site_id
 _symmetry_equiv_pos_as_xyz
  1  'x, y, z'
loop_
 _atom_site_type_symbol
 _atom_site_label
 _atom_site_symmetry_multiplicity
 _atom_site_fract_x
 _atom_site_fract_y
 _atom_site_fract_z
 _atom_site_occupancy
  Tb  Tb0  1  0.061377  0.438442  0.438442  1
  Tb  Tb1  1  0.437682  0.062300  0.062300  1
  Tb  Tb2  1  0.438442  0.061377  0.438442  1
  Tb  Tb3  1  0.062300  0.437682  0.062300  1
  Tb  Tb4  1  0.438442  0.438442  0.061377  1
  Tb  Tb5  1  0.062300  0.062300  0.437682  1
  Tb  Tb6  1  0.186743  0.814644  0.814644  1
  Tb  Tb7  1  0.814554  0.185770  0.185770  1
  Tb  Tb8  1  0.814644  0.186743  0.814644  1
  Tb  Tb9  1  0.185770  0.814554  0.185770  1
  Tb  Tb10  1  0.814644  0.814644  0.186743  1
  Tb  Tb11  1  0.185770  0.185770  0.814554  1
  Th  Th12  1  0.598864  0.598864  0.598864  1
  Th  Th13  1  0.599900  0.599900  0.200991  1
  Th  Th14  1  0.599900  0.200991  0.599900  1
  Th  Th15  1  0.200991  0.599900  0.599900  1
  Cd  Cd16  1  0.831910  0.831910  0.831910  1
  Cd  Cd17  1  0.831751  0.831751  0.503104  1
  Cd  Cd18  1  0.831751  0.503104  0.831751  1
  Cd  Cd19  1  0.503104  0.831751  0.831751  1
  Ir  Ir20  1  0.393259  0.393259  0.818548  1
  Ir  Ir21  1  0.393259  0.818548  0.393259  1
  Ir  Ir22  1  0.818548  0.393259  0.393259  1
  Rh  Rh23  1  0.394096  0.394096  0.394096  1
