# generated using pymatgen
data_Dy2Y8Cd3Ni
_symmetry_space_group_name_H-M   'P 1'
_cell_length_a   9.65868532
_cell_length_b   9.65868579
_cell_length_c   9.80181978
_cell_angle_alpha   90.05979531
_cell_angle_beta   89.94020337
_cell_angle_gamma   119.99562659
_symmetry_Int_Tables_number   1
_chemical_formula_structural   Dy2Y8Cd3Ni
_chemical_formula_sum   'Dy4 Y16 Cd6 Ni2'
_cell_volume   791.93989557
_cell_formula_units_Z   2
loop_
 _symmetry_equiv_pos_site_id
 _symmetry_equiv_pos_as_xyz
  1  'x, y, z'
loop_
 _atom_site_type_symbol
 _atom_site_label
 _atom_site_symmetry_multiplicity
 _atom_site_fract_x
 _atom_site_fract_y
 _atom_site_fract_z
 _atom_site_occupancy
  Dy  Dy0  1  0.210759  0.789241  0.436616  1
  Dy  Dy1  1  0.210629  0.421478  0.436686  1
  Dy  Dy2  1  0.578522  0.789371  0.436686  1
  Dy  Dy3  1  0.789330  0.210670  0.563457  1
  Y  Y4  1  0.999943  0.000057  0.499835  1
  Y  Y5  1  0.000014  0.999986  0.000110  1
  Y  Y6  1  0.543529  0.456471  0.250148  1
  Y  Y7  1  0.543556  0.087096  0.250284  1
  Y  Y8  1  0.912904  0.456444  0.250284  1
  Y  Y9  1  0.456287  0.543713  0.749800  1
  Y  Y10  1  0.456452  0.912728  0.749727  1
  Y  Y11  1  0.087272  0.543548  0.749727  1
  Y  Y12  1  0.789787  0.579399  0.562892  1
  Y  Y13  1  0.420601  0.210213  0.562892  1
  Y  Y14  1  0.789691  0.210309  0.936937  1
  Y  Y15  1  0.789647  0.579293  0.937010  1
  Y  Y16  1  0.420707  0.210353  0.937010  1
  Y  Y17  1  0.210301  0.789699  0.062975  1
  Y  Y18  1  0.210285  0.420621  0.062963  1
  Y  Y19  1  0.579379  0.789715  0.062963  1
  Cd  Cd20  1  0.884149  0.115851  0.249880  1
  Cd  Cd21  1  0.884151  0.768265  0.249973  1
  Cd  Cd22  1  0.231735  0.115849  0.249973  1
  Cd  Cd23  1  0.115927  0.884073  0.750119  1
  Cd  Cd24  1  0.115933  0.231852  0.750118  1
  Cd  Cd25  1  0.768148  0.884067  0.750118  1
  Ni  Ni26  1  0.333344  0.666656  0.251343  1
  Ni  Ni27  1  0.667018  0.332982  0.749473  1
