# generated using pymatgen
data_CaTb3Tm4(B6Os)4
_symmetry_space_group_name_H-M   'P 1'
_cell_length_a   3.63559900
_cell_length_b   9.11977805
_cell_length_c   11.52150185
_cell_angle_alpha   89.90629934
_cell_angle_beta   90.00000000
_cell_angle_gamma   90.00000000
_symmetry_Int_Tables_number   1
_chemical_formula_structural   CaTb3Tm4(B6Os)4
_chemical_formula_sum   'Ca1 Tb3 Tm4 B24 Os4'
_cell_volume   382.00474494
_cell_formula_units_Z   1
loop_
 _symmetry_equiv_pos_site_id
 _symmetry_equiv_pos_as_xyz
  1  'x, y, z'
loop_
 _atom_site_type_symbol
 _atom_site_label
 _atom_site_symmetry_multiplicity
 _atom_site_fract_x
 _atom_site_fract_y
 _atom_site_fract_z
 _atom_site_occupancy
  Ca  Ca0  1  0.000000  0.321832  0.413813  1
  Tb  Tb1  1  0.000000  0.676589  0.585043  1
  Tb  Tb2  1  0.000000  0.822047  0.086630  1
  Tb  Tb3  1  0.000000  0.178484  0.914397  1
  Tm  Tm4  1  0.000000  0.944427  0.371874  1
  Tm  Tm5  1  0.000000  0.057469  0.627255  1
  Tm  Tm6  1  0.000000  0.443333  0.128907  1
  Tm  Tm7  1  0.000000  0.555856  0.872676  1
  B  B8  1  0.500000  0.554465  0.432175  1
  B  B9  1  0.500000  0.445787  0.567895  1
  B  B10  1  0.500000  0.053691  0.066987  1
  B  B11  1  0.500000  0.945437  0.932119  1
  B  B12  1  0.500000  0.749307  0.418524  1
  B  B13  1  0.500000  0.251174  0.581639  1
  B  B14  1  0.500000  0.248753  0.081190  1
  B  B15  1  0.500000  0.750622  0.918928  1
  B  B16  1  0.500000  0.792069  0.266194  1
  B  B17  1  0.500000  0.209013  0.734156  1
  B  B18  1  0.500000  0.290578  0.233594  1
  B  B19  1  0.500000  0.708863  0.766248  1
  B  B20  1  0.500000  0.631241  0.185690  1
  B  B21  1  0.500000  0.369239  0.815423  1
  B  B22  1  0.500000  0.130573  0.314166  1
  B  B23  1  0.500000  0.869184  0.684929  1
  B  B24  1  0.500000  0.983268  0.212638  1
  B  B25  1  0.500000  0.016753  0.786431  1
  B  B26  1  0.500000  0.483436  0.287066  1
  B  B27  1  0.500000  0.516639  0.713451  1
  B  B28  1  0.500000  0.604487  0.029087  1
  B  B29  1  0.500000  0.395647  0.971676  1
  B  B30  1  0.500000  0.102071  0.471692  1
  B  B31  1  0.500000  0.896890  0.528374  1
  Os  Os32  1  0.000000  0.640239  0.319849  1
  Os  Os33  1  0.000000  0.361661  0.680921  1
  Os  Os34  1  0.000000  0.136977  0.178005  1
  Os  Os35  1  0.000000  0.861897  0.820359  1
