# generated using pymatgen
data_Li4Pr3SmPd4
_symmetry_space_group_name_H-M   'P 1'
_cell_length_a   4.13342400
_cell_length_b   7.33905891
_cell_length_c   8.64497779
_cell_angle_alpha   90.23554290
_cell_angle_beta   90.00000000
_cell_angle_gamma   90.00000000
_symmetry_Int_Tables_number   1
_chemical_formula_structural   Li4Pr3SmPd4
_chemical_formula_sum   'Li4 Pr3 Sm1 Pd4'
_cell_volume   262.24700836
_cell_formula_units_Z   1
loop_
 _symmetry_equiv_pos_site_id
 _symmetry_equiv_pos_as_xyz
  1  'x, y, z'
loop_
 _atom_site_type_symbol
 _atom_site_label
 _atom_site_symmetry_multiplicity
 _atom_site_fract_x
 _atom_site_fract_y
 _atom_site_fract_z
 _atom_site_occupancy
  Li  Li0  1  0.250000  0.871546  0.944094  1
  Li  Li1  1  0.750000  0.128008  0.059034  1
  Li  Li2  1  0.750000  0.632732  0.441167  1
  Li  Li3  1  0.250000  0.367773  0.556764  1
  Pr  Pr4  1  0.250000  0.459163  0.188790  1
  Pr  Pr5  1  0.750000  0.542032  0.812625  1
  Pr  Pr6  1  0.750000  0.040971  0.684853  1
  Sm  Sm7  1  0.250000  0.957597  0.314172  1
  Pd  Pd8  1  0.250000  0.750935  0.614100  1
  Pd  Pd9  1  0.750000  0.244918  0.380645  1
  Pd  Pd10  1  0.750000  0.754204  0.120805  1
  Pd  Pd11  1  0.250000  0.250121  0.882954  1
