# generated using pymatgen
data_Dy5Th(MoO7)2
_symmetry_space_group_name_H-M   'P 1'
_cell_length_a   6.47490286
_cell_length_b   6.47490233
_cell_length_c   7.51369400
_cell_angle_alpha   90.88182795
_cell_angle_beta   89.11817212
_cell_angle_gamma   109.46938491
_symmetry_Int_Tables_number   1
_chemical_formula_structural   Dy5Th(MoO7)2
_chemical_formula_sum   'Dy5 Th1 Mo2 O14'
_cell_volume   296.94189528
_cell_formula_units_Z   1
loop_
 _symmetry_equiv_pos_site_id
 _symmetry_equiv_pos_as_xyz
  1  'x, y, z'
loop_
 _atom_site_type_symbol
 _atom_site_label
 _atom_site_symmetry_multiplicity
 _atom_site_fract_x
 _atom_site_fract_y
 _atom_site_fract_z
 _atom_site_occupancy
  Dy  Dy0  1  0.463029  0.998995  0.255127  1
  Dy  Dy1  1  0.535324  0.003446  0.752393  1
  Dy  Dy2  1  0.003446  0.535324  0.247607  1
  Dy  Dy3  1  0.532281  0.532281  0.500000  1
  Dy  Dy4  1  0.998995  0.463029  0.744873  1
  Th  Th5  1  0.497362  0.497362  0.000000  1
  Mo  Mo6  1  0.999151  0.999151  0.000000  1
  Mo  Mo7  1  0.002313  0.002313  0.500000  1
  O  O8  1  0.061659  0.313805  0.461552  1
  O  O9  1  0.079029  0.919229  0.253605  1
  O  O10  1  0.632179  0.369430  0.253581  1
  O  O11  1  0.313805  0.061659  0.538448  1
  O  O12  1  0.914859  0.672104  0.530664  1
  O  O13  1  0.919229  0.079029  0.746395  1
  O  O14  1  0.672104  0.914859  0.469336  1
  O  O15  1  0.366131  0.633645  0.254835  1
  O  O16  1  0.666265  0.918547  0.028247  1
  O  O17  1  0.633645  0.366131  0.745165  1
  O  O18  1  0.085345  0.335870  0.022401  1
  O  O19  1  0.918547  0.666265  0.971753  1
  O  O20  1  0.369430  0.632179  0.746419  1
  O  O21  1  0.335870  0.085345  0.977599  1
