# generated using pymatgen
data_Li2TbNdSi2Pb
_symmetry_space_group_name_H-M   'P 1'
_cell_length_a   9.76175230
_cell_length_b   9.76175232
_cell_length_c   6.92603600
_cell_angle_alpha   90.00000000
_cell_angle_beta   90.00000000
_cell_angle_gamma   153.64203815
_symmetry_Int_Tables_number   1
_chemical_formula_structural   Li2TbNdSi2Pb
_chemical_formula_sum   'Li4 Tb2 Nd2 Si4 Pb2'
_cell_volume   293.02295092
_cell_formula_units_Z   2
loop_
 _symmetry_equiv_pos_site_id
 _symmetry_equiv_pos_as_xyz
  1  'x, y, z'
loop_
 _atom_site_type_symbol
 _atom_site_label
 _atom_site_symmetry_multiplicity
 _atom_site_fract_x
 _atom_site_fract_y
 _atom_site_fract_z
 _atom_site_occupancy
  Li  Li0  1  0.182775  0.817225  0.053706  1
  Li  Li1  1  0.182775  0.817225  0.446294  1
  Li  Li2  1  0.817225  0.182775  0.946294  1
  Li  Li3  1  0.817225  0.182775  0.553706  1
  Tb  Tb4  1  0.353630  0.646370  0.250000  1
  Tb  Tb5  1  0.646370  0.353630  0.750000  1
  Nd  Nd6  1  0.548979  0.451021  0.250000  1
  Nd  Nd7  1  0.451021  0.548979  0.750000  1
  Si  Si8  1  0.057033  0.942967  0.924112  1
  Si  Si9  1  0.942967  0.057033  0.075888  1
  Si  Si10  1  0.942967  0.057033  0.424112  1
  Si  Si11  1  0.057033  0.942967  0.575888  1
  Pb  Pb12  1  0.721059  0.278941  0.250000  1
  Pb  Pb13  1  0.278941  0.721059  0.750000  1
