# generated using pymatgen
data_Dy8ZnPI12
_symmetry_space_group_name_H-M   'P 1'
_cell_length_a   4.19892100
_cell_length_b   14.06340258
_cell_length_c   14.84510000
_cell_angle_alpha   89.83747558
_cell_angle_beta   90.00000000
_cell_angle_gamma   90.00000000
_symmetry_Int_Tables_number   1
_chemical_formula_structural   Dy8ZnPI12
_chemical_formula_sum   'Dy8 Zn1 P1 I12'
_cell_volume   876.61620161
_cell_formula_units_Z   1
loop_
 _symmetry_equiv_pos_site_id
 _symmetry_equiv_pos_as_xyz
  1  'x, y, z'
loop_
 _atom_site_type_symbol
 _atom_site_label
 _atom_site_symmetry_multiplicity
 _atom_site_fract_x
 _atom_site_fract_y
 _atom_site_fract_z
 _atom_site_occupancy
  Dy  Dy0  1  0.500000  0.115882  0.346602  1
  Dy  Dy1  1  0.500000  0.884118  0.653398  1
  Dy  Dy2  1  0.500000  0.610893  0.147540  1
  Dy  Dy3  1  0.500000  0.389107  0.852460  1
  Dy  Dy4  1  0.000000  0.114650  0.577846  1
  Dy  Dy5  1  0.000000  0.885350  0.422154  1
  Dy  Dy6  1  0.000000  0.605053  0.928935  1
  Dy  Dy7  1  0.000000  0.394947  0.071065  1
  Zn  Zn8  1  0.500000  0.000000  0.500000  1
  P  P9  1  0.500000  0.500000  0.000000  1
  I  I10  1  0.500000  0.251984  0.161846  1
  I  I11  1  0.500000  0.748016  0.838154  1
  I  I12  1  0.500000  0.746394  0.332156  1
  I  I13  1  0.500000  0.253606  0.667844  1
  I  I14  1  0.000000  0.261538  0.415286  1
  I  I15  1  0.000000  0.738462  0.584714  1
  I  I16  1  0.000000  0.755109  0.082793  1
  I  I17  1  0.000000  0.244891  0.917207  1
  I  I18  1  0.000000  0.001076  0.237140  1
  I  I19  1  0.000000  0.998924  0.762860  1
  I  I20  1  0.000000  0.499547  0.255896  1
  I  I21  1  0.000000  0.500453  0.744104  1
