# generated using pymatgen
data_Lu6GaNiOs
_symmetry_space_group_name_H-M   'P 1'
_cell_length_a   8.17891153
_cell_length_b   8.17891145
_cell_length_c   8.17891126
_cell_angle_alpha   113.04884352
_cell_angle_beta   110.69318903
_cell_angle_gamma   104.78072872
_symmetry_Int_Tables_number   1
_chemical_formula_structural   Lu6GaNiOs
_chemical_formula_sum   'Lu12 Ga2 Ni2 Os2'
_cell_volume   418.88928789
_cell_formula_units_Z   2
loop_
 _symmetry_equiv_pos_site_id
 _symmetry_equiv_pos_as_xyz
  1  'x, y, z'
loop_
 _atom_site_type_symbol
 _atom_site_label
 _atom_site_symmetry_multiplicity
 _atom_site_fract_x
 _atom_site_fract_y
 _atom_site_fract_z
 _atom_site_occupancy
  Lu  Lu0  1  0.436073  0.243565  0.192508  1
  Lu  Lu1  1  0.563927  0.756435  0.807492  1
  Lu  Lu2  1  0.051057  0.243565  0.807492  1
  Lu  Lu3  1  0.948943  0.756435  0.192508  1
  Lu  Lu4  1  0.180057  0.278765  0.458822  1
  Lu  Lu5  1  0.819943  0.721235  0.541178  1
  Lu  Lu6  1  0.180057  0.721235  0.901293  1
  Lu  Lu7  1  0.819943  0.278765  0.098707  1
  Lu  Lu8  1  0.330589  0.642933  0.312344  1
  Lu  Lu9  1  0.669411  0.357067  0.687656  1
  Lu  Lu10  1  0.330589  0.018244  0.687656  1
  Lu  Lu11  1  0.669411  0.981756  0.312344  1
  Ga  Ga12  1  0.500000  0.500000  0.000000  1
  Ga  Ga13  1  0.000000  0.000000  0.000000  1
  Ni  Ni14  1  0.117282  0.617282  0.500000  1
  Ni  Ni15  1  0.882718  0.382718  0.500000  1
  Os  Os16  1  0.327712  0.000000  0.327712  1
  Os  Os17  1  0.672288  0.000000  0.672288  1
