# generated using pymatgen
data_Dy3Sc3Co2(Sn3Pt2)2
_symmetry_space_group_name_H-M   'P 1'
_cell_length_a   7.52622500
_cell_length_b   7.52622521
_cell_length_c   7.33343400
_cell_angle_alpha   90.00000000
_cell_angle_beta   90.00000000
_cell_angle_gamma   120.00000347
_symmetry_Int_Tables_number   1
_chemical_formula_structural   Dy3Sc3Co2(Sn3Pt2)2
_chemical_formula_sum   'Dy3 Sc3 Co2 Sn6 Pt4'
_cell_volume   359.74304941
_cell_formula_units_Z   1
loop_
 _symmetry_equiv_pos_site_id
 _symmetry_equiv_pos_as_xyz
  1  'x, y, z'
loop_
 _atom_site_type_symbol
 _atom_site_label
 _atom_site_symmetry_multiplicity
 _atom_site_fract_x
 _atom_site_fract_y
 _atom_site_fract_z
 _atom_site_occupancy
  Dy  Dy0  1  0.403348  0.000672  0.250000  1
  Dy  Dy1  1  0.597324  0.596652  0.250000  1
  Dy  Dy2  1  0.999328  0.402676  0.250000  1
  Sc  Sc3  1  0.391642  0.999083  0.750000  1
  Sc  Sc4  1  0.607441  0.608358  0.750000  1
  Sc  Sc5  1  0.000917  0.392559  0.750000  1
  Co  Co6  1  0.000000  0.000000  0.750000  1
  Co  Co7  1  0.000000  0.000000  0.250000  1
  Sn  Sn8  1  0.255509  0.255188  0.990770  1
  Sn  Sn9  1  0.999679  0.744491  0.990770  1
  Sn  Sn10  1  0.999679  0.744491  0.509230  1
  Sn  Sn11  1  0.744812  0.000321  0.509230  1
  Sn  Sn12  1  0.255509  0.255188  0.509230  1
  Sn  Sn13  1  0.744812  0.000321  0.990770  1
  Pt  Pt14  1  0.666667  0.333333  0.974763  1
  Pt  Pt15  1  0.333333  0.666667  0.522732  1
  Pt  Pt16  1  0.333333  0.666667  0.977268  1
  Pt  Pt17  1  0.666667  0.333333  0.525237  1
