# generated using pymatgen
data_Yb4ErTm5Rh4
_symmetry_space_group_name_H-M   'P 1'
_cell_length_a   6.37794613
_cell_length_b   7.19864486
_cell_length_c   8.45718000
_cell_angle_alpha   97.42726742
_cell_angle_beta   112.15715773
_cell_angle_gamma   89.98585128
_symmetry_Int_Tables_number   1
_chemical_formula_structural   Yb4ErTm5Rh4
_chemical_formula_sum   'Yb4 Er1 Tm5 Rh4'
_cell_volume   356.10168009
_cell_formula_units_Z   1
loop_
 _symmetry_equiv_pos_site_id
 _symmetry_equiv_pos_as_xyz
  1  'x, y, z'
loop_
 _atom_site_type_symbol
 _atom_site_label
 _atom_site_symmetry_multiplicity
 _atom_site_fract_x
 _atom_site_fract_y
 _atom_site_fract_z
 _atom_site_occupancy
  Yb  Yb0  1  0.792423  0.080501  0.811532  1
  Yb  Yb1  1  0.980967  0.419752  0.188520  1
  Yb  Yb2  1  0.207875  0.919220  0.188432  1
  Yb  Yb3  1  0.018600  0.580653  0.811392  1
  Er  Er4  1  0.201568  0.186927  0.563843  1
  Tm  Tm5  1  0.636865  0.312950  0.435285  1
  Tm  Tm6  1  0.798183  0.813186  0.435673  1
  Tm  Tm7  1  0.363349  0.687058  0.564694  1
  Tm  Tm8  1  0.429113  0.249969  0.000332  1
  Tm  Tm9  1  0.570986  0.750045  0.999866  1
  Rh  Rh10  1  0.585379  0.426295  0.771988  1
  Rh  Rh11  1  0.812594  0.073583  0.228133  1
  Rh  Rh12  1  0.415358  0.574132  0.228611  1
  Rh  Rh13  1  0.186741  0.925731  0.771698  1
