# generated using pymatgen
data_TmH6Ir
_symmetry_space_group_name_H-M   'P 1'
_cell_length_a   4.63194142
_cell_length_b   4.63194243
_cell_length_c   4.63833882
_cell_angle_alpha   57.12872373
_cell_angle_beta   57.12872627
_cell_angle_gamma   57.12913963
_symmetry_Int_Tables_number   1
_chemical_formula_structural   TmH6Ir
_chemical_formula_sum   'Tm1 H6 Ir1'
_cell_volume   65.71226584
_cell_formula_units_Z   1
loop_
 _symmetry_equiv_pos_site_id
 _symmetry_equiv_pos_as_xyz
  1  'x, y, z'
loop_
 _atom_site_type_symbol
 _atom_site_label
 _atom_site_symmetry_multiplicity
 _atom_site_fract_x
 _atom_site_fract_y
 _atom_site_fract_z
 _atom_site_occupancy
  Tm  Tm0  1  0.500000  0.500000  0.500000  1
  H  H1  1  0.560972  0.099824  0.100144  1
  H  H2  1  0.099824  0.560972  0.100144  1
  H  H3  1  0.900396  0.900396  0.438121  1
  H  H4  1  0.099604  0.099604  0.561878  1
  H  H5  1  0.900176  0.439027  0.899856  1
  H  H6  1  0.439027  0.900176  0.899856  1
  Ir  Ir7  1  0.000000  0.000000  0.000000  1
