# generated using pymatgen
data_Al2Ni11AsSe3
_symmetry_space_group_name_H-M   'P 1'
_cell_length_a   3.57092800
_cell_length_b   3.57092800
_cell_length_c   18.60782900
_cell_angle_alpha   90.00000000
_cell_angle_beta   90.00000000
_cell_angle_gamma   90.00000000
_symmetry_Int_Tables_number   1
_chemical_formula_structural   Al2Ni11AsSe3
_chemical_formula_sum   'Al2 Ni11 As1 Se3'
_cell_volume   237.27822983
_cell_formula_units_Z   1
loop_
 _symmetry_equiv_pos_site_id
 _symmetry_equiv_pos_as_xyz
  1  'x, y, z'
loop_
 _atom_site_type_symbol
 _atom_site_label
 _atom_site_symmetry_multiplicity
 _atom_site_fract_x
 _atom_site_fract_y
 _atom_site_fract_z
 _atom_site_occupancy
  Al  Al0  1  0.000000  0.000000  0.000010  1
  Al  Al1  1  0.500000  0.500000  0.500307  1
  Ni  Ni2  1  0.000000  0.500000  0.404558  1
  Ni  Ni3  1  0.500000  0.000000  0.904055  1
  Ni  Ni4  1  0.500000  0.000000  0.404558  1
  Ni  Ni5  1  0.000000  0.500000  0.904055  1
  Ni  Ni6  1  0.500000  0.000000  0.095978  1
  Ni  Ni7  1  0.000000  0.500000  0.597520  1
  Ni  Ni8  1  0.000000  0.500000  0.095978  1
  Ni  Ni9  1  0.500000  0.000000  0.597520  1
  Ni  Ni10  1  0.000000  0.000000  0.502105  1
  Ni  Ni11  1  0.500000  0.500000  0.000024  1
  Ni  Ni12  1  0.500000  0.500000  0.299548  1
  As  As13  1  0.000000  0.000000  0.318527  1
  Se  Se14  1  0.500000  0.500000  0.823754  1
  Se  Se15  1  0.500000  0.500000  0.175665  1
  Se  Se16  1  0.000000  0.000000  0.677334  1
