# generated using pymatgen
data_Re3Tc3PdPt
_symmetry_space_group_name_H-M   'P 1'
_cell_length_a   5.56832934
_cell_length_b   5.57752651
_cell_length_c   4.41763500
_cell_angle_alpha   90.00000000
_cell_angle_beta   90.00000000
_cell_angle_gamma   119.84046642
_symmetry_Int_Tables_number   1
_chemical_formula_structural   Re3Tc3PdPt
_chemical_formula_sum   'Re3 Tc3 Pd1 Pt1'
_cell_volume   119.00985711
_cell_formula_units_Z   1
loop_
 _symmetry_equiv_pos_site_id
 _symmetry_equiv_pos_as_xyz
  1  'x, y, z'
loop_
 _atom_site_type_symbol
 _atom_site_label
 _atom_site_symmetry_multiplicity
 _atom_site_fract_x
 _atom_site_fract_y
 _atom_site_fract_z
 _atom_site_occupancy
  Re  Re0  1  0.842666  0.158166  0.750000  1
  Re  Re1  1  0.158443  0.841794  0.250000  1
  Re  Re2  1  0.683255  0.841303  0.250000  1
  Tc  Tc3  1  0.315430  0.157823  0.750000  1
  Tc  Tc4  1  0.842406  0.684326  0.750000  1
  Tc  Tc5  1  0.158831  0.316941  0.250000  1
  Pd  Pd6  1  0.332830  0.666237  0.750000  1
  Pt  Pt7  1  0.666138  0.333410  0.250000  1
