# generated using pymatgen
data_Gd3(GaIr)2
_symmetry_space_group_name_H-M   'P 1'
_cell_length_a   5.58603400
_cell_length_b   7.85347400
_cell_length_c   13.56866000
_cell_angle_alpha   90.00000000
_cell_angle_beta   90.00000000
_cell_angle_gamma   90.00000000
_symmetry_Int_Tables_number   1
_chemical_formula_structural   Gd3(GaIr)2
_chemical_formula_sum   'Gd12 Ga8 Ir8'
_cell_volume   595.25403116
_cell_formula_units_Z   4
loop_
 _symmetry_equiv_pos_site_id
 _symmetry_equiv_pos_as_xyz
  1  'x, y, z'
loop_
 _atom_site_type_symbol
 _atom_site_label
 _atom_site_symmetry_multiplicity
 _atom_site_fract_x
 _atom_site_fract_y
 _atom_site_fract_z
 _atom_site_occupancy
  Gd  Gd0  1  0.622305  0.265500  0.250000  1
  Gd  Gd1  1  0.377695  0.734500  0.750000  1
  Gd  Gd2  1  0.377695  0.765500  0.250000  1
  Gd  Gd3  1  0.622305  0.234500  0.750000  1
  Gd  Gd4  1  0.151310  0.399687  0.097538  1
  Gd  Gd5  1  0.848690  0.600313  0.902462  1
  Gd  Gd6  1  0.848690  0.600313  0.597538  1
  Gd  Gd7  1  0.848690  0.899687  0.402462  1
  Gd  Gd8  1  0.151310  0.399687  0.402462  1
  Gd  Gd9  1  0.151310  0.100313  0.597538  1
  Gd  Gd10  1  0.151310  0.100313  0.902462  1
  Gd  Gd11  1  0.848690  0.899687  0.097538  1
  Ga  Ga12  1  0.117961  0.110417  0.250000  1
  Ga  Ga13  1  0.882039  0.889583  0.750000  1
  Ga  Ga14  1  0.882039  0.610417  0.250000  1
  Ga  Ga15  1  0.117961  0.389583  0.750000  1
  Ga  Ga16  1  0.636587  0.250000  0.000000  1
  Ga  Ga17  1  0.363413  0.750000  0.000000  1
  Ga  Ga18  1  0.363413  0.750000  0.500000  1
  Ga  Ga19  1  0.636587  0.250000  0.500000  1
  Ir  Ir20  1  0.352703  0.036078  0.094196  1
  Ir  Ir21  1  0.647297  0.963922  0.905804  1
  Ir  Ir22  1  0.647297  0.963922  0.594196  1
  Ir  Ir23  1  0.647297  0.536078  0.405804  1
  Ir  Ir24  1  0.352703  0.036078  0.405804  1
  Ir  Ir25  1  0.352703  0.463922  0.594196  1
  Ir  Ir26  1  0.352703  0.463922  0.905804  1
  Ir  Ir27  1  0.647297  0.536078  0.094196  1
