# generated using pymatgen
data_Zr3Sc6MnAl12Os7
_symmetry_space_group_name_H-M   'P 1'
_cell_length_a   8.94318440
_cell_length_b   8.94318363
_cell_length_c   8.92026574
_cell_angle_alpha   59.91496733
_cell_angle_beta   59.91497140
_cell_angle_gamma   60.00000453
_symmetry_Int_Tables_number   1
_chemical_formula_structural   Zr3Sc6MnAl12Os7
_chemical_formula_sum   'Zr3 Sc6 Mn1 Al12 Os7'
_cell_volume   503.83435143
_cell_formula_units_Z   1
loop_
 _symmetry_equiv_pos_site_id
 _symmetry_equiv_pos_as_xyz
  1  'x, y, z'
loop_
 _atom_site_type_symbol
 _atom_site_label
 _atom_site_symmetry_multiplicity
 _atom_site_fract_x
 _atom_site_fract_y
 _atom_site_fract_z
 _atom_site_occupancy
  Zr  Zr0  1  0.882317  0.356548  0.878817  1
  Zr  Zr1  1  0.356548  0.882317  0.878817  1
  Zr  Zr2  1  0.882317  0.882317  0.878817  1
  Sc  Sc3  1  0.712634  0.712634  0.294139  1
  Sc  Sc4  1  0.280594  0.712634  0.294139  1
  Sc  Sc5  1  0.712634  0.280594  0.294139  1
  Sc  Sc6  1  0.297033  0.297033  0.701481  1
  Sc  Sc7  1  0.704452  0.297033  0.701481  1
  Sc  Sc8  1  0.297033  0.704452  0.701481  1
  Mn  Mn9  1  0.877914  0.877914  0.366257  1
  Al  Al10  1  0.121486  0.121486  0.635544  1
  Al  Al11  1  0.122467  0.632241  0.122825  1
  Al  Al12  1  0.632241  0.122467  0.122825  1
  Al  Al13  1  0.122467  0.122467  0.122825  1
  Al  Al14  1  0.662621  0.662621  0.012138  1
  Al  Al15  1  0.668844  0.004623  0.657692  1
  Al  Al16  1  0.004623  0.668844  0.657692  1
  Al  Al17  1  0.668844  0.668844  0.657692  1
  Al  Al18  1  0.335222  0.335222  0.994333  1
  Al  Al19  1  0.335542  0.994174  0.334739  1
  Al  Al20  1  0.994174  0.335542  0.334739  1
  Al  Al21  1  0.335542  0.335542  0.334739  1
  Os  Os22  1  0.987916  0.987916  0.036251  1
  Os  Os23  1  0.000809  0.000809  0.496142  1
  Os  Os24  1  0.502240  0.000809  0.496142  1
  Os  Os25  1  0.000809  0.502240  0.496142  1
  Os  Os26  1  0.499777  0.499777  0.999324  1
  Os  Os27  1  0.001122  0.499777  0.999324  1
  Os  Os28  1  0.499777  0.001122  0.999324  1
