# generated using pymatgen
data_Dy(ReO4)3
_symmetry_space_group_name_H-M   'P 1'
_cell_length_a   10.23215100
_cell_length_b   10.23203744
_cell_length_c   6.20073200
_cell_angle_alpha   90.00000000
_cell_angle_beta   90.00000000
_cell_angle_gamma   120.00191903
_symmetry_Int_Tables_number   1
_chemical_formula_structural   Dy(ReO4)3
_chemical_formula_sum   'Dy2 Re6 O24'
_cell_volume   562.20442002
_cell_formula_units_Z   2
loop_
 _symmetry_equiv_pos_site_id
 _symmetry_equiv_pos_as_xyz
  1  'x, y, z'
loop_
 _atom_site_type_symbol
 _atom_site_label
 _atom_site_symmetry_multiplicity
 _atom_site_fract_x
 _atom_site_fract_y
 _atom_site_fract_z
 _atom_site_occupancy
  Dy  Dy0  1  0.666656  0.333343  0.750000  1
  Dy  Dy1  1  0.333344  0.666657  0.250000  1
  Re  Re2  1  0.091415  0.395463  0.750000  1
  Re  Re3  1  0.395431  0.304025  0.250000  1
  Re  Re4  1  0.604569  0.695975  0.750000  1
  Re  Re5  1  0.908585  0.604537  0.250000  1
  Re  Re6  1  0.304094  0.908583  0.750000  1
  Re  Re7  1  0.695906  0.091417  0.250000  1
  O  O8  1  0.487850  0.647497  0.520087  1
  O  O9  1  0.352571  0.840345  0.520078  1
  O  O10  1  0.842424  0.730256  0.250000  1
  O  O11  1  0.112209  0.842430  0.750000  1
  O  O12  1  0.269705  0.112145  0.250000  1
  O  O13  1  0.157576  0.269744  0.750000  1
  O  O14  1  0.512150  0.352503  0.020087  1
  O  O15  1  0.887791  0.157570  0.250000  1
  O  O16  1  0.106593  0.700945  0.250000  1
  O  O17  1  0.159656  0.512180  0.979928  1
  O  O18  1  0.159656  0.512180  0.520072  1
  O  O19  1  0.893407  0.299055  0.750000  1
  O  O20  1  0.299038  0.405630  0.250000  1
  O  O21  1  0.700962  0.594370  0.750000  1
  O  O22  1  0.840344  0.487820  0.479928  1
  O  O23  1  0.405697  0.106592  0.750000  1
  O  O24  1  0.647429  0.159655  0.020078  1
  O  O25  1  0.487850  0.647497  0.979913  1
  O  O26  1  0.352571  0.840345  0.979922  1
  O  O27  1  0.647429  0.159655  0.479922  1
  O  O28  1  0.512150  0.352503  0.479913  1
  O  O29  1  0.840344  0.487820  0.020072  1
  O  O30  1  0.730295  0.887855  0.750000  1
  O  O31  1  0.594303  0.893408  0.250000  1
