# generated using pymatgen
data_Er4Ga2SiGe
_symmetry_space_group_name_H-M   'P 1'
_cell_length_a   3.94367900
_cell_length_b   5.74343243
_cell_length_c   7.94138214
_cell_angle_alpha   90.07124449
_cell_angle_beta   90.00000000
_cell_angle_gamma   90.00000000
_symmetry_Int_Tables_number   1
_chemical_formula_structural   Er4Ga2SiGe
_chemical_formula_sum   'Er4 Ga2 Si1 Ge1'
_cell_volume   179.87418266
_cell_formula_units_Z   1
loop_
 _symmetry_equiv_pos_site_id
 _symmetry_equiv_pos_as_xyz
  1  'x, y, z'
loop_
 _atom_site_type_symbol
 _atom_site_label
 _atom_site_symmetry_multiplicity
 _atom_site_fract_x
 _atom_site_fract_y
 _atom_site_fract_z
 _atom_site_occupancy
  Er  Er0  1  0.250000  0.382384  0.681618  1
  Er  Er1  1  0.250000  0.117968  0.175782  1
  Er  Er2  1  0.750000  0.614435  0.319718  1
  Er  Er3  1  0.750000  0.886272  0.822471  1
  Ga  Ga4  1  0.250000  0.864002  0.539966  1
  Ga  Ga5  1  0.250000  0.630322  0.038643  1
  Si  Si6  1  0.750000  0.369701  0.961389  1
  Ge  Ge7  1  0.750000  0.134915  0.460413  1
