# generated using pymatgen
data_Cs3In2Bi3
_symmetry_space_group_name_H-M   'P 1'
_cell_length_a   11.99276284
_cell_length_b   11.99276219
_cell_length_c   17.05961100
_cell_angle_alpha   90.00000000
_cell_angle_beta   90.00000000
_cell_angle_gamma   141.70361827
_symmetry_Int_Tables_number   1
_chemical_formula_structural   Cs3In2Bi3
_chemical_formula_sum   'Cs12 In8 Bi12'
_cell_volume   1520.58163464
_cell_formula_units_Z   4
loop_
 _symmetry_equiv_pos_site_id
 _symmetry_equiv_pos_as_xyz
  1  'x, y, z'
loop_
 _atom_site_type_symbol
 _atom_site_label
 _atom_site_symmetry_multiplicity
 _atom_site_fract_x
 _atom_site_fract_y
 _atom_site_fract_z
 _atom_site_occupancy
  Cs  Cs0  1  0.611612  0.929807  0.667672  1
  Cs  Cs1  1  0.570193  0.888388  0.167672  1
  Cs  Cs2  1  0.070193  0.388388  0.332328  1
  Cs  Cs3  1  0.111612  0.429807  0.832328  1
  Cs  Cs4  1  0.659872  0.659872  0.865389  1
  Cs  Cs5  1  0.429807  0.111612  0.832328  1
  Cs  Cs6  1  0.340128  0.340128  0.134611  1
  Cs  Cs7  1  0.929807  0.611612  0.667672  1
  Cs  Cs8  1  0.159872  0.159872  0.634611  1
  Cs  Cs9  1  0.888388  0.570193  0.167672  1
  Cs  Cs10  1  0.840128  0.840128  0.365389  1
  Cs  Cs11  1  0.388388  0.070193  0.332328  1
  In  In12  1  0.240293  0.759707  0.500000  1
  In  In13  1  0.259707  0.740293  0.000000  1
  In  In14  1  0.740293  0.259707  0.000000  1
  In  In15  1  0.916635  0.083365  0.000000  1
  In  In16  1  0.759707  0.240293  0.500000  1
  In  In17  1  0.083365  0.916635  0.000000  1
  In  In18  1  0.416635  0.583365  0.500000  1
  In  In19  1  0.583365  0.416635  0.500000  1
  Bi  Bi20  1  0.049818  0.397710  0.092132  1
  Bi  Bi21  1  0.660321  0.660321  0.613563  1
  Bi  Bi22  1  0.397710  0.049818  0.092132  1
  Bi  Bi23  1  0.602290  0.950182  0.907868  1
  Bi  Bi24  1  0.950182  0.602290  0.907868  1
  Bi  Bi25  1  0.450182  0.102290  0.592132  1
  Bi  Bi26  1  0.549818  0.897710  0.407868  1
  Bi  Bi27  1  0.160321  0.160321  0.886437  1
  Bi  Bi28  1  0.102290  0.450182  0.592132  1
  Bi  Bi29  1  0.839679  0.839679  0.113563  1
  Bi  Bi30  1  0.339679  0.339679  0.386437  1
  Bi  Bi31  1  0.897710  0.549818  0.407868  1
