# generated using pymatgen
data_Dy2ZnRh3
_symmetry_space_group_name_H-M   'P 1'
_cell_length_a   5.56084162
_cell_length_b   5.15640826
_cell_length_c   5.56084100
_cell_angle_alpha   57.36967373
_cell_angle_beta   59.99999774
_cell_angle_gamma   57.36968218
_symmetry_Int_Tables_number   1
_chemical_formula_structural   Dy2ZnRh3
_chemical_formula_sum   'Dy2 Zn1 Rh3'
_cell_volume   108.05646394
_cell_formula_units_Z   1
loop_
 _symmetry_equiv_pos_site_id
 _symmetry_equiv_pos_as_xyz
  1  'x, y, z'
loop_
 _atom_site_type_symbol
 _atom_site_label
 _atom_site_symmetry_multiplicity
 _atom_site_fract_x
 _atom_site_fract_y
 _atom_site_fract_z
 _atom_site_occupancy
  Dy  Dy0  1  0.754452  0.736644  0.754452  1
  Dy  Dy1  1  0.495548  0.513356  0.495548  1
  Zn  Zn2  1  0.125000  0.625000  0.125000  1
  Rh  Rh3  1  0.125000  0.125000  0.625000  1
  Rh  Rh4  1  0.125000  0.125000  0.125000  1
  Rh  Rh5  1  0.625000  0.125000  0.125000  1
