# generated using pymatgen
data_YHo15(InRu)4
_symmetry_space_group_name_H-M   'P 1'
_cell_length_a   9.65597391
_cell_length_b   9.65661999
_cell_length_c   9.65743136
_cell_angle_alpha   59.50708210
_cell_angle_beta   59.51134083
_cell_angle_gamma   59.50313863
_symmetry_Int_Tables_number   1
_chemical_formula_structural   YHo15(InRu)4
_chemical_formula_sum   'Y1 Ho15 In4 Ru4'
_cell_volume   629.61209358
_cell_formula_units_Z   1
loop_
 _symmetry_equiv_pos_site_id
 _symmetry_equiv_pos_as_xyz
  1  'x, y, z'
loop_
 _atom_site_type_symbol
 _atom_site_label
 _atom_site_symmetry_multiplicity
 _atom_site_fract_x
 _atom_site_fract_y
 _atom_site_fract_z
 _atom_site_occupancy
  Y  Y0  1  0.189937  0.189933  0.809785  1
  Ho  Ho1  1  0.598369  0.598364  0.206310  1
  Ho  Ho2  1  0.440770  0.058605  0.440087  1
  Ho  Ho3  1  0.440470  0.440470  0.058744  1
  Ho  Ho4  1  0.808366  0.189717  0.809050  1
  Ho  Ho5  1  0.190678  0.808791  0.190852  1
  Ho  Ho6  1  0.438762  0.059310  0.059518  1
  Ho  Ho7  1  0.189717  0.808366  0.809048  1
  Ho  Ho8  1  0.059310  0.438762  0.059525  1
  Ho  Ho9  1  0.809456  0.809450  0.189083  1
  Ho  Ho10  1  0.205890  0.598610  0.598322  1
  Ho  Ho11  1  0.058601  0.440769  0.440091  1
  Ho  Ho12  1  0.059418  0.059419  0.438264  1
  Ho  Ho13  1  0.808796  0.190672  0.190851  1
  Ho  Ho14  1  0.598616  0.205885  0.598323  1
  Ho  Ho15  1  0.599310  0.599305  0.598668  1
  In  In16  1  0.832901  0.832897  0.833180  1
  In  In17  1  0.831855  0.831854  0.502702  1
  In  In18  1  0.503024  0.831504  0.832004  1
  In  In19  1  0.831494  0.503043  0.832007  1
  Ru  Ru20  1  0.392858  0.828431  0.393147  1
  Ru  Ru21  1  0.389659  0.389652  0.388887  1
  Ru  Ru22  1  0.828428  0.392866  0.393151  1
  Ru  Ru23  1  0.393318  0.393327  0.828402  1
