# generated using pymatgen
data_Hf2TaNb(PRu)4
_symmetry_space_group_name_H-M   'P 1'
_cell_length_a   3.80305700
_cell_length_b   6.37008905
_cell_length_c   7.27071405
_cell_angle_alpha   89.98626330
_cell_angle_beta   90.00000000
_cell_angle_gamma   90.00000000
_symmetry_Int_Tables_number   1
_chemical_formula_structural   Hf2TaNb(PRu)4
_chemical_formula_sum   'Hf2 Ta1 Nb1 P4 Ru4'
_cell_volume   176.13894475
_cell_formula_units_Z   1
loop_
 _symmetry_equiv_pos_site_id
 _symmetry_equiv_pos_as_xyz
  1  'x, y, z'
loop_
 _atom_site_type_symbol
 _atom_site_label
 _atom_site_symmetry_multiplicity
 _atom_site_fract_x
 _atom_site_fract_y
 _atom_site_fract_z
 _atom_site_occupancy
  Hf  Hf0  1  0.250000  0.023920  0.822876  1
  Hf  Hf1  1  0.250000  0.523847  0.677565  1
  Ta  Ta2  1  0.750000  0.476861  0.323897  1
  Nb  Nb3  1  0.750000  0.976830  0.175121  1
  P  P4  1  0.250000  0.771075  0.372647  1
  P  P5  1  0.250000  0.271495  0.127029  1
  P  P6  1  0.750000  0.230791  0.619161  1
  P  P7  1  0.750000  0.730920  0.880771  1
  Ru  Ru8  1  0.250000  0.149810  0.437665  1
  Ru  Ru9  1  0.250000  0.646601  0.064439  1
  Ru  Ru10  1  0.750000  0.848083  0.556340  1
  Ru  Ru11  1  0.750000  0.349769  0.942488  1
