# generated using pymatgen
data_YbSm(Ni5Sn)2
_symmetry_space_group_name_H-M   'P 1'
_cell_length_a   8.06312000
_cell_length_b   4.86392300
_cell_length_c   10.24747100
_cell_angle_alpha   90.00000000
_cell_angle_beta   90.00000000
_cell_angle_gamma   90.00000000
_symmetry_Int_Tables_number   1
_chemical_formula_structural   YbSm(Ni5Sn)2
_chemical_formula_sum   'Yb2 Sm2 Ni20 Sn4'
_cell_volume   401.88936358
_cell_formula_units_Z   2
loop_
 _symmetry_equiv_pos_site_id
 _symmetry_equiv_pos_as_xyz
  1  'x, y, z'
loop_
 _atom_site_type_symbol
 _atom_site_label
 _atom_site_symmetry_multiplicity
 _atom_site_fract_x
 _atom_site_fract_y
 _atom_site_fract_z
 _atom_site_occupancy
  Yb  Yb0  1  0.752721  0.750001  0.059024  1
  Yb  Yb1  1  0.252720  0.750001  0.440975  1
  Sm  Sm2  1  0.748934  0.249999  0.559078  1
  Sm  Sm3  1  0.248934  0.249999  0.940922  1
  Ni  Ni4  1  0.910826  0.249999  0.018398  1
  Ni  Ni5  1  0.551509  0.249999  0.101533  1
  Ni  Ni6  1  0.065496  0.501527  0.190539  1
  Ni  Ni7  1  0.065496  0.998472  0.190539  1
  Ni  Ni8  1  0.811866  0.249999  0.243830  1
  Ni  Ni9  1  0.311866  0.249999  0.256170  1
  Ni  Ni10  1  0.565496  0.501527  0.309461  1
  Ni  Ni11  1  0.565496  0.998472  0.309461  1
  Ni  Ni12  1  0.051509  0.249999  0.398468  1
  Ni  Ni13  1  0.410826  0.249999  0.481602  1
  Ni  Ni14  1  0.581503  0.750001  0.515770  1
  Ni  Ni15  1  0.952738  0.750001  0.600445  1
  Ni  Ni16  1  0.433837  0.001084  0.690431  1
  Ni  Ni17  1  0.433837  0.498917  0.690431  1
  Ni  Ni18  1  0.687381  0.750001  0.743840  1
  Ni  Ni19  1  0.187381  0.750001  0.756160  1
  Ni  Ni20  1  0.933837  0.001084  0.809569  1
  Ni  Ni21  1  0.933837  0.498917  0.809569  1
  Ni  Ni22  1  0.452738  0.750001  0.899554  1
  Ni  Ni23  1  0.081503  0.750001  0.984230  1
  Sn  Sn24  1  0.361525  0.750001  0.141561  1
  Sn  Sn25  1  0.861525  0.750001  0.358439  1
  Sn  Sn26  1  0.142330  0.249999  0.637052  1
  Sn  Sn27  1  0.642330  0.249999  0.862948  1
