# generated using pymatgen
data_AcPrPa2(Al8Pt3)3
_symmetry_space_group_name_H-M   'P 1'
_cell_length_a   7.62773223
_cell_length_b   7.63321654
_cell_length_c   13.25626147
_cell_angle_alpha   84.49221568
_cell_angle_beta   78.96282808
_cell_angle_gamma   59.86202763
_symmetry_Int_Tables_number   1
_chemical_formula_structural   AcPrPa2(Al8Pt3)3
_chemical_formula_sum   'Ac1 Pr1 Pa2 Al24 Pt9'
_cell_volume   655.15029611
_cell_formula_units_Z   1
loop_
 _symmetry_equiv_pos_site_id
 _symmetry_equiv_pos_as_xyz
  1  'x, y, z'
loop_
 _atom_site_type_symbol
 _atom_site_label
 _atom_site_symmetry_multiplicity
 _atom_site_fract_x
 _atom_site_fract_y
 _atom_site_fract_z
 _atom_site_occupancy
  Ac  Ac0  1  0.266759  0.501558  0.190910  1
  Pr  Pr1  1  0.733481  0.498419  0.808267  1
  Pa  Pa2  1  0.396227  0.168245  0.802338  1
  Pa  Pa3  1  0.603508  0.832373  0.197483  1
  Al  Al4  1  0.682655  0.835861  0.945522  1
  Al  Al5  1  0.317630  0.161681  0.049901  1
  Al  Al6  1  0.145568  0.833400  0.561367  1
  Al  Al7  1  0.853804  0.166985  0.440641  1
  Al  Al8  1  0.481025  0.167233  0.558201  1
  Al  Al9  1  0.518943  0.832197  0.442899  1
  Al  Al10  1  0.211915  0.165380  0.337961  1
  Al  Al11  1  0.786731  0.832385  0.666179  1
  Al  Al12  1  0.437557  0.509497  0.667181  1
  Al  Al13  1  0.563374  0.490493  0.336957  1
  Al  Al14  1  0.109514  0.158784  0.665560  1
  Al  Al15  1  0.886728  0.843610  0.338732  1
  Al  Al16  1  0.352113  0.499264  0.940108  1
  Al  Al17  1  0.653171  0.500110  0.053533  1
  Al  Al18  1  0.017887  0.166373  0.952113  1
  Al  Al19  1  0.982004  0.836386  0.042322  1
  Al  Al20  1  0.184776  0.500407  0.444043  1
  Al  Al21  1  0.813937  0.499719  0.558884  1
  Al  Al22  1  0.746354  0.149675  0.183164  1
  Al  Al23  1  0.260347  0.842905  0.815943  1
  Al  Al24  1  0.064621  0.630937  0.815043  1
  Al  Al25  1  0.926795  0.371300  0.184698  1
  Al  Al26  1  0.853930  0.036904  0.816219  1
  Al  Al27  1  0.148068  0.969556  0.183545  1
  Pt  Pt28  1  0.122906  0.490440  0.639306  1
  Pt  Pt29  1  0.877060  0.508292  0.362646  1
  Pt  Pt30  1  0.658354  0.171905  0.998715  1
  Pt  Pt31  1  0.342254  0.828020  0.998496  1
  Pt  Pt32  1  0.538489  0.164941  0.362424  1
  Pt  Pt33  1  0.461507  0.835248  0.638637  1
  Pt  Pt34  1  0.778087  0.173663  0.638255  1
  Pt  Pt35  1  0.220913  0.826626  0.363349  1
  Pt  Pt36  1  0.001010  0.499228  0.998457  1
