# generated using pymatgen
data_Dy3Tm13(InNi)4
_symmetry_space_group_name_H-M   'P 1'
_cell_length_a   9.49517273
_cell_length_b   9.48730224
_cell_length_c   9.48730200
_cell_angle_alpha   60.00000083
_cell_angle_beta   60.02741664
_cell_angle_gamma   60.02742114
_symmetry_Int_Tables_number   1
_chemical_formula_structural   Dy3Tm13(InNi)4
_chemical_formula_sum   'Dy3 Tm13 In4 Ni4'
_cell_volume   604.57919647
_cell_formula_units_Z   1
loop_
 _symmetry_equiv_pos_site_id
 _symmetry_equiv_pos_as_xyz
  1  'x, y, z'
loop_
 _atom_site_type_symbol
 _atom_site_label
 _atom_site_symmetry_multiplicity
 _atom_site_fract_x
 _atom_site_fract_y
 _atom_site_fract_z
 _atom_site_occupancy
  Dy  Dy0  1  0.347592  0.348383  0.348383  1
  Dy  Dy1  1  0.347592  0.348383  0.955641  1
  Dy  Dy2  1  0.347592  0.955641  0.348383  1
  Tm  Tm3  1  0.956369  0.347877  0.347877  1
  Tm  Tm4  1  0.812925  0.187444  0.187444  1
  Tm  Tm5  1  0.187610  0.812702  0.812702  1
  Tm  Tm6  1  0.187610  0.812702  0.186986  1
  Tm  Tm7  1  0.812925  0.187444  0.812187  1
  Tm  Tm8  1  0.187610  0.186986  0.812702  1
  Tm  Tm9  1  0.812925  0.812187  0.187444  1
  Tm  Tm10  1  0.937823  0.561955  0.561955  1
  Tm  Tm11  1  0.562411  0.937736  0.937736  1
  Tm  Tm12  1  0.562411  0.937736  0.562117  1
  Tm  Tm13  1  0.937823  0.561955  0.938268  1
  Tm  Tm14  1  0.562411  0.562117  0.937736  1
  Tm  Tm15  1  0.937823  0.938268  0.561955  1
  In  In16  1  0.584002  0.582925  0.582925  1
  In  In17  1  0.584002  0.582925  0.250147  1
  In  In18  1  0.584002  0.250147  0.582925  1
  In  In19  1  0.250341  0.583220  0.583220  1
  Ni  Ni20  1  0.140457  0.142612  0.142612  1
  Ni  Ni21  1  0.140457  0.142612  0.574321  1
  Ni  Ni22  1  0.140457  0.574321  0.142612  1
  Ni  Ni23  1  0.574836  0.141722  0.141722  1
