# generated using pymatgen
data_Ho12Zn(InOs)2
_symmetry_space_group_name_H-M   'P 1'
_cell_length_a   8.44379004
_cell_length_b   8.44380105
_cell_length_c   8.44379020
_cell_angle_alpha   110.43836239
_cell_angle_beta   110.43834010
_cell_angle_gamma   107.55376075
_symmetry_Int_Tables_number   1
_chemical_formula_structural   Ho12Zn(InOs)2
_chemical_formula_sum   'Ho12 Zn1 In2 Os2'
_cell_volume   463.04988295
_cell_formula_units_Z   1
loop_
 _symmetry_equiv_pos_site_id
 _symmetry_equiv_pos_as_xyz
  1  'x, y, z'
loop_
 _atom_site_type_symbol
 _atom_site_label
 _atom_site_symmetry_multiplicity
 _atom_site_fract_x
 _atom_site_fract_y
 _atom_site_fract_z
 _atom_site_occupancy
  Ho  Ho0  1  0.441055  0.193512  0.247541  1
  Ho  Ho1  1  0.558945  0.806488  0.752459  1
  Ho  Ho2  1  0.945971  0.193512  0.752458  1
  Ho  Ho3  1  0.193514  0.945976  0.752462  1
  Ho  Ho4  1  0.054029  0.806488  0.247542  1
  Ho  Ho5  1  0.806486  0.054024  0.247538  1
  Ho  Ho6  1  0.193513  0.441054  0.247541  1
  Ho  Ho7  1  0.806487  0.558946  0.752459  1
  Ho  Ho8  1  0.316609  0.316612  0.633220  1
  Ho  Ho9  1  0.683391  0.683388  0.366780  1
  Ho  Ho10  1  0.316607  0.683388  0.999997  1
  Ho  Ho11  1  0.683393  0.316612  0.000003  1
  Zn  Zn12  1  0.000000  0.000000  0.000000  1
  In  In13  1  0.500000  0.000000  0.500000  1
  In  In14  1  0.000000  0.500000  0.500000  1
  Os  Os15  1  0.345851  0.345853  0.000002  1
  Os  Os16  1  0.654149  0.654147  0.999998  1
