# generated using pymatgen
data_Ac2Tb(InAu)3
_symmetry_space_group_name_H-M   'P 1'
_cell_length_a   8.10974653
_cell_length_b   8.04182994
_cell_length_c   4.22650400
_cell_angle_alpha   90.00000000
_cell_angle_beta   90.00000000
_cell_angle_gamma   119.72335295
_symmetry_Int_Tables_number   1
_chemical_formula_structural   Ac2Tb(InAu)3
_chemical_formula_sum   'Ac2 Tb1 In3 Au3'
_cell_volume   239.37457358
_cell_formula_units_Z   1
loop_
 _symmetry_equiv_pos_site_id
 _symmetry_equiv_pos_as_xyz
  1  'x, y, z'
loop_
 _atom_site_type_symbol
 _atom_site_label
 _atom_site_symmetry_multiplicity
 _atom_site_fract_x
 _atom_site_fract_y
 _atom_site_fract_z
 _atom_site_occupancy
  Ac  Ac0  1  0.588838  0.999945  0.500000  1
  Ac  Ac1  1  0.411162  0.411106  0.500000  1
  Tb  Tb2  1  0.000000  0.593357  0.500000  1
  In  In3  1  0.758744  0.749908  0.000000  1
  In  In4  1  0.000000  0.252165  0.000000  1
  In  In5  1  0.241256  0.991164  0.000000  1
  Au  Au6  1  0.309908  0.659683  0.000000  1
  Au  Au7  1  0.690092  0.349773  0.000000  1
  Au  Au8  1  0.000000  0.992899  0.500000  1
