# generated using pymatgen
data_YZn3CuPd
_symmetry_space_group_name_H-M   'P 1'
_cell_length_a   5.08804877
_cell_length_b   5.14062231
_cell_length_c   5.14062300
_cell_angle_alpha   60.00000198
_cell_angle_beta   59.65760467
_cell_angle_gamma   59.65760536
_symmetry_Int_Tables_number   1
_chemical_formula_structural   YZn3CuPd
_chemical_formula_sum   'Y1 Zn3 Cu1 Pd1'
_cell_volume   94.58028697
_cell_formula_units_Z   1
loop_
 _symmetry_equiv_pos_site_id
 _symmetry_equiv_pos_as_xyz
  1  'x, y, z'
loop_
 _atom_site_type_symbol
 _atom_site_label
 _atom_site_symmetry_multiplicity
 _atom_site_fract_x
 _atom_site_fract_y
 _atom_site_fract_z
 _atom_site_occupancy
  Y  Y0  1  0.247829  0.250724  0.250724  1
  Zn  Zn1  1  0.625979  0.627011  0.627011  1
  Zn  Zn2  1  0.625979  0.627011  0.119998  1
  Zn  Zn3  1  0.625979  0.119998  0.627011  1
  Cu  Cu4  1  0.125271  0.624909  0.624909  1
  Pd  Pd5  1  0.998962  0.000346  0.000346  1
