# generated using pymatgen
data_Tb16In4IrPd2Pt
_symmetry_space_group_name_H-M   'P 1'
_cell_length_a   9.74894340
_cell_length_b   9.75203355
_cell_length_c   9.74894238
_cell_angle_alpha   60.04233864
_cell_angle_beta   60.00875670
_cell_angle_gamma   60.04233525
_symmetry_Int_Tables_number   1
_chemical_formula_structural   Tb16In4IrPd2Pt
_chemical_formula_sum   'Tb16 In4 Ir1 Pd2 Pt1'
_cell_volume   655.84563104
_cell_formula_units_Z   1
loop_
 _symmetry_equiv_pos_site_id
 _symmetry_equiv_pos_as_xyz
  1  'x, y, z'
loop_
 _atom_site_type_symbol
 _atom_site_label
 _atom_site_symmetry_multiplicity
 _atom_site_fract_x
 _atom_site_fract_y
 _atom_site_fract_z
 _atom_site_occupancy
  Tb  Tb0  1  0.102591  0.690255  0.102591  1
  Tb  Tb1  1  0.939909  0.941183  0.561433  1
  Tb  Tb2  1  0.939901  0.557691  0.939901  1
  Tb  Tb3  1  0.313629  0.685978  0.313629  1
  Tb  Tb4  1  0.940459  0.555402  0.564480  1
  Tb  Tb5  1  0.310461  0.316500  0.685142  1
  Tb  Tb6  1  0.097486  0.104231  0.097486  1
  Tb  Tb7  1  0.564480  0.555402  0.940459  1
  Tb  Tb8  1  0.098464  0.104528  0.697260  1
  Tb  Tb9  1  0.688462  0.313856  0.688462  1
  Tb  Tb10  1  0.687533  0.688504  0.310951  1
  Tb  Tb11  1  0.685142  0.316500  0.310461  1
  Tb  Tb12  1  0.310951  0.688504  0.687533  1
  Tb  Tb13  1  0.558887  0.941953  0.558887  1
  Tb  Tb14  1  0.697260  0.104528  0.098464  1
  Tb  Tb15  1  0.561433  0.941183  0.939909  1
  In  In16  1  0.334168  0.332772  0.334168  1
  In  In17  1  0.001789  0.331993  0.333489  1
  In  In18  1  0.332338  0.002552  0.332338  1
  In  In19  1  0.333489  0.331993  0.001789  1
  Ir  Ir20  1  0.892235  0.321715  0.892235  1
  Pd  Pd21  1  0.893843  0.890619  0.320439  1
  Pd  Pd22  1  0.320439  0.890619  0.893843  1
  Pt  Pt23  1  0.894649  0.891537  0.894649  1
