# generated using pymatgen
data_Yb3Ce3(MnC3)4
_symmetry_space_group_name_H-M   'P 1'
_cell_length_a   8.08638185
_cell_length_b   8.08443920
_cell_length_c   5.04969200
_cell_angle_alpha   90.00000000
_cell_angle_beta   90.00000000
_cell_angle_gamma   120.06017071
_symmetry_Int_Tables_number   1
_chemical_formula_structural   Yb3Ce3(MnC3)4
_chemical_formula_sum   'Yb3 Ce3 Mn4 C12'
_cell_volume   285.71696274
_cell_formula_units_Z   1
loop_
 _symmetry_equiv_pos_site_id
 _symmetry_equiv_pos_as_xyz
  1  'x, y, z'
loop_
 _atom_site_type_symbol
 _atom_site_label
 _atom_site_symmetry_multiplicity
 _atom_site_fract_x
 _atom_site_fract_y
 _atom_site_fract_z
 _atom_site_occupancy
  Yb  Yb0  1  0.617839  0.691170  0.750000  1
  Yb  Yb1  1  0.925706  0.618531  0.250000  1
  Yb  Yb2  1  0.687334  0.072505  0.250000  1
  Ce  Ce3  1  0.307585  0.928204  0.750000  1
  Ce  Ce4  1  0.067839  0.379444  0.750000  1
  Ce  Ce5  1  0.384621  0.312868  0.250000  1
  Mn  Mn6  1  0.996527  0.998628  0.500536  1
  Mn  Mn7  1  0.996527  0.998628  0.999464  1
  Mn  Mn8  1  0.666634  0.330132  0.750000  1
  Mn  Mn9  1  0.332367  0.663516  0.250000  1
  C  C10  1  0.953017  0.772872  0.750000  1
  C  C11  1  0.192587  0.962513  0.250000  1
  C  C12  1  0.776365  0.824302  0.250000  1
  C  C13  1  0.227797  0.188885  0.750000  1
  C  C14  1  0.822516  0.043755  0.750000  1
  C  C15  1  0.042871  0.222853  0.250000  1
  C  C16  1  0.858080  0.578722  0.750000  1
  C  C17  1  0.278463  0.853622  0.250000  1
  C  C18  1  0.583667  0.723424  0.250000  1
  C  C19  1  0.424743  0.283199  0.750000  1
  C  C20  1  0.139555  0.418336  0.250000  1
  C  C21  1  0.717361  0.133892  0.750000  1
