# generated using pymatgen
data_Tb2Y8(BiPb)3
_symmetry_space_group_name_H-M   'P 1'
_cell_length_a   9.13535900
_cell_length_b   9.13535791
_cell_length_c   6.49600600
_cell_angle_alpha   90.00000000
_cell_angle_beta   90.00000000
_cell_angle_gamma   120.00000032
_symmetry_Int_Tables_number   1
_chemical_formula_structural   Tb2Y8(BiPb)3
_chemical_formula_sum   'Tb2 Y8 Bi3 Pb3'
_cell_volume   469.49204033
_cell_formula_units_Z   1
loop_
 _symmetry_equiv_pos_site_id
 _symmetry_equiv_pos_as_xyz
  1  'x, y, z'
loop_
 _atom_site_type_symbol
 _atom_site_label
 _atom_site_symmetry_multiplicity
 _atom_site_fract_x
 _atom_site_fract_y
 _atom_site_fract_z
 _atom_site_occupancy
  Tb  Tb0  1  0.666667  0.333333  0.002582  1
  Tb  Tb1  1  0.333333  0.666667  0.002582  1
  Y  Y2  1  0.333333  0.666667  0.497562  1
  Y  Y3  1  0.666667  0.333333  0.497562  1
  Y  Y4  1  0.761309  0.761309  0.749918  1
  Y  Y5  1  0.238691  0.000000  0.749918  1
  Y  Y6  1  0.000000  0.238691  0.749918  1
  Y  Y7  1  0.239181  0.239181  0.250000  1
  Y  Y8  1  0.760819  0.000000  0.250000  1
  Y  Y9  1  0.000000  0.760819  0.250000  1
  Bi  Bi10  1  0.393016  0.393016  0.750219  1
  Bi  Bi11  1  0.606984  0.000000  0.750219  1
  Bi  Bi12  1  0.000000  0.606984  0.750219  1
  Pb  Pb13  1  0.607315  0.607315  0.249767  1
  Pb  Pb14  1  0.392685  0.000000  0.249767  1
  Pb  Pb15  1  0.000000  0.392685  0.249767  1
