# generated using pymatgen
data_Tb3Er5Ge8(BiO5)8
_symmetry_space_group_name_H-M   'P 1'
_cell_length_a   5.39326606
_cell_length_b   11.12580607
_cell_length_c   15.45341208
_cell_angle_alpha   90.00416588
_cell_angle_beta   90.01107388
_cell_angle_gamma   90.01248803
_symmetry_Int_Tables_number   1
_chemical_formula_structural   Tb3Er5Ge8(BiO5)8
_chemical_formula_sum   'Tb3 Er5 Ge8 Bi8 O40'
_cell_volume   927.27317661
_cell_formula_units_Z   1
loop_
 _symmetry_equiv_pos_site_id
 _symmetry_equiv_pos_as_xyz
  1  'x, y, z'
loop_
 _atom_site_type_symbol
 _atom_site_label
 _atom_site_symmetry_multiplicity
 _atom_site_fract_x
 _atom_site_fract_y
 _atom_site_fract_z
 _atom_site_occupancy
  Tb  Tb0  1  0.011021  0.859010  0.553211  1
  Tb  Tb1  1  0.510976  0.140972  0.946830  1
  Tb  Tb2  1  0.488986  0.359035  0.446781  1
  Er  Er3  1  0.489840  0.858561  0.053191  1
  Er  Er4  1  0.990137  0.140949  0.446741  1
  Er  Er5  1  0.509904  0.640935  0.553249  1
  Er  Er6  1  0.009791  0.359456  0.946970  1
  Er  Er7  1  0.989868  0.641082  0.052984  1
  Ge  Ge8  1  0.006413  0.403369  0.595865  1
  Ge  Ge9  1  0.993391  0.597294  0.404069  1
  Ge  Ge10  1  0.506508  0.596827  0.904610  1
  Ge  Ge11  1  0.493500  0.903299  0.404026  1
  Ge  Ge12  1  0.993649  0.096615  0.095886  1
  Ge  Ge13  1  0.006438  0.902096  0.904369  1
  Ge  Ge14  1  0.493412  0.403752  0.095786  1
  Ge  Ge15  1  0.506618  0.097280  0.595929  1
  Bi  Bi16  1  0.544345  0.647602  0.236687  1
  Bi  Bi17  1  0.043968  0.352264  0.262538  1
  Bi  Bi18  1  0.544520  0.146870  0.262925  1
  Bi  Bi19  1  0.456078  0.852146  0.737447  1
  Bi  Bi20  1  0.956132  0.147841  0.762665  1
  Bi  Bi21  1  0.455473  0.353227  0.762933  1
  Bi  Bi22  1  0.955533  0.646869  0.737146  1
  Bi  Bi23  1  0.044340  0.852602  0.236620  1
  O  O24  1  0.195331  0.975625  0.126043  1
  O  O25  1  0.247313  0.236236  0.849391  1
  O  O26  1  0.694501  0.524854  0.126243  1
  O  O27  1  0.750282  0.764857  0.149761  1
  O  O28  1  0.199895  0.960219  0.437817  1
  O  O29  1  0.933916  0.670392  0.302187  1
  O  O30  1  0.800454  0.042842  0.560720  1
  O  O31  1  0.934215  0.169855  0.197586  1
  O  O32  1  0.198821  0.458927  0.060894  1
  O  O33  1  0.752660  0.263821  0.349384  1
  O  O34  1  0.801241  0.541291  0.939165  1
  O  O35  1  0.065606  0.829568  0.802192  1
  O  O36  1  0.249473  0.234202  0.349428  1
  O  O37  1  0.860012  0.308106  0.520328  1
  O  O38  1  0.855724  0.808259  0.979955  1
  O  O39  1  0.434392  0.330098  0.197595  1
  O  O40  1  0.808065  0.023595  0.873244  1
  O  O41  1  0.747310  0.763783  0.650663  1
  O  O42  1  0.699915  0.039633  0.062157  1
  O  O43  1  0.639933  0.808165  0.479645  1
  O  O44  1  0.750680  0.265891  0.849541  1
  O  O45  1  0.694938  0.024382  0.373920  1
  O  O46  1  0.353998  0.190262  0.520653  1
  O  O47  1  0.250531  0.734158  0.650566  1
  O  O48  1  0.065775  0.330111  0.697591  1
  O  O49  1  0.300392  0.957033  0.939315  1
  O  O50  1  0.645249  0.310067  0.020684  1
  O  O51  1  0.139856  0.192032  0.020356  1
  O  O52  1  0.565837  0.669791  0.802735  1
  O  O53  1  0.305834  0.475568  0.874040  1
  O  O54  1  0.699563  0.542817  0.439307  1
  O  O55  1  0.308000  0.975959  0.627022  1
  O  O56  1  0.300177  0.460247  0.562206  1
  O  O57  1  0.192007  0.475964  0.373027  1
  O  O58  1  0.565761  0.170410  0.697864  1
  O  O59  1  0.804997  0.524365  0.626043  1
  O  O60  1  0.356223  0.691258  0.979976  1
  O  O61  1  0.145989  0.690268  0.479387  1
  O  O62  1  0.434144  0.830063  0.302178  1
  O  O63  1  0.250147  0.735073  0.149735  1
