# generated using pymatgen
data_CuAgB3(IrPt)2
_symmetry_space_group_name_H-M   'P 1'
_cell_length_a   13.98089590
_cell_length_b   13.98089578
_cell_length_c   2.78384500
_cell_angle_alpha   90.00000000
_cell_angle_beta   90.00000000
_cell_angle_gamma   168.09228241
_symmetry_Int_Tables_number   1
_chemical_formula_structural   CuAgB3(IrPt)2
_chemical_formula_sum   'Cu1 Ag1 B3 Ir2 Pt2'
_cell_volume   112.27680067
_cell_formula_units_Z   1
loop_
 _symmetry_equiv_pos_site_id
 _symmetry_equiv_pos_as_xyz
  1  'x, y, z'
loop_
 _atom_site_type_symbol
 _atom_site_label
 _atom_site_symmetry_multiplicity
 _atom_site_fract_x
 _atom_site_fract_y
 _atom_site_fract_z
 _atom_site_occupancy
  Cu  Cu0  1  0.289794  0.710206  0.500000  1
  Ag  Ag1  1  0.722332  0.277668  0.000000  1
  B  B2  1  0.386746  0.613254  0.500000  1
  B  B3  1  0.605440  0.394560  0.000000  1
  B  B4  1  0.985240  0.014760  0.500000  1
  Ir  Ir5  1  0.857973  0.142027  0.000000  1
  Ir  Ir6  1  0.451990  0.548010  0.000000  1
  Pt  Pt7  1  0.140287  0.859713  0.500000  1
  Pt  Pt8  1  0.544198  0.455802  0.500000  1
