# generated using pymatgen
data_Pr2Nd14CdHg3Pt4
_symmetry_space_group_name_H-M   'P 1'
_cell_length_a   9.99903455
_cell_length_b   10.01950885
_cell_length_c   9.98753000
_cell_angle_alpha   60.10552317
_cell_angle_beta   60.03805314
_cell_angle_gamma   60.10072539
_symmetry_Int_Tables_number   1
_chemical_formula_structural   Pr2Nd14CdHg3Pt4
_chemical_formula_sum   'Pr2 Nd14 Cd1 Hg3 Pt4'
_cell_volume   708.83951312
_cell_formula_units_Z   1
loop_
 _symmetry_equiv_pos_site_id
 _symmetry_equiv_pos_as_xyz
  1  'x, y, z'
loop_
 _atom_site_type_symbol
 _atom_site_label
 _atom_site_symmetry_multiplicity
 _atom_site_fract_x
 _atom_site_fract_y
 _atom_site_fract_z
 _atom_site_occupancy
  Pr  Pr0  1  0.563119  0.563991  0.936445  1
  Pr  Pr1  1  0.935247  0.935523  0.564615  1
  Nd  Nd2  1  0.351322  0.350882  0.350703  1
  Nd  Nd3  1  0.351322  0.350882  0.947092  1
  Nd  Nd4  1  0.352236  0.945494  0.351135  1
  Nd  Nd5  1  0.943005  0.352735  0.352130  1
  Nd  Nd6  1  0.808409  0.192010  0.192008  1
  Nd  Nd7  1  0.190625  0.809230  0.808383  1
  Nd  Nd8  1  0.190625  0.809230  0.191763  1
  Nd  Nd9  1  0.808409  0.192010  0.807574  1
  Nd  Nd10  1  0.190497  0.191609  0.808947  1
  Nd  Nd11  1  0.807803  0.807960  0.192118  1
  Nd  Nd12  1  0.936621  0.563298  0.564093  1
  Nd  Nd13  1  0.562290  0.937579  0.936140  1
  Nd  Nd14  1  0.562290  0.937579  0.563990  1
  Nd  Nd15  1  0.936621  0.563298  0.935988  1
  Cd  Cd16  1  0.260417  0.579581  0.580000  1
  Hg  Hg17  1  0.583277  0.585530  0.585413  1
  Hg  Hg18  1  0.583277  0.585530  0.245777  1
  Hg  Hg19  1  0.582788  0.245645  0.585783  1
  Pt  Pt20  1  0.143145  0.143568  0.143075  1
  Pt  Pt21  1  0.143145  0.143568  0.570212  1
  Pt  Pt22  1  0.142493  0.570681  0.143413  1
  Pt  Pt23  1  0.571021  0.142582  0.143199  1
