# generated using pymatgen
data_TmLu3Ga5Ru3
_symmetry_space_group_name_H-M   'P 1'
_cell_length_a   5.32486888
_cell_length_b   5.34323907
_cell_length_c   8.75261236
_cell_angle_alpha   90.00007039
_cell_angle_beta   90.02856334
_cell_angle_gamma   120.11133428
_symmetry_Int_Tables_number   1
_chemical_formula_structural   TmLu3Ga5Ru3
_chemical_formula_sum   'Tm1 Lu3 Ga5 Ru3'
_cell_volume   215.42368946
_cell_formula_units_Z   1
loop_
 _symmetry_equiv_pos_site_id
 _symmetry_equiv_pos_as_xyz
  1  'x, y, z'
loop_
 _atom_site_type_symbol
 _atom_site_label
 _atom_site_symmetry_multiplicity
 _atom_site_fract_x
 _atom_site_fract_y
 _atom_site_fract_z
 _atom_site_occupancy
  Tm  Tm0  1  0.660059  0.330014  0.946185  1
  Lu  Lu1  1  0.660109  0.330048  0.553493  1
  Lu  Lu2  1  0.340889  0.670450  0.440207  1
  Lu  Lu3  1  0.340786  0.670395  0.059995  1
  Ga  Ga4  1  0.162384  0.331371  0.749877  1
  Ga  Ga5  1  0.162381  0.831025  0.749871  1
  Ga  Ga6  1  0.666491  0.833241  0.749856  1
  Ga  Ga7  1  0.836818  0.666822  0.250125  1
  Ga  Ga8  1  0.836816  0.169987  0.250122  1
  Ru  Ru9  1  0.993458  0.996738  0.501679  1
  Ru  Ru10  1  0.993621  0.996812  0.998470  1
  Ru  Ru11  1  0.346186  0.173098  0.250121  1
