# generated using pymatgen
data_Hf4Ta4AlAs3
_symmetry_space_group_name_H-M   'P 1'
_cell_length_a   3.60373700
_cell_length_b   7.08130349
_cell_length_c   8.61770234
_cell_angle_alpha   89.74992765
_cell_angle_beta   90.00000000
_cell_angle_gamma   90.00000000
_symmetry_Int_Tables_number   1
_chemical_formula_structural   Hf4Ta4AlAs3
_chemical_formula_sum   'Hf4 Ta4 Al1 As3'
_cell_volume   219.91439032
_cell_formula_units_Z   1
loop_
 _symmetry_equiv_pos_site_id
 _symmetry_equiv_pos_as_xyz
  1  'x, y, z'
loop_
 _atom_site_type_symbol
 _atom_site_label
 _atom_site_symmetry_multiplicity
 _atom_site_fract_x
 _atom_site_fract_y
 _atom_site_fract_z
 _atom_site_occupancy
  Hf  Hf0  1  0.250000  0.044059  0.665496  1
  Hf  Hf1  1  0.250000  0.538887  0.831207  1
  Hf  Hf2  1  0.750000  0.460330  0.162437  1
  Hf  Hf3  1  0.750000  0.956465  0.333831  1
  Ta  Ta4  1  0.750000  0.858668  0.939400  1
  Ta  Ta5  1  0.250000  0.635806  0.440572  1
  Ta  Ta6  1  0.750000  0.370380  0.564518  1
  Ta  Ta7  1  0.250000  0.131034  0.058256  1
  Al  Al8  1  0.250000  0.257076  0.357460  1
  As  As9  1  0.250000  0.757180  0.146601  1
  As  As10  1  0.750000  0.749263  0.642971  1
  As  As11  1  0.750000  0.240854  0.857249  1
