# generated using pymatgen
data_Ca12GaGe7Ir8
_symmetry_space_group_name_H-M   'P 1'
_cell_length_a   5.77415100
_cell_length_b   7.83096058
_cell_length_c   13.64435975
_cell_angle_alpha   89.85052343
_cell_angle_beta   90.00000000
_cell_angle_gamma   90.00000000
_symmetry_Int_Tables_number   1
_chemical_formula_structural   Ca12GaGe7Ir8
_chemical_formula_sum   'Ca12 Ga1 Ge7 Ir8'
_cell_volume   616.95694653
_cell_formula_units_Z   1
loop_
 _symmetry_equiv_pos_site_id
 _symmetry_equiv_pos_as_xyz
  1  'x, y, z'
loop_
 _atom_site_type_symbol
 _atom_site_label
 _atom_site_symmetry_multiplicity
 _atom_site_fract_x
 _atom_site_fract_y
 _atom_site_fract_z
 _atom_site_occupancy
  Ca  Ca0  1  0.140665  0.606136  0.098548  1
  Ca  Ca1  1  0.140665  0.893864  0.901452  1
  Ca  Ca2  1  0.857102  0.105503  0.401519  1
  Ca  Ca3  1  0.857102  0.394497  0.598481  1
  Ca  Ca4  1  0.859029  0.394126  0.901648  1
  Ca  Ca5  1  0.859029  0.105874  0.098352  1
  Ca  Ca6  1  0.141431  0.894957  0.598423  1
  Ca  Ca7  1  0.141431  0.605043  0.401577  1
  Ca  Ca8  1  0.370217  0.260304  0.250317  1
  Ca  Ca9  1  0.370217  0.239696  0.749683  1
  Ca  Ca10  1  0.630358  0.759979  0.249923  1
  Ca  Ca11  1  0.630358  0.740021  0.750077  1
  Ga  Ga12  1  0.396363  0.250000  0.500000  1
  Ge  Ge13  1  0.398140  0.250000  0.000000  1
  Ge  Ge14  1  0.600200  0.750000  0.500000  1
  Ge  Ge15  1  0.601690  0.750000  0.000000  1
  Ge  Ge16  1  0.850581  0.412148  0.249439  1
  Ge  Ge17  1  0.850581  0.087852  0.750561  1
  Ge  Ge18  1  0.149536  0.913230  0.249622  1
  Ge  Ge19  1  0.149536  0.586770  0.750378  1
  Ir  Ir20  1  0.639339  0.471725  0.091998  1
  Ir  Ir21  1  0.639339  0.028275  0.908002  1
  Ir  Ir22  1  0.362936  0.969228  0.406087  1
  Ir  Ir23  1  0.362936  0.530772  0.593913  1
  Ir  Ir24  1  0.359565  0.528071  0.907871  1
  Ir  Ir25  1  0.359565  0.971929  0.092129  1
  Ir  Ir26  1  0.641043  0.023382  0.594180  1
  Ir  Ir27  1  0.641043  0.476618  0.405820  1
