# generated using pymatgen
data_Pr(Zr3Bi2)2
_symmetry_space_group_name_H-M   'P 1'
_cell_length_a   8.99500302
_cell_length_b   8.99500320
_cell_length_c   8.99500415
_cell_angle_alpha   40.47566513
_cell_angle_beta   40.47566373
_cell_angle_gamma   40.47565831
_symmetry_Int_Tables_number   1
_chemical_formula_structural   Pr(Zr3Bi2)2
_chemical_formula_sum   'Pr1 Zr6 Bi4'
_cell_volume   276.56519877
_cell_formula_units_Z   1
loop_
 _symmetry_equiv_pos_site_id
 _symmetry_equiv_pos_as_xyz
  1  'x, y, z'
loop_
 _atom_site_type_symbol
 _atom_site_label
 _atom_site_symmetry_multiplicity
 _atom_site_fract_x
 _atom_site_fract_y
 _atom_site_fract_z
 _atom_site_occupancy
  Pr  Pr0  1  0.000000  0.000000  0.000000  1
  Zr  Zr1  1  0.600649  0.600649  0.111935  1
  Zr  Zr2  1  0.888065  0.399353  0.399351  1
  Zr  Zr3  1  0.399353  0.888065  0.399351  1
  Zr  Zr4  1  0.600648  0.111935  0.600650  1
  Zr  Zr5  1  0.111935  0.600648  0.600650  1
  Zr  Zr6  1  0.399352  0.399352  0.888065  1
  Bi  Bi7  1  0.128608  0.128608  0.128608  1
  Bi  Bi8  1  0.332187  0.332187  0.332187  1
  Bi  Bi9  1  0.667813  0.667813  0.667813  1
  Bi  Bi10  1  0.871392  0.871392  0.871392  1
