# generated using pymatgen
data_Pr16CdHg3PdRh3
_symmetry_space_group_name_H-M   'P 1'
_cell_length_a   10.00725779
_cell_length_b   10.06680121
_cell_length_c   10.06680200
_cell_angle_alpha   59.99999740
_cell_angle_beta   59.80297623
_cell_angle_gamma   59.80297169
_symmetry_Int_Tables_number   1
_chemical_formula_structural   Pr16CdHg3PdRh3
_chemical_formula_sum   'Pr16 Cd1 Hg3 Pd1 Rh3'
_cell_volume   714.96257835
_cell_formula_units_Z   1
loop_
 _symmetry_equiv_pos_site_id
 _symmetry_equiv_pos_as_xyz
  1  'x, y, z'
loop_
 _atom_site_type_symbol
 _atom_site_label
 _atom_site_symmetry_multiplicity
 _atom_site_fract_x
 _atom_site_fract_y
 _atom_site_fract_z
 _atom_site_occupancy
  Pr  Pr0  1  0.347417  0.351904  0.351904  1
  Pr  Pr1  1  0.347417  0.351904  0.948777  1
  Pr  Pr2  1  0.347417  0.948777  0.351904  1
  Pr  Pr3  1  0.953523  0.348826  0.348826  1
  Pr  Pr4  1  0.813699  0.191022  0.191022  1
  Pr  Pr5  1  0.189642  0.810358  0.810358  1
  Pr  Pr6  1  0.189642  0.810358  0.189642  1
  Pr  Pr7  1  0.813699  0.191022  0.804257  1
  Pr  Pr8  1  0.189642  0.189642  0.810358  1
  Pr  Pr9  1  0.813699  0.804257  0.191022  1
  Pr  Pr10  1  0.933852  0.563530  0.563530  1
  Pr  Pr11  1  0.560738  0.937493  0.937493  1
  Pr  Pr12  1  0.560738  0.937493  0.564277  1
  Pr  Pr13  1  0.933852  0.563530  0.939088  1
  Pr  Pr14  1  0.560738  0.564277  0.937493  1
  Pr  Pr15  1  0.933852  0.939088  0.563530  1
  Cd  Cd16  1  0.261961  0.579346  0.579346  1
  Hg  Hg17  1  0.581615  0.583203  0.583203  1
  Hg  Hg18  1  0.581615  0.583203  0.251977  1
  Hg  Hg19  1  0.581615  0.251977  0.583203  1
  Pd  Pd20  1  0.571308  0.142897  0.142897  1
  Rh  Rh21  1  0.144105  0.142028  0.142028  1
  Rh  Rh22  1  0.144105  0.142028  0.571839  1
  Rh  Rh23  1  0.144105  0.571839  0.142028  1
