# generated using pymatgen
data_Y3ZrZn2Ir3
_symmetry_space_group_name_H-M   'P 1'
_cell_length_a   7.19082200
_cell_length_b   7.24944366
_cell_length_c   4.07012200
_cell_angle_alpha   90.00000000
_cell_angle_beta   90.00000000
_cell_angle_gamma   119.73286374
_symmetry_Int_Tables_number   1
_chemical_formula_structural   Y3ZrZn2Ir3
_chemical_formula_sum   'Y3 Zr1 Zn2 Ir3'
_cell_volume   184.24005125
_cell_formula_units_Z   1
loop_
 _symmetry_equiv_pos_site_id
 _symmetry_equiv_pos_as_xyz
  1  'x, y, z'
loop_
 _atom_site_type_symbol
 _atom_site_label
 _atom_site_symmetry_multiplicity
 _atom_site_fract_x
 _atom_site_fract_y
 _atom_site_fract_z
 _atom_site_occupancy
  Y  Y0  1  0.385698  0.000000  0.499999  1
  Y  Y1  1  0.017345  0.436316  0.499999  1
  Y  Y2  1  0.581029  0.563684  0.499999  1
  Zr  Zr3  1  0.763387  0.000000  0.000000  1
  Zn  Zn4  1  0.247733  0.253266  0.000000  1
  Zn  Zn5  1  0.994467  0.746733  0.000000  1
  Ir  Ir6  1  0.669760  0.320967  0.000000  1
  Ir  Ir7  1  0.348793  0.679032  0.000000  1
  Ir  Ir8  1  0.991786  0.000000  0.499999  1
