# generated using pymatgen
data_NaPr4Ho5Sn8
_symmetry_space_group_name_H-M   'P 1'
_cell_length_a   7.99336900
_cell_length_b   8.36343800
_cell_length_c   15.66073600
_cell_angle_alpha   90.00000000
_cell_angle_beta   90.00000000
_cell_angle_gamma   90.00000000
_symmetry_Int_Tables_number   1
_chemical_formula_structural   NaPr4Ho5Sn8
_chemical_formula_sum   'Na2 Pr8 Ho10 Sn16'
_cell_volume   1046.95224413
_cell_formula_units_Z   2
loop_
 _symmetry_equiv_pos_site_id
 _symmetry_equiv_pos_as_xyz
  1  'x, y, z'
loop_
 _atom_site_type_symbol
 _atom_site_label
 _atom_site_symmetry_multiplicity
 _atom_site_fract_x
 _atom_site_fract_y
 _atom_site_fract_z
 _atom_site_occupancy
  Na  Na0  1  0.164641  0.496358  0.250000  1
  Na  Na1  1  0.664641  0.003642  0.250000  1
  Pr  Pr2  1  0.503734  0.676930  0.596998  1
  Pr  Pr3  1  0.003734  0.823070  0.903002  1
  Pr  Pr4  1  0.492311  0.317527  0.096134  1
  Pr  Pr5  1  0.992311  0.182473  0.403866  1
  Pr  Pr6  1  0.492311  0.317527  0.403866  1
  Pr  Pr7  1  0.992311  0.182473  0.096134  1
  Pr  Pr8  1  0.503734  0.676930  0.903002  1
  Pr  Pr9  1  0.003734  0.823070  0.596998  1
  Ho  Ho10  1  0.670551  0.165948  0.626500  1
  Ho  Ho11  1  0.170551  0.334052  0.873500  1
  Ho  Ho12  1  0.334188  0.830377  0.124361  1
  Ho  Ho13  1  0.834188  0.669623  0.375639  1
  Ho  Ho14  1  0.334188  0.830377  0.375639  1
  Ho  Ho15  1  0.834188  0.669623  0.124361  1
  Ho  Ho16  1  0.670551  0.165948  0.873500  1
  Ho  Ho17  1  0.170551  0.334052  0.626500  1
  Ho  Ho18  1  0.836194  0.500498  0.750000  1
  Ho  Ho19  1  0.336194  0.999502  0.750000  1
  Sn  Sn20  1  0.672529  0.959315  0.462137  1
  Sn  Sn21  1  0.172529  0.540685  0.037863  1
  Sn  Sn22  1  0.327818  0.038487  0.958471  1
  Sn  Sn23  1  0.827818  0.461513  0.541529  1
  Sn  Sn24  1  0.327818  0.038487  0.541529  1
  Sn  Sn25  1  0.827818  0.461513  0.958471  1
  Sn  Sn26  1  0.672529  0.959315  0.037863  1
  Sn  Sn27  1  0.172529  0.540685  0.462137  1
  Sn  Sn28  1  0.474749  0.377711  0.750000  1
  Sn  Sn29  1  0.974749  0.122289  0.750000  1
  Sn  Sn30  1  0.532106  0.616384  0.250000  1
  Sn  Sn31  1  0.032106  0.883616  0.250000  1
  Sn  Sn32  1  0.699509  0.856126  0.750000  1
  Sn  Sn33  1  0.199509  0.643874  0.750000  1
  Sn  Sn34  1  0.290537  0.132294  0.250000  1
  Sn  Sn35  1  0.790537  0.367706  0.250000  1
