# generated using pymatgen
data_Eu2Y3TmTa2O14
_symmetry_space_group_name_H-M   'P 1'
_cell_length_a   6.49568047
_cell_length_b   6.48181331
_cell_length_c   7.56713729
_cell_angle_alpha   89.86786532
_cell_angle_beta   90.14228406
_cell_angle_gamma   108.92513169
_symmetry_Int_Tables_number   1
_chemical_formula_structural   Eu2Y3TmTa2O14
_chemical_formula_sum   'Eu2 Y3 Tm1 Ta2 O14'
_cell_volume   301.38105801
_cell_formula_units_Z   1
loop_
 _symmetry_equiv_pos_site_id
 _symmetry_equiv_pos_as_xyz
  1  'x, y, z'
loop_
 _atom_site_type_symbol
 _atom_site_label
 _atom_site_symmetry_multiplicity
 _atom_site_fract_x
 _atom_site_fract_y
 _atom_site_fract_z
 _atom_site_occupancy
  Eu  Eu0  1  0.502879  0.503221  0.500862  1
  Eu  Eu1  1  0.494111  0.494825  0.999203  1
  Y  Y2  1  0.999660  0.533121  0.248474  1
  Y  Y3  1  0.534200  0.999439  0.751593  1
  Y  Y4  1  0.466075  0.000226  0.251530  1
  Tm  Tm5  1  0.999302  0.466803  0.748557  1
  Ta  Ta6  1  0.999986  0.999788  0.500953  1
  Ta  Ta7  1  0.000013  0.999811  0.999091  1
  O  O8  1  0.644171  0.360845  0.749943  1
  O  O9  1  0.359694  0.638767  0.250129  1
  O  O10  1  0.935048  0.067364  0.749919  1
  O  O11  1  0.063015  0.934123  0.250077  1
  O  O12  1  0.934163  0.679698  0.535470  1
  O  O13  1  0.068431  0.322139  0.028342  1
  O  O14  1  0.321727  0.071094  0.969605  1
  O  O15  1  0.679119  0.928824  0.469161  1
  O  O16  1  0.361546  0.630721  0.749791  1
  O  O17  1  0.633452  0.367515  0.250052  1
  O  O18  1  0.939169  0.683313  0.960876  1
  O  O19  1  0.063416  0.318596  0.468069  1
  O  O20  1  0.318314  0.066205  0.533928  1
  O  O21  1  0.682510  0.933563  0.034375  1
