# generated using pymatgen
data_Tm4Al24Pt7Au2
_symmetry_space_group_name_H-M   'P 1'
_cell_length_a   7.56034053
_cell_length_b   7.56528589
_cell_length_c   13.10801242
_cell_angle_alpha   84.50467778
_cell_angle_beta   78.95837741
_cell_angle_gamma   59.95235011
_symmetry_Int_Tables_number   1
_chemical_formula_structural   Tm4Al24Pt7Au2
_chemical_formula_sum   'Tm4 Al24 Pt7 Au2'
_cell_volume   636.95767729
_cell_formula_units_Z   1
loop_
 _symmetry_equiv_pos_site_id
 _symmetry_equiv_pos_as_xyz
  1  'x, y, z'
loop_
 _atom_site_type_symbol
 _atom_site_label
 _atom_site_symmetry_multiplicity
 _atom_site_fract_x
 _atom_site_fract_y
 _atom_site_fract_z
 _atom_site_occupancy
  Tm  Tm0  1  0.393073  0.169204  0.808659  1
  Tm  Tm1  1  0.606927  0.830796  0.191341  1
  Tm  Tm2  1  0.733603  0.499051  0.809334  1
  Tm  Tm3  1  0.266397  0.500949  0.190666  1
  Al  Al4  1  0.682775  0.834127  0.944563  1
  Al  Al5  1  0.317225  0.165873  0.055437  1
  Al  Al6  1  0.145937  0.838873  0.562291  1
  Al  Al7  1  0.854063  0.161127  0.437709  1
  Al  Al8  1  0.487862  0.159342  0.559485  1
  Al  Al9  1  0.512138  0.840658  0.440515  1
  Al  Al10  1  0.223710  0.160804  0.324803  1
  Al  Al11  1  0.776290  0.839196  0.675197  1
  Al  Al12  1  0.439928  0.506161  0.675265  1
  Al  Al13  1  0.560072  0.493839  0.324735  1
  Al  Al14  1  0.108777  0.154938  0.673927  1
  Al  Al15  1  0.891223  0.845062  0.326073  1
  Al  Al16  1  0.353817  0.498394  0.944429  1
  Al  Al17  1  0.646183  0.501606  0.055571  1
  Al  Al18  1  0.015889  0.168064  0.952472  1
  Al  Al19  1  0.984111  0.831936  0.047528  1
  Al  Al20  1  0.195378  0.499436  0.437512  1
  Al  Al21  1  0.804622  0.500564  0.562488  1
  Al  Al22  1  0.732101  0.164787  0.182959  1
  Al  Al23  1  0.267899  0.835213  0.817041  1
  Al  Al24  1  0.060350  0.633113  0.817887  1
  Al  Al25  1  0.939650  0.366887  0.182113  1
  Al  Al26  1  0.853672  0.042810  0.816350  1
  Al  Al27  1  0.146328  0.957190  0.183650  1
  Pt  Pt28  1  0.657490  0.171248  0.999609  1
  Pt  Pt29  1  0.342510  0.828752  0.000391  1
  Pt  Pt30  1  0.536835  0.167318  0.361778  1
  Pt  Pt31  1  0.463165  0.832682  0.638222  1
  Pt  Pt32  1  0.778984  0.175834  0.636791  1
  Pt  Pt33  1  0.221016  0.824166  0.363209  1
  Pt  Pt34  1  0.000000  0.500000  0.000000  1
  Au  Au35  1  0.119846  0.490438  0.638353  1
  Au  Au36  1  0.880154  0.509562  0.361647  1
