# generated using pymatgen
data_Pr3Al12TcOs3
_symmetry_space_group_name_H-M   'P 1'
_cell_length_a   8.92946200
_cell_length_b   8.92946156
_cell_length_c   9.75490600
_cell_angle_alpha   90.00000000
_cell_angle_beta   90.00000000
_cell_angle_gamma   119.99999423
_symmetry_Int_Tables_number   1
_chemical_formula_structural   Pr3Al12TcOs3
_chemical_formula_sum   'Pr6 Al24 Tc2 Os6'
_cell_volume   673.60346281
_cell_formula_units_Z   2
loop_
 _symmetry_equiv_pos_site_id
 _symmetry_equiv_pos_as_xyz
  1  'x, y, z'
loop_
 _atom_site_type_symbol
 _atom_site_label
 _atom_site_symmetry_multiplicity
 _atom_site_fract_x
 _atom_site_fract_y
 _atom_site_fract_z
 _atom_site_occupancy
  Pr  Pr0  1  0.192310  0.384619  0.250000  1
  Pr  Pr1  1  0.807690  0.615381  0.750000  1
  Pr  Pr2  1  0.615381  0.807690  0.250000  1
  Pr  Pr3  1  0.384619  0.192310  0.750000  1
  Pr  Pr4  1  0.192310  0.807690  0.250000  1
  Pr  Pr5  1  0.807690  0.192310  0.750000  1
  Al  Al6  1  0.333333  0.666667  0.008337  1
  Al  Al7  1  0.666667  0.333333  0.991663  1
  Al  Al8  1  0.666667  0.333333  0.508337  1
  Al  Al9  1  0.333333  0.666667  0.491663  1
  Al  Al10  1  0.162684  0.325367  0.575299  1
  Al  Al11  1  0.837316  0.674633  0.424701  1
  Al  Al12  1  0.674633  0.837316  0.575299  1
  Al  Al13  1  0.837316  0.674633  0.075299  1
  Al  Al14  1  0.325367  0.162684  0.424701  1
  Al  Al15  1  0.162684  0.325367  0.924701  1
  Al  Al16  1  0.162684  0.837316  0.575299  1
  Al  Al17  1  0.325367  0.162684  0.075299  1
  Al  Al18  1  0.837316  0.162684  0.424701  1
  Al  Al19  1  0.674633  0.837316  0.924701  1
  Al  Al20  1  0.837316  0.162684  0.075299  1
  Al  Al21  1  0.162684  0.837316  0.924701  1
  Al  Al22  1  0.562209  0.124418  0.250000  1
  Al  Al23  1  0.437791  0.875582  0.750000  1
  Al  Al24  1  0.875582  0.437791  0.250000  1
  Al  Al25  1  0.124418  0.562209  0.750000  1
  Al  Al26  1  0.562209  0.437791  0.250000  1
  Al  Al27  1  0.437791  0.562209  0.750000  1
  Al  Al28  1  0.000000  0.000000  0.250000  1
  Al  Al29  1  0.000000  0.000000  0.750000  1
  Tc  Tc30  1  0.000000  0.000000  0.000000  1
  Tc  Tc31  1  0.000000  0.000000  0.500000  1
  Os  Os32  1  0.500000  0.000000  0.000000  1
  Os  Os33  1  0.000000  0.500000  0.000000  1
  Os  Os34  1  0.500000  0.000000  0.500000  1
  Os  Os35  1  0.500000  0.500000  0.000000  1
  Os  Os36  1  0.000000  0.500000  0.500000  1
  Os  Os37  1  0.500000  0.500000  0.500000  1
