# generated using pymatgen
data_Ho3Er7(RuRh)2
_symmetry_space_group_name_H-M   'P 1'
_cell_length_a   6.33108478
_cell_length_b   7.22106284
_cell_length_c   8.43942945
_cell_angle_alpha   96.78438354
_cell_angle_beta   111.99787431
_cell_angle_gamma   90.02433863
_symmetry_Int_Tables_number   1
_chemical_formula_structural   Ho3Er7(RuRh)2
_chemical_formula_sum   'Ho3 Er7 Ru2 Rh2'
_cell_volume   354.81430970
_cell_formula_units_Z   1
loop_
 _symmetry_equiv_pos_site_id
 _symmetry_equiv_pos_as_xyz
  1  'x, y, z'
loop_
 _atom_site_type_symbol
 _atom_site_label
 _atom_site_symmetry_multiplicity
 _atom_site_fract_x
 _atom_site_fract_y
 _atom_site_fract_z
 _atom_site_occupancy
  Ho  Ho0  1  0.792511  0.582295  0.811616  1
  Ho  Ho1  1  0.980714  0.917781  0.188259  1
  Ho  Ho2  1  0.209670  0.414685  0.185616  1
  Er  Er3  1  0.023835  0.085349  0.814317  1
  Er  Er4  1  0.207155  0.684141  0.565503  1
  Er  Er5  1  0.641915  0.816316  0.434618  1
  Er  Er6  1  0.792678  0.312416  0.437049  1
  Er  Er7  1  0.355498  0.187210  0.563330  1
  Er  Er8  1  0.419433  0.750088  0.999857  1
  Er  Er9  1  0.577961  0.249845  0.999871  1
  Ru  Ru10  1  0.397379  0.075104  0.220307  1
  Ru  Ru11  1  0.177031  0.424786  0.779279  1
  Rh  Rh12  1  0.601664  0.923689  0.778701  1
  Rh  Rh13  1  0.822557  0.576294  0.221677  1
