# generated using pymatgen
data_YEr2Co8P6W
_symmetry_space_group_name_H-M   'P 1'
_cell_length_a   3.70790700
_cell_length_b   10.52643800
_cell_length_c   12.21484200
_cell_angle_alpha   90.00000000
_cell_angle_beta   90.00000000
_cell_angle_gamma   90.00000000
_symmetry_Int_Tables_number   1
_chemical_formula_structural   YEr2Co8P6W
_chemical_formula_sum   'Y2 Er4 Co16 P12 W2'
_cell_volume   476.75814726
_cell_formula_units_Z   2
loop_
 _symmetry_equiv_pos_site_id
 _symmetry_equiv_pos_as_xyz
  1  'x, y, z'
loop_
 _atom_site_type_symbol
 _atom_site_label
 _atom_site_symmetry_multiplicity
 _atom_site_fract_x
 _atom_site_fract_y
 _atom_site_fract_z
 _atom_site_occupancy
  Y  Y0  1  0.000000  0.500000  0.524592  1
  Y  Y1  1  0.500000  0.000000  0.475408  1
  Er  Er2  1  0.500000  0.819478  0.204948  1
  Er  Er3  1  0.500000  0.180522  0.204948  1
  Er  Er4  1  0.000000  0.680522  0.795052  1
  Er  Er5  1  0.000000  0.319478  0.795052  1
  Co  Co6  1  0.500000  0.500000  0.701743  1
  Co  Co7  1  0.000000  0.000000  0.298257  1
  Co  Co8  1  0.000000  0.500000  0.986759  1
  Co  Co9  1  0.500000  0.000000  0.013241  1
  Co  Co10  1  0.500000  0.332746  0.990084  1
  Co  Co11  1  0.500000  0.667254  0.990084  1
  Co  Co12  1  0.000000  0.167254  0.009916  1
  Co  Co13  1  0.000000  0.832746  0.009916  1
  Co  Co14  1  0.500000  0.295688  0.431146  1
  Co  Co15  1  0.500000  0.704312  0.431146  1
  Co  Co16  1  0.000000  0.204312  0.568854  1
  Co  Co17  1  0.000000  0.795688  0.568854  1
  Co  Co18  1  0.500000  0.877886  0.707865  1
  Co  Co19  1  0.500000  0.122114  0.707865  1
  Co  Co20  1  0.000000  0.622114  0.292135  1
  Co  Co21  1  0.000000  0.377886  0.292135  1
  P  P22  1  0.500000  0.500000  0.880296  1
  P  P23  1  0.000000  0.000000  0.119704  1
  P  P24  1  0.500000  0.500000  0.349989  1
  P  P25  1  0.000000  0.000000  0.650011  1
  P  P26  1  0.500000  0.311322  0.616635  1
  P  P27  1  0.500000  0.688678  0.616635  1
  P  P28  1  0.000000  0.188678  0.383365  1
  P  P29  1  0.000000  0.811322  0.383365  1
  P  P30  1  0.500000  0.843734  0.892444  1
  P  P31  1  0.500000  0.156266  0.892444  1
  P  P32  1  0.000000  0.656266  0.107556  1
  P  P33  1  0.000000  0.343734  0.107556  1
  W  W34  1  0.500000  0.500000  0.155979  1
  W  W35  1  0.000000  0.000000  0.844021  1
