# generated using pymatgen
data_CsCr2(Sb6Os)2
_symmetry_space_group_name_H-M   'P 1'
_cell_length_a   8.33079758
_cell_length_b   8.33079681
_cell_length_c   8.23693599
_cell_angle_alpha   109.36154144
_cell_angle_beta   109.20940535
_cell_angle_gamma   110.29735283
_symmetry_Int_Tables_number   1
_chemical_formula_structural   CsCr2(Sb6Os)2
_chemical_formula_sum   'Cs1 Cr2 Sb12 Os2'
_cell_volume   437.54382592
_cell_formula_units_Z   1
loop_
 _symmetry_equiv_pos_site_id
 _symmetry_equiv_pos_as_xyz
  1  'x, y, z'
loop_
 _atom_site_type_symbol
 _atom_site_label
 _atom_site_symmetry_multiplicity
 _atom_site_fract_x
 _atom_site_fract_y
 _atom_site_fract_z
 _atom_site_occupancy
  Cs  Cs0  1  0.000000  0.000000  0.000000  1
  Cr  Cr1  1  0.000000  0.000000  0.500000  1
  Cr  Cr2  1  0.500000  0.500000  0.500000  1
  Sb  Sb3  1  0.352579  0.188696  0.850272  1
  Sb  Sb4  1  0.647421  0.811304  0.149728  1
  Sb  Sb5  1  0.661577  0.497692  0.850272  1
  Sb  Sb6  1  0.338423  0.502308  0.149728  1
  Sb  Sb7  1  0.189643  0.838612  0.341702  1
  Sb  Sb8  1  0.810357  0.161388  0.658298  1
  Sb  Sb9  1  0.496909  0.847942  0.658298  1
  Sb  Sb10  1  0.503091  0.152058  0.341702  1
  Sb  Sb11  1  0.843288  0.339158  0.182446  1
  Sb  Sb12  1  0.156712  0.660842  0.817554  1
  Sb  Sb13  1  0.846022  0.647647  0.493667  1
  Sb  Sb14  1  0.153978  0.352353  0.506333  1
  Os  Os15  1  0.500000  0.000000  0.000000  1
  Os  Os16  1  0.000000  0.500000  0.000000  1
