# generated using pymatgen
data_Sm2DyTm3Ta2O14
_symmetry_space_group_name_H-M   'P 1'
_cell_length_a   6.43830890
_cell_length_b   6.44356458
_cell_length_c   7.54057300
_cell_angle_alpha   90.00000000
_cell_angle_beta   90.00000000
_cell_angle_gamma   109.31991334
_symmetry_Int_Tables_number   1
_chemical_formula_structural   Sm2DyTm3Ta2O14
_chemical_formula_sum   'Sm2 Dy1 Tm3 Ta2 O14'
_cell_volume   295.20918565
_cell_formula_units_Z   1
loop_
 _symmetry_equiv_pos_site_id
 _symmetry_equiv_pos_as_xyz
  1  'x, y, z'
loop_
 _atom_site_type_symbol
 _atom_site_label
 _atom_site_symmetry_multiplicity
 _atom_site_fract_x
 _atom_site_fract_y
 _atom_site_fract_z
 _atom_site_occupancy
  Sm  Sm0  1  0.501442  0.500946  0.499363  1
  Sm  Sm1  1  0.501442  0.500946  0.000637  1
  Dy  Dy2  1  0.999414  0.465820  0.750000  1
  Tm  Tm3  1  0.532668  0.001585  0.750000  1
  Tm  Tm4  1  0.001412  0.533629  0.250000  1
  Tm  Tm5  1  0.467009  0.998522  0.250000  1
  Ta  Ta6  1  0.999972  0.000205  0.499272  1
  Ta  Ta7  1  0.999972  0.000205  0.000728  1
  O  O8  1  0.677347  0.931298  0.466519  1
  O  O9  1  0.927465  0.676810  0.529932  1
  O  O10  1  0.677347  0.931298  0.033481  1
  O  O11  1  0.927465  0.676810  0.970068  1
  O  O12  1  0.321988  0.068795  0.533555  1
  O  O13  1  0.070499  0.321742  0.464646  1
  O  O14  1  0.321988  0.068795  0.966445  1
  O  O15  1  0.070499  0.321742  0.035354  1
  O  O16  1  0.932770  0.065312  0.750000  1
  O  O17  1  0.068387  0.933262  0.250000  1
  O  O18  1  0.368791  0.638616  0.750000  1
  O  O19  1  0.636000  0.363363  0.250000  1
  O  O20  1  0.639284  0.356319  0.750000  1
  O  O21  1  0.356843  0.643978  0.250000  1
