# generated using pymatgen
data_Ba(RuO4)2
_symmetry_space_group_name_H-M   'P 1'
_cell_length_a   10.01694442
_cell_length_b   8.65862191
_cell_length_c   7.35066289
_cell_angle_alpha   76.98611036
_cell_angle_beta   57.37273782
_cell_angle_gamma   45.64115763
_symmetry_Int_Tables_number   1
_chemical_formula_structural   Ba(RuO4)2
_chemical_formula_sum   'Ba2 Ru4 O16'
_cell_volume   371.50201495
_cell_formula_units_Z   2
loop_
 _symmetry_equiv_pos_site_id
 _symmetry_equiv_pos_as_xyz
  1  'x, y, z'
loop_
 _atom_site_type_symbol
 _atom_site_label
 _atom_site_symmetry_multiplicity
 _atom_site_fract_x
 _atom_site_fract_y
 _atom_site_fract_z
 _atom_site_occupancy
  Ba  Ba0  1  0.250000  0.250000  0.250000  1
  Ba  Ba1  1  0.000000  0.000000  0.000000  1
  Ru  Ru2  1  0.553568  0.946432  0.553568  1
  Ru  Ru3  1  0.946432  0.553568  0.946432  1
  Ru  Ru4  1  0.696432  0.303568  0.696432  1
  Ru  Ru5  1  0.303568  0.696432  0.303568  1
  O  O6  1  0.918530  0.254879  0.642747  1
  O  O7  1  0.183844  0.642747  0.254879  1
  O  O8  1  0.642747  0.183844  0.918530  1
  O  O9  1  0.254879  0.918530  0.183844  1
  O  O10  1  0.331470  0.995121  0.607253  1
  O  O11  1  0.066156  0.607253  0.995121  1
  O  O12  1  0.460934  0.590123  0.775229  1
  O  O13  1  0.173715  0.775229  0.590123  1
  O  O14  1  0.775229  0.173715  0.460934  1
  O  O15  1  0.590123  0.460934  0.173715  1
  O  O16  1  0.789066  0.659877  0.474771  1
  O  O17  1  0.076285  0.474771  0.659877  1
  O  O18  1  0.474771  0.076285  0.789066  1
  O  O19  1  0.659877  0.789066  0.076285  1
  O  O20  1  0.995121  0.331470  0.066156  1
  O  O21  1  0.607253  0.066156  0.331470  1
