# generated using pymatgen
data_Tm7Lu3(SnSb)3
_symmetry_space_group_name_H-M   'P 1'
_cell_length_a   8.84949600
_cell_length_b   8.84949707
_cell_length_c   6.29618200
_cell_angle_alpha   90.00000000
_cell_angle_beta   90.00000000
_cell_angle_gamma   120.00000349
_symmetry_Int_Tables_number   1
_chemical_formula_structural   Tm7Lu3(SnSb)3
_chemical_formula_sum   'Tm7 Lu3 Sn3 Sb3'
_cell_volume   427.01685412
_cell_formula_units_Z   1
loop_
 _symmetry_equiv_pos_site_id
 _symmetry_equiv_pos_as_xyz
  1  'x, y, z'
loop_
 _atom_site_type_symbol
 _atom_site_label
 _atom_site_symmetry_multiplicity
 _atom_site_fract_x
 _atom_site_fract_y
 _atom_site_fract_z
 _atom_site_occupancy
  Tm  Tm0  1  0.666667  0.333333  0.000638  1
  Tm  Tm1  1  0.760091  0.760067  0.749954  1
  Tm  Tm2  1  0.239933  0.000024  0.749954  1
  Tm  Tm3  1  0.999976  0.239909  0.749954  1
  Tm  Tm4  1  0.239412  0.239433  0.250050  1
  Tm  Tm5  1  0.760567  0.999978  0.250050  1
  Tm  Tm6  1  0.000022  0.760588  0.250050  1
  Lu  Lu7  1  0.333333  0.666667  0.001079  1
  Lu  Lu8  1  0.333333  0.666667  0.498984  1
  Lu  Lu9  1  0.666667  0.333333  0.499184  1
  Sn  Sn10  1  0.605905  0.606286  0.250263  1
  Sn  Sn11  1  0.393714  0.999619  0.250263  1
  Sn  Sn12  1  0.000381  0.394095  0.250263  1
  Sb  Sb13  1  0.393023  0.393307  0.749772  1
  Sb  Sb14  1  0.606693  0.999716  0.749772  1
  Sb  Sb15  1  0.000284  0.606977  0.749772  1
