# generated using pymatgen
data_Ho12InSi4Ag
_symmetry_space_group_name_H-M   'P 1'
_cell_length_a   8.45365626
_cell_length_b   8.45365658
_cell_length_c   8.45365761
_cell_angle_alpha   111.82210080
_cell_angle_beta   111.47591255
_cell_angle_gamma   105.19850992
_symmetry_Int_Tables_number   1
_chemical_formula_structural   Ho12InSi4Ag
_chemical_formula_sum   'Ho12 In1 Si4 Ag1'
_cell_volume   463.13780181
_cell_formula_units_Z   1
loop_
 _symmetry_equiv_pos_site_id
 _symmetry_equiv_pos_as_xyz
  1  'x, y, z'
loop_
 _atom_site_type_symbol
 _atom_site_label
 _atom_site_symmetry_multiplicity
 _atom_site_fract_x
 _atom_site_fract_y
 _atom_site_fract_z
 _atom_site_occupancy
  Ho  Ho0  1  0.320475  0.616410  0.295934  1
  Ho  Ho1  1  0.679525  0.383590  0.704066  1
  Ho  Ho2  1  0.320475  0.024540  0.704066  1
  Ho  Ho3  1  0.679525  0.975460  0.295934  1
  Ho  Ho4  1  0.182388  0.272437  0.454824  1
  Ho  Ho5  1  0.817612  0.727563  0.545176  1
  Ho  Ho6  1  0.182388  0.727563  0.909951  1
  Ho  Ho7  1  0.817612  0.272437  0.090049  1
  Ho  Ho8  1  0.437735  0.237628  0.200108  1
  Ho  Ho9  1  0.562265  0.762372  0.799892  1
  Ho  Ho10  1  0.037519  0.237628  0.799892  1
  Ho  Ho11  1  0.962481  0.762372  0.200108  1
  In  In12  1  0.500000  0.500000  0.000000  1
  Si  Si13  1  0.116937  0.616937  0.500000  1
  Si  Si14  1  0.883063  0.383063  0.500000  1
  Si  Si15  1  0.361793  0.000000  0.361793  1
  Si  Si16  1  0.638207  0.000000  0.638207  1
  Ag  Ag17  1  0.000000  0.000000  0.000000  1
