# generated using pymatgen
data_Tm8MgSc(Ni2Sb)2
_symmetry_space_group_name_H-M   'P 1'
_cell_length_a   8.53266600
_cell_length_b   8.53266593
_cell_length_c   8.53266604
_cell_angle_alpha   129.00212675
_cell_angle_beta   129.00211926
_cell_angle_gamma   75.00715438
_symmetry_Int_Tables_number   1
_chemical_formula_structural   Tm8MgSc(Ni2Sb)2
_chemical_formula_sum   'Tm8 Mg1 Sc1 Ni4 Sb2'
_cell_volume   365.33816016
_cell_formula_units_Z   1
loop_
 _symmetry_equiv_pos_site_id
 _symmetry_equiv_pos_as_xyz
  1  'x, y, z'
loop_
 _atom_site_type_symbol
 _atom_site_label
 _atom_site_symmetry_multiplicity
 _atom_site_fract_x
 _atom_site_fract_y
 _atom_site_fract_z
 _atom_site_occupancy
  Tm  Tm0  1  0.790124  0.300303  0.827095  1
  Tm  Tm1  1  0.209876  0.699697  0.172905  1
  Tm  Tm2  1  0.473209  0.963030  0.172905  1
  Tm  Tm3  1  0.300303  0.473209  0.510178  1
  Tm  Tm4  1  0.036970  0.209876  0.510178  1
  Tm  Tm5  1  0.526791  0.036970  0.827095  1
  Tm  Tm6  1  0.699697  0.526791  0.489822  1
  Tm  Tm7  1  0.963030  0.790124  0.489822  1
  Mg  Mg8  1  0.500000  0.500000  0.000000  1
  Sc  Sc9  1  0.000000  0.000000  0.000000  1
  Ni  Ni10  1  0.121795  0.633970  0.755765  1
  Ni  Ni11  1  0.878205  0.366030  0.244235  1
  Ni  Ni12  1  0.633970  0.878205  0.512176  1
  Ni  Ni13  1  0.366030  0.121795  0.487824  1
  Sb  Sb14  1  0.242702  0.242702  0.000000  1
  Sb  Sb15  1  0.757298  0.757298  0.000000  1
