# generated using pymatgen
data_SrSb12(IrRu)2
_symmetry_space_group_name_H-M   'P 1'
_cell_length_a   8.17147801
_cell_length_b   8.16140598
_cell_length_c   8.16140574
_cell_angle_alpha   109.42248012
_cell_angle_beta   109.47080871
_cell_angle_gamma   109.47038590
_symmetry_Int_Tables_number   1
_chemical_formula_structural   SrSb12(IrRu)2
_chemical_formula_sum   'Sr1 Sb12 Ir2 Ru2'
_cell_volume   419.25305028
_cell_formula_units_Z   1
loop_
 _symmetry_equiv_pos_site_id
 _symmetry_equiv_pos_as_xyz
  1  'x, y, z'
loop_
 _atom_site_type_symbol
 _atom_site_label
 _atom_site_symmetry_multiplicity
 _atom_site_fract_x
 _atom_site_fract_y
 _atom_site_fract_z
 _atom_site_occupancy
  Sr  Sr0  1  0.000000  0.000000  0.000000  1
  Sb  Sb1  1  0.155217  0.497981  0.339530  1
  Sb  Sb2  1  0.501810  0.657222  0.844588  1
  Sb  Sb3  1  0.339027  0.840957  0.184318  1
  Sb  Sb4  1  0.818838  0.660508  0.158331  1
  Sb  Sb5  1  0.660973  0.845290  0.501930  1
  Sb  Sb6  1  0.181162  0.339492  0.841669  1
  Sb  Sb7  1  0.660973  0.159043  0.815682  1
  Sb  Sb8  1  0.339027  0.154710  0.498070  1
  Sb  Sb9  1  0.498190  0.342778  0.155412  1
  Sb  Sb10  1  0.844783  0.502019  0.660470  1
  Sb  Sb11  1  0.844783  0.184314  0.342764  1
  Sb  Sb12  1  0.155217  0.815686  0.657236  1
  Ir  Ir13  1  0.500000  0.500000  0.500000  1
  Ir  Ir14  1  0.500000  0.000000  0.000000  1
  Ru  Ru15  1  0.000000  0.500000  0.000000  1
  Ru  Ru16  1  0.000000  0.000000  0.500000  1
