# generated using pymatgen
data_PuScS2
_symmetry_space_group_name_H-M   'P 1'
_cell_length_a   6.72718801
_cell_length_b   6.72718812
_cell_length_c   6.72718752
_cell_angle_alpha   32.73687213
_cell_angle_beta   32.73686860
_cell_angle_gamma   32.73687763
_symmetry_Int_Tables_number   1
_chemical_formula_structural   PuScS2
_chemical_formula_sum   'Pu1 Sc1 S2'
_cell_volume   79.19692039
_cell_formula_units_Z   1
loop_
 _symmetry_equiv_pos_site_id
 _symmetry_equiv_pos_as_xyz
  1  'x, y, z'
loop_
 _atom_site_type_symbol
 _atom_site_label
 _atom_site_symmetry_multiplicity
 _atom_site_fract_x
 _atom_site_fract_y
 _atom_site_fract_z
 _atom_site_occupancy
  Pu  Pu0  1  0.500000  0.500000  0.500000  1
  Sc  Sc1  1  0.000000  0.000000  0.000000  1
  S  S2  1  0.256338  0.256338  0.256338  1
  S  S3  1  0.743662  0.743662  0.743662  1
