# generated using pymatgen
data_LiRu5O12
_symmetry_space_group_name_H-M   'P 1'
_cell_length_a   4.60235078
_cell_length_b   4.60235086
_cell_length_c   9.25689300
_cell_angle_alpha   90.00000000
_cell_angle_beta   90.00000000
_cell_angle_gamma   90.86505995
_symmetry_Int_Tables_number   1
_chemical_formula_structural   LiRu5O12
_chemical_formula_sum   'Li1 Ru5 O12'
_cell_volume   196.05376312
_cell_formula_units_Z   1
loop_
 _symmetry_equiv_pos_site_id
 _symmetry_equiv_pos_as_xyz
  1  'x, y, z'
loop_
 _atom_site_type_symbol
 _atom_site_label
 _atom_site_symmetry_multiplicity
 _atom_site_fract_x
 _atom_site_fract_y
 _atom_site_fract_z
 _atom_site_occupancy
  Li  Li0  1  0.000000  0.000000  0.000000  1
  Ru  Ru1  1  0.000000  0.000000  0.329902  1
  Ru  Ru2  1  0.000000  0.000000  0.670098  1
  Ru  Ru3  1  0.500000  0.500000  0.164825  1
  Ru  Ru4  1  0.500000  0.500000  0.500000  1
  Ru  Ru5  1  0.500000  0.500000  0.835175  1
  O  O6  1  0.193942  0.193942  0.500000  1
  O  O7  1  0.211110  0.211110  0.185064  1
  O  O8  1  0.211110  0.211110  0.814936  1
  O  O9  1  0.699571  0.300429  0.337854  1
  O  O10  1  0.699571  0.300429  0.662146  1
  O  O11  1  0.684255  0.315745  0.000000  1
  O  O12  1  0.315745  0.684255  0.000000  1
  O  O13  1  0.300429  0.699571  0.337854  1
  O  O14  1  0.300429  0.699571  0.662146  1
  O  O15  1  0.788890  0.788890  0.185064  1
  O  O16  1  0.788890  0.788890  0.814936  1
  O  O17  1  0.806058  0.806058  0.500000  1
