# generated using pymatgen
data_GdTmAs4O9
_symmetry_space_group_name_H-M   'P 1'
_cell_length_a   6.74534376
_cell_length_b   7.53166823
_cell_length_c   9.84510718
_cell_angle_alpha   94.50071076
_cell_angle_beta   103.91659696
_cell_angle_gamma   104.98634330
_symmetry_Int_Tables_number   1
_chemical_formula_structural   GdTmAs4O9
_chemical_formula_sum   'Gd2 Tm2 As8 O18'
_cell_volume   463.66622689
_cell_formula_units_Z   2
loop_
 _symmetry_equiv_pos_site_id
 _symmetry_equiv_pos_as_xyz
  1  'x, y, z'
loop_
 _atom_site_type_symbol
 _atom_site_label
 _atom_site_symmetry_multiplicity
 _atom_site_fract_x
 _atom_site_fract_y
 _atom_site_fract_z
 _atom_site_occupancy
  Gd  Gd0  1  0.242313  0.939505  0.614785  1
  Gd  Gd1  1  0.757687  0.060495  0.385215  1
  Tm  Tm2  1  0.720066  0.528205  0.409814  1
  Tm  Tm3  1  0.279934  0.471795  0.590186  1
  As  As4  1  0.682100  0.772704  0.079183  1
  As  As5  1  0.317900  0.227296  0.920817  1
  As  As6  1  0.171370  0.750948  0.913048  1
  As  As7  1  0.828630  0.249052  0.086952  1
  As  As8  1  0.742852  0.912865  0.709931  1
  As  As9  1  0.257148  0.087135  0.290069  1
  As  As10  1  0.809576  0.353408  0.700854  1
  As  As11  1  0.190424  0.646592  0.299146  1
  O  O12  1  0.720603  0.743518  0.258763  1
  O  O13  1  0.279397  0.256482  0.741237  1
  O  O14  1  0.316351  0.979611  0.871147  1
  O  O15  1  0.683649  0.020389  0.128853  1
  O  O16  1  0.607749  0.325417  0.985182  1
  O  O17  1  0.392251  0.674583  0.014818  1
  O  O18  1  0.128910  0.643970  0.739460  1
  O  O19  1  0.871090  0.356030  0.260540  1
  O  O20  1  0.844741  0.870120  0.560247  1
  O  O21  1  0.155259  0.129880  0.439753  1
  O  O22  1  0.482498  0.763872  0.666612  1
  O  O23  1  0.517502  0.236128  0.333388  1
  O  O24  1  0.374639  0.534456  0.382959  1
  O  O25  1  0.625361  0.465544  0.617041  1
  O  O26  1  0.085935  0.664223  0.452768  1
  O  O27  1  0.914065  0.335777  0.547232  1
  O  O28  1  0.374211  0.899783  0.358910  1
  O  O29  1  0.625789  0.100217  0.641090  1
