# generated using pymatgen
data_Li29AlSi8
_symmetry_space_group_name_H-M   'P 1'
_cell_length_a   9.16867216
_cell_length_b   9.19236903
_cell_length_c   9.09553999
_cell_angle_alpha   109.14586298
_cell_angle_beta   109.62711601
_cell_angle_gamma   109.81069885
_symmetry_Int_Tables_number   1
_chemical_formula_structural   Li29AlSi8
_chemical_formula_sum   'Li29 Al1 Si8'
_cell_volume   588.86292515
_cell_formula_units_Z   1
loop_
 _symmetry_equiv_pos_site_id
 _symmetry_equiv_pos_as_xyz
  1  'x, y, z'
loop_
 _atom_site_type_symbol
 _atom_site_label
 _atom_site_symmetry_multiplicity
 _atom_site_fract_x
 _atom_site_fract_y
 _atom_site_fract_z
 _atom_site_occupancy
  Li  Li0  1  0.119929  0.749291  0.877708  1
  Li  Li1  1  0.723766  0.340665  0.811486  1
  Li  Li2  1  0.614512  0.771956  0.591135  1
  Li  Li3  1  0.034554  0.919443  0.694333  1
  Li  Li4  1  0.088322  0.274651  0.113867  1
  Li  Li5  1  0.911450  0.688698  0.027610  1
  Li  Li6  1  0.272804  0.113221  0.082983  1
  Li  Li7  1  0.199666  0.419119  0.533751  1
  Li  Li8  1  0.779338  0.586596  0.620534  1
  Li  Li9  1  0.698562  0.033617  0.917271  1
  Li  Li10  1  0.524244  0.184050  0.414088  1
  Li  Li11  1  0.620566  0.377279  0.247628  1
  Li  Li12  1  0.476564  0.171480  0.889333  1
  Li  Li13  1  0.876285  0.124892  0.751160  1
  Li  Li14  1  0.974543  0.384190  0.662483  1
  Li  Li15  1  0.413653  0.526454  0.188014  1
  Li  Li16  1  0.114201  0.088152  0.275310  1
  Li  Li17  1  0.301929  0.834687  0.219817  1
  Li  Li18  1  0.753959  0.873844  0.123190  1
  Li  Li19  1  0.888091  0.474920  0.163115  1
  Li  Li20  1  0.585152  0.618039  0.777572  1
  Li  Li21  1  0.380583  0.656519  0.964240  1
  Li  Li22  1  0.808185  0.728547  0.340545  1
  Li  Li23  1  0.654859  0.957929  0.379457  1
  Li  Li24  1  0.153652  0.884509  0.462738  1
  Li  Li25  1  0.223119  0.308746  0.841259  1
  Li  Li26  1  0.371493  0.252044  0.628357  1
  Li  Li27  1  0.843696  0.221392  0.307787  1
  Li  Li28  1  0.249850  0.620208  0.370030  1
  Al  Al29  1  0.338828  0.819813  0.723055  1
  Si  Si30  1  0.493035  0.993442  0.593671  1
  Si  Si31  1  0.587057  0.501952  0.002468  1
  Si  Si32  1  0.494967  0.995846  0.071024  1
  Si  Si33  1  0.996637  0.088368  0.498390  1
  Si  Si34  1  0.012842  0.593037  0.508378  1
  Si  Si35  1  0.085058  0.499060  0.999829  1
  Si  Si36  1  0.418323  0.408750  0.411848  1
  Si  Si37  1  0.915724  0.914594  0.914535  1
