# generated using pymatgen
data_Dy3Lu17(Bi2Te)4
_symmetry_space_group_name_H-M   'P 1'
_cell_length_a   8.04115215
_cell_length_b   9.31506400
_cell_length_c   11.70621413
_cell_angle_alpha   90.00000000
_cell_angle_beta   90.08379360
_cell_angle_gamma   90.00000000
_symmetry_Int_Tables_number   1
_chemical_formula_structural   Dy3Lu17(Bi2Te)4
_chemical_formula_sum   'Dy3 Lu17 Bi8 Te4'
_cell_volume   876.83953335
_cell_formula_units_Z   1
loop_
 _symmetry_equiv_pos_site_id
 _symmetry_equiv_pos_as_xyz
  1  'x, y, z'
loop_
 _atom_site_type_symbol
 _atom_site_label
 _atom_site_symmetry_multiplicity
 _atom_site_fract_x
 _atom_site_fract_y
 _atom_site_fract_z
 _atom_site_occupancy
  Dy  Dy0  1  0.822687  0.250000  0.283098  1
  Dy  Dy1  1  0.677021  0.750000  0.783637  1
  Dy  Dy2  1  0.176893  0.750000  0.716919  1
  Lu  Lu3  1  0.355408  0.750000  0.216827  1
  Lu  Lu4  1  0.855455  0.750000  0.282674  1
  Lu  Lu5  1  0.644367  0.250000  0.784411  1
  Lu  Lu6  1  0.145961  0.250000  0.717041  1
  Lu  Lu7  1  0.687339  0.565760  0.058449  1
  Lu  Lu8  1  0.186638  0.934100  0.441408  1
  Lu  Lu9  1  0.313362  0.066044  0.942060  1
  Lu  Lu10  1  0.812740  0.433986  0.558339  1
  Lu  Lu11  1  0.313362  0.433956  0.942060  1
  Lu  Lu12  1  0.812740  0.066014  0.558339  1
  Lu  Lu13  1  0.687339  0.934240  0.058449  1
  Lu  Lu14  1  0.186638  0.565900  0.441408  1
  Lu  Lu15  1  0.480307  0.250000  0.489182  1
  Lu  Lu16  1  0.982276  0.250000  0.010460  1
  Lu  Lu17  1  0.518826  0.750000  0.509426  1
  Lu  Lu18  1  0.019311  0.750000  0.990642  1
  Lu  Lu19  1  0.321847  0.250000  0.214162  1
  Bi  Bi20  1  0.568788  0.995837  0.325664  1
  Bi  Bi21  1  0.072124  0.504378  0.173853  1
  Bi  Bi22  1  0.429456  0.494725  0.673191  1
  Bi  Bi23  1  0.929393  0.005477  0.826905  1
  Bi  Bi24  1  0.429456  0.005275  0.673191  1
  Bi  Bi25  1  0.929393  0.494523  0.826905  1
  Bi  Bi26  1  0.568788  0.504163  0.325664  1
  Bi  Bi27  1  0.072124  0.995622  0.173853  1
  Te  Te28  1  0.397307  0.750000  0.959033  1
  Te  Te29  1  0.897277  0.750000  0.540477  1
  Te  Te30  1  0.602945  0.250000  0.042787  1
  Te  Te31  1  0.102432  0.250000  0.459488  1
