# generated using pymatgen
data_Y2TmAl3V2O12
_symmetry_space_group_name_H-M   'P 1'
_cell_length_a   10.65626599
_cell_length_b   10.64828931
_cell_length_c   10.64449920
_cell_angle_alpha   109.46660875
_cell_angle_beta   109.42870256
_cell_angle_gamma   109.55271015
_symmetry_Int_Tables_number   1
_chemical_formula_structural   Y2TmAl3V2O12
_chemical_formula_sum   'Y8 Tm4 Al12 V8 O48'
_cell_volume   929.40186602
_cell_formula_units_Z   4
loop_
 _symmetry_equiv_pos_site_id
 _symmetry_equiv_pos_as_xyz
  1  'x, y, z'
loop_
 _atom_site_type_symbol
 _atom_site_label
 _atom_site_symmetry_multiplicity
 _atom_site_fract_x
 _atom_site_fract_y
 _atom_site_fract_z
 _atom_site_occupancy
  Y  Y0  1  0.749267  0.124375  0.374541  1
  Y  Y1  1  0.126158  0.250285  0.374923  1
  Y  Y2  1  0.249369  0.874967  0.624614  1
  Y  Y3  1  0.874376  0.749563  0.624229  1
  Y  Y4  1  0.125305  0.375229  0.750594  1
  Y  Y5  1  0.625329  0.875118  0.749751  1
  Y  Y6  1  0.752462  0.625712  0.876733  1
  Y  Y7  1  0.624165  0.250301  0.875643  1
  Tm  Tm8  1  0.375878  0.750078  0.124956  1
  Tm  Tm9  1  0.248010  0.374498  0.123798  1
  Tm  Tm10  1  0.374505  0.124683  0.249946  1
  Tm  Tm11  1  0.875159  0.625245  0.250335  1
  Al  Al12  1  0.876414  0.251303  0.125320  1
  Al  Al13  1  0.748853  0.874026  0.125262  1
  Al  Al14  1  0.125004  0.874956  0.249842  1
  Al  Al15  1  0.624904  0.375143  0.249990  1
  Al  Al16  1  0.249692  0.624819  0.373041  1
  Al  Al17  1  0.623834  0.748673  0.373162  1
  Al  Al18  1  0.748898  0.374021  0.624687  1
  Al  Al19  1  0.375294  0.250240  0.624620  1
  Al  Al20  1  0.875888  0.125004  0.750719  1
  Al  Al21  1  0.374815  0.625459  0.750569  1
  Al  Al22  1  0.250693  0.125965  0.876422  1
  Al  Al23  1  0.125718  0.750385  0.876363  1
  V  V24  1  0.001079  0.000836  0.000768  1
  V  V25  1  0.499693  0.999938  0.000766  1
  V  V26  1  0.500152  0.500784  0.001109  1
  V  V27  1  0.000945  0.500324  0.001100  1
  V  V28  1  0.499214  0.999434  0.498718  1
  V  V29  1  0.999926  0.500040  0.499403  1
  V  V30  1  0.999476  0.999362  0.499399  1
  V  V31  1  0.499436  0.499216  0.498691  1
  O  O32  1  0.212099  0.126502  0.027437  1
  O  O33  1  0.315344  0.900954  0.027239  1
  O  O34  1  0.708621  0.684171  0.087068  1
  O  O35  1  0.878613  0.403052  0.087201  1
  O  O36  1  0.973966  0.685313  0.101489  1
  O  O37  1  0.627425  0.416247  0.101522  1
  O  O38  1  0.597569  0.911511  0.123656  1
  O  O39  1  0.026281  0.212378  0.123741  1
  O  O40  1  0.211855  0.585704  0.183947  1
  O  O41  1  0.472122  0.598097  0.184216  1
  O  O42  1  0.582624  0.183845  0.208296  1
  O  O43  1  0.125099  0.024351  0.207916  1
  O  O44  1  0.475006  0.375394  0.290240  1
  O  O45  1  0.314075  0.913872  0.288171  1
  O  O46  1  0.913370  0.290594  0.314476  1
  O  O47  1  0.901047  0.023877  0.314479  1
  O  O48  1  0.290104  0.474890  0.373666  1
  O  O49  1  0.584011  0.898900  0.373030  1
  O  O50  1  0.816357  0.523502  0.399859  1
  O  O51  1  0.083542  0.876205  0.399756  1
  O  O52  1  0.812419  0.785438  0.409771  1
  O  O53  1  0.098140  0.624711  0.410169  1
  O  O54  1  0.376154  0.286970  0.472861  1
  O  O55  1  0.596446  0.184020  0.474095  1
  O  O56  1  0.400762  0.815206  0.523167  1
  O  O57  1  0.623889  0.711049  0.524436  1
  O  O58  1  0.900146  0.374902  0.587398  1
  O  O59  1  0.186878  0.212512  0.587788  1
  O  O60  1  0.913868  0.121274  0.598660  1
  O  O61  1  0.184679  0.477444  0.598558  1
  O  O62  1  0.709283  0.523851  0.622642  1
  O  O63  1  0.412857  0.098680  0.623345  1
  O  O64  1  0.098974  0.976842  0.685959  1
  O  O65  1  0.087058  0.709125  0.685963  1
  O  O66  1  0.686348  0.086216  0.709239  1
  O  O67  1  0.522097  0.621977  0.707246  1
  O  O68  1  0.414881  0.816053  0.792358  1
  O  O69  1  0.878080  0.976432  0.792744  1
  O  O70  1  0.790616  0.413639  0.814832  1
  O  O71  1  0.524209  0.401359  0.814581  1
  O  O72  1  0.976080  0.789810  0.876726  1
  O  O73  1  0.400546  0.086779  0.876813  1
  O  O74  1  0.026821  0.313644  0.902220  1
  O  O75  1  0.375509  0.588488  0.902157  1
  O  O76  1  0.292871  0.316997  0.917911  1
  O  O77  1  0.124855  0.600743  0.917760  1
  O  O78  1  0.686310  0.100316  0.976683  1
  O  O79  1  0.790194  0.876181  0.976506  1
