# generated using pymatgen
data_NdSn5SbRu4
_symmetry_space_group_name_H-M   'P 1'
_cell_length_a   6.98464825
_cell_length_b   6.98464843
_cell_length_c   6.91506133
_cell_angle_alpha   119.77217049
_cell_angle_beta   119.77217185
_cell_angle_gamma   90.29166165
_symmetry_Int_Tables_number   1
_chemical_formula_structural   NdSn5SbRu4
_chemical_formula_sum   'Nd1 Sn5 Sb1 Ru4'
_cell_volume   239.57681062
_cell_formula_units_Z   1
loop_
 _symmetry_equiv_pos_site_id
 _symmetry_equiv_pos_as_xyz
  1  'x, y, z'
loop_
 _atom_site_type_symbol
 _atom_site_label
 _atom_site_symmetry_multiplicity
 _atom_site_fract_x
 _atom_site_fract_y
 _atom_site_fract_z
 _atom_site_occupancy
  Nd  Nd0  1  0.999998  0.999998  0.000224  1
  Sn  Sn1  1  0.117272  0.117272  0.591323  1
  Sn  Sn2  1  0.880595  0.528820  0.408664  1
  Sn  Sn3  1  0.528820  0.880595  0.408664  1
  Sn  Sn4  1  0.001936  0.499919  0.000330  1
  Sn  Sn5  1  0.499919  0.001936  0.000330  1
  Sb  Sb6  1  0.469556  0.469556  0.592916  1
  Ru  Ru7  1  0.407502  0.407502  0.163601  1
  Ru  Ru8  1  0.750825  0.750825  0.153660  1
  Ru  Ru9  1  0.252322  0.591257  0.840143  1
  Ru  Ru10  1  0.591257  0.252322  0.840143  1
