# generated using pymatgen
data_Th5P12Ru15Rh4
_symmetry_space_group_name_H-M   'P 1'
_cell_length_a   12.71820283
_cell_length_b   12.74774767
_cell_length_c   4.00758800
_cell_angle_alpha   90.00000000
_cell_angle_beta   90.00000000
_cell_angle_gamma   120.08592536
_symmetry_Int_Tables_number   1
_chemical_formula_structural   Th5P12Ru15Rh4
_chemical_formula_sum   'Th5 P12 Ru15 Rh4'
_cell_volume   562.20696674
_cell_formula_units_Z   1
loop_
 _symmetry_equiv_pos_site_id
 _symmetry_equiv_pos_as_xyz
  1  'x, y, z'
loop_
 _atom_site_type_symbol
 _atom_site_label
 _atom_site_symmetry_multiplicity
 _atom_site_fract_x
 _atom_site_fract_y
 _atom_site_fract_z
 _atom_site_occupancy
  Th  Th0  1  0.186202  0.184950  0.500000  1
  Th  Th1  1  0.811515  0.998717  0.500000  1
  Th  Th2  1  0.999837  0.812625  0.500000  1
  Th  Th3  1  0.334103  0.668317  0.000000  1
  Th  Th4  1  0.667271  0.333402  0.000000  1
  P  P5  1  0.813357  0.813043  0.000000  1
  P  P6  1  0.186561  0.999503  0.000000  1
  P  P7  1  0.997421  0.183817  0.000000  1
  P  P8  1  0.172380  0.479906  0.500000  1
  P  P9  1  0.522579  0.696870  0.500000  1
  P  P10  1  0.302777  0.826136  0.500000  1
  P  P11  1  0.697711  0.522923  0.500000  1
  P  P12  1  0.825793  0.302622  0.500000  1
  P  P13  1  0.477555  0.174534  0.500000  1
  P  P14  1  0.375737  0.371718  0.000000  1
  P  P15  1  0.627618  0.000343  0.000000  1
  P  P16  1  0.999796  0.627940  0.000000  1
  Ru  Ru17  1  0.712998  0.712872  0.500000  1
  Ru  Ru18  1  0.287161  0.000123  0.500000  1
  Ru  Ru19  1  0.001649  0.287376  0.500000  1
  Ru  Ru20  1  0.622035  0.805929  0.000000  1
  Ru  Ru21  1  0.194101  0.816390  0.000000  1
  Ru  Ru22  1  0.805403  0.621647  0.000000  1
  Ru  Ru23  1  0.817484  0.195281  0.000000  1
  Ru  Ru24  1  0.378020  0.183647  0.000000  1
  Ru  Ru25  1  0.365438  0.491749  0.500000  1
  Ru  Ru26  1  0.506839  0.875104  0.500000  1
  Ru  Ru27  1  0.124330  0.632933  0.500000  1
  Ru  Ru28  1  0.875381  0.506527  0.500000  1
  Ru  Ru29  1  0.631992  0.124642  0.500000  1
  Ru  Ru30  1  0.492795  0.368804  0.500000  1
  Ru  Ru31  1  0.000317  0.000202  0.000000  1
  Rh  Rh32  1  0.552592  0.554412  0.000000  1
  Rh  Rh33  1  0.446545  0.000241  0.000000  1
  Rh  Rh34  1  0.002124  0.448058  0.000000  1
  Rh  Rh35  1  0.184583  0.376697  0.000000  1
