# generated using pymatgen
data_LuHf3(Rh5Pb)2
_symmetry_space_group_name_H-M   'P 1'
_cell_length_a   4.17215300
_cell_length_b   5.69167239
_cell_length_c   11.29490271
_cell_angle_alpha   89.95859442
_cell_angle_beta   90.00000000
_cell_angle_gamma   90.00000000
_symmetry_Int_Tables_number   1
_chemical_formula_structural   LuHf3(Rh5Pb)2
_chemical_formula_sum   'Lu1 Hf3 Rh10 Pb2'
_cell_volume   268.21465363
_cell_formula_units_Z   1
loop_
 _symmetry_equiv_pos_site_id
 _symmetry_equiv_pos_as_xyz
  1  'x, y, z'
loop_
 _atom_site_type_symbol
 _atom_site_label
 _atom_site_symmetry_multiplicity
 _atom_site_fract_x
 _atom_site_fract_y
 _atom_site_fract_z
 _atom_site_occupancy
  Lu  Lu0  1  0.500000  0.190022  0.640361  1
  Hf  Hf1  1  0.500000  0.814209  0.358707  1
  Hf  Hf2  1  0.500000  0.688228  0.856675  1
  Hf  Hf3  1  0.500000  0.315415  0.140272  1
  Rh  Rh4  1  0.500000  0.217335  0.886157  1
  Rh  Rh5  1  0.500000  0.785525  0.120275  1
  Rh  Rh6  1  0.500000  0.710273  0.619614  1
  Rh  Rh7  1  0.500000  0.286179  0.375656  1
  Rh  Rh8  1  0.000000  0.454312  0.755341  1
  Rh  Rh9  1  0.000000  0.551646  0.248374  1
  Rh  Rh10  1  0.000000  0.992309  0.495161  1
  Rh  Rh11  1  0.000000  0.501572  0.001538  1
  Rh  Rh12  1  0.000000  0.051413  0.249516  1
  Rh  Rh13  1  0.000000  0.946302  0.752102  1
  Pb  Pb14  1  0.000000  0.496070  0.499637  1
  Pb  Pb15  1  0.000000  0.999191  0.000614  1
