# generated using pymatgen
data_Ce2Ti3Mn9P7
_symmetry_space_group_name_H-M   'P 1'
_cell_length_a   9.61299700
_cell_length_b   9.61299672
_cell_length_c   3.58273100
_cell_angle_alpha   90.00000000
_cell_angle_beta   90.00000000
_cell_angle_gamma   120.00000439
_symmetry_Int_Tables_number   1
_chemical_formula_structural   Ce2Ti3Mn9P7
_chemical_formula_sum   'Ce2 Ti3 Mn9 P7'
_cell_volume   286.72292274
_cell_formula_units_Z   1
loop_
 _symmetry_equiv_pos_site_id
 _symmetry_equiv_pos_as_xyz
  1  'x, y, z'
loop_
 _atom_site_type_symbol
 _atom_site_label
 _atom_site_symmetry_multiplicity
 _atom_site_fract_x
 _atom_site_fract_y
 _atom_site_fract_z
 _atom_site_occupancy
  Ce  Ce0  1  0.000000  0.000000  0.000000  1
  Ce  Ce1  1  0.333333  0.666667  0.500000  1
  Ti  Ti2  1  0.886853  0.432266  0.500000  1
  Ti  Ti3  1  0.545413  0.113147  0.500000  1
  Ti  Ti4  1  0.567734  0.454587  0.500000  1
  Mn  Mn5  1  0.096886  0.386964  0.000000  1
  Mn  Mn6  1  0.290079  0.903114  0.000000  1
  Mn  Mn7  1  0.613036  0.709921  0.000000  1
  Mn  Mn8  1  0.827303  0.614739  0.000000  1
  Mn  Mn9  1  0.787436  0.172697  0.000000  1
  Mn  Mn10  1  0.385261  0.212564  0.000000  1
  Mn  Mn11  1  0.050770  0.769436  0.500000  1
  Mn  Mn12  1  0.718666  0.949230  0.500000  1
  Mn  Mn13  1  0.230564  0.281334  0.500000  1
  P  P14  1  0.078353  0.629620  0.000000  1
  P  P15  1  0.551268  0.921647  0.000000  1
  P  P16  1  0.370380  0.448732  0.000000  1
  P  P17  1  0.789662  0.748135  0.500000  1
  P  P18  1  0.958475  0.210338  0.500000  1
  P  P19  1  0.251865  0.041525  0.500000  1
  P  P20  1  0.666667  0.333333  0.000000  1
