# generated using pymatgen
data_Zr8Si3(Ni4As3)3
_symmetry_space_group_name_H-M   'P 1'
_cell_length_a   3.75947300
_cell_length_b   10.37830559
_cell_length_c   12.72689464
_cell_angle_alpha   90.21115283
_cell_angle_beta   90.00000000
_cell_angle_gamma   90.00000000
_symmetry_Int_Tables_number   1
_chemical_formula_structural   Zr8Si3(Ni4As3)3
_chemical_formula_sum   'Zr8 Si3 Ni12 As9'
_cell_volume   496.56136269
_cell_formula_units_Z   1
loop_
 _symmetry_equiv_pos_site_id
 _symmetry_equiv_pos_as_xyz
  1  'x, y, z'
loop_
 _atom_site_type_symbol
 _atom_site_label
 _atom_site_symmetry_multiplicity
 _atom_site_fract_x
 _atom_site_fract_y
 _atom_site_fract_z
 _atom_site_occupancy
  Zr  Zr0  1  0.250000  0.334253  0.993482  1
  Zr  Zr1  1  0.250000  0.165543  0.494374  1
  Zr  Zr2  1  0.750000  0.665130  0.005876  1
  Zr  Zr3  1  0.750000  0.834021  0.505783  1
  Zr  Zr4  1  0.250000  0.425341  0.710146  1
  Zr  Zr5  1  0.250000  0.072669  0.208663  1
  Zr  Zr6  1  0.750000  0.572278  0.290052  1
  Zr  Zr7  1  0.750000  0.929019  0.792027  1
  Si  Si8  1  0.250000  0.099207  0.899714  1
  Si  Si9  1  0.250000  0.398593  0.396971  1
  Si  Si10  1  0.750000  0.899690  0.101836  1
  Ni  Ni11  1  0.250000  0.910507  0.990154  1
  Ni  Ni12  1  0.250000  0.592264  0.481413  1
  Ni  Ni13  1  0.750000  0.088916  0.012292  1
  Ni  Ni14  1  0.750000  0.405129  0.508121  1
  Ni  Ni15  1  0.250000  0.138321  0.723292  1
  Ni  Ni16  1  0.250000  0.360526  0.220510  1
  Ni  Ni17  1  0.750000  0.861356  0.278015  1
  Ni  Ni18  1  0.750000  0.640906  0.782375  1
  Ni  Ni19  1  0.250000  0.780220  0.162056  1
  Ni  Ni20  1  0.250000  0.725957  0.665844  1
  Ni  Ni21  1  0.750000  0.217264  0.839922  1
  Ni  Ni22  1  0.750000  0.279600  0.336029  1
  As  As23  1  0.750000  0.599859  0.601074  1
  As  As24  1  0.250000  0.741756  0.858490  1
  As  As25  1  0.250000  0.761885  0.355084  1
  As  As26  1  0.750000  0.259831  0.142842  1
  As  As27  1  0.750000  0.239281  0.645130  1
  As  As28  1  0.250000  0.552079  0.127171  1
  As  As29  1  0.250000  0.948869  0.626796  1
  As  As30  1  0.750000  0.446805  0.872332  1
  As  As31  1  0.750000  0.052926  0.372134  1
