# generated using pymatgen
data_Th3Cr(Co4P3)2
_symmetry_space_group_name_H-M   'P 1'
_cell_length_a   3.81329700
_cell_length_b   10.65762800
_cell_length_c   12.43594400
_cell_angle_alpha   90.00000000
_cell_angle_beta   90.00000000
_cell_angle_gamma   90.00000000
_symmetry_Int_Tables_number   1
_chemical_formula_structural   Th3Cr(Co4P3)2
_chemical_formula_sum   'Th6 Cr2 Co16 P12'
_cell_volume   505.40548026
_cell_formula_units_Z   2
loop_
 _symmetry_equiv_pos_site_id
 _symmetry_equiv_pos_as_xyz
  1  'x, y, z'
loop_
 _atom_site_type_symbol
 _atom_site_label
 _atom_site_symmetry_multiplicity
 _atom_site_fract_x
 _atom_site_fract_y
 _atom_site_fract_z
 _atom_site_occupancy
  Th  Th0  1  0.000000  0.500000  0.521352  1
  Th  Th1  1  0.500000  0.000000  0.478648  1
  Th  Th2  1  0.500000  0.816480  0.206448  1
  Th  Th3  1  0.500000  0.183520  0.206448  1
  Th  Th4  1  0.000000  0.683520  0.793552  1
  Th  Th5  1  0.000000  0.316480  0.793552  1
  Cr  Cr6  1  0.500000  0.500000  0.152975  1
  Cr  Cr7  1  0.000000  0.000000  0.847025  1
  Co  Co8  1  0.500000  0.500000  0.703016  1
  Co  Co9  1  0.000000  0.000000  0.296984  1
  Co  Co10  1  0.000000  0.500000  0.985010  1
  Co  Co11  1  0.500000  0.000000  0.014990  1
  Co  Co12  1  0.500000  0.333107  0.994021  1
  Co  Co13  1  0.500000  0.666893  0.994021  1
  Co  Co14  1  0.000000  0.166893  0.005979  1
  Co  Co15  1  0.000000  0.833107  0.005979  1
  Co  Co16  1  0.500000  0.300320  0.427842  1
  Co  Co17  1  0.500000  0.699680  0.427842  1
  Co  Co18  1  0.000000  0.199680  0.572158  1
  Co  Co19  1  0.000000  0.800320  0.572158  1
  Co  Co20  1  0.500000  0.881443  0.714392  1
  Co  Co21  1  0.500000  0.118557  0.714392  1
  Co  Co22  1  0.000000  0.618557  0.285608  1
  Co  Co23  1  0.000000  0.381443  0.285608  1
  P  P24  1  0.500000  0.500000  0.886399  1
  P  P25  1  0.000000  0.000000  0.113601  1
  P  P26  1  0.500000  0.500000  0.337909  1
  P  P27  1  0.000000  0.000000  0.662091  1
  P  P28  1  0.500000  0.305382  0.612261  1
  P  P29  1  0.500000  0.694618  0.612261  1
  P  P30  1  0.000000  0.194618  0.387739  1
  P  P31  1  0.000000  0.805382  0.387739  1
  P  P32  1  0.500000  0.850320  0.896762  1
  P  P33  1  0.500000  0.149680  0.896762  1
  P  P34  1  0.000000  0.649680  0.103238  1
  P  P35  1  0.000000  0.350320  0.103238  1
