# generated using pymatgen
data_LaAl3Zn
_symmetry_space_group_name_H-M   'P 1'
_cell_length_a   4.33190049
_cell_length_b   4.33190008
_cell_length_c   6.28252418
_cell_angle_alpha   69.83298792
_cell_angle_beta   69.83299071
_cell_angle_gamma   89.99999446
_symmetry_Int_Tables_number   1
_chemical_formula_structural   LaAl3Zn
_chemical_formula_sum   'La1 Al3 Zn1'
_cell_volume   102.93178865
_cell_formula_units_Z   1
loop_
 _symmetry_equiv_pos_site_id
 _symmetry_equiv_pos_as_xyz
  1  'x, y, z'
loop_
 _atom_site_type_symbol
 _atom_site_label
 _atom_site_symmetry_multiplicity
 _atom_site_fract_x
 _atom_site_fract_y
 _atom_site_fract_z
 _atom_site_occupancy
  La  La0  1  0.999594  0.999594  0.000812  1
  Al  Al1  1  0.610487  0.610487  0.779025  1
  Al  Al2  1  0.752898  0.252898  0.494204  1
  Al  Al3  1  0.252898  0.752898  0.494204  1
  Zn  Zn4  1  0.384122  0.384122  0.231755  1
