# generated using pymatgen
data_Y3ErFe13Co
_symmetry_space_group_name_H-M   'P 1'
_cell_length_a   12.29539723
_cell_length_b   12.29539738
_cell_length_c   12.29539747
_cell_angle_alpha   23.90251710
_cell_angle_beta   23.90251494
_cell_angle_gamma   23.90251784
_symmetry_Int_Tables_number   1
_chemical_formula_structural   Y3ErFe13Co
_chemical_formula_sum   'Y3 Er1 Fe13 Co1'
_cell_volume   268.10684057
_cell_formula_units_Z   1
loop_
 _symmetry_equiv_pos_site_id
 _symmetry_equiv_pos_as_xyz
  1  'x, y, z'
loop_
 _atom_site_type_symbol
 _atom_site_label
 _atom_site_symmetry_multiplicity
 _atom_site_fract_x
 _atom_site_fract_y
 _atom_site_fract_z
 _atom_site_occupancy
  Y  Y0  1  0.947580  0.947580  0.947580  1
  Y  Y1  1  0.149791  0.149791  0.149791  1
  Y  Y2  1  0.052239  0.052239  0.052239  1
  Er  Er3  1  0.850505  0.850505  0.850505  1
  Fe  Fe4  1  0.612560  0.612560  0.612560  1
  Fe  Fe5  1  0.387466  0.387466  0.387466  1
  Fe  Fe6  1  0.108143  0.609355  0.609355  1
  Fe  Fe7  1  0.390850  0.390850  0.891166  1
  Fe  Fe8  1  0.609355  0.609355  0.108143  1
  Fe  Fe9  1  0.609355  0.108143  0.609355  1
  Fe  Fe10  1  0.390850  0.891166  0.390850  1
  Fe  Fe11  1  0.500021  0.000018  0.500021  1
  Fe  Fe12  1  0.720998  0.720998  0.720998  1
  Fe  Fe13  1  0.891166  0.390850  0.390850  1
  Fe  Fe14  1  0.000018  0.500021  0.500021  1
  Fe  Fe15  1  0.278966  0.278966  0.278966  1
  Fe  Fe16  1  0.500021  0.500021  0.000018  1
  Co  Co17  1  0.500116  0.500116  0.500116  1
