# generated using pymatgen
data_Dy10Y9ThSn16
_symmetry_space_group_name_H-M   'P 1'
_cell_length_a   8.07240704
_cell_length_b   8.19165761
_cell_length_c   15.50861632
_cell_angle_alpha   90.09032643
_cell_angle_beta   89.79000391
_cell_angle_gamma   89.88751979
_symmetry_Int_Tables_number   1
_chemical_formula_structural   Dy10Y9ThSn16
_chemical_formula_sum   'Dy10 Y9 Th1 Sn16'
_cell_volume   1025.51873111
_cell_formula_units_Z   1
loop_
 _symmetry_equiv_pos_site_id
 _symmetry_equiv_pos_as_xyz
  1  'x, y, z'
loop_
 _atom_site_type_symbol
 _atom_site_label
 _atom_site_symmetry_multiplicity
 _atom_site_fract_x
 _atom_site_fract_y
 _atom_site_fract_z
 _atom_site_occupancy
  Dy  Dy0  1  0.367005  0.835794  0.877781  1
  Dy  Dy1  1  0.868161  0.664085  0.621462  1
  Dy  Dy2  1  0.631641  0.163077  0.377892  1
  Dy  Dy3  1  0.133040  0.337041  0.122619  1
  Dy  Dy4  1  0.633061  0.163098  0.122442  1
  Dy  Dy5  1  0.132124  0.337195  0.378075  1
  Dy  Dy6  1  0.368148  0.836658  0.621984  1
  Dy  Dy7  1  0.867121  0.662888  0.877944  1
  Dy  Dy8  1  0.522822  0.322130  0.901981  1
  Dy  Dy9  1  0.022886  0.178980  0.598879  1
  Y  Y10  1  0.478387  0.678507  0.401959  1
  Y  Y11  1  0.979214  0.821347  0.098446  1
  Y  Y12  1  0.479622  0.678400  0.098012  1
  Y  Y13  1  0.978615  0.821111  0.401947  1
  Y  Y14  1  0.521504  0.322680  0.597167  1
  Y  Y15  1  0.198165  0.500897  0.749346  1
  Y  Y16  1  0.697959  0.997398  0.748860  1
  Y  Y17  1  0.801645  0.497981  0.250573  1
  Y  Y18  1  0.301819  0.001953  0.250042  1
  Th  Th19  1  0.017939  0.180211  0.903186  1
  Sn  Sn20  1  0.293355  0.035094  0.042347  1
  Sn  Sn21  1  0.791164  0.463920  0.458103  1
  Sn  Sn22  1  0.709039  0.965894  0.541901  1
  Sn  Sn23  1  0.209451  0.535378  0.957949  1
  Sn  Sn24  1  0.704586  0.961101  0.958908  1
  Sn  Sn25  1  0.208399  0.536575  0.541690  1
  Sn  Sn26  1  0.291384  0.036191  0.458343  1
  Sn  Sn27  1  0.792815  0.462059  0.041160  1
  Sn  Sn28  1  0.564660  0.620153  0.749814  1
  Sn  Sn29  1  0.065035  0.879297  0.750983  1
  Sn  Sn30  1  0.435181  0.380632  0.249932  1
  Sn  Sn31  1  0.934989  0.119444  0.250275  1
  Sn  Sn32  1  0.331470  0.147374  0.749866  1
  Sn  Sn33  1  0.827020  0.355715  0.748197  1
  Sn  Sn34  1  0.670468  0.852699  0.249917  1
  Sn  Sn35  1  0.170104  0.647043  0.250013  1
