# generated using pymatgen
data_LuSc(BrO3)6
_symmetry_space_group_name_H-M   'P 1'
_cell_length_a   9.56893300
_cell_length_b   9.56893219
_cell_length_c   5.72812800
_cell_angle_alpha   90.00000000
_cell_angle_beta   90.00000000
_cell_angle_gamma   119.99998643
_symmetry_Int_Tables_number   1
_chemical_formula_structural   LuSc(BrO3)6
_chemical_formula_sum   'Lu1 Sc1 Br6 O18'
_cell_volume   454.22433321
_cell_formula_units_Z   1
loop_
 _symmetry_equiv_pos_site_id
 _symmetry_equiv_pos_as_xyz
  1  'x, y, z'
loop_
 _atom_site_type_symbol
 _atom_site_label
 _atom_site_symmetry_multiplicity
 _atom_site_fract_x
 _atom_site_fract_y
 _atom_site_fract_z
 _atom_site_occupancy
  Lu  Lu0  1  0.333333  0.666667  0.193685  1
  Sc  Sc1  1  0.666667  0.333333  0.697496  1
  Br  Br2  1  0.685308  0.025946  0.367592  1
  Br  Br3  1  0.321968  0.985368  0.860015  1
  Br  Br4  1  0.014632  0.336599  0.860015  1
  Br  Br5  1  0.340637  0.314692  0.367592  1
  Br  Br6  1  0.974054  0.659363  0.367592  1
  Br  Br7  1  0.663401  0.678032  0.860015  1
  O  O8  1  0.777577  0.821976  0.042016  1
  O  O9  1  0.944311  0.774991  0.547020  1
  O  O10  1  0.830680  0.055689  0.547020  1
  O  O11  1  0.178024  0.955601  0.042016  1
  O  O12  1  0.044399  0.222423  0.042016  1
  O  O13  1  0.225009  0.169320  0.547020  1
  O  O14  1  0.709288  0.528574  0.916706  1
  O  O15  1  0.169714  0.706803  0.419830  1
  O  O16  1  0.533561  0.404673  0.479464  1
  O  O17  1  0.120422  0.529535  0.969430  1
  O  O18  1  0.409113  0.879578  0.969430  1
  O  O19  1  0.595327  0.128888  0.479464  1
  O  O20  1  0.871112  0.466439  0.479464  1
  O  O21  1  0.470465  0.590887  0.969430  1
  O  O22  1  0.293197  0.462911  0.419830  1
  O  O23  1  0.819286  0.290712  0.916706  1
  O  O24  1  0.471426  0.180714  0.916706  1
  O  O25  1  0.537089  0.830286  0.419830  1
