# generated using pymatgen
data_HoTm(Th2In5)2
_symmetry_space_group_name_H-M   'P 1'
_cell_length_a   6.57559964
_cell_length_b   6.57560028
_cell_length_c   10.31519900
_cell_angle_alpha   90.00000000
_cell_angle_beta   90.00000000
_cell_angle_gamma   102.25332807
_symmetry_Int_Tables_number   1
_chemical_formula_structural   HoTm(Th2In5)2
_chemical_formula_sum   'Ho1 Tm1 Th4 In10'
_cell_volume   435.85314431
_cell_formula_units_Z   1
loop_
 _symmetry_equiv_pos_site_id
 _symmetry_equiv_pos_as_xyz
  1  'x, y, z'
loop_
 _atom_site_type_symbol
 _atom_site_label
 _atom_site_symmetry_multiplicity
 _atom_site_fract_x
 _atom_site_fract_y
 _atom_site_fract_z
 _atom_site_occupancy
  Ho  Ho0  1  0.130669  0.130669  0.750000  1
  Tm  Tm1  1  0.869167  0.869167  0.250000  1
  Th  Th2  1  0.705819  0.294086  0.000049  1
  Th  Th3  1  0.705819  0.294086  0.499951  1
  Th  Th4  1  0.294086  0.705819  0.000049  1
  Th  Th5  1  0.294086  0.705819  0.499951  1
  In  In6  1  0.510199  0.510199  0.750000  1
  In  In7  1  0.490098  0.490098  0.250000  1
  In  In8  1  0.811610  0.811610  0.545747  1
  In  In9  1  0.188300  0.188300  0.453900  1
  In  In10  1  0.811610  0.811610  0.954253  1
  In  In11  1  0.188300  0.188300  0.046100  1
  In  In12  1  0.992659  0.567273  0.750000  1
  In  In13  1  0.433100  0.007204  0.250000  1
  In  In14  1  0.007204  0.433100  0.250000  1
  In  In15  1  0.567273  0.992659  0.750000  1
