# generated using pymatgen
data_Sm2Ga2Os2C
_symmetry_space_group_name_H-M   'P 1'
_cell_length_a   5.98324266
_cell_length_b   5.98324144
_cell_length_c   7.22005300
_cell_angle_alpha   126.17012145
_cell_angle_beta   126.17011294
_cell_angle_gamma   40.52200485
_symmetry_Int_Tables_number   1
_chemical_formula_structural   Sm2Ga2Os2C
_chemical_formula_sum   'Sm2 Ga2 Os2 C1'
_cell_volume   130.54205701
_cell_formula_units_Z   1
loop_
 _symmetry_equiv_pos_site_id
 _symmetry_equiv_pos_as_xyz
  1  'x, y, z'
loop_
 _atom_site_type_symbol
 _atom_site_label
 _atom_site_symmetry_multiplicity
 _atom_site_fract_x
 _atom_site_fract_y
 _atom_site_fract_z
 _atom_site_occupancy
  Sm  Sm0  1  0.562622  0.562622  0.291156  1
  Sm  Sm1  1  0.437379  0.437379  0.708844  1
  Ga  Ga2  1  0.848264  0.848264  0.308130  1
  Ga  Ga3  1  0.151735  0.151735  0.691868  1
  Os  Os4  1  0.197726  0.197726  0.086367  1
  Os  Os5  1  0.802274  0.802274  0.913633  1
  C  C6  1  0.000000  0.000000  0.000000  1
