# generated using pymatgen
data_Ho4Zr3ScIr4
_symmetry_space_group_name_H-M   'P 1'
_cell_length_a   4.52993600
_cell_length_b   7.04874368
_cell_length_c   8.31854300
_cell_angle_alpha   90.66773965
_cell_angle_beta   90.00000000
_cell_angle_gamma   90.00000000
_symmetry_Int_Tables_number   1
_chemical_formula_structural   Ho4Zr3ScIr4
_chemical_formula_sum   'Ho4 Zr3 Sc1 Ir4'
_cell_volume   265.59601611
_cell_formula_units_Z   1
loop_
 _symmetry_equiv_pos_site_id
 _symmetry_equiv_pos_as_xyz
  1  'x, y, z'
loop_
 _atom_site_type_symbol
 _atom_site_label
 _atom_site_symmetry_multiplicity
 _atom_site_fract_x
 _atom_site_fract_y
 _atom_site_fract_z
 _atom_site_occupancy
  Ho  Ho0  1  0.250000  0.986004  0.323921  1
  Ho  Ho1  1  0.250000  0.481884  0.173007  1
  Ho  Ho2  1  0.750000  0.018653  0.678169  1
  Ho  Ho3  1  0.750000  0.512210  0.824696  1
  Zr  Zr4  1  0.250000  0.360080  0.574182  1
  Zr  Zr5  1  0.250000  0.855128  0.928478  1
  Zr  Zr6  1  0.750000  0.646742  0.424175  1
  Sc  Sc7  1  0.750000  0.141786  0.075051  1
  Ir  Ir8  1  0.250000  0.234230  0.899733  1
  Ir  Ir9  1  0.250000  0.738081  0.592996  1
  Ir  Ir10  1  0.750000  0.758628  0.095349  1
  Ir  Ir11  1  0.750000  0.266575  0.410242  1
