# generated using pymatgen
data_Tb6Lu7Th3(CdIr)4
_symmetry_space_group_name_H-M   'P 1'
_cell_length_a   9.65653771
_cell_length_b   9.64006629
_cell_length_c   9.64006600
_cell_angle_alpha   60.00000101
_cell_angle_beta   60.05640997
_cell_angle_gamma   60.05641616
_symmetry_Int_Tables_number   1
_chemical_formula_structural   Tb6Lu7Th3(CdIr)4
_chemical_formula_sum   'Tb6 Lu7 Th3 Cd4 Ir4'
_cell_volume   635.09144685
_cell_formula_units_Z   1
loop_
 _symmetry_equiv_pos_site_id
 _symmetry_equiv_pos_as_xyz
  1  'x, y, z'
loop_
 _atom_site_type_symbol
 _atom_site_label
 _atom_site_symmetry_multiplicity
 _atom_site_fract_x
 _atom_site_fract_y
 _atom_site_fract_z
 _atom_site_occupancy
  Tb  Tb0  1  0.187460  0.812024  0.812024  1
  Tb  Tb1  1  0.813927  0.185772  0.185772  1
  Tb  Tb2  1  0.813927  0.185772  0.814529  1
  Tb  Tb3  1  0.187460  0.812024  0.188494  1
  Tb  Tb4  1  0.813927  0.814529  0.185772  1
  Tb  Tb5  1  0.187460  0.188494  0.812024  1
  Lu  Lu6  1  0.199984  0.600006  0.600006  1
  Lu  Lu7  1  0.064017  0.436913  0.436913  1
  Lu  Lu8  1  0.434112  0.065756  0.065756  1
  Lu  Lu9  1  0.434112  0.065756  0.434374  1
  Lu  Lu10  1  0.064017  0.436913  0.062157  1
  Lu  Lu11  1  0.434112  0.434374  0.065756  1
  Lu  Lu12  1  0.064017  0.062157  0.436913  1
  Th  Th13  1  0.598431  0.600663  0.600663  1
  Th  Th14  1  0.598431  0.600663  0.200246  1
  Th  Th15  1  0.598431  0.200246  0.600663  1
  Cd  Cd16  1  0.835801  0.829683  0.829683  1
  Cd  Cd17  1  0.835801  0.829683  0.504834  1
  Cd  Cd18  1  0.835801  0.504834  0.829683  1
  Cd  Cd19  1  0.502571  0.832476  0.832476  1
  Ir  Ir20  1  0.390912  0.392409  0.392409  1
  Ir  Ir21  1  0.390912  0.392409  0.824270  1
  Ir  Ir22  1  0.390912  0.824270  0.392409  1
  Ir  Ir23  1  0.823468  0.392177  0.392177  1
