# generated using pymatgen
data_Yb3Pr17Si15Rh
_symmetry_space_group_name_H-M   'P 1'
_cell_length_a   7.91316180
_cell_length_b   7.91319223
_cell_length_c   15.24976100
_cell_angle_alpha   90.11185916
_cell_angle_beta   89.82764528
_cell_angle_gamma   90.18286273
_symmetry_Int_Tables_number   1
_chemical_formula_structural   Yb3Pr17Si15Rh
_chemical_formula_sum   'Yb3 Pr17 Si15 Rh1'
_cell_volume   954.90419896
_cell_formula_units_Z   1
loop_
 _symmetry_equiv_pos_site_id
 _symmetry_equiv_pos_as_xyz
  1  'x, y, z'
loop_
 _atom_site_type_symbol
 _atom_site_label
 _atom_site_symmetry_multiplicity
 _atom_site_fract_x
 _atom_site_fract_y
 _atom_site_fract_z
 _atom_site_occupancy
  Yb  Yb0  1  0.309218  0.308832  0.998451  1
  Yb  Yb1  1  0.189646  0.810174  0.250588  1
  Yb  Yb2  1  0.817494  0.190564  0.747918  1
  Pr  Pr3  1  0.693249  0.688314  0.501286  1
  Pr  Pr4  1  0.375719  0.008954  0.447893  1
  Pr  Pr5  1  0.490806  0.877359  0.698943  1
  Pr  Pr6  1  0.509399  0.123135  0.197431  1
  Pr  Pr7  1  0.875505  0.490333  0.299625  1
  Pr  Pr8  1  0.124416  0.505322  0.799696  1
  Pr  Pr9  1  0.624800  0.991513  0.947347  1
  Pr  Pr10  1  0.002030  0.377572  0.553743  1
  Pr  Pr11  1  0.990753  0.623768  0.050933  1
  Pr  Pr12  1  0.130168  0.990493  0.872823  1
  Pr  Pr13  1  0.512781  0.628167  0.125559  1
  Pr  Pr14  1  0.474662  0.360780  0.630178  1
  Pr  Pr15  1  0.628294  0.511359  0.874425  1
  Pr  Pr16  1  0.372941  0.483649  0.374244  1
  Pr  Pr17  1  0.875301  0.018748  0.376499  1
  Pr  Pr18  1  0.986486  0.124199  0.123649  1
  Pr  Pr19  1  0.025799  0.884436  0.626694  1
  Si  Si20  1  0.332478  0.697927  0.949031  1
  Si  Si21  1  0.664461  0.301529  0.451669  1
  Si  Si22  1  0.701778  0.334395  0.051400  1
  Si  Si23  1  0.304297  0.668826  0.548721  1
  Si  Si24  1  0.800404  0.833917  0.201122  1
  Si  Si25  1  0.166075  0.201533  0.297525  1
  Si  Si26  1  0.835583  0.798579  0.800573  1
  Si  Si27  1  0.286639  0.918217  0.057481  1
  Si  Si28  1  0.580901  0.786612  0.309517  1
  Si  Si29  1  0.425344  0.206261  0.813263  1
  Si  Si30  1  0.783031  0.583718  0.690583  1
  Si  Si31  1  0.212466  0.420888  0.189907  1
  Si  Si32  1  0.704391  0.074062  0.558775  1
  Si  Si33  1  0.919588  0.287347  0.942123  1
  Si  Si34  1  0.079801  0.714901  0.441844  1
  Rh  Rh35  1  0.193294  0.173617  0.698539  1
