# generated using pymatgen
data_PuAsRuF
_symmetry_space_group_name_H-M   'P 1'
_cell_length_a   4.11690100
_cell_length_b   4.11690100
_cell_length_c   8.19883800
_cell_angle_alpha   90.00000000
_cell_angle_beta   90.00000000
_cell_angle_gamma   90.00000000
_symmetry_Int_Tables_number   1
_chemical_formula_structural   PuAsRuF
_chemical_formula_sum   'Pu2 As2 Ru2 F2'
_cell_volume   138.96107093
_cell_formula_units_Z   2
loop_
 _symmetry_equiv_pos_site_id
 _symmetry_equiv_pos_as_xyz
  1  'x, y, z'
loop_
 _atom_site_type_symbol
 _atom_site_label
 _atom_site_symmetry_multiplicity
 _atom_site_fract_x
 _atom_site_fract_y
 _atom_site_fract_z
 _atom_site_occupancy
  Pu  Pu0  1  0.750001  0.750001  0.186896  1
  Pu  Pu1  1  0.249999  0.249999  0.813104  1
  As  As2  1  0.249999  0.249999  0.336649  1
  As  As3  1  0.750001  0.750001  0.663351  1
  Ru  Ru4  1  0.750001  0.249999  0.500000  1
  Ru  Ru5  1  0.249999  0.750001  0.500000  1
  F  F6  1  0.750001  0.249999  0.000000  1
  F  F7  1  0.249999  0.750001  0.000000  1
