# generated using pymatgen
data_Tb8Si16Mo5W7
_symmetry_space_group_name_H-M   'P 1'
_cell_length_a   6.81243335
_cell_length_b   6.95938147
_cell_length_c   12.93370303
_cell_angle_alpha   89.97144359
_cell_angle_beta   89.98354769
_cell_angle_gamma   90.05918117
_symmetry_Int_Tables_number   1
_chemical_formula_structural   Tb8Si16Mo5W7
_chemical_formula_sum   'Tb8 Si16 Mo5 W7'
_cell_volume   613.19060266
_cell_formula_units_Z   1
loop_
 _symmetry_equiv_pos_site_id
 _symmetry_equiv_pos_as_xyz
  1  'x, y, z'
loop_
 _atom_site_type_symbol
 _atom_site_label
 _atom_site_symmetry_multiplicity
 _atom_site_fract_x
 _atom_site_fract_y
 _atom_site_fract_z
 _atom_site_occupancy
  Tb  Tb0  1  0.495855  0.332857  0.093499  1
  Tb  Tb1  1  0.996603  0.167184  0.406400  1
  Tb  Tb2  1  0.504158  0.667138  0.593649  1
  Tb  Tb3  1  0.004152  0.832648  0.906605  1
  Tb  Tb4  1  0.503562  0.667548  0.906645  1
  Tb  Tb5  1  0.003710  0.832690  0.593642  1
  Tb  Tb6  1  0.496844  0.332630  0.406411  1
  Tb  Tb7  1  0.996072  0.167509  0.093609  1
  Si  Si8  1  0.659057  0.043166  0.547835  1
  Si  Si9  1  0.159900  0.456432  0.952840  1
  Si  Si10  1  0.339566  0.956808  0.047241  1
  Si  Si11  1  0.841208  0.543515  0.452269  1
  Si  Si12  1  0.340564  0.956037  0.451615  1
  Si  Si13  1  0.839657  0.544266  0.047544  1
  Si  Si14  1  0.660439  0.043930  0.952389  1
  Si  Si15  1  0.159978  0.456088  0.547701  1
  Si  Si16  1  0.534829  0.368754  0.749051  1
  Si  Si17  1  0.035076  0.131564  0.750834  1
  Si  Si18  1  0.465560  0.632164  0.249893  1
  Si  Si19  1  0.964371  0.867983  0.250694  1
  Si  Si20  1  0.802664  0.631519  0.750444  1
  Si  Si21  1  0.302633  0.868557  0.749564  1
  Si  Si22  1  0.197569  0.368583  0.250184  1
  Si  Si23  1  0.696921  0.130736  0.249771  1
  Mo  Mo24  1  0.668464  0.835837  0.373772  1
  Mo  Mo25  1  0.169880  0.662794  0.374455  1
  Mo  Mo26  1  0.668461  0.836553  0.126153  1
  Mo  Mo27  1  0.830128  0.337679  0.874741  1
  Mo  Mo28  1  0.330106  0.162783  0.624962  1
  W  W29  1  0.831904  0.335741  0.626907  1
  W  W30  1  0.332399  0.164201  0.872819  1
  W  W31  1  0.168230  0.663464  0.126654  1
  W  W32  1  0.664701  0.001942  0.750389  1
  W  W33  1  0.164569  0.498232  0.750227  1
  W  W34  1  0.334303  0.998888  0.249023  1
  W  W35  1  0.835907  0.501580  0.249569  1
