# generated using pymatgen
data_BaHo(ReO4)6
_symmetry_space_group_name_H-M   'P 1'
_cell_length_a   10.77700400
_cell_length_b   10.77700329
_cell_length_c   6.44664100
_cell_angle_alpha   90.00000000
_cell_angle_beta   90.00000000
_cell_angle_gamma   119.99999072
_symmetry_Int_Tables_number   1
_chemical_formula_structural   BaHo(ReO4)6
_chemical_formula_sum   'Ba1 Ho1 Re6 O24'
_cell_volume   648.42569739
_cell_formula_units_Z   1
loop_
 _symmetry_equiv_pos_site_id
 _symmetry_equiv_pos_as_xyz
  1  'x, y, z'
loop_
 _atom_site_type_symbol
 _atom_site_label
 _atom_site_symmetry_multiplicity
 _atom_site_fract_x
 _atom_site_fract_y
 _atom_site_fract_z
 _atom_site_occupancy
  Ba  Ba0  1  0.333333  0.666667  0.250000  1
  Ho  Ho1  1  0.666667  0.333333  0.750000  1
  Re  Re2  1  0.060925  0.378802  0.750000  1
  Re  Re3  1  0.411452  0.298122  0.250000  1
  Re  Re4  1  0.621198  0.682122  0.750000  1
  Re  Re5  1  0.886670  0.588548  0.250000  1
  Re  Re6  1  0.317878  0.939075  0.750000  1
  Re  Re7  1  0.701878  0.113330  0.250000  1
  O  O8  1  0.513094  0.649630  0.530784  1
  O  O9  1  0.350370  0.863464  0.530784  1
  O  O10  1  0.815699  0.701562  0.250000  1
  O  O11  1  0.140077  0.896332  0.750000  1
  O  O12  1  0.298438  0.114137  0.250000  1
  O  O13  1  0.103668  0.243745  0.750000  1
  O  O14  1  0.520603  0.347602  0.025011  1
  O  O15  1  0.885863  0.184301  0.250000  1
  O  O16  1  0.073548  0.690185  0.250000  1
  O  O17  1  0.136536  0.486906  0.969216  1
  O  O18  1  0.136536  0.486906  0.530784  1
  O  O19  1  0.872177  0.307492  0.750000  1
  O  O20  1  0.309815  0.383364  0.250000  1
  O  O21  1  0.692508  0.564685  0.750000  1
  O  O22  1  0.826998  0.479397  0.474989  1
  O  O23  1  0.435315  0.127823  0.750000  1
  O  O24  1  0.652398  0.173002  0.025011  1
  O  O25  1  0.513094  0.649630  0.969216  1
  O  O26  1  0.350370  0.863464  0.969216  1
  O  O27  1  0.652398  0.173002  0.474989  1
  O  O28  1  0.520603  0.347602  0.474989  1
  O  O29  1  0.826998  0.479397  0.025011  1
  O  O30  1  0.756255  0.859923  0.750000  1
  O  O31  1  0.616636  0.926452  0.250000  1
