# generated using pymatgen
data_Zr3Co7B2
_symmetry_space_group_name_H-M   'P 1'
_cell_length_a   4.92844401
_cell_length_b   4.92744659
_cell_length_c   13.89206700
_cell_angle_alpha   90.00000000
_cell_angle_beta   90.00000000
_cell_angle_gamma   120.01462354
_symmetry_Int_Tables_number   1
_chemical_formula_structural   Zr3Co7B2
_chemical_formula_sum   'Zr6 Co14 B4'
_cell_volume   292.12265464
_cell_formula_units_Z   2
loop_
 _symmetry_equiv_pos_site_id
 _symmetry_equiv_pos_as_xyz
  1  'x, y, z'
loop_
 _atom_site_type_symbol
 _atom_site_label
 _atom_site_symmetry_multiplicity
 _atom_site_fract_x
 _atom_site_fract_y
 _atom_site_fract_z
 _atom_site_occupancy
  Zr  Zr0  1  0.333342  0.666718  0.250000  1
  Zr  Zr1  1  0.666658  0.333282  0.750000  1
  Zr  Zr2  1  0.333329  0.666649  0.036259  1
  Zr  Zr3  1  0.666671  0.333351  0.536259  1
  Zr  Zr4  1  0.666671  0.333351  0.963741  1
  Zr  Zr5  1  0.333329  0.666649  0.463741  1
  Co  Co6  1  0.000000  0.000000  0.000000  1
  Co  Co7  1  0.000000  0.000000  0.500000  1
  Co  Co8  1  0.834311  0.668663  0.144758  1
  Co  Co9  1  0.165681  0.834235  0.644680  1
  Co  Co10  1  0.668588  0.834236  0.644704  1
  Co  Co11  1  0.331412  0.165764  0.144704  1
  Co  Co12  1  0.834319  0.165765  0.144680  1
  Co  Co13  1  0.165689  0.331337  0.855242  1
  Co  Co14  1  0.165681  0.834235  0.855320  1
  Co  Co15  1  0.165689  0.331337  0.644758  1
  Co  Co16  1  0.668588  0.834236  0.855296  1
  Co  Co17  1  0.331412  0.165764  0.355296  1
  Co  Co18  1  0.834311  0.668663  0.355242  1
  Co  Co19  1  0.834319  0.165765  0.355320  1
  B  B20  1  0.000022  0.000074  0.250000  1
  B  B21  1  0.999978  0.999926  0.750000  1
  B  B22  1  0.333324  0.666628  0.750000  1
  B  B23  1  0.666676  0.333372  0.250000  1
