# generated using pymatgen
data_Ho10Tl7InPd3Au
_symmetry_space_group_name_H-M   'P 1'
_cell_length_a   3.62749900
_cell_length_b   8.24491932
_cell_length_c   18.44460858
_cell_angle_alpha   89.87889929
_cell_angle_beta   90.00000000
_cell_angle_gamma   90.00000000
_symmetry_Int_Tables_number   1
_chemical_formula_structural   Ho10Tl7InPd3Au
_chemical_formula_sum   'Ho10 Tl7 In1 Pd3 Au1'
_cell_volume   551.64817349
_cell_formula_units_Z   1
loop_
 _symmetry_equiv_pos_site_id
 _symmetry_equiv_pos_as_xyz
  1  'x, y, z'
loop_
 _atom_site_type_symbol
 _atom_site_label
 _atom_site_symmetry_multiplicity
 _atom_site_fract_x
 _atom_site_fract_y
 _atom_site_fract_z
 _atom_site_occupancy
  Ho  Ho0  1  0.000000  0.499674  0.501285  1
  Ho  Ho1  1  0.000000  0.999286  0.998460  1
  Ho  Ho2  1  0.000000  0.748245  0.284255  1
  Ho  Ho3  1  0.000000  0.257707  0.719336  1
  Ho  Ho4  1  0.000000  0.758345  0.780480  1
  Ho  Ho5  1  0.000000  0.233898  0.219125  1
  Ho  Ho6  1  0.000000  0.620476  0.081347  1
  Ho  Ho7  1  0.000000  0.383474  0.913551  1
  Ho  Ho8  1  0.000000  0.884255  0.585679  1
  Ho  Ho9  1  0.000000  0.113694  0.416122  1
  Tl  Tl10  1  0.500000  0.709907  0.932047  1
  Tl  Tl11  1  0.500000  0.292453  0.063366  1
  Tl  Tl12  1  0.500000  0.792774  0.435654  1
  Tl  Tl13  1  0.500000  0.206333  0.566722  1
  Tl  Tl14  1  0.500000  0.581749  0.648902  1
  Tl  Tl15  1  0.500000  0.414031  0.354256  1
  Tl  Tl16  1  0.500000  0.920663  0.147553  1
  In  In17  1  0.500000  0.081276  0.849418  1
  Pd  Pd18  1  0.500000  0.471504  0.802989  1
  Pd  Pd19  1  0.500000  0.974819  0.697733  1
  Pd  Pd20  1  0.500000  0.026673  0.303770  1
  Au  Au21  1  0.500000  0.528765  0.197950  1
