# generated using pymatgen
data_La9Tb(Si2Pb)2
_symmetry_space_group_name_H-M   'P 1'
_cell_length_a   7.99988464
_cell_length_b   7.99988707
_cell_length_c   9.30736600
_cell_angle_alpha   115.45239779
_cell_angle_beta   115.45239814
_cell_angle_gamma   89.99999899
_symmetry_Int_Tables_number   1
_chemical_formula_structural   La9Tb(Si2Pb)2
_chemical_formula_sum   'La9 Tb1 Si4 Pb2'
_cell_volume   473.01519653
_cell_formula_units_Z   1
loop_
 _symmetry_equiv_pos_site_id
 _symmetry_equiv_pos_as_xyz
  1  'x, y, z'
loop_
 _atom_site_type_symbol
 _atom_site_label
 _atom_site_symmetry_multiplicity
 _atom_site_fract_x
 _atom_site_fract_y
 _atom_site_fract_z
 _atom_site_occupancy
  La  La0  1  0.500000  0.500000  0.000000  1
  La  La1  1  0.964059  0.813054  0.276533  1
  La  La2  1  0.312475  0.463478  0.276533  1
  La  La3  1  0.813054  0.312475  0.276533  1
  La  La4  1  0.463478  0.964059  0.276533  1
  La  La5  1  0.035941  0.186946  0.723467  1
  La  La6  1  0.687525  0.536522  0.723467  1
  La  La7  1  0.186946  0.687525  0.723467  1
  La  La8  1  0.536522  0.035941  0.723467  1
  Tb  Tb9  1  0.000000  0.000000  0.000000  1
  Si  Si10  1  0.619274  0.884638  0.000000  1
  Si  Si11  1  0.380726  0.115362  0.000000  1
  Si  Si12  1  0.884638  0.380726  0.000000  1
  Si  Si13  1  0.115362  0.619274  0.000000  1
  Pb  Pb14  1  0.751267  0.751267  0.502533  1
  Pb  Pb15  1  0.248733  0.248733  0.497467  1
