# generated using pymatgen
data_K3TbB24
_symmetry_space_group_name_H-M   'P 1'
_cell_length_a   4.18998500
_cell_length_b   4.18998500
_cell_length_c   16.77197600
_cell_angle_alpha   90.00000000
_cell_angle_beta   90.00000000
_cell_angle_gamma   90.00000000
_symmetry_Int_Tables_number   1
_chemical_formula_structural   K3TbB24
_chemical_formula_sum   'K3 Tb1 B24'
_cell_volume   294.44837962
_cell_formula_units_Z   1
loop_
 _symmetry_equiv_pos_site_id
 _symmetry_equiv_pos_as_xyz
  1  'x, y, z'
loop_
 _atom_site_type_symbol
 _atom_site_label
 _atom_site_symmetry_multiplicity
 _atom_site_fract_x
 _atom_site_fract_y
 _atom_site_fract_z
 _atom_site_occupancy
  K  K0  1  0.000000  0.000000  0.250694  1
  K  K1  1  0.000000  0.000000  0.500000  1
  K  K2  1  0.000000  0.000000  0.749306  1
  Tb  Tb3  1  0.000000  0.000000  0.000000  1
  B  B4  1  0.201657  0.500000  0.121250  1
  B  B5  1  0.199062  0.500000  0.373720  1
  B  B6  1  0.199062  0.500000  0.626280  1
  B  B7  1  0.201657  0.500000  0.878750  1
  B  B8  1  0.500000  0.500000  0.197342  1
  B  B9  1  0.500000  0.500000  0.449911  1
  B  B10  1  0.500000  0.500000  0.701354  1
  B  B11  1  0.500000  0.500000  0.951425  1
  B  B12  1  0.500000  0.201657  0.121250  1
  B  B13  1  0.500000  0.199062  0.373720  1
  B  B14  1  0.500000  0.199062  0.626280  1
  B  B15  1  0.500000  0.201657  0.878750  1
  B  B16  1  0.500000  0.500000  0.048575  1
  B  B17  1  0.500000  0.500000  0.298646  1
  B  B18  1  0.500000  0.500000  0.550089  1
  B  B19  1  0.500000  0.500000  0.802658  1
  B  B20  1  0.500000  0.798343  0.121250  1
  B  B21  1  0.500000  0.800938  0.373720  1
  B  B22  1  0.500000  0.800938  0.626280  1
  B  B23  1  0.500000  0.798343  0.878750  1
  B  B24  1  0.798343  0.500000  0.121250  1
  B  B25  1  0.800938  0.500000  0.373720  1
  B  B26  1  0.800938  0.500000  0.626280  1
  B  B27  1  0.798343  0.500000  0.878750  1
