# generated using pymatgen
data_TbHoGa2IrPt
_symmetry_space_group_name_H-M   'P 1'
_cell_length_a   4.42951800
_cell_length_b   6.83577100
_cell_length_c   7.71255900
_cell_angle_alpha   90.00000000
_cell_angle_beta   90.00000000
_cell_angle_gamma   90.00000000
_symmetry_Int_Tables_number   1
_chemical_formula_structural   TbHoGa2IrPt
_chemical_formula_sum   'Tb2 Ho2 Ga4 Ir2 Pt2'
_cell_volume   233.52989041
_cell_formula_units_Z   2
loop_
 _symmetry_equiv_pos_site_id
 _symmetry_equiv_pos_as_xyz
  1  'x, y, z'
loop_
 _atom_site_type_symbol
 _atom_site_label
 _atom_site_symmetry_multiplicity
 _atom_site_fract_x
 _atom_site_fract_y
 _atom_site_fract_z
 _atom_site_occupancy
  Tb  Tb0  1  0.250000  0.978996  0.309350  1
  Tb  Tb1  1  0.250000  0.478996  0.190650  1
  Ho  Ho2  1  0.750000  0.513828  0.801238  1
  Ho  Ho3  1  0.750000  0.013828  0.698762  1
  Ga  Ga4  1  0.750000  0.670644  0.428954  1
  Ga  Ga5  1  0.250000  0.335410  0.576792  1
  Ga  Ga6  1  0.750000  0.170644  0.071046  1
  Ga  Ga7  1  0.250000  0.835410  0.923208  1
  Ir  Ir8  1  0.250000  0.726231  0.602045  1
  Ir  Ir9  1  0.250000  0.226231  0.897955  1
  Pt  Pt10  1  0.750000  0.774892  0.100433  1
  Pt  Pt11  1  0.750000  0.274892  0.399567  1
