# generated using pymatgen
data_Sm3AgPd8
_symmetry_space_group_name_H-M   'P 1'
_cell_length_a   4.23508900
_cell_length_b   5.90592100
_cell_length_c   17.71634502
_cell_angle_alpha   89.99784605
_cell_angle_beta   90.00033023
_cell_angle_gamma   89.99782687
_symmetry_Int_Tables_number   1
_chemical_formula_structural   Sm3AgPd8
_chemical_formula_sum   'Sm6 Ag2 Pd16'
_cell_volume   443.12301186
_cell_formula_units_Z   2
loop_
 _symmetry_equiv_pos_site_id
 _symmetry_equiv_pos_as_xyz
  1  'x, y, z'
loop_
 _atom_site_type_symbol
 _atom_site_label
 _atom_site_symmetry_multiplicity
 _atom_site_fract_x
 _atom_site_fract_y
 _atom_site_fract_z
 _atom_site_occupancy
  Sm  Sm0  1  0.526324  0.313069  0.043632  1
  Sm  Sm1  1  0.526288  0.810310  0.206109  1
  Sm  Sm2  1  0.526042  0.313295  0.368573  1
  Sm  Sm3  1  0.525825  0.765582  0.543809  1
  Sm  Sm4  1  0.525640  0.268255  0.706208  1
  Sm  Sm5  1  0.525912  0.765809  0.868580  1
  Ag  Ag6  1  0.025963  0.039589  0.456131  1
  Ag  Ag7  1  0.026202  0.039533  0.956147  1
  Pd  Pd8  1  0.526319  0.805543  0.038071  1
  Pd  Pd9  1  0.026369  0.060032  0.123304  1
  Pd  Pd10  1  0.026319  0.561721  0.122792  1
  Pd  Pd11  1  0.526298  0.310259  0.206092  1
  Pd  Pd12  1  0.026237  0.562032  0.289366  1
  Pd  Pd13  1  0.026209  0.060343  0.288846  1
  Pd  Pd14  1  0.526048  0.805869  0.374145  1
  Pd  Pd15  1  0.025952  0.539278  0.456130  1
  Pd  Pd16  1  0.525829  0.272890  0.538101  1
  Pd  Pd17  1  0.025616  0.018233  0.623466  1
  Pd  Pd18  1  0.025671  0.516657  0.622892  1
  Pd  Pd19  1  0.525724  0.768432  0.706208  1
  Pd  Pd20  1  0.025694  0.517046  0.789509  1
  Pd  Pd21  1  0.025705  0.018674  0.788984  1
  Pd  Pd22  1  0.525963  0.273236  0.874279  1
  Pd  Pd23  1  0.026188  0.539274  0.956168  1
