# generated using pymatgen
data_Lu2Ga10Ru3
_symmetry_space_group_name_H-M   'P 1'
_cell_length_a   8.91851400
_cell_length_b   8.91851400
_cell_length_c   6.34821200
_cell_angle_alpha   90.00000000
_cell_angle_beta   90.00000000
_cell_angle_gamma   90.00000000
_symmetry_Int_Tables_number   1
_chemical_formula_structural   Lu2Ga10Ru3
_chemical_formula_sum   'Lu4 Ga20 Ru6'
_cell_volume   504.93609667
_cell_formula_units_Z   2
loop_
 _symmetry_equiv_pos_site_id
 _symmetry_equiv_pos_as_xyz
  1  'x, y, z'
loop_
 _atom_site_type_symbol
 _atom_site_label
 _atom_site_symmetry_multiplicity
 _atom_site_fract_x
 _atom_site_fract_y
 _atom_site_fract_z
 _atom_site_occupancy
  Lu  Lu0  1  0.183494  0.683494  0.000000  1
  Lu  Lu1  1  0.816506  0.316506  0.000000  1
  Lu  Lu2  1  0.683494  0.816506  0.000000  1
  Lu  Lu3  1  0.316506  0.183494  0.000000  1
  Ga  Ga4  1  0.060916  0.206899  0.708345  1
  Ga  Ga5  1  0.939084  0.793101  0.708345  1
  Ga  Ga6  1  0.560916  0.293101  0.708345  1
  Ga  Ga7  1  0.439084  0.706899  0.708345  1
  Ga  Ga8  1  0.793101  0.060916  0.708345  1
  Ga  Ga9  1  0.206899  0.939084  0.708345  1
  Ga  Ga10  1  0.706899  0.560916  0.708345  1
  Ga  Ga11  1  0.293101  0.439084  0.708345  1
  Ga  Ga12  1  0.939084  0.793101  0.291655  1
  Ga  Ga13  1  0.060916  0.206899  0.291655  1
  Ga  Ga14  1  0.439084  0.706899  0.291655  1
  Ga  Ga15  1  0.560916  0.293101  0.291655  1
  Ga  Ga16  1  0.206899  0.939084  0.291655  1
  Ga  Ga17  1  0.793101  0.060916  0.291655  1
  Ga  Ga18  1  0.293101  0.439084  0.291655  1
  Ga  Ga19  1  0.706899  0.560916  0.291655  1
  Ga  Ga20  1  0.000000  0.500000  0.715924  1
  Ga  Ga21  1  0.500000  0.000000  0.715924  1
  Ga  Ga22  1  0.000000  0.500000  0.284076  1
  Ga  Ga23  1  0.500000  0.000000  0.284076  1
  Ru  Ru24  1  0.178557  0.678557  0.500000  1
  Ru  Ru25  1  0.821443  0.321443  0.500000  1
  Ru  Ru26  1  0.678557  0.821443  0.500000  1
  Ru  Ru27  1  0.321443  0.178557  0.500000  1
  Ru  Ru28  1  0.000000  0.000000  0.000000  1
  Ru  Ru29  1  0.500000  0.500000  0.000000  1
