# generated using pymatgen
data_Tb11Dy6Ho3Pb16
_symmetry_space_group_name_H-M   'P 1'
_cell_length_a   8.21924482
_cell_length_b   15.68170120
_cell_length_c   8.30323024
_cell_angle_alpha   90.01624881
_cell_angle_beta   90.03621311
_cell_angle_gamma   89.99124491
_symmetry_Int_Tables_number   1
_chemical_formula_structural   Tb11Dy6Ho3Pb16
_chemical_formula_sum   'Tb11 Dy6 Ho3 Pb16'
_cell_volume   1070.21753472
_cell_formula_units_Z   1
loop_
 _symmetry_equiv_pos_site_id
 _symmetry_equiv_pos_as_xyz
  1  'x, y, z'
loop_
 _atom_site_type_symbol
 _atom_site_label
 _atom_site_symmetry_multiplicity
 _atom_site_fract_x
 _atom_site_fract_y
 _atom_site_fract_z
 _atom_site_occupancy
  Tb  Tb0  1  0.877214  0.120846  0.659075  1
  Tb  Tb1  1  0.622823  0.879442  0.158825  1
  Tb  Tb2  1  0.123145  0.620428  0.340903  1
  Tb  Tb3  1  0.465662  0.599881  0.676807  1
  Tb  Tb4  1  0.965717  0.899873  0.823549  1
  Tb  Tb5  1  0.534287  0.100288  0.323383  1
  Tb  Tb6  1  0.034350  0.399853  0.176471  1
  Tb  Tb7  1  0.534083  0.399911  0.323420  1
  Tb  Tb8  1  0.034239  0.100076  0.176336  1
  Tb  Tb9  1  0.465787  0.899950  0.676487  1
  Tb  Tb10  1  0.965739  0.600048  0.823625  1
  Dy  Dy11  1  0.623284  0.620630  0.158755  1
  Dy  Dy12  1  0.123402  0.879376  0.341043  1
  Dy  Dy13  1  0.376690  0.120683  0.841230  1
  Dy  Dy14  1  0.876744  0.379259  0.658683  1
  Dy  Dy15  1  0.377002  0.379269  0.841183  1
  Dy  Dy16  1  0.791241  0.749897  0.496217  1
  Ho  Ho17  1  0.291103  0.750007  0.003857  1
  Ho  Ho18  1  0.208957  0.250005  0.504107  1
  Ho  Ho19  1  0.708798  0.250205  0.996018  1
  Pb  Pb20  1  0.718444  0.457090  0.966407  1
  Pb  Pb21  1  0.218859  0.042803  0.533279  1
  Pb  Pb22  1  0.281146  0.957304  0.033281  1
  Pb  Pb23  1  0.781149  0.542547  0.466512  1
  Pb  Pb24  1  0.282008  0.542682  0.033152  1
  Pb  Pb25  1  0.781882  0.957117  0.466570  1
  Pb  Pb26  1  0.718194  0.043138  0.966561  1
  Pb  Pb27  1  0.218272  0.456777  0.533785  1
  Pb  Pb28  1  0.427736  0.749969  0.373195  1
  Pb  Pb29  1  0.928288  0.750065  0.126282  1
  Pb  Pb30  1  0.571762  0.250067  0.626864  1
  Pb  Pb31  1  0.072634  0.250438  0.874120  1
  Pb  Pb32  1  0.654223  0.749854  0.847864  1
  Pb  Pb33  1  0.154603  0.750132  0.652684  1
  Pb  Pb34  1  0.345252  0.249989  0.152461  1
  Pb  Pb35  1  0.845279  0.250101  0.347011  1
