# generated using pymatgen
data_La8Si13Ge
_symmetry_space_group_name_H-M   'P 1'
_cell_length_a   8.21019594
_cell_length_b   8.18936724
_cell_length_c   8.69360100
_cell_angle_alpha   90.00000000
_cell_angle_beta   90.00000000
_cell_angle_gamma   120.11369866
_symmetry_Int_Tables_number   1
_chemical_formula_structural   La8Si13Ge
_chemical_formula_sum   'La8 Si13 Ge1'
_cell_volume   505.63309333
_cell_formula_units_Z   1
loop_
 _symmetry_equiv_pos_site_id
 _symmetry_equiv_pos_as_xyz
  1  'x, y, z'
loop_
 _atom_site_type_symbol
 _atom_site_label
 _atom_site_symmetry_multiplicity
 _atom_site_fract_x
 _atom_site_fract_y
 _atom_site_fract_z
 _atom_site_occupancy
  La  La0  1  0.254472  0.252523  0.998136  1
  La  La1  1  0.747388  0.747694  0.999791  1
  La  La2  1  0.747388  0.747694  0.500209  1
  La  La3  1  0.254472  0.252523  0.501864  1
  La  La4  1  0.251247  0.749379  0.497452  1
  La  La5  1  0.747297  0.250963  0.504436  1
  La  La6  1  0.747297  0.250963  0.995564  1
  La  La7  1  0.251247  0.749379  0.002548  1
  Si  Si8  1  0.924776  0.599850  0.750000  1
  Si  Si9  1  0.583511  0.416730  0.250000  1
  Si  Si10  1  0.416414  0.583711  0.750000  1
  Si  Si11  1  0.416480  0.588779  0.250000  1
  Si  Si12  1  0.587573  0.414182  0.750000  1
  Si  Si13  1  0.075792  0.926320  0.250000  1
  Si  Si14  1  0.924499  0.076022  0.750000  1
  Si  Si15  1  0.599918  0.925687  0.250000  1
  Si  Si16  1  0.401717  0.075812  0.750000  1
  Si  Si17  1  0.922003  0.587383  0.250000  1
  Si  Si18  1  0.076587  0.415369  0.750000  1
  Si  Si19  1  0.414727  0.076551  0.250000  1
  Si  Si20  1  0.585237  0.923479  0.750000  1
  Ge  Ge21  1  0.069956  0.389006  0.250000  1
