# generated using pymatgen
data_TiGe2Mo5
_symmetry_space_group_name_H-M   'P 1'
_cell_length_a   4.92495400
_cell_length_b   4.99320800
_cell_length_c   4.99320800
_cell_angle_alpha   90.00000000
_cell_angle_beta   90.00000000
_cell_angle_gamma   90.00000000
_symmetry_Int_Tables_number   1
_chemical_formula_structural   TiGe2Mo5
_chemical_formula_sum   'Ti1 Ge2 Mo5'
_cell_volume   122.78957432
_cell_formula_units_Z   1
loop_
 _symmetry_equiv_pos_site_id
 _symmetry_equiv_pos_as_xyz
  1  'x, y, z'
loop_
 _atom_site_type_symbol
 _atom_site_label
 _atom_site_symmetry_multiplicity
 _atom_site_fract_x
 _atom_site_fract_y
 _atom_site_fract_z
 _atom_site_occupancy
  Ti  Ti0  1  0.250000  0.000000  0.500000  1
  Ge  Ge1  1  0.004929  0.000000  0.000000  1
  Ge  Ge2  1  0.495071  0.500000  0.500000  1
  Mo  Mo3  1  0.750000  0.000000  0.500000  1
  Mo  Mo4  1  0.997428  0.500000  0.248773  1
  Mo  Mo5  1  0.997428  0.500000  0.751227  1
  Mo  Mo6  1  0.502572  0.748773  0.000000  1
  Mo  Mo7  1  0.502572  0.251227  0.000000  1
