# generated using pymatgen
data_MnGaAg2F8
_symmetry_space_group_name_H-M   'P 1'
_cell_length_a   5.08365607
_cell_length_b   6.24971663
_cell_length_c   5.69822716
_cell_angle_alpha   73.39959642
_cell_angle_beta   89.47662737
_cell_angle_gamma   90.98685673
_symmetry_Int_Tables_number   1
_chemical_formula_structural   MnGaAg2F8
_chemical_formula_sum   'Mn1 Ga1 Ag2 F8'
_cell_volume   173.45063823
_cell_formula_units_Z   1
loop_
 _symmetry_equiv_pos_site_id
 _symmetry_equiv_pos_as_xyz
  1  'x, y, z'
loop_
 _atom_site_type_symbol
 _atom_site_label
 _atom_site_symmetry_multiplicity
 _atom_site_fract_x
 _atom_site_fract_y
 _atom_site_fract_z
 _atom_site_occupancy
  Mn  Mn0  1  0.000000  0.000000  0.000000  1
  Ga  Ga1  1  0.500000  0.000000  0.500000  1
  Ag  Ag2  1  0.500000  0.500000  0.000000  1
  Ag  Ag3  1  0.000000  0.500000  0.500000  1
  F  F4  1  0.140754  0.290992  0.907482  1
  F  F5  1  0.638753  0.710187  0.595960  1
  F  F6  1  0.859246  0.709008  0.092518  1
  F  F7  1  0.361247  0.289813  0.404040  1
  F  F8  1  0.233671  0.895784  0.314044  1
  F  F9  1  0.723525  0.097635  0.201734  1
  F  F10  1  0.766329  0.104216  0.685956  1
  F  F11  1  0.276475  0.902365  0.798266  1
