# generated using pymatgen
data_Tm8Sc12Sn15Bi
_symmetry_space_group_name_H-M   'P 1'
_cell_length_a   7.68962228
_cell_length_b   7.87405077
_cell_length_c   14.76509200
_cell_angle_alpha   90.01696887
_cell_angle_beta   89.25371128
_cell_angle_gamma   90.10987639
_symmetry_Int_Tables_number   1
_chemical_formula_structural   Tm8Sc12Sn15Bi
_chemical_formula_sum   'Tm8 Sc12 Sn15 Bi1'
_cell_volume   893.92631047
_cell_formula_units_Z   1
loop_
 _symmetry_equiv_pos_site_id
 _symmetry_equiv_pos_as_xyz
  1  'x, y, z'
loop_
 _atom_site_type_symbol
 _atom_site_label
 _atom_site_symmetry_multiplicity
 _atom_site_fract_x
 _atom_site_fract_y
 _atom_site_fract_z
 _atom_site_occupancy
  Tm  Tm0  1  0.988520  0.177991  0.093107  1
  Tm  Tm1  1  0.011246  0.822860  0.907133  1
  Tm  Tm2  1  0.511510  0.677264  0.906571  1
  Tm  Tm3  1  0.011413  0.823617  0.593721  1
  Tm  Tm4  1  0.488502  0.323204  0.093466  1
  Tm  Tm5  1  0.984259  0.177541  0.404904  1
  Tm  Tm6  1  0.489141  0.318350  0.403358  1
  Tm  Tm7  1  0.521143  0.681902  0.596620  1
  Sc  Sc8  1  0.175908  0.494739  0.751396  1
  Sc  Sc9  1  0.824097  0.505122  0.251650  1
  Sc  Sc10  1  0.324756  0.994709  0.250776  1
  Sc  Sc11  1  0.675310  0.004929  0.749667  1
  Sc  Sc12  1  0.352842  0.155063  0.628194  1
  Sc  Sc13  1  0.649255  0.840786  0.372645  1
  Sc  Sc14  1  0.146934  0.660485  0.373215  1
  Sc  Sc15  1  0.653975  0.838542  0.127329  1
  Sc  Sc16  1  0.847589  0.341535  0.625788  1
  Sc  Sc17  1  0.344854  0.160664  0.872423  1
  Sc  Sc18  1  0.845882  0.338941  0.873061  1
  Sc  Sc19  1  0.154832  0.660738  0.126570  1
  Sn  Sn20  1  0.038550  0.123610  0.748980  1
  Sn  Sn21  1  0.960773  0.876775  0.249647  1
  Sn  Sn22  1  0.458827  0.622650  0.250212  1
  Sn  Sn23  1  0.540393  0.377125  0.750011  1
  Sn  Sn24  1  0.316259  0.846824  0.751091  1
  Sn  Sn25  1  0.683725  0.151745  0.248145  1
  Sn  Sn26  1  0.182176  0.347780  0.249020  1
  Sn  Sn27  1  0.819506  0.652545  0.751220  1
  Sn  Sn28  1  0.799197  0.544072  0.457301  1
  Sn  Sn29  1  0.307093  0.957307  0.458073  1
  Sn  Sn30  1  0.812650  0.542787  0.042366  1
  Sn  Sn31  1  0.692572  0.043334  0.541959  1
  Sn  Sn32  1  0.186909  0.457382  0.957756  1
  Sn  Sn33  1  0.685858  0.042317  0.957543  1
  Sn  Sn34  1  0.313400  0.958443  0.042602  1
  Bi  Bi35  1  0.200143  0.456318  0.542483  1
