# generated using pymatgen
data_Ho2Re2Si2B
_symmetry_space_group_name_H-M   'P 1'
_cell_length_a   5.76506792
_cell_length_b   5.76506700
_cell_length_c   6.89397493
_cell_angle_alpha   56.78940055
_cell_angle_beta   56.78940637
_cell_angle_gamma   41.05981865
_symmetry_Int_Tables_number   1
_chemical_formula_structural   Ho2Re2Si2B
_chemical_formula_sum   'Ho2 Re2 Si2 B1'
_cell_volume   122.07704605
_cell_formula_units_Z   1
loop_
 _symmetry_equiv_pos_site_id
 _symmetry_equiv_pos_as_xyz
  1  'x, y, z'
loop_
 _atom_site_type_symbol
 _atom_site_label
 _atom_site_symmetry_multiplicity
 _atom_site_fract_x
 _atom_site_fract_y
 _atom_site_fract_z
 _atom_site_occupancy
  Ho  Ho0  1  0.423605  0.423605  0.304028  1
  Ho  Ho1  1  0.576395  0.576395  0.695972  1
  Re  Re2  1  0.782936  0.782936  0.092259  1
  Re  Re3  1  0.217064  0.217064  0.907741  1
  Si  Si4  1  0.862941  0.862941  0.671796  1
  Si  Si5  1  0.137059  0.137059  0.328204  1
  B  B6  1  0.000000  0.000000  0.000000  1
