# generated using pymatgen
data_NaTb2GdB24
_symmetry_space_group_name_H-M   'P 1'
_cell_length_a   7.11376536
_cell_length_b   7.11376535
_cell_length_c   5.86851700
_cell_angle_alpha   90.00000000
_cell_angle_beta   90.00000000
_cell_angle_gamma   109.12781306
_symmetry_Int_Tables_number   1
_chemical_formula_structural   NaTb2GdB24
_chemical_formula_sum   'Na1 Tb2 Gd1 B24'
_cell_volume   280.58387473
_cell_formula_units_Z   1
loop_
 _symmetry_equiv_pos_site_id
 _symmetry_equiv_pos_as_xyz
  1  'x, y, z'
loop_
 _atom_site_type_symbol
 _atom_site_label
 _atom_site_symmetry_multiplicity
 _atom_site_fract_x
 _atom_site_fract_y
 _atom_site_fract_z
 _atom_site_occupancy
  Na  Na0  1  0.999939  0.000061  0.000000  1
  Tb  Tb1  1  0.751965  0.248035  0.500000  1
  Tb  Tb2  1  0.500895  0.499105  0.000000  1
  Gd  Gd3  1  0.247574  0.752426  0.500000  1
  B  B4  1  0.175439  0.325892  0.649606  1
  B  B5  1  0.923569  0.574801  0.148644  1
  B  B6  1  0.674108  0.824561  0.649606  1
  B  B7  1  0.425199  0.076431  0.148644  1
  B  B8  1  0.175439  0.325892  0.350394  1
  B  B9  1  0.923569  0.574801  0.851356  1
  B  B10  1  0.674108  0.824561  0.350394  1
  B  B11  1  0.425199  0.076431  0.851356  1
  B  B12  1  0.400249  0.400601  0.500000  1
  B  B13  1  0.148468  0.651269  0.000000  1
  B  B14  1  0.899487  0.899415  0.500000  1
  B  B15  1  0.651614  0.148580  0.000000  1
  B  B16  1  0.326140  0.175745  0.649593  1
  B  B17  1  0.075854  0.424726  0.148695  1
  B  B18  1  0.824255  0.673860  0.649593  1
  B  B19  1  0.575274  0.924146  0.148695  1
  B  B20  1  0.100585  0.100513  0.500000  1
  B  B21  1  0.851420  0.348386  0.000000  1
  B  B22  1  0.599399  0.599751  0.500000  1
  B  B23  1  0.348731  0.851532  0.000000  1
  B  B24  1  0.326140  0.175745  0.350407  1
  B  B25  1  0.075854  0.424726  0.851305  1
  B  B26  1  0.824255  0.673860  0.350407  1
  B  B27  1  0.575274  0.924146  0.851305  1
