# generated using pymatgen
data_Yb2Dy2(Ga8Pt3)3
_symmetry_space_group_name_H-M   'P 1'
_cell_length_a   7.49724135
_cell_length_b   7.59222781
_cell_length_c   13.39838063
_cell_angle_alpha   84.68475780
_cell_angle_beta   79.34176842
_cell_angle_gamma   60.63293277
_symmetry_Int_Tables_number   1
_chemical_formula_structural   Yb2Dy2(Ga8Pt3)3
_chemical_formula_sum   'Yb2 Dy2 Ga24 Pt9'
_cell_volume   653.17470453
_cell_formula_units_Z   1
loop_
 _symmetry_equiv_pos_site_id
 _symmetry_equiv_pos_as_xyz
  1  'x, y, z'
loop_
 _atom_site_type_symbol
 _atom_site_label
 _atom_site_symmetry_multiplicity
 _atom_site_fract_x
 _atom_site_fract_y
 _atom_site_fract_z
 _atom_site_occupancy
  Yb  Yb0  1  0.397472  0.167707  0.807532  1
  Yb  Yb1  1  0.602528  0.832293  0.192468  1
  Dy  Dy2  1  0.732788  0.498610  0.809874  1
  Dy  Dy3  1  0.267212  0.501390  0.190126  1
  Ga  Ga4  1  0.687208  0.834896  0.939696  1
  Ga  Ga5  1  0.312792  0.165104  0.060304  1
  Ga  Ga6  1  0.146875  0.830930  0.559403  1
  Ga  Ga7  1  0.853125  0.169070  0.440597  1
  Ga  Ga8  1  0.478568  0.166426  0.556511  1
  Ga  Ga9  1  0.521432  0.833574  0.443489  1
  Ga  Ga10  1  0.220773  0.163987  0.323810  1
  Ga  Ga11  1  0.779227  0.836013  0.676190  1
  Ga  Ga12  1  0.437846  0.502870  0.674437  1
  Ga  Ga13  1  0.562154  0.497130  0.325563  1
  Ga  Ga14  1  0.109145  0.161117  0.673449  1
  Ga  Ga15  1  0.890855  0.838883  0.326551  1
  Ga  Ga16  1  0.361264  0.494913  0.938571  1
  Ga  Ga17  1  0.638736  0.505087  0.061429  1
  Ga  Ga18  1  0.022557  0.168719  0.945194  1
  Ga  Ga19  1  0.977443  0.831281  0.054806  1
  Ga  Ga20  1  0.186922  0.498620  0.442981  1
  Ga  Ga21  1  0.813078  0.501380  0.557019  1
  Ga  Ga22  1  0.733896  0.165066  0.181851  1
  Ga  Ga23  1  0.266104  0.834934  0.818149  1
  Ga  Ga24  1  0.059771  0.631222  0.816991  1
  Ga  Ga25  1  0.940229  0.368778  0.183009  1
  Ga  Ga26  1  0.857228  0.041841  0.816182  1
  Ga  Ga27  1  0.142772  0.958159  0.183818  1
  Pt  Pt28  1  0.116439  0.494034  0.639586  1
  Pt  Pt29  1  0.883561  0.505966  0.360414  1
  Pt  Pt30  1  0.661224  0.169931  0.999102  1
  Pt  Pt31  1  0.338776  0.830069  0.000898  1
  Pt  Pt32  1  0.540737  0.167022  0.360661  1
  Pt  Pt33  1  0.459263  0.832978  0.639339  1
  Pt  Pt34  1  0.779302  0.173144  0.636712  1
  Pt  Pt35  1  0.220698  0.826856  0.363288  1
  Pt  Pt36  1  0.000000  0.500000  0.000000  1
