# generated using pymatgen
data_YNb6SnSe12
_symmetry_space_group_name_H-M   'P 1'
_cell_length_a   6.10775700
_cell_length_b   6.10775576
_cell_length_c   14.76646400
_cell_angle_alpha   90.00000000
_cell_angle_beta   90.00000000
_cell_angle_gamma   120.00001214
_symmetry_Int_Tables_number   1
_chemical_formula_structural   YNb6SnSe12
_chemical_formula_sum   'Y1 Nb6 Sn1 Se12'
_cell_volume   477.05725123
_cell_formula_units_Z   1
loop_
 _symmetry_equiv_pos_site_id
 _symmetry_equiv_pos_as_xyz
  1  'x, y, z'
loop_
 _atom_site_type_symbol
 _atom_site_label
 _atom_site_symmetry_multiplicity
 _atom_site_fract_x
 _atom_site_fract_y
 _atom_site_fract_z
 _atom_site_occupancy
  Y  Y0  1  0.000000  0.000000  0.500000  1
  Nb  Nb1  1  0.333333  0.666667  0.253969  1
  Nb  Nb2  1  0.666667  0.333333  0.746031  1
  Nb  Nb3  1  0.666667  0.333333  0.253969  1
  Nb  Nb4  1  0.333333  0.666667  0.746031  1
  Nb  Nb5  1  0.000000  0.000000  0.254825  1
  Nb  Nb6  1  0.000000  0.000000  0.745175  1
  Sn  Sn7  1  0.000000  0.000000  0.000000  1
  Se  Se8  1  0.337392  0.000000  0.141797  1
  Se  Se9  1  0.000000  0.337392  0.141797  1
  Se  Se10  1  0.662608  0.662608  0.141797  1
  Se  Se11  1  0.338693  0.338693  0.632585  1
  Se  Se12  1  0.661307  0.661307  0.367415  1
  Se  Se13  1  0.661307  0.000000  0.632585  1
  Se  Se14  1  0.000000  0.661307  0.632585  1
  Se  Se15  1  0.000000  0.662608  0.858203  1
  Se  Se16  1  0.337392  0.337392  0.858203  1
  Se  Se17  1  0.000000  0.338693  0.367415  1
  Se  Se18  1  0.338693  0.000000  0.367415  1
  Se  Se19  1  0.662608  0.000000  0.858203  1
