# generated using pymatgen
data_Hf2TaSi3Ru2W
_symmetry_space_group_name_H-M   'P 1'
_cell_length_a   7.60940243
_cell_length_b   7.60940228
_cell_length_c   7.60940302
_cell_angle_alpha   126.59670820
_cell_angle_beta   124.04910338
_cell_angle_gamma   81.02044424
_symmetry_Int_Tables_number   1
_chemical_formula_structural   Hf2TaSi3Ru2W
_chemical_formula_sum   'Hf4 Ta2 Si6 Ru4 W2'
_cell_volume   282.44227292
_cell_formula_units_Z   2
loop_
 _symmetry_equiv_pos_site_id
 _symmetry_equiv_pos_as_xyz
  1  'x, y, z'
loop_
 _atom_site_type_symbol
 _atom_site_label
 _atom_site_symmetry_multiplicity
 _atom_site_fract_x
 _atom_site_fract_y
 _atom_site_fract_z
 _atom_site_occupancy
  Hf  Hf0  1  0.943328  0.901288  0.457961  1
  Hf  Hf1  1  0.056672  0.514632  0.957961  1
  Hf  Hf2  1  0.534875  0.515301  0.480426  1
  Hf  Hf3  1  0.465125  0.945552  0.980426  1
  Ta  Ta4  1  0.746445  0.080022  0.833578  1
  Ta  Ta5  1  0.253555  0.087133  0.333578  1
  Si  Si6  1  0.721654  0.450727  0.229073  1
  Si  Si7  1  0.278346  0.507419  0.729073  1
  Si  Si8  1  0.674421  0.177718  0.518421  1
  Si  Si9  1  0.325579  0.844001  0.503299  1
  Si  Si10  1  0.159298  0.177718  0.003299  1
  Si  Si11  1  0.840702  0.844001  0.018421  1
  Ru  Ru12  1  0.907101  0.250671  0.409106  1
  Ru  Ru13  1  0.092899  0.502005  0.343569  1
  Ru  Ru14  1  0.341564  0.250671  0.843569  1
  Ru  Ru15  1  0.658436  0.502005  0.909106  1
  W  W16  1  0.500000  0.753468  0.253468  1
  W  W17  1  0.000000  0.753468  0.753468  1
