# generated using pymatgen
data_Tb5Hg4PdRh
_symmetry_space_group_name_H-M   'P 1'
_cell_length_a   7.99406746
_cell_length_b   18.00577051
_cell_length_c   3.69664400
_cell_angle_alpha   90.00000000
_cell_angle_beta   90.00000000
_cell_angle_gamma   90.17788165
_symmetry_Int_Tables_number   1
_chemical_formula_structural   Tb5Hg4PdRh
_chemical_formula_sum   'Tb10 Hg8 Pd2 Rh2'
_cell_volume   532.08994833
_cell_formula_units_Z   2
loop_
 _symmetry_equiv_pos_site_id
 _symmetry_equiv_pos_as_xyz
  1  'x, y, z'
loop_
 _atom_site_type_symbol
 _atom_site_label
 _atom_site_symmetry_multiplicity
 _atom_site_fract_x
 _atom_site_fract_y
 _atom_site_fract_z
 _atom_site_occupancy
  Tb  Tb0  1  0.500000  0.500000  0.000000  1
  Tb  Tb1  1  0.000000  0.000000  0.000000  1
  Tb  Tb2  1  0.727025  0.283478  0.000000  1
  Tb  Tb3  1  0.272975  0.716522  0.000000  1
  Tb  Tb4  1  0.750429  0.783568  0.000000  1
  Tb  Tb5  1  0.249571  0.216432  0.000000  1
  Tb  Tb6  1  0.613901  0.086534  0.000000  1
  Tb  Tb7  1  0.386099  0.913466  0.000000  1
  Tb  Tb8  1  0.885672  0.585245  0.000000  1
  Tb  Tb9  1  0.114328  0.414755  0.000000  1
  Hg  Hg10  1  0.710847  0.935626  0.500000  1
  Hg  Hg11  1  0.289153  0.064374  0.500000  1
  Hg  Hg12  1  0.789737  0.436408  0.500000  1
  Hg  Hg13  1  0.210263  0.563592  0.500000  1
  Hg  Hg14  1  0.583319  0.647426  0.500000  1
  Hg  Hg15  1  0.416681  0.352574  0.500000  1
  Hg  Hg16  1  0.917660  0.147394  0.500000  1
  Hg  Hg17  1  0.082340  0.852606  0.500000  1
  Pd  Pd18  1  0.975286  0.697728  0.500000  1
  Pd  Pd19  1  0.024714  0.302272  0.500000  1
  Rh  Rh20  1  0.528890  0.195231  0.500000  1
  Rh  Rh21  1  0.471110  0.804769  0.500000  1
