# generated using pymatgen
data_Dy8Ti4Nb7Si16W
_symmetry_space_group_name_H-M   'P 1'
_cell_length_a   7.04740116
_cell_length_b   7.04735345
_cell_length_c   12.98827715
_cell_angle_alpha   90.09461436
_cell_angle_beta   90.10774931
_cell_angle_gamma   90.01276844
_symmetry_Int_Tables_number   1
_chemical_formula_structural   Dy8Ti4Nb7Si16W
_chemical_formula_sum   'Dy8 Ti4 Nb7 Si16 W1'
_cell_volume   645.06759191
_cell_formula_units_Z   1
loop_
 _symmetry_equiv_pos_site_id
 _symmetry_equiv_pos_as_xyz
  1  'x, y, z'
loop_
 _atom_site_type_symbol
 _atom_site_label
 _atom_site_symmetry_multiplicity
 _atom_site_fract_x
 _atom_site_fract_y
 _atom_site_fract_z
 _atom_site_occupancy
  Dy  Dy0  1  0.996476  0.657452  0.034238  1
  Dy  Dy1  1  0.004526  0.342165  0.531859  1
  Dy  Dy2  1  0.658150  0.995255  0.966843  1
  Dy  Dy3  1  0.157574  0.504000  0.783137  1
  Dy  Dy4  1  0.841038  0.495743  0.282868  1
  Dy  Dy5  1  0.504358  0.158230  0.218310  1
  Dy  Dy6  1  0.495502  0.841471  0.715977  1
  Dy  Dy7  1  0.342146  0.004346  0.466800  1
  Ti  Ti8  1  0.670265  0.670338  0.498810  1
  Ti  Ti9  1  0.826265  0.173189  0.749999  1
  Ti  Ti10  1  0.175317  0.825049  0.251204  1
  Ti  Ti11  1  0.327720  0.327059  0.000790  1
  Nb  Nb12  1  0.846233  0.993032  0.374096  1
  Nb  Nb13  1  0.008290  0.155014  0.127511  1
  Nb  Nb14  1  0.994570  0.844537  0.624293  1
  Nb  Nb15  1  0.506184  0.346438  0.623875  1
  Nb  Nb16  1  0.153661  0.006684  0.873976  1
  Nb  Nb17  1  0.493874  0.652239  0.124266  1
  Nb  Nb18  1  0.653440  0.493476  0.875734  1
  Si  Si19  1  0.048537  0.706847  0.435630  1
  Si  Si20  1  0.953944  0.292780  0.936883  1
  Si  Si21  1  0.707940  0.046500  0.563292  1
  Si  Si22  1  0.208657  0.455278  0.188695  1
  Si  Si23  1  0.792667  0.546336  0.686231  1
  Si  Si24  1  0.453500  0.206964  0.813552  1
  Si  Si25  1  0.543542  0.789989  0.313710  1
  Si  Si26  1  0.292895  0.953765  0.063713  1
  Si  Si27  1  0.798167  0.865621  0.183793  1
  Si  Si28  1  0.299878  0.634164  0.563927  1
  Si  Si29  1  0.702089  0.363960  0.066596  1
  Si  Si30  1  0.630808  0.301690  0.432766  1
  Si  Si31  1  0.364483  0.701826  0.933947  1
  Si  Si32  1  0.136258  0.205315  0.317880  1
  Si  Si33  1  0.200827  0.135503  0.683136  1
  Si  Si34  1  0.864890  0.798582  0.816050  1
  W  W35  1  0.345327  0.509161  0.375611  1
