# generated using pymatgen
data_YbHo3Er4(B6Ru)4
_symmetry_space_group_name_H-M   'P 1'
_cell_length_a   3.64110800
_cell_length_b   9.10622688
_cell_length_c   11.48988900
_cell_angle_alpha   89.91555900
_cell_angle_beta   90.00000000
_cell_angle_gamma   90.00000000
_symmetry_Int_Tables_number   1
_chemical_formula_structural   YbHo3Er4(B6Ru)4
_chemical_formula_sum   'Yb1 Ho3 Er4 B24 Ru4'
_cell_volume   380.96702686
_cell_formula_units_Z   1
loop_
 _symmetry_equiv_pos_site_id
 _symmetry_equiv_pos_as_xyz
  1  'x, y, z'
loop_
 _atom_site_type_symbol
 _atom_site_label
 _atom_site_symmetry_multiplicity
 _atom_site_fract_x
 _atom_site_fract_y
 _atom_site_fract_z
 _atom_site_occupancy
  Yb  Yb0  1  0.000000  0.323204  0.413819  1
  Ho  Ho1  1  0.000000  0.676206  0.584932  1
  Ho  Ho2  1  0.000000  0.822140  0.086225  1
  Ho  Ho3  1  0.000000  0.178348  0.914609  1
  Er  Er4  1  0.000000  0.943796  0.371096  1
  Er  Er5  1  0.000000  0.058231  0.627993  1
  Er  Er6  1  0.000000  0.442765  0.129637  1
  Er  Er7  1  0.000000  0.556317  0.872157  1
  B  B8  1  0.500000  0.553915  0.432731  1
  B  B9  1  0.500000  0.445995  0.567357  1
  B  B10  1  0.500000  0.053214  0.066449  1
  B  B11  1  0.500000  0.945985  0.932616  1
  B  B12  1  0.500000  0.748452  0.419255  1
  B  B13  1  0.500000  0.252189  0.581029  1
  B  B14  1  0.500000  0.247709  0.080461  1
  B  B15  1  0.500000  0.751640  0.919605  1
  B  B16  1  0.500000  0.791228  0.265819  1
  B  B17  1  0.500000  0.209821  0.734464  1
  B  B18  1  0.500000  0.289736  0.233773  1
  B  B19  1  0.500000  0.709375  0.766034  1
  B  B20  1  0.500000  0.631431  0.185631  1
  B  B21  1  0.500000  0.369046  0.815405  1
  B  B22  1  0.500000  0.130639  0.314124  1
  B  B23  1  0.500000  0.869089  0.684932  1
  B  B24  1  0.500000  0.982665  0.211782  1
  B  B25  1  0.500000  0.017201  0.787269  1
  B  B26  1  0.500000  0.483323  0.287757  1
  B  B27  1  0.500000  0.517045  0.712742  1
  B  B28  1  0.500000  0.606964  0.029805  1
  B  B29  1  0.500000  0.393200  0.970886  1
  B  B30  1  0.500000  0.103533  0.471239  1
  B  B31  1  0.500000  0.895285  0.528922  1
  Ru  Ru32  1  0.000000  0.639228  0.320488  1
  Ru  Ru33  1  0.000000  0.362211  0.680397  1
  Ru  Ru34  1  0.000000  0.136488  0.177720  1
  Ru  Ru35  1  0.000000  0.862386  0.820841  1
