# generated using pymatgen
data_Yb3Y(ReB4)4
_symmetry_space_group_name_H-M   'P 1'
_cell_length_a   3.57889900
_cell_length_b   5.98797519
_cell_length_c   11.57553436
_cell_angle_alpha   90.02867789
_cell_angle_beta   90.00000000
_cell_angle_gamma   90.00000000
_symmetry_Int_Tables_number   1
_chemical_formula_structural   Yb3Y(ReB4)4
_chemical_formula_sum   'Yb3 Y1 Re4 B16'
_cell_volume   248.06781911
_cell_formula_units_Z   1
loop_
 _symmetry_equiv_pos_site_id
 _symmetry_equiv_pos_as_xyz
  1  'x, y, z'
loop_
 _atom_site_type_symbol
 _atom_site_label
 _atom_site_symmetry_multiplicity
 _atom_site_fract_x
 _atom_site_fract_y
 _atom_site_fract_z
 _atom_site_occupancy
  Yb  Yb0  1  0.000000  0.128231  0.149853  1
  Yb  Yb1  1  0.000000  0.872138  0.851268  1
  Yb  Yb2  1  0.000000  0.628599  0.348691  1
  Y  Y3  1  0.000000  0.371698  0.650697  1
  Re  Re4  1  0.000000  0.131854  0.416213  1
  Re  Re5  1  0.000000  0.869781  0.584838  1
  Re  Re6  1  0.000000  0.631289  0.083700  1
  Re  Re7  1  0.000000  0.369743  0.916020  1
  B  B8  1  0.500000  0.477023  0.192496  1
  B  B9  1  0.500000  0.524139  0.807798  1
  B  B10  1  0.500000  0.977104  0.307446  1
  B  B11  1  0.500000  0.022820  0.692845  1
  B  B12  1  0.500000  0.284355  0.314627  1
  B  B13  1  0.500000  0.715593  0.685137  1
  B  B14  1  0.500000  0.785119  0.184811  1
  B  B15  1  0.500000  0.213491  0.815655  1
  B  B16  1  0.500000  0.364419  0.467606  1
  B  B17  1  0.500000  0.635801  0.531132  1
  B  B18  1  0.500000  0.865055  0.032106  1
  B  B19  1  0.500000  0.134422  0.968187  1
  B  B20  1  0.500000  0.385312  0.047444  1
  B  B21  1  0.500000  0.614375  0.952254  1
  B  B22  1  0.500000  0.885304  0.451905  1
  B  B23  1  0.500000  0.112335  0.547271  1
