# generated using pymatgen
data_Dy5Ho5(GePb3)2
_symmetry_space_group_name_H-M   'P 1'
_cell_length_a   9.32845400
_cell_length_b   9.32905577
_cell_length_c   6.53397400
_cell_angle_alpha   90.00000000
_cell_angle_beta   90.00000000
_cell_angle_gamma   119.99786621
_symmetry_Int_Tables_number   1
_chemical_formula_structural   Dy5Ho5(GePb3)2
_chemical_formula_sum   'Dy5 Ho5 Ge2 Pb6'
_cell_volume   492.45294042
_cell_formula_units_Z   1
loop_
 _symmetry_equiv_pos_site_id
 _symmetry_equiv_pos_as_xyz
  1  'x, y, z'
loop_
 _atom_site_type_symbol
 _atom_site_label
 _atom_site_symmetry_multiplicity
 _atom_site_fract_x
 _atom_site_fract_y
 _atom_site_fract_z
 _atom_site_occupancy
  Dy  Dy0  1  0.748537  0.000000  0.750000  1
  Dy  Dy1  1  0.000015  0.251470  0.250000  1
  Dy  Dy2  1  0.000015  0.748546  0.750000  1
  Dy  Dy3  1  0.748544  0.748530  0.250000  1
  Dy  Dy4  1  0.251470  0.251454  0.750000  1
  Ho  Ho5  1  0.251316  0.000000  0.250000  1
  Ho  Ho6  1  0.333326  0.666679  0.000007  1
  Ho  Ho7  1  0.666647  0.333321  0.000007  1
  Ho  Ho8  1  0.666647  0.333321  0.499993  1
  Ho  Ho9  1  0.333326  0.666679  0.499993  1
  Ge  Ge10  1  0.000100  0.000000  0.000118  1
  Ge  Ge11  1  0.000100  0.000000  0.499882  1
  Pb  Pb12  1  0.607783  0.000000  0.250000  1
  Pb  Pb13  1  0.392157  0.000000  0.750000  1
  Pb  Pb14  1  0.000052  0.607941  0.250000  1
  Pb  Pb15  1  0.999998  0.392142  0.750000  1
  Pb  Pb16  1  0.392111  0.392059  0.250000  1
  Pb  Pb17  1  0.607857  0.607858  0.750000  1
