# generated using pymatgen
data_Tm10HgBi5C2
_symmetry_space_group_name_H-M   'P 1'
_cell_length_a   9.05751837
_cell_length_b   9.05751684
_cell_length_c   6.41159800
_cell_angle_alpha   90.00000000
_cell_angle_beta   90.00000000
_cell_angle_gamma   120.95473348
_symmetry_Int_Tables_number   1
_chemical_formula_structural   Tm10HgBi5C2
_chemical_formula_sum   'Tm10 Hg1 Bi5 C2'
_cell_volume   451.08276423
_cell_formula_units_Z   1
loop_
 _symmetry_equiv_pos_site_id
 _symmetry_equiv_pos_as_xyz
  1  'x, y, z'
loop_
 _atom_site_type_symbol
 _atom_site_label
 _atom_site_symmetry_multiplicity
 _atom_site_fract_x
 _atom_site_fract_y
 _atom_site_fract_z
 _atom_site_occupancy
  Tm  Tm0  1  0.661976  0.334390  0.995889  1
  Tm  Tm1  1  0.334390  0.661976  0.995889  1
  Tm  Tm2  1  0.334390  0.661976  0.504111  1
  Tm  Tm3  1  0.661976  0.334390  0.504111  1
  Tm  Tm4  1  0.794745  0.794745  0.750000  1
  Tm  Tm5  1  0.212123  0.007395  0.750000  1
  Tm  Tm6  1  0.007395  0.212123  0.750000  1
  Tm  Tm7  1  0.202973  0.202973  0.250000  1
  Tm  Tm8  1  0.790879  0.998440  0.250000  1
  Tm  Tm9  1  0.998440  0.790879  0.250000  1
  Hg  Hg10  1  0.407406  0.407406  0.750000  1
  Bi  Bi11  1  0.603148  0.001244  0.750000  1
  Bi  Bi12  1  0.001244  0.603148  0.750000  1
  Bi  Bi13  1  0.591598  0.591598  0.250000  1
  Bi  Bi14  1  0.398898  0.997073  0.250000  1
  Bi  Bi15  1  0.997073  0.398898  0.250000  1
  C  C16  1  0.000674  0.000674  0.000932  1
  C  C17  1  0.000674  0.000674  0.499068  1
