# generated using pymatgen
data_Sr6TiV2O12
_symmetry_space_group_name_H-M   'P 1'
_cell_length_a   8.83180719
_cell_length_b   8.83180760
_cell_length_c   6.85500500
_cell_angle_alpha   67.27715706
_cell_angle_beta   67.27715594
_cell_angle_gamma   36.84760111
_symmetry_Int_Tables_number   1
_chemical_formula_structural   Sr6TiV2O12
_chemical_formula_sum   'Sr6 Ti1 V2 O12'
_cell_volume   292.87148372
_cell_formula_units_Z   1
loop_
 _symmetry_equiv_pos_site_id
 _symmetry_equiv_pos_as_xyz
  1  'x, y, z'
loop_
 _atom_site_type_symbol
 _atom_site_label
 _atom_site_symmetry_multiplicity
 _atom_site_fract_x
 _atom_site_fract_y
 _atom_site_fract_z
 _atom_site_occupancy
  Sr  Sr0  1  0.880889  0.880889  0.715671  1
  Sr  Sr1  1  0.213758  0.213758  0.716609  1
  Sr  Sr2  1  0.547584  0.547584  0.714125  1
  Sr  Sr3  1  0.452416  0.452416  0.285875  1
  Sr  Sr4  1  0.786242  0.786242  0.283391  1
  Sr  Sr5  1  0.119111  0.119111  0.284329  1
  Ti  Ti6  1  0.000000  0.000000  0.000000  1
  V  V7  1  0.666626  0.666626  0.999862  1
  V  V8  1  0.333374  0.333374  0.000138  1
  O  O9  1  0.946053  0.946053  0.320241  1
  O  O10  1  0.282346  0.282346  0.310646  1
  O  O11  1  0.614810  0.614810  0.309839  1
  O  O12  1  0.385190  0.385190  0.690161  1
  O  O13  1  0.717654  0.717654  0.689354  1
  O  O14  1  0.053947  0.053947  0.679759  1
  O  O15  1  0.500000  0.000000  0.000000  1
  O  O16  1  0.833237  0.332415  0.000072  1
  O  O17  1  0.166763  0.667585  0.999928  1
  O  O18  1  0.000000  0.500000  0.000000  1
  O  O19  1  0.332415  0.833237  0.000072  1
  O  O20  1  0.667585  0.166763  0.999928  1
