# generated using pymatgen
data_TlIn3(P2O7)2
_symmetry_space_group_name_H-M   'P 1'
_cell_length_a   10.35751700
_cell_length_b   7.46523063
_cell_length_c   8.40021000
_cell_angle_alpha   73.62886450
_cell_angle_beta   90.00000000
_cell_angle_gamma   90.00000000
_symmetry_Int_Tables_number   1
_chemical_formula_structural   TlIn3(P2O7)2
_chemical_formula_sum   'Tl2 In6 P8 O28'
_cell_volume   623.18089663
_cell_formula_units_Z   2
loop_
 _symmetry_equiv_pos_site_id
 _symmetry_equiv_pos_as_xyz
  1  'x, y, z'
loop_
 _atom_site_type_symbol
 _atom_site_label
 _atom_site_symmetry_multiplicity
 _atom_site_fract_x
 _atom_site_fract_y
 _atom_site_fract_z
 _atom_site_occupancy
  Tl  Tl0  1  0.686242  0.319125  0.056976  1
  Tl  Tl1  1  0.186242  0.680875  0.443024  1
  In  In2  1  0.316740  0.674915  0.942199  1
  In  In3  1  0.816740  0.325085  0.557801  1
  In  In4  1  0.597913  0.734934  0.238634  1
  In  In5  1  0.097913  0.265066  0.261366  1
  In  In6  1  0.401848  0.264888  0.760588  1
  In  In7  1  0.901848  0.735112  0.739412  1
  P  P8  1  0.640292  0.946425  0.804522  1
  P  P9  1  0.140292  0.053575  0.695478  1
  P  P10  1  0.360518  0.055382  0.194614  1
  P  P11  1  0.860518  0.944618  0.305386  1
  P  P12  1  0.595619  0.636232  0.673572  1
  P  P13  1  0.095619  0.363768  0.826428  1
  P  P14  1  0.403249  0.365425  0.325181  1
  P  P15  1  0.903249  0.634575  0.174819  1
  O  O16  1  0.602565  0.820459  0.973768  1
  O  O17  1  0.102565  0.179541  0.526232  1
  O  O18  1  0.399088  0.180748  0.025541  1
  O  O19  1  0.899088  0.819252  0.474459  1
  O  O20  1  0.586816  0.144605  0.762595  1
  O  O21  1  0.086816  0.855395  0.737405  1
  O  O22  1  0.413746  0.857184  0.237674  1
  O  O23  1  0.913746  0.142816  0.262326  1
  O  O24  1  0.573312  0.851739  0.672251  1
  O  O25  1  0.073312  0.148261  0.827749  1
  O  O26  1  0.427120  0.150190  0.327139  1
  O  O27  1  0.927120  0.849810  0.172861  1
  O  O28  1  0.728237  0.573135  0.751533  1
  O  O29  1  0.228237  0.426865  0.748467  1
  O  O30  1  0.271523  0.427803  0.243699  1
  O  O31  1  0.771523  0.572197  0.256301  1
  O  O32  1  0.906233  0.627660  0.998411  1
  O  O33  1  0.406233  0.372340  0.501589  1
  O  O34  1  0.089461  0.370895  0.002466  1
  O  O35  1  0.589461  0.629105  0.497534  1
  O  O36  1  0.785646  0.961598  0.768665  1
  O  O37  1  0.285646  0.038402  0.731335  1
  O  O38  1  0.215120  0.041018  0.229763  1
  O  O39  1  0.715120  0.958982  0.270237  1
  O  O40  1  0.989288  0.478420  0.715677  1
  O  O41  1  0.489288  0.521580  0.784323  1
  O  O42  1  0.009424  0.519133  0.284421  1
  O  O43  1  0.509424  0.480867  0.215579  1
