# generated using pymatgen
data_Th3Zr(Ga3Pd)8
_symmetry_space_group_name_H-M   'P 1'
_cell_length_a   8.60386721
_cell_length_b   8.60386698
_cell_length_c   8.60386691
_cell_angle_alpha   89.41465427
_cell_angle_beta   89.41465813
_cell_angle_gamma   89.41466422
_symmetry_Int_Tables_number   1
_chemical_formula_structural   Th3Zr(Ga3Pd)8
_chemical_formula_sum   'Th3 Zr1 Ga24 Pd8'
_cell_volume   636.81536677
_cell_formula_units_Z   1
loop_
 _symmetry_equiv_pos_site_id
 _symmetry_equiv_pos_as_xyz
  1  'x, y, z'
loop_
 _atom_site_type_symbol
 _atom_site_label
 _atom_site_symmetry_multiplicity
 _atom_site_fract_x
 _atom_site_fract_y
 _atom_site_fract_z
 _atom_site_occupancy
  Th  Th0  1  0.000000  0.500000  0.000000  1
  Th  Th1  1  0.500000  0.000000  0.000000  1
  Th  Th2  1  0.000000  0.000000  0.500000  1
  Zr  Zr3  1  0.500000  0.500000  0.500000  1
  Ga  Ga4  1  0.988019  0.643820  0.643820  1
  Ga  Ga5  1  0.643820  0.643820  0.988019  1
  Ga  Ga6  1  0.643820  0.988019  0.643820  1
  Ga  Ga7  1  0.011981  0.356180  0.356180  1
  Ga  Ga8  1  0.356180  0.356180  0.011981  1
  Ga  Ga9  1  0.356180  0.011981  0.356180  1
  Ga  Ga10  1  0.737071  0.500000  0.262929  1
  Ga  Ga11  1  0.262929  0.500000  0.737071  1
  Ga  Ga12  1  0.500000  0.262929  0.737071  1
  Ga  Ga13  1  0.500000  0.737071  0.262929  1
  Ga  Ga14  1  0.262929  0.737071  0.500000  1
  Ga  Ga15  1  0.737071  0.262929  0.500000  1
  Ga  Ga16  1  0.837330  0.143510  0.837330  1
  Ga  Ga17  1  0.143510  0.837330  0.837330  1
  Ga  Ga18  1  0.837330  0.837330  0.143510  1
  Ga  Ga19  1  0.162670  0.856490  0.162670  1
  Ga  Ga20  1  0.856490  0.162670  0.162670  1
  Ga  Ga21  1  0.162670  0.162670  0.856490  1
  Ga  Ga22  1  0.730835  0.488563  0.730835  1
  Ga  Ga23  1  0.488563  0.730835  0.730835  1
  Ga  Ga24  1  0.730835  0.730835  0.488563  1
  Ga  Ga25  1  0.269165  0.511437  0.269165  1
  Ga  Ga26  1  0.511437  0.269165  0.269165  1
  Ga  Ga27  1  0.269165  0.269165  0.511437  1
  Pd  Pd28  1  0.840778  0.840778  0.840778  1
  Pd  Pd29  1  0.159222  0.159222  0.159222  1
  Pd  Pd30  1  0.665751  0.334249  0.000000  1
  Pd  Pd31  1  0.000000  0.334249  0.665751  1
  Pd  Pd32  1  0.334249  0.000000  0.665751  1
  Pd  Pd33  1  0.334249  0.665751  0.000000  1
  Pd  Pd34  1  0.000000  0.665751  0.334249  1
  Pd  Pd35  1  0.665751  0.000000  0.334249  1
