# generated using pymatgen
data_Dy4Tm8Co5Sn
_symmetry_space_group_name_H-M   'P 1'
_cell_length_a   8.18586512
_cell_length_b   8.18586572
_cell_length_c   8.18586453
_cell_angle_alpha   106.75487373
_cell_angle_beta   110.63355192
_cell_angle_gamma   111.05921738
_symmetry_Int_Tables_number   1
_chemical_formula_structural   Dy4Tm8Co5Sn
_chemical_formula_sum   'Dy4 Tm8 Co5 Sn1'
_cell_volume   421.53844550
_cell_formula_units_Z   1
loop_
 _symmetry_equiv_pos_site_id
 _symmetry_equiv_pos_as_xyz
  1  'x, y, z'
loop_
 _atom_site_type_symbol
 _atom_site_label
 _atom_site_symmetry_multiplicity
 _atom_site_fract_x
 _atom_site_fract_y
 _atom_site_fract_z
 _atom_site_occupancy
  Dy  Dy0  1  0.194484  0.211220  0.405705  1
  Dy  Dy1  1  0.805516  0.788780  0.594295  1
  Dy  Dy2  1  0.194484  0.788780  0.983263  1
  Dy  Dy3  1  0.805516  0.211220  0.016737  1
  Tm  Tm4  1  0.474879  0.290139  0.184740  1
  Tm  Tm5  1  0.105398  0.290139  0.815260  1
  Tm  Tm6  1  0.894602  0.709861  0.184740  1
  Tm  Tm7  1  0.525121  0.709861  0.815260  1
  Tm  Tm8  1  0.305457  0.619648  0.314191  1
  Tm  Tm9  1  0.305457  0.991268  0.685809  1
  Tm  Tm10  1  0.694543  0.380352  0.685809  1
  Tm  Tm11  1  0.694543  0.008732  0.314191  1
  Co  Co12  1  0.500000  0.612665  0.112665  1
  Co  Co13  1  0.500000  0.387335  0.887335  1
  Co  Co14  1  0.377265  0.000000  0.377265  1
  Co  Co15  1  0.622735  0.000000  0.622735  1
  Co  Co16  1  0.000000  0.000000  0.000000  1
  Sn  Sn17  1  0.000000  0.500000  0.500000  1
