# generated using pymatgen
data_LaCeRu2F14
_symmetry_space_group_name_H-M   'P 1'
_cell_length_a   5.80662447
_cell_length_b   6.11893394
_cell_length_c   8.33209189
_cell_angle_alpha   78.42891189
_cell_angle_beta   90.00407556
_cell_angle_gamma   90.06980660
_symmetry_Int_Tables_number   1
_chemical_formula_structural   LaCeRu2F14
_chemical_formula_sum   'La1 Ce1 Ru2 F14'
_cell_volume   290.02534864
_cell_formula_units_Z   1
loop_
 _symmetry_equiv_pos_site_id
 _symmetry_equiv_pos_as_xyz
  1  'x, y, z'
loop_
 _atom_site_type_symbol
 _atom_site_label
 _atom_site_symmetry_multiplicity
 _atom_site_fract_x
 _atom_site_fract_y
 _atom_site_fract_z
 _atom_site_occupancy
  La  La0  1  0.702373  0.340658  0.689051  1
  Ce  Ce1  1  0.200652  0.666093  0.305277  1
  Ru  Ru2  1  0.210193  0.809639  0.777232  1
  Ru  Ru3  1  0.710420  0.188346  0.225129  1
  F  F4  1  0.378379  0.451991  0.515931  1
  F  F5  1  0.893425  0.560108  0.469809  1
  F  F6  1  0.927652  0.939982  0.228861  1
  F  F7  1  0.417418  0.060217  0.771587  1
  F  F8  1  0.454235  0.967680  0.240104  1
  F  F9  1  0.952371  0.018685  0.764201  1
  F  F10  1  0.495668  0.441923  0.212981  1
  F  F11  1  0.005025  0.555277  0.791625  1
  F  F12  1  0.205035  0.760900  0.020330  1
  F  F13  1  0.703328  0.236420  0.989480  1
  F  F14  1  0.216751  0.862641  0.533212  1
  F  F15  1  0.717330  0.131750  0.462201  1
  F  F16  1  0.981137  0.390631  0.210787  1
  F  F17  1  0.481332  0.617059  0.792201  1
