# generated using pymatgen
data_Dy2Er6Ti9Si16Tc3
_symmetry_space_group_name_H-M   'P 1'
_cell_length_a   6.95761181
_cell_length_b   6.95740790
_cell_length_c   12.77594121
_cell_angle_alpha   90.05259074
_cell_angle_beta   89.92566564
_cell_angle_gamma   90.02056235
_symmetry_Int_Tables_number   1
_chemical_formula_structural   Dy2Er6Ti9Si16Tc3
_chemical_formula_sum   'Dy2 Er6 Ti9 Si16 Tc3'
_cell_volume   618.44344185
_cell_formula_units_Z   1
loop_
 _symmetry_equiv_pos_site_id
 _symmetry_equiv_pos_as_xyz
  1  'x, y, z'
loop_
 _atom_site_type_symbol
 _atom_site_label
 _atom_site_symmetry_multiplicity
 _atom_site_fract_x
 _atom_site_fract_y
 _atom_site_fract_z
 _atom_site_occupancy
  Dy  Dy0  1  0.340433  0.001815  0.467161  1
  Dy  Dy1  1  0.498588  0.841559  0.719486  1
  Er  Er2  1  0.499884  0.158498  0.217673  1
  Er  Er3  1  0.841935  0.499079  0.280495  1
  Er  Er4  1  0.158324  0.499798  0.782411  1
  Er  Er5  1  0.658786  0.999878  0.968511  1
  Er  Er6  1  0.001194  0.340808  0.532704  1
  Er  Er7  1  0.999702  0.658657  0.031695  1
  Ti  Ti8  1  0.674095  0.673549  0.499876  1
  Ti  Ti9  1  0.151662  0.005543  0.877071  1
  Ti  Ti10  1  0.494713  0.653117  0.124371  1
  Ti  Ti11  1  0.505038  0.348094  0.627498  1
  Ti  Ti12  1  0.653324  0.494730  0.875833  1
  Ti  Ti13  1  0.348180  0.504735  0.372441  1
  Ti  Ti14  1  0.847464  0.992560  0.375531  1
  Ti  Ti15  1  0.005199  0.151739  0.123088  1
  Ti  Ti16  1  0.992516  0.847282  0.624380  1
  Si  Si17  1  0.199534  0.130541  0.683903  1
  Si  Si18  1  0.369727  0.700722  0.933027  1
  Si  Si19  1  0.632679  0.297480  0.433958  1
  Si  Si20  1  0.701010  0.369875  0.067442  1
  Si  Si21  1  0.296147  0.630615  0.565643  1
  Si  Si22  1  0.798688  0.869481  0.183109  1
  Si  Si23  1  0.129339  0.201023  0.315973  1
  Si  Si24  1  0.870300  0.798513  0.817042  1
  Si  Si25  1  0.290916  0.952209  0.066669  1
  Si  Si26  1  0.547484  0.790294  0.315456  1
  Si  Si27  1  0.452090  0.211094  0.817030  1
  Si  Si28  1  0.791246  0.546376  0.684264  1
  Si  Si29  1  0.210139  0.452366  0.183163  1
  Si  Si30  1  0.708845  0.049795  0.567291  1
  Si  Si31  1  0.952242  0.290977  0.933435  1
  Si  Si32  1  0.048434  0.706990  0.432452  1
  Tc  Tc33  1  0.327954  0.327985  0.000048  1
  Tc  Tc34  1  0.173793  0.828100  0.248521  1
  Tc  Tc35  1  0.828397  0.174123  0.751348  1
