# generated using pymatgen
data_CaDyFeIr3
_symmetry_space_group_name_H-M   'P 1'
_cell_length_a   5.16544663
_cell_length_b   5.16544789
_cell_length_c   5.16544742
_cell_angle_alpha   64.01562857
_cell_angle_beta   64.01563298
_cell_angle_gamma   64.01563652
_symmetry_Int_Tables_number   1
_chemical_formula_structural   CaDyFeIr3
_chemical_formula_sum   'Ca1 Dy1 Fe1 Ir3'
_cell_volume   106.07386216
_cell_formula_units_Z   1
loop_
 _symmetry_equiv_pos_site_id
 _symmetry_equiv_pos_as_xyz
  1  'x, y, z'
loop_
 _atom_site_type_symbol
 _atom_site_label
 _atom_site_symmetry_multiplicity
 _atom_site_fract_x
 _atom_site_fract_y
 _atom_site_fract_z
 _atom_site_occupancy
  Ca  Ca0  1  0.750550  0.750550  0.750550  1
  Dy  Dy1  1  0.499424  0.499424  0.499424  1
  Fe  Fe2  1  0.125147  0.125147  0.125147  1
  Ir  Ir3  1  0.124656  0.625567  0.124656  1
  Ir  Ir4  1  0.124656  0.124656  0.625567  1
  Ir  Ir5  1  0.625567  0.124656  0.124656  1
