# generated using pymatgen
data_Zr2Sc18N19
_symmetry_space_group_name_H-M   'P 1'
_cell_length_a   8.47467471
_cell_length_b   8.47580900
_cell_length_c   8.48089406
_cell_angle_alpha   106.58653134
_cell_angle_beta   106.61005037
_cell_angle_gamma   115.37378412
_symmetry_Int_Tables_number   1
_chemical_formula_structural   Zr2Sc18N19
_chemical_formula_sum   'Zr2 Sc18 N19'
_cell_volume   465.22791194
_cell_formula_units_Z   1
loop_
 _symmetry_equiv_pos_site_id
 _symmetry_equiv_pos_as_xyz
  1  'x, y, z'
loop_
 _atom_site_type_symbol
 _atom_site_label
 _atom_site_symmetry_multiplicity
 _atom_site_fract_x
 _atom_site_fract_y
 _atom_site_fract_z
 _atom_site_occupancy
  Zr  Zr0  1  0.045013  0.648040  0.198781  1
  Zr  Zr1  1  0.502274  0.001575  0.501281  1
  Sc  Sc2  1  0.397021  0.707155  0.101186  1
  Sc  Sc3  1  0.100192  0.799483  0.897399  1
  Sc  Sc4  1  0.757437  0.759551  0.998599  1
  Sc  Sc5  1  0.800045  0.899770  0.699663  1
  Sc  Sc6  1  0.449330  0.846224  0.801164  1
  Sc  Sc7  1  0.151786  0.953980  0.604895  1
  Sc  Sc8  1  0.201000  0.102373  0.300817  1
  Sc  Sc9  1  0.848646  0.047536  0.396905  1
  Sc  Sc10  1  0.899604  0.199041  0.100839  1
  Sc  Sc11  1  0.550415  0.153458  0.198774  1
  Sc  Sc12  1  0.602224  0.291113  0.896293  1
  Sc  Sc13  1  0.241139  0.240847  0.999898  1
  Sc  Sc14  1  0.291763  0.395616  0.687465  1
  Sc  Sc15  1  0.954937  0.350565  0.799585  1
  Sc  Sc16  1  0.999985  0.499435  0.501536  1
  Sc  Sc17  1  0.650303  0.451785  0.602881  1
  Sc  Sc18  1  0.706393  0.604242  0.313389  1
  Sc  Sc19  1  0.350822  0.547988  0.397930  1
  N  N20  1  0.898790  0.699375  0.598347  1
  N  N21  1  0.550184  0.649805  0.702011  1
  N  N22  1  0.599980  0.799657  0.399537  1
  N  N23  1  0.249971  0.750184  0.499474  1
  N  N24  1  0.300267  0.898465  0.199218  1
  N  N25  1  0.948059  0.847593  0.297757  1
  N  N26  1  0.999978  0.000092  0.999998  1
  N  N27  1  0.649875  0.948026  0.099831  1
  N  N28  1  0.699164  0.101135  0.800266  1
  N  N29  1  0.350252  0.052143  0.900295  1
  N  N30  1  0.052098  0.151780  0.701910  1
  N  N31  1  0.749308  0.249354  0.500110  1
  N  N32  1  0.400421  0.200608  0.600841  1
  N  N33  1  0.449959  0.350194  0.298099  1
  N  N34  1  0.101006  0.300450  0.401640  1
  N  N35  1  0.151204  0.450669  0.100251  1
  N  N36  1  0.200958  0.599913  0.800825  1
  N  N37  1  0.799513  0.400502  0.199202  1
  N  N38  1  0.848684  0.550278  0.901112  1
