# generated using pymatgen
data_Tb3DyLuInAu4
_symmetry_space_group_name_H-M   'P 1'
_cell_length_a   8.08061913
_cell_length_b   8.08147313
_cell_length_c   3.75975100
_cell_angle_alpha   90.00000000
_cell_angle_beta   90.00000000
_cell_angle_gamma   89.97941022
_symmetry_Int_Tables_number   1
_chemical_formula_structural   Tb3DyLuInAu4
_chemical_formula_sum   'Tb3 Dy1 Lu1 In1 Au4'
_cell_volume   245.52415561
_cell_formula_units_Z   1
loop_
 _symmetry_equiv_pos_site_id
 _symmetry_equiv_pos_as_xyz
  1  'x, y, z'
loop_
 _atom_site_type_symbol
 _atom_site_label
 _atom_site_symmetry_multiplicity
 _atom_site_fract_x
 _atom_site_fract_y
 _atom_site_fract_z
 _atom_site_occupancy
  Tb  Tb0  1  0.316703  0.855285  0.500000  1
  Tb  Tb1  1  0.855275  0.683049  0.500000  1
  Tb  Tb2  1  0.683353  0.144902  0.500000  1
  Dy  Dy3  1  0.144732  0.316888  0.500000  1
  Lu  Lu4  1  0.499870  0.499936  0.000000  1
  In  In5  1  0.000120  0.000275  0.000000  1
  Au  Au6  1  0.147508  0.617488  0.000000  1
  Au  Au7  1  0.617970  0.852537  0.000000  1
  Au  Au8  1  0.381517  0.147767  0.000000  1
  Au  Au9  1  0.852951  0.381872  0.000000  1
