# generated using pymatgen
data_YHo5Co17P12Ru
_symmetry_space_group_name_H-M   'P 1'
_cell_length_a   3.69307000
_cell_length_b   10.50791700
_cell_length_c   12.20588000
_cell_angle_alpha   90.00000000
_cell_angle_beta   90.00000000
_cell_angle_gamma   90.00000000
_symmetry_Int_Tables_number   1
_chemical_formula_structural   YHo5Co17P12Ru
_chemical_formula_sum   'Y1 Ho5 Co17 P12 Ru1'
_cell_volume   473.66715309
_cell_formula_units_Z   1
loop_
 _symmetry_equiv_pos_site_id
 _symmetry_equiv_pos_as_xyz
  1  'x, y, z'
loop_
 _atom_site_type_symbol
 _atom_site_label
 _atom_site_symmetry_multiplicity
 _atom_site_fract_x
 _atom_site_fract_y
 _atom_site_fract_z
 _atom_site_occupancy
  Y  Y0  1  0.500000  0.000000  0.478518  1
  Ho  Ho1  1  0.000000  0.500000  0.524378  1
  Ho  Ho2  1  0.500000  0.817380  0.206906  1
  Ho  Ho3  1  0.500000  0.182620  0.206906  1
  Ho  Ho4  1  0.000000  0.683055  0.793790  1
  Ho  Ho5  1  0.000000  0.316945  0.793790  1
  Co  Co6  1  0.000000  0.000000  0.840278  1
  Co  Co7  1  0.500000  0.500000  0.704096  1
  Co  Co8  1  0.000000  0.000000  0.295086  1
  Co  Co9  1  0.000000  0.500000  0.987033  1
  Co  Co10  1  0.500000  0.000000  0.014188  1
  Co  Co11  1  0.500000  0.332050  0.991321  1
  Co  Co12  1  0.500000  0.667950  0.991321  1
  Co  Co13  1  0.000000  0.166552  0.005406  1
  Co  Co14  1  0.000000  0.833448  0.005406  1
  Co  Co15  1  0.500000  0.297577  0.430294  1
  Co  Co16  1  0.500000  0.702423  0.430294  1
  Co  Co17  1  0.000000  0.203169  0.568986  1
  Co  Co18  1  0.000000  0.796831  0.568986  1
  Co  Co19  1  0.500000  0.879178  0.709447  1
  Co  Co20  1  0.500000  0.120822  0.709447  1
  Co  Co21  1  0.000000  0.620676  0.291629  1
  Co  Co22  1  0.000000  0.379324  0.291629  1
  P  P23  1  0.500000  0.500000  0.881911  1
  P  P24  1  0.000000  0.000000  0.117018  1
  P  P25  1  0.500000  0.500000  0.350224  1
  P  P26  1  0.000000  0.000000  0.656206  1
  P  P27  1  0.500000  0.310992  0.616500  1
  P  P28  1  0.500000  0.689008  0.616500  1
  P  P29  1  0.000000  0.188375  0.383868  1
  P  P30  1  0.000000  0.811625  0.383868  1
  P  P31  1  0.500000  0.848901  0.891998  1
  P  P32  1  0.500000  0.151099  0.891998  1
  P  P33  1  0.000000  0.655490  0.105765  1
  P  P34  1  0.000000  0.344510  0.105765  1
  Ru  Ru35  1  0.500000  0.500000  0.159247  1
