# generated using pymatgen
data_Sc12Co2RhBr16
_symmetry_space_group_name_H-M   'P 1'
_cell_length_a   8.84209581
_cell_length_b   11.19296648
_cell_length_c   11.87544355
_cell_angle_alpha   116.97031371
_cell_angle_beta   101.44706582
_cell_angle_gamma   101.09863714
_symmetry_Int_Tables_number   1
_chemical_formula_structural   Sc12Co2RhBr16
_chemical_formula_sum   'Sc12 Co2 Rh1 Br16'
_cell_volume   971.46939898
_cell_formula_units_Z   1
loop_
 _symmetry_equiv_pos_site_id
 _symmetry_equiv_pos_as_xyz
  1  'x, y, z'
loop_
 _atom_site_type_symbol
 _atom_site_label
 _atom_site_symmetry_multiplicity
 _atom_site_fract_x
 _atom_site_fract_y
 _atom_site_fract_z
 _atom_site_occupancy
  Sc  Sc0  1  0.087674  0.260960  0.352034  1
  Sc  Sc1  1  0.912326  0.739040  0.647966  1
  Sc  Sc2  1  0.774951  0.535218  0.322929  1
  Sc  Sc3  1  0.225049  0.464782  0.677071  1
  Sc  Sc4  1  0.283745  0.739185  0.647920  1
  Sc  Sc5  1  0.716255  0.260815  0.352080  1
  Sc  Sc6  1  0.145538  0.534760  0.323530  1
  Sc  Sc7  1  0.854462  0.465240  0.676470  1
  Sc  Sc8  1  0.404935  0.357803  0.272857  1
  Sc  Sc9  1  0.595065  0.642197  0.727143  1
  Sc  Sc10  1  0.458684  0.308960  0.520526  1
  Sc  Sc11  1  0.541316  0.691040  0.479474  1
  Co  Co12  1  0.341069  0.500076  0.499671  1
  Co  Co13  1  0.658932  0.499924  0.500329  1
  Rh  Rh14  1  0.000000  0.500000  0.500000  1
  Br  Br15  1  0.398328  0.739933  0.881778  1
  Br  Br16  1  0.601672  0.260067  0.118222  1
  Br  Br17  1  0.188084  0.963022  0.781761  1
  Br  Br18  1  0.811916  0.036978  0.218239  1
  Br  Br19  1  0.337948  0.097503  0.254063  1
  Br  Br20  1  0.662052  0.902497  0.745937  1
  Br  Br21  1  0.556605  0.436771  0.795723  1
  Br  Br22  1  0.443395  0.563229  0.204277  1
  Br  Br23  1  0.307265  0.823679  0.463398  1
  Br  Br24  1  0.692735  0.176321  0.536602  1
  Br  Br25  1  0.166998  0.174879  0.533342  1
  Br  Br26  1  0.833002  0.825121  0.466658  1
  Br  Br27  1  0.927124  0.574945  0.162560  1
  Br  Br28  1  0.072876  0.425055  0.837440  1
  Br  Br29  1  0.920593  0.738496  0.881941  1
  Br  Br30  1  0.079407  0.261504  0.118059  1
