# generated using pymatgen
data_Ba3ZnPt8
_symmetry_space_group_name_H-M   'P 1'
_cell_length_a   5.67986300
_cell_length_b   5.67986219
_cell_length_c   17.93434500
_cell_angle_alpha   90.00000000
_cell_angle_beta   90.00000000
_cell_angle_gamma   119.99999890
_symmetry_Int_Tables_number   1
_chemical_formula_structural   Ba3ZnPt8
_chemical_formula_sum   'Ba6 Zn2 Pt16'
_cell_volume   501.06240140
_cell_formula_units_Z   2
loop_
 _symmetry_equiv_pos_site_id
 _symmetry_equiv_pos_as_xyz
  1  'x, y, z'
loop_
 _atom_site_type_symbol
 _atom_site_label
 _atom_site_symmetry_multiplicity
 _atom_site_fract_x
 _atom_site_fract_y
 _atom_site_fract_z
 _atom_site_occupancy
  Ba  Ba0  1  0.333333  0.666667  0.538548  1
  Ba  Ba1  1  0.666667  0.333333  0.038548  1
  Ba  Ba2  1  0.666667  0.333333  0.461452  1
  Ba  Ba3  1  0.333333  0.666667  0.961452  1
  Ba  Ba4  1  0.333333  0.666667  0.750000  1
  Ba  Ba5  1  0.666667  0.333333  0.250000  1
  Zn  Zn6  1  0.000000  0.000000  0.250000  1
  Zn  Zn7  1  0.000000  0.000000  0.750000  1
  Pt  Pt8  1  0.165393  0.330786  0.130553  1
  Pt  Pt9  1  0.834607  0.669214  0.630553  1
  Pt  Pt10  1  0.669214  0.834607  0.130553  1
  Pt  Pt11  1  0.165393  0.834607  0.130553  1
  Pt  Pt12  1  0.834607  0.165393  0.630553  1
  Pt  Pt13  1  0.330786  0.165393  0.630553  1
  Pt  Pt14  1  0.834607  0.669214  0.869447  1
  Pt  Pt15  1  0.834607  0.165393  0.869447  1
  Pt  Pt16  1  0.330786  0.165393  0.869447  1
  Pt  Pt17  1  0.669214  0.834607  0.369447  1
  Pt  Pt18  1  0.165393  0.834607  0.369447  1
  Pt  Pt19  1  0.165393  0.330786  0.369447  1
  Pt  Pt20  1  0.333333  0.666667  0.250000  1
  Pt  Pt21  1  0.666667  0.333333  0.750000  1
  Pt  Pt22  1  0.000000  0.000000  0.000000  1
  Pt  Pt23  1  0.000000  0.000000  0.500000  1
