# generated using pymatgen
data_SmV4Bi3F28
_symmetry_space_group_name_H-M   'P 1'
_cell_length_a   5.59550726
_cell_length_b   9.10156526
_cell_length_c   12.06039627
_cell_angle_alpha   62.66849266
_cell_angle_beta   90.04751878
_cell_angle_gamma   89.94075264
_symmetry_Int_Tables_number   1
_chemical_formula_structural   SmV4Bi3F28
_chemical_formula_sum   'Sm1 V4 Bi3 F28'
_cell_volume   545.64202446
_cell_formula_units_Z   1
loop_
 _symmetry_equiv_pos_site_id
 _symmetry_equiv_pos_as_xyz
  1  'x, y, z'
loop_
 _atom_site_type_symbol
 _atom_site_label
 _atom_site_symmetry_multiplicity
 _atom_site_fract_x
 _atom_site_fract_y
 _atom_site_fract_z
 _atom_site_occupancy
  Sm  Sm0  1  0.742690  0.804271  0.269221  1
  V  V1  1  0.753644  0.271362  0.956470  1
  V  V2  1  0.253980  0.726851  0.543071  1
  V  V3  1  0.246205  0.727375  0.044925  1
  V  V4  1  0.746259  0.274452  0.455095  1
  Bi  Bi5  1  0.759148  0.807918  0.769387  1
  Bi  Bi6  1  0.258317  0.191572  0.730180  1
  Bi  Bi7  1  0.239402  0.186603  0.231184  1
  F  F8  1  0.444197  0.708749  0.923978  1
  F  F9  1  0.942942  0.293181  0.577048  1
  F  F10  1  0.557433  0.291086  0.077301  1
  F  F11  1  0.054269  0.709746  0.421840  1
  F  F12  1  0.461807  0.284476  0.542488  1
  F  F13  1  0.962527  0.717790  0.957109  1
  F  F14  1  0.534039  0.717523  0.454124  1
  F  F15  1  0.039257  0.282244  0.043035  1
  F  F16  1  0.767351  0.497589  0.866448  1
  F  F17  1  0.267211  0.501077  0.633881  1
  F  F18  1  0.233406  0.502908  0.134631  1
  F  F19  1  0.734241  0.503096  0.365327  1
  F  F20  1  0.759448  0.045243  0.048566  1
  F  F21  1  0.258548  0.953461  0.453367  1
  F  F22  1  0.241480  0.953416  0.954516  1
  F  F23  1  0.741009  0.048516  0.545991  1
  F  F24  1  0.980139  0.732497  0.633489  1
  F  F25  1  0.479497  0.266938  0.866294  1
  F  F26  1  0.019502  0.269687  0.365714  1
  F  F27  1  0.518655  0.733491  0.137189  1
  F  F28  1  0.046938  0.746858  0.166953  1
  F  F29  1  0.552846  0.255782  0.332830  1
  F  F30  1  0.947732  0.252239  0.833341  1
  F  F31  1  0.449010  0.746134  0.666130  1
  F  F32  1  0.410191  0.969813  0.228134  1
  F  F33  1  0.913318  0.027040  0.270753  1
  F  F34  1  0.591759  0.028523  0.772135  1
  F  F35  1  0.091605  0.970492  0.727852  1
