# generated using pymatgen
data_Y10In5BiBr2
_symmetry_space_group_name_H-M   'P 1'
_cell_length_a   9.21065706
_cell_length_b   9.21065717
_cell_length_c   6.79425300
_cell_angle_alpha   90.00000000
_cell_angle_beta   90.00000000
_cell_angle_gamma   120.20993082
_symmetry_Int_Tables_number   1
_chemical_formula_structural   Y10In5BiBr2
_chemical_formula_sum   'Y10 In5 Bi1 Br2'
_cell_volume   498.11655596
_cell_formula_units_Z   1
loop_
 _symmetry_equiv_pos_site_id
 _symmetry_equiv_pos_as_xyz
  1  'x, y, z'
loop_
 _atom_site_type_symbol
 _atom_site_label
 _atom_site_symmetry_multiplicity
 _atom_site_fract_x
 _atom_site_fract_y
 _atom_site_fract_z
 _atom_site_occupancy
  Y  Y0  1  0.267542  0.002119  0.750000  1
  Y  Y1  1  0.736879  0.006226  0.250000  1
  Y  Y2  1  0.002119  0.267542  0.750000  1
  Y  Y3  1  0.006226  0.736879  0.250000  1
  Y  Y4  1  0.734464  0.734464  0.750000  1
  Y  Y5  1  0.261351  0.261351  0.250000  1
  Y  Y6  1  0.329503  0.667163  0.502984  1
  Y  Y7  1  0.667163  0.329503  0.502984  1
  Y  Y8  1  0.667163  0.329503  0.997016  1
  Y  Y9  1  0.329503  0.667163  0.997016  1
  In  In10  1  0.608321  0.999220  0.750000  1
  In  In11  1  0.393678  0.000591  0.250000  1
  In  In12  1  0.999220  0.608321  0.750000  1
  In  In13  1  0.000591  0.393678  0.250000  1
  In  In14  1  0.390530  0.390530  0.750000  1
  Bi  Bi15  1  0.609500  0.609500  0.250000  1
  Br  Br16  1  0.998123  0.998123  0.499456  1
  Br  Br17  1  0.998123  0.998123  0.000544  1
