# generated using pymatgen
data_Tb4DyTh3(MgRu)2
_symmetry_space_group_name_H-M   'P 1'
_cell_length_a   9.74308934
_cell_length_b   9.84343475
_cell_length_c   9.84405211
_cell_angle_alpha   59.32465398
_cell_angle_beta   60.33450057
_cell_angle_gamma   60.34082007
_symmetry_Int_Tables_number   1
_chemical_formula_structural   Tb4DyTh3(MgRu)2
_chemical_formula_sum   'Tb8 Dy2 Th6 Mg4 Ru4'
_cell_volume   667.44005609
_cell_formula_units_Z   2
loop_
 _symmetry_equiv_pos_site_id
 _symmetry_equiv_pos_as_xyz
  1  'x, y, z'
loop_
 _atom_site_type_symbol
 _atom_site_label
 _atom_site_symmetry_multiplicity
 _atom_site_fract_x
 _atom_site_fract_y
 _atom_site_fract_z
 _atom_site_occupancy
  Tb  Tb0  1  0.439003  0.439003  0.060997  1
  Tb  Tb1  1  0.060997  0.060997  0.439003  1
  Tb  Tb2  1  0.183758  0.816242  0.816242  1
  Tb  Tb3  1  0.816242  0.183758  0.183758  1
  Tb  Tb4  1  0.812768  0.187232  0.812768  1
  Tb  Tb5  1  0.187232  0.812768  0.187232  1
  Tb  Tb6  1  0.812678  0.812678  0.187322  1
  Tb  Tb7  1  0.187322  0.187322  0.812678  1
  Dy  Dy8  1  0.439188  0.060812  0.439188  1
  Dy  Dy9  1  0.060812  0.439188  0.060812  1
  Th  Th10  1  0.591546  0.598963  0.598528  1
  Th  Th11  1  0.598963  0.591546  0.210965  1
  Th  Th12  1  0.598528  0.210965  0.591546  1
  Th  Th13  1  0.210965  0.598528  0.598963  1
  Th  Th14  1  0.065945  0.434055  0.434055  1
  Th  Th15  1  0.434055  0.065945  0.065945  1
  Mg  Mg16  1  0.831891  0.828873  0.829177  1
  Mg  Mg17  1  0.828873  0.831891  0.510059  1
  Mg  Mg18  1  0.829177  0.510059  0.831891  1
  Mg  Mg19  1  0.510059  0.829177  0.828873  1
  Ru  Ru20  1  0.377641  0.398900  0.399605  1
  Ru  Ru21  1  0.398900  0.377641  0.823854  1
  Ru  Ru22  1  0.399605  0.823854  0.377641  1
  Ru  Ru23  1  0.823854  0.399605  0.398900  1
