# generated using pymatgen
data_Tm3Hf3Co2(Sn3Ir2)2
_symmetry_space_group_name_H-M   'P 1'
_cell_length_a   7.41331600
_cell_length_b   7.41331565
_cell_length_c   7.36234700
_cell_angle_alpha   90.00000000
_cell_angle_beta   90.00000000
_cell_angle_gamma   120.00001049
_symmetry_Int_Tables_number   1
_chemical_formula_structural   Tm3Hf3Co2(Sn3Ir2)2
_chemical_formula_sum   'Tm3 Hf3 Co2 Sn6 Ir4'
_cell_volume   350.40627385
_cell_formula_units_Z   1
loop_
 _symmetry_equiv_pos_site_id
 _symmetry_equiv_pos_as_xyz
  1  'x, y, z'
loop_
 _atom_site_type_symbol
 _atom_site_label
 _atom_site_symmetry_multiplicity
 _atom_site_fract_x
 _atom_site_fract_y
 _atom_site_fract_z
 _atom_site_occupancy
  Tm  Tm0  1  0.000129  0.407717  0.750000  1
  Tm  Tm1  1  0.592283  0.592413  0.750000  1
  Tm  Tm2  1  0.407587  0.999871  0.750000  1
  Hf  Hf3  1  0.999513  0.391217  0.250000  1
  Hf  Hf4  1  0.608783  0.608296  0.250000  1
  Hf  Hf5  1  0.391704  0.000487  0.250000  1
  Co  Co6  1  0.000000  0.000000  0.750000  1
  Co  Co7  1  0.000000  0.000000  0.250000  1
  Sn  Sn8  1  0.256805  0.257041  0.494662  1
  Sn  Sn9  1  0.000235  0.743195  0.494662  1
  Sn  Sn10  1  0.000235  0.743195  0.005338  1
  Sn  Sn11  1  0.742959  0.999765  0.494662  1
  Sn  Sn12  1  0.742959  0.999765  0.005338  1
  Sn  Sn13  1  0.256805  0.257041  0.005338  1
  Ir  Ir14  1  0.333333  0.666667  0.467432  1
  Ir  Ir15  1  0.666667  0.333333  0.468425  1
  Ir  Ir16  1  0.333333  0.666667  0.032568  1
  Ir  Ir17  1  0.666667  0.333333  0.031575  1
