# generated using pymatgen
data_Ho4Al15Ga3(Ir2Pt)2
_symmetry_space_group_name_H-M   'P 1'
_cell_length_a   7.55862356
_cell_length_b   7.56117551
_cell_length_c   9.48327522
_cell_angle_alpha   89.90377463
_cell_angle_beta   89.89715118
_cell_angle_gamma   119.55512460
_symmetry_Int_Tables_number   1
_chemical_formula_structural   Ho4Al15Ga3(Ir2Pt)2
_chemical_formula_sum   'Ho4 Al15 Ga3 Ir4 Pt2'
_cell_volume   471.46332237
_cell_formula_units_Z   1
loop_
 _symmetry_equiv_pos_site_id
 _symmetry_equiv_pos_as_xyz
  1  'x, y, z'
loop_
 _atom_site_type_symbol
 _atom_site_label
 _atom_site_symmetry_multiplicity
 _atom_site_fract_x
 _atom_site_fract_y
 _atom_site_fract_z
 _atom_site_occupancy
  Ho  Ho0  1  0.997849  0.674116  0.251180  1
  Ho  Ho1  1  0.004643  0.326255  0.748857  1
  Ho  Ho2  1  0.670373  0.992481  0.251226  1
  Ho  Ho3  1  0.326090  0.003469  0.748897  1
  Al  Al4  1  0.001106  0.331993  0.076977  1
  Al  Al5  1  0.998702  0.667840  0.922882  1
  Al  Al6  1  0.999750  0.664371  0.573988  1
  Al  Al7  1  0.335850  0.001483  0.426350  1
  Al  Al8  1  0.000098  0.335217  0.426235  1
  Al  Al9  1  0.664323  0.000209  0.573894  1
  Al  Al10  1  0.668030  0.999539  0.922984  1
  Al  Al11  1  0.332332  0.002257  0.076850  1
  Al  Al12  1  0.332921  0.333037  0.556220  1
  Al  Al13  1  0.667459  0.667015  0.447526  1
  Al  Al14  1  0.669037  0.668917  0.058720  1
  Al  Al15  1  0.330994  0.331157  0.937954  1
  Al  Al16  1  0.661912  0.451264  0.746901  1
  Al  Al17  1  0.550048  0.340560  0.253123  1
  Al  Al18  1  0.452067  0.661822  0.746970  1
  Ga  Ga19  1  0.129926  0.130589  0.250479  1
  Ga  Ga20  1  0.866931  0.866686  0.749549  1
  Ga  Ga21  1  0.340266  0.545353  0.253054  1
  Ir  Ir22  1  0.328325  0.672543  0.502154  1
  Ir  Ir23  1  0.671244  0.328972  0.499912  1
  Ir  Ir24  1  0.000283  0.000694  0.999863  1
  Ir  Ir25  1  0.000228  0.000571  0.500162  1
  Pt  Pt26  1  0.671152  0.328875  0.000093  1
  Pt  Pt27  1  0.328062  0.672717  0.997002  1
