# generated using pymatgen
data_Ho3Co6IrC2
_symmetry_space_group_name_H-M   'P 1'
_cell_length_a   5.06731300
_cell_length_b   5.06731219
_cell_length_c   14.09291600
_cell_angle_alpha   90.00000000
_cell_angle_beta   90.00000000
_cell_angle_gamma   120.00037512
_symmetry_Int_Tables_number   1
_chemical_formula_structural   Ho3Co6IrC2
_chemical_formula_sum   'Ho6 Co12 Ir2 C4'
_cell_volume   313.39008047
_cell_formula_units_Z   2
loop_
 _symmetry_equiv_pos_site_id
 _symmetry_equiv_pos_as_xyz
  1  'x, y, z'
loop_
 _atom_site_type_symbol
 _atom_site_label
 _atom_site_symmetry_multiplicity
 _atom_site_fract_x
 _atom_site_fract_y
 _atom_site_fract_z
 _atom_site_occupancy
  Ho  Ho0  1  0.666663  0.333337  0.033261  1
  Ho  Ho1  1  0.333337  0.666663  0.966739  1
  Ho  Ho2  1  0.333337  0.666663  0.533261  1
  Ho  Ho3  1  0.666663  0.333337  0.466739  1
  Ho  Ho4  1  0.666635  0.333365  0.250000  1
  Ho  Ho5  1  0.333365  0.666635  0.750000  1
  Co  Co6  1  0.835702  0.671330  0.657543  1
  Co  Co7  1  0.835695  0.164305  0.657537  1
  Co  Co8  1  0.328670  0.164298  0.657543  1
  Co  Co9  1  0.164298  0.328670  0.342457  1
  Co  Co10  1  0.164305  0.835695  0.342463  1
  Co  Co11  1  0.671330  0.835702  0.342457  1
  Co  Co12  1  0.164298  0.328670  0.157543  1
  Co  Co13  1  0.164305  0.835695  0.157537  1
  Co  Co14  1  0.671330  0.835702  0.157543  1
  Co  Co15  1  0.835702  0.671330  0.842457  1
  Co  Co16  1  0.835695  0.164305  0.842463  1
  Co  Co17  1  0.328670  0.164298  0.842457  1
  Ir  Ir18  1  0.000000  0.000000  0.500000  1
  Ir  Ir19  1  0.000000  0.000000  0.000000  1
  C  C20  1  0.666696  0.333304  0.750000  1
  C  C21  1  0.333304  0.666696  0.250000  1
  C  C22  1  0.000003  0.999997  0.750000  1
  C  C23  1  0.999997  0.000003  0.250000  1
