# generated using pymatgen
data_Pr16Ho4Si15As
_symmetry_space_group_name_H-M   'P 1'
_cell_length_a   7.84759338
_cell_length_b   7.83565666
_cell_length_c   15.34889785
_cell_angle_alpha   89.93516907
_cell_angle_beta   89.64218895
_cell_angle_gamma   89.95478946
_symmetry_Int_Tables_number   1
_chemical_formula_structural   Pr16Ho4Si15As
_chemical_formula_sum   'Pr16 Ho4 Si15 As1'
_cell_volume   943.80050593
_cell_formula_units_Z   1
loop_
 _symmetry_equiv_pos_site_id
 _symmetry_equiv_pos_as_xyz
  1  'x, y, z'
loop_
 _atom_site_type_symbol
 _atom_site_label
 _atom_site_symmetry_multiplicity
 _atom_site_fract_x
 _atom_site_fract_y
 _atom_site_fract_z
 _atom_site_occupancy
  Pr  Pr0  1  0.378761  0.011671  0.443798  1
  Pr  Pr1  1  0.486339  0.877811  0.696292  1
  Pr  Pr2  1  0.512398  0.120229  0.194661  1
  Pr  Pr3  1  0.877848  0.486045  0.303656  1
  Pr  Pr4  1  0.123588  0.512684  0.805821  1
  Pr  Pr5  1  0.626016  0.985786  0.946436  1
  Pr  Pr6  1  0.007503  0.379487  0.552731  1
  Pr  Pr7  1  0.988502  0.621067  0.055220  1
  Pr  Pr8  1  0.130490  0.979659  0.877149  1
  Pr  Pr9  1  0.523898  0.626501  0.128148  1
  Pr  Pr10  1  0.474354  0.374464  0.630319  1
  Pr  Pr11  1  0.627973  0.524904  0.872537  1
  Pr  Pr12  1  0.372861  0.474286  0.371678  1
  Pr  Pr13  1  0.874099  0.024085  0.378615  1
  Pr  Pr14  1  0.977034  0.125507  0.121812  1
  Pr  Pr15  1  0.022224  0.873439  0.620661  1
  Ho  Ho16  1  0.312128  0.310050  0.000170  1
  Ho  Ho17  1  0.189316  0.808624  0.249644  1
  Ho  Ho18  1  0.803838  0.190011  0.751124  1
  Ho  Ho19  1  0.686861  0.689818  0.499005  1
  Si  Si20  1  0.328555  0.689011  0.957879  1
  Si  Si21  1  0.669240  0.311971  0.459278  1
  Si  Si22  1  0.691402  0.329879  0.042866  1
  Si  Si23  1  0.311261  0.671815  0.541780  1
  Si  Si24  1  0.812432  0.827822  0.208579  1
  Si  Si25  1  0.171809  0.186914  0.290920  1
  Si  Si26  1  0.832217  0.811891  0.791494  1
  Si  Si27  1  0.286554  0.922045  0.062985  1
  Si  Si28  1  0.578254  0.785419  0.313227  1
  Si  Si29  1  0.435434  0.212813  0.819213  1
  Si  Si30  1  0.786916  0.579009  0.686062  1
  Si  Si31  1  0.213959  0.421580  0.186194  1
  Si  Si32  1  0.707784  0.076827  0.564017  1
  Si  Si33  1  0.924861  0.287564  0.936739  1
  Si  Si34  1  0.077897  0.713100  0.435902  1
  As  As35  1  0.175394  0.176209  0.703388  1
