# generated using pymatgen
data_U8Ta8Nb3Si16Ru
_symmetry_space_group_name_H-M   'P 1'
_cell_length_a   6.99956722
_cell_length_b   7.00738783
_cell_length_c   12.94272403
_cell_angle_alpha   89.94166936
_cell_angle_beta   90.04859524
_cell_angle_gamma   90.00275294
_symmetry_Int_Tables_number   1
_chemical_formula_structural   U8Ta8Nb3Si16Ru
_chemical_formula_sum   'U8 Ta8 Nb3 Si16 Ru1'
_cell_volume   634.82299924
_cell_formula_units_Z   1
loop_
 _symmetry_equiv_pos_site_id
 _symmetry_equiv_pos_as_xyz
  1  'x, y, z'
loop_
 _atom_site_type_symbol
 _atom_site_label
 _atom_site_symmetry_multiplicity
 _atom_site_fract_x
 _atom_site_fract_y
 _atom_site_fract_z
 _atom_site_occupancy
  U  U0  1  0.996309  0.334930  0.221374  1
  U  U1  1  0.008169  0.671349  0.717194  1
  U  U2  1  0.166480  0.498049  0.469186  1
  U  U3  1  0.503338  0.831067  0.033713  1
  U  U4  1  0.829907  0.506232  0.969417  1
  U  U5  1  0.495933  0.166228  0.528878  1
  U  U6  1  0.328405  0.992935  0.779567  1
  U  U7  1  0.670382  0.003913  0.279264  1
  Ta  Ta8  1  0.167784  0.166817  0.001091  1
  Ta  Ta9  1  0.830121  0.832806  0.500162  1
  Ta  Ta10  1  0.329340  0.665006  0.249393  1
  Ta  Ta11  1  0.667850  0.331452  0.749657  1
  Ta  Ta12  1  0.843685  0.001841  0.873919  1
  Ta  Ta13  1  0.496119  0.658465  0.623664  1
  Ta  Ta14  1  0.344490  0.499216  0.876144  1
  Ta  Ta15  1  0.495488  0.338815  0.125047  1
  Nb  Nb16  1  0.658705  0.497966  0.375512  1
  Nb  Nb17  1  0.998131  0.157965  0.627485  1
  Nb  Nb18  1  0.996370  0.839733  0.122697  1
  Si  Si19  1  0.291961  0.035457  0.188649  1
  Si  Si20  1  0.701567  0.960089  0.683974  1
  Si  Si21  1  0.459595  0.796455  0.432570  1
  Si  Si22  1  0.202160  0.537264  0.065105  1
  Si  Si23  1  0.538655  0.200663  0.934579  1
  Si  Si24  1  0.794824  0.460994  0.565451  1
  Si  Si25  1  0.040220  0.299296  0.816346  1
  Si  Si26  1  0.965983  0.716823  0.316366  1
  Si  Si27  1  0.370389  0.291418  0.316833  1
  Si  Si28  1  0.629454  0.707107  0.815442  1
  Si  Si29  1  0.203464  0.872797  0.562022  1
  Si  Si30  1  0.129260  0.793360  0.933554  1
  Si  Si31  1  0.793310  0.130494  0.066843  1
  Si  Si32  1  0.880501  0.199721  0.433909  1
  Si  Si33  1  0.294321  0.369855  0.683362  1
  Si  Si34  1  0.705495  0.624652  0.184738  1
  Ru  Ru35  1  0.171840  0.008771  0.376894  1
