# generated using pymatgen
data_Tb2Ga5IrPd2
_symmetry_space_group_name_H-M   'P 1'
_cell_length_a   8.69651711
_cell_length_b   8.68840335
_cell_length_c   8.68840283
_cell_angle_alpha   141.61826014
_cell_angle_beta   108.59702984
_cell_angle_gamma   84.08786830
_symmetry_Int_Tables_number   1
_chemical_formula_structural   Tb2Ga5IrPd2
_chemical_formula_sum   'Tb4 Ga10 Ir2 Pd4'
_cell_volume   374.08204989
_cell_formula_units_Z   2
loop_
 _symmetry_equiv_pos_site_id
 _symmetry_equiv_pos_as_xyz
  1  'x, y, z'
loop_
 _atom_site_type_symbol
 _atom_site_label
 _atom_site_symmetry_multiplicity
 _atom_site_fract_x
 _atom_site_fract_y
 _atom_site_fract_z
 _atom_site_occupancy
  Tb  Tb0  1  0.417740  0.640692  0.777049  1
  Tb  Tb1  1  0.582260  0.359308  0.222951  1
  Tb  Tb2  1  0.131474  0.855986  0.275488  1
  Tb  Tb3  1  0.868526  0.144014  0.724512  1
  Ga  Ga4  1  0.736473  0.910251  0.826223  1
  Ga  Ga5  1  0.263527  0.089749  0.173777  1
  Ga  Ga6  1  0.912255  0.589920  0.322336  1
  Ga  Ga7  1  0.087745  0.410080  0.677664  1
  Ga  Ga8  1  0.204818  0.954854  0.749465  1
  Ga  Ga9  1  0.795182  0.544647  0.750036  1
  Ga  Ga10  1  0.795182  0.045146  0.250535  1
  Ga  Ga11  1  0.204818  0.455353  0.249964  1
  Ga  Ga12  1  0.500000  0.744891  0.244891  1
  Ga  Ga13  1  0.500000  0.255109  0.755109  1
  Ir  Ir14  1  0.740126  0.649495  0.090629  1
  Ir  Ir15  1  0.259874  0.350505  0.909371  1
  Pd  Pd16  1  0.000000  0.749406  0.749406  1
  Pd  Pd17  1  0.000000  0.250594  0.250594  1
  Pd  Pd18  1  0.444966  0.852135  0.592830  1
  Pd  Pd19  1  0.555034  0.147865  0.407170  1
