# generated using pymatgen
data_CaAc(ZnGe)2
_symmetry_space_group_name_H-M   'P 1'
_cell_length_a   4.34179100
_cell_length_b   4.34179185
_cell_length_c   8.84680800
_cell_angle_alpha   90.00000000
_cell_angle_beta   90.00000000
_cell_angle_gamma   120.00000112
_symmetry_Int_Tables_number   1
_chemical_formula_structural   CaAc(ZnGe)2
_chemical_formula_sum   'Ca1 Ac1 Zn2 Ge2'
_cell_volume   144.42924541
_cell_formula_units_Z   1
loop_
 _symmetry_equiv_pos_site_id
 _symmetry_equiv_pos_as_xyz
  1  'x, y, z'
loop_
 _atom_site_type_symbol
 _atom_site_label
 _atom_site_symmetry_multiplicity
 _atom_site_fract_x
 _atom_site_fract_y
 _atom_site_fract_z
 _atom_site_occupancy
  Ca  Ca0  1  0.000000  0.000000  0.500000  1
  Ac  Ac1  1  0.000000  0.000000  0.000000  1
  Zn  Zn2  1  0.333333  0.666667  0.254303  1
  Zn  Zn3  1  0.666667  0.333333  0.745697  1
  Ge  Ge4  1  0.333333  0.666667  0.740047  1
  Ge  Ge5  1  0.666667  0.333333  0.259953  1
