# generated using pymatgen
data_Lu7ThMgCdNi2
_symmetry_space_group_name_H-M   'P 1'
_cell_length_a   9.39154442
_cell_length_b   9.39154407
_cell_length_c   9.40422500
_cell_angle_alpha   59.95532757
_cell_angle_beta   59.95532879
_cell_angle_gamma   60.27444539
_symmetry_Int_Tables_number   1
_chemical_formula_structural   Lu7ThMgCdNi2
_chemical_formula_sum   'Lu14 Th2 Mg2 Cd2 Ni4'
_cell_volume   587.32694219
_cell_formula_units_Z   2
loop_
 _symmetry_equiv_pos_site_id
 _symmetry_equiv_pos_as_xyz
  1  'x, y, z'
loop_
 _atom_site_type_symbol
 _atom_site_label
 _atom_site_symmetry_multiplicity
 _atom_site_fract_x
 _atom_site_fract_y
 _atom_site_fract_z
 _atom_site_occupancy
  Lu  Lu0  1  0.601304  0.200041  0.599328  1
  Lu  Lu1  1  0.200041  0.601304  0.599328  1
  Lu  Lu2  1  0.062459  0.438948  0.436852  1
  Lu  Lu3  1  0.438948  0.062459  0.061741  1
  Lu  Lu4  1  0.438948  0.062459  0.436852  1
  Lu  Lu5  1  0.062459  0.438948  0.061741  1
  Lu  Lu6  1  0.434251  0.434251  0.065749  1
  Lu  Lu7  1  0.061642  0.061642  0.438358  1
  Lu  Lu8  1  0.183865  0.816084  0.817011  1
  Lu  Lu9  1  0.816084  0.183865  0.183042  1
  Lu  Lu10  1  0.816084  0.183865  0.817011  1
  Lu  Lu11  1  0.183865  0.816084  0.183042  1
  Lu  Lu12  1  0.814545  0.814545  0.185455  1
  Lu  Lu13  1  0.187211  0.187211  0.812789  1
  Th  Th14  1  0.592525  0.592525  0.603777  1
  Th  Th15  1  0.592525  0.592525  0.211173  1
  Mg  Mg16  1  0.833005  0.514258  0.826369  1
  Mg  Mg17  1  0.514258  0.833005  0.826369  1
  Cd  Cd18  1  0.834683  0.834683  0.829878  1
  Cd  Cd19  1  0.834683  0.834683  0.500756  1
  Ni  Ni20  1  0.389001  0.389001  0.397477  1
  Ni  Ni21  1  0.389001  0.389001  0.824522  1
  Ni  Ni22  1  0.396117  0.822499  0.390692  1
  Ni  Ni23  1  0.822499  0.396117  0.390692  1
