# generated using pymatgen
data_SmTm2Cr(Co4P3)2
_symmetry_space_group_name_H-M   'P 1'
_cell_length_a   3.68069500
_cell_length_b   10.49241100
_cell_length_c   12.17954100
_cell_angle_alpha   90.00000000
_cell_angle_beta   90.00000000
_cell_angle_gamma   90.00000000
_symmetry_Int_Tables_number   1
_chemical_formula_structural   SmTm2Cr(Co4P3)2
_chemical_formula_sum   'Sm2 Tm4 Cr2 Co16 P12'
_cell_volume   470.36613583
_cell_formula_units_Z   2
loop_
 _symmetry_equiv_pos_site_id
 _symmetry_equiv_pos_as_xyz
  1  'x, y, z'
loop_
 _atom_site_type_symbol
 _atom_site_label
 _atom_site_symmetry_multiplicity
 _atom_site_fract_x
 _atom_site_fract_y
 _atom_site_fract_z
 _atom_site_occupancy
  Sm  Sm0  1  0.000000  0.500000  0.522778  1
  Sm  Sm1  1  0.500000  0.000000  0.477222  1
  Tm  Tm2  1  0.500000  0.817949  0.203492  1
  Tm  Tm3  1  0.500000  0.182051  0.203492  1
  Tm  Tm4  1  0.000000  0.682051  0.796508  1
  Tm  Tm5  1  0.000000  0.317949  0.796508  1
  Cr  Cr6  1  0.500000  0.500000  0.153747  1
  Cr  Cr7  1  0.000000  0.000000  0.846253  1
  Co  Co8  1  0.500000  0.500000  0.704670  1
  Co  Co9  1  0.000000  0.000000  0.295330  1
  Co  Co10  1  0.000000  0.500000  0.986835  1
  Co  Co11  1  0.500000  0.000000  0.013165  1
  Co  Co12  1  0.500000  0.332442  0.992066  1
  Co  Co13  1  0.500000  0.667558  0.992066  1
  Co  Co14  1  0.000000  0.167558  0.007934  1
  Co  Co15  1  0.000000  0.832442  0.007934  1
  Co  Co16  1  0.500000  0.295714  0.429496  1
  Co  Co17  1  0.500000  0.704286  0.429496  1
  Co  Co18  1  0.000000  0.204286  0.570504  1
  Co  Co19  1  0.000000  0.795714  0.570504  1
  Co  Co20  1  0.500000  0.878996  0.710942  1
  Co  Co21  1  0.500000  0.121004  0.710942  1
  Co  Co22  1  0.000000  0.621004  0.289058  1
  Co  Co23  1  0.000000  0.378996  0.289058  1
  P  P24  1  0.500000  0.500000  0.881908  1
  P  P25  1  0.000000  0.000000  0.118092  1
  P  P26  1  0.500000  0.500000  0.340627  1
  P  P27  1  0.000000  0.000000  0.659373  1
  P  P28  1  0.500000  0.309906  0.618055  1
  P  P29  1  0.500000  0.690094  0.618055  1
  P  P30  1  0.000000  0.190094  0.381945  1
  P  P31  1  0.000000  0.809906  0.381945  1
  P  P32  1  0.500000  0.847454  0.892229  1
  P  P33  1  0.500000  0.152546  0.892229  1
  P  P34  1  0.000000  0.652546  0.107771  1
  P  P35  1  0.000000  0.347454  0.107771  1
