# generated using pymatgen
data_Gd3Si3Tc
_symmetry_space_group_name_H-M   'P 1'
_cell_length_a   5.75394819
_cell_length_b   5.75394772
_cell_length_c   13.66548500
_cell_angle_alpha   109.39020560
_cell_angle_beta   109.39020394
_cell_angle_gamma   43.52080119
_symmetry_Int_Tables_number   1
_chemical_formula_structural   Gd3Si3Tc
_chemical_formula_sum   'Gd6 Si6 Tc2'
_cell_volume   290.96889963
_cell_formula_units_Z   2
loop_
 _symmetry_equiv_pos_site_id
 _symmetry_equiv_pos_as_xyz
  1  'x, y, z'
loop_
 _atom_site_type_symbol
 _atom_site_label
 _atom_site_symmetry_multiplicity
 _atom_site_fract_x
 _atom_site_fract_y
 _atom_site_fract_z
 _atom_site_occupancy
  Gd  Gd0  1  0.395194  0.395194  0.078183  1
  Gd  Gd1  1  0.745569  0.745569  0.228511  1
  Gd  Gd2  1  0.520517  0.520517  0.374309  1
  Gd  Gd3  1  0.479483  0.479483  0.625691  1
  Gd  Gd4  1  0.254431  0.254431  0.771489  1
  Gd  Gd5  1  0.604807  0.604807  0.921817  1
  Si  Si6  1  0.108017  0.108017  0.074526  1
  Si  Si7  1  0.053542  0.053542  0.235946  1
  Si  Si8  1  0.864397  0.864397  0.457670  1
  Si  Si9  1  0.135604  0.135604  0.542330  1
  Si  Si10  1  0.946458  0.946458  0.764054  1
  Si  Si11  1  0.891982  0.891982  0.925474  1
  Tc  Tc12  1  0.244814  0.244814  0.411657  1
  Tc  Tc13  1  0.755185  0.755185  0.588343  1
