# generated using pymatgen
data_Tm2CoSi2Ru
_symmetry_space_group_name_H-M   'P 1'
_cell_length_a   4.21320200
_cell_length_b   6.83226276
_cell_length_c   7.01949976
_cell_angle_alpha   90.05381831
_cell_angle_beta   90.00000000
_cell_angle_gamma   90.00000000
_symmetry_Int_Tables_number   1
_chemical_formula_structural   Tm2CoSi2Ru
_chemical_formula_sum   'Tm4 Co2 Si4 Ru2'
_cell_volume   202.06114726
_cell_formula_units_Z   2
loop_
 _symmetry_equiv_pos_site_id
 _symmetry_equiv_pos_as_xyz
  1  'x, y, z'
loop_
 _atom_site_type_symbol
 _atom_site_label
 _atom_site_symmetry_multiplicity
 _atom_site_fract_x
 _atom_site_fract_y
 _atom_site_fract_z
 _atom_site_occupancy
  Tm  Tm0  1  0.250000  0.988591  0.804459  1
  Tm  Tm1  1  0.750000  0.011409  0.195541  1
  Tm  Tm2  1  0.250000  0.486040  0.683207  1
  Tm  Tm3  1  0.750000  0.513960  0.316793  1
  Co  Co4  1  0.750000  0.848394  0.564421  1
  Co  Co5  1  0.250000  0.151606  0.435579  1
  Si  Si6  1  0.250000  0.297847  0.109413  1
  Si  Si7  1  0.750000  0.702153  0.890587  1
  Si  Si8  1  0.250000  0.806816  0.397214  1
  Si  Si9  1  0.750000  0.193184  0.602786  1
  Ru  Ru10  1  0.750000  0.344116  0.932409  1
  Ru  Ru11  1  0.250000  0.655884  0.067591  1
