# generated using pymatgen
data_Tb2Ho3Zr3(Co4P3)4
_symmetry_space_group_name_H-M   'P 1'
_cell_length_a   12.30720600
_cell_length_b   12.30720646
_cell_length_c   3.71792100
_cell_angle_alpha   90.00000000
_cell_angle_beta   90.00000000
_cell_angle_gamma   120.00000414
_symmetry_Int_Tables_number   1
_chemical_formula_structural   Tb2Ho3Zr3(Co4P3)4
_chemical_formula_sum   'Tb2 Ho3 Zr3 Co16 P12'
_cell_volume   487.69659921
_cell_formula_units_Z   1
loop_
 _symmetry_equiv_pos_site_id
 _symmetry_equiv_pos_as_xyz
  1  'x, y, z'
loop_
 _atom_site_type_symbol
 _atom_site_label
 _atom_site_symmetry_multiplicity
 _atom_site_fract_x
 _atom_site_fract_y
 _atom_site_fract_z
 _atom_site_occupancy
  Tb  Tb0  1  0.666667  0.333333  0.000000  1
  Tb  Tb1  1  0.333333  0.666667  0.000000  1
  Ho  Ho2  1  0.818057  0.818057  0.500000  1
  Ho  Ho3  1  0.181943  0.000000  0.500000  1
  Ho  Ho4  1  0.000000  0.181943  0.500000  1
  Zr  Zr5  1  0.441357  0.441357  0.000000  1
  Zr  Zr6  1  0.558643  0.000000  0.000000  1
  Zr  Zr7  1  0.000000  0.558643  0.000000  1
  Co  Co8  1  0.875844  0.354825  0.500000  1
  Co  Co9  1  0.645175  0.521019  0.500000  1
  Co  Co10  1  0.478981  0.124156  0.500000  1
  Co  Co11  1  0.354825  0.875844  0.500000  1
  Co  Co12  1  0.521019  0.645175  0.500000  1
  Co  Co13  1  0.124156  0.478981  0.500000  1
  Co  Co14  1  0.805850  0.178349  0.000000  1
  Co  Co15  1  0.821651  0.627500  0.000000  1
  Co  Co16  1  0.372500  0.194150  0.000000  1
  Co  Co17  1  0.178349  0.805850  0.000000  1
  Co  Co18  1  0.627500  0.821651  0.000000  1
  Co  Co19  1  0.194150  0.372500  0.000000  1
  Co  Co20  1  0.276886  0.276886  0.500000  1
  Co  Co21  1  0.723114  0.000000  0.500000  1
  Co  Co22  1  0.000000  0.723114  0.500000  1
  Co  Co23  1  0.000000  0.000000  0.000000  1
  P  P24  1  0.694005  0.171695  0.500000  1
  P  P25  1  0.828305  0.522311  0.500000  1
  P  P26  1  0.477689  0.305995  0.500000  1
  P  P27  1  0.171695  0.694005  0.500000  1
  P  P28  1  0.522311  0.828305  0.500000  1
  P  P29  1  0.305995  0.477689  0.500000  1
  P  P30  1  0.177848  0.177848  0.000000  1
  P  P31  1  0.822152  0.000000  0.000000  1
  P  P32  1  0.000000  0.822152  0.000000  1
  P  P33  1  0.649202  0.649202  0.000000  1
  P  P34  1  0.350798  0.000000  0.000000  1
  P  P35  1  0.000000  0.350798  0.000000  1
