# generated using pymatgen
data_La14NiIr2Pd3
_symmetry_space_group_name_H-M   'P 1'
_cell_length_a   6.57803323
_cell_length_b   10.31206818
_cell_length_c   10.31206600
_cell_angle_alpha   119.86714783
_cell_angle_beta   90.20039526
_cell_angle_gamma   89.79960513
_symmetry_Int_Tables_number   1
_chemical_formula_structural   La14NiIr2Pd3
_chemical_formula_sum   'La14 Ni1 Ir2 Pd3'
_cell_volume   606.58888192
_cell_formula_units_Z   1
loop_
 _symmetry_equiv_pos_site_id
 _symmetry_equiv_pos_as_xyz
  1  'x, y, z'
loop_
 _atom_site_type_symbol
 _atom_site_label
 _atom_site_symmetry_multiplicity
 _atom_site_fract_x
 _atom_site_fract_y
 _atom_site_fract_z
 _atom_site_occupancy
  La  La0  1  0.471569  0.335425  0.664575  1
  La  La1  1  0.963985  0.670532  0.329468  1
  La  La2  1  0.237846  0.126729  0.873271  1
  La  La3  1  0.246317  0.745572  0.879263  1
  La  La4  1  0.246317  0.120737  0.254428  1
  La  La5  1  0.748123  0.876204  0.123796  1
  La  La6  1  0.734930  0.251605  0.134562  1
  La  La7  1  0.734930  0.865438  0.748395  1
  La  La8  1  0.438341  0.536220  0.463780  1
  La  La9  1  0.442580  0.922575  0.449423  1
  La  La10  1  0.442580  0.550577  0.077425  1
  La  La11  1  0.938344  0.459047  0.540953  1
  La  La12  1  0.940473  0.074892  0.532047  1
  La  La13  1  0.940473  0.467953  0.925108  1
  Ni  Ni14  1  0.197816  0.810705  0.189295  1
  Ir  Ir15  1  0.693974  0.623816  0.813700  1
  Ir  Ir16  1  0.693974  0.186300  0.376184  1
  Pd  Pd17  1  0.195513  0.375832  0.185775  1
  Pd  Pd18  1  0.195513  0.814225  0.624168  1
  Pd  Pd19  1  0.698399  0.185618  0.814382  1
