# generated using pymatgen
data_Tb2Ho3BiPb3
_symmetry_space_group_name_H-M   'P 1'
_cell_length_a   8.26151700
_cell_length_b   8.29056600
_cell_length_c   15.59598100
_cell_angle_alpha   90.00000000
_cell_angle_beta   90.00000000
_cell_angle_gamma   90.00000000
_symmetry_Int_Tables_number   1
_chemical_formula_structural   Tb2Ho3BiPb3
_chemical_formula_sum   'Tb8 Ho12 Bi4 Pb12'
_cell_volume   1068.21009843
_cell_formula_units_Z   4
loop_
 _symmetry_equiv_pos_site_id
 _symmetry_equiv_pos_as_xyz
  1  'x, y, z'
loop_
 _atom_site_type_symbol
 _atom_site_label
 _atom_site_symmetry_multiplicity
 _atom_site_fract_x
 _atom_site_fract_y
 _atom_site_fract_z
 _atom_site_occupancy
  Tb  Tb0  1  0.542877  0.326111  0.897283  1
  Tb  Tb1  1  0.042877  0.173889  0.602717  1
  Tb  Tb2  1  0.457123  0.673889  0.397283  1
  Tb  Tb3  1  0.957123  0.826111  0.102717  1
  Tb  Tb4  1  0.467385  0.673857  0.101668  1
  Tb  Tb5  1  0.967385  0.826143  0.398332  1
  Tb  Tb6  1  0.532615  0.326143  0.601668  1
  Tb  Tb7  1  0.032615  0.173857  0.898332  1
  Ho  Ho8  1  0.378776  0.842372  0.876701  1
  Ho  Ho9  1  0.878776  0.657628  0.623299  1
  Ho  Ho10  1  0.621224  0.157628  0.376701  1
  Ho  Ho11  1  0.121224  0.342372  0.123299  1
  Ho  Ho12  1  0.627822  0.159721  0.122241  1
  Ho  Ho13  1  0.127822  0.340279  0.377759  1
  Ho  Ho14  1  0.372178  0.840279  0.622241  1
  Ho  Ho15  1  0.872178  0.659721  0.877759  1
  Ho  Ho16  1  0.206951  0.501433  0.747919  1
  Ho  Ho17  1  0.706951  0.998567  0.752081  1
  Ho  Ho18  1  0.793049  0.498567  0.247919  1
  Ho  Ho19  1  0.293049  0.001433  0.252081  1
  Bi  Bi20  1  0.280854  0.032197  0.043871  1
  Bi  Bi21  1  0.780854  0.467803  0.456129  1
  Bi  Bi22  1  0.719146  0.967803  0.543871  1
  Bi  Bi23  1  0.219146  0.532197  0.956129  1
  Pb  Pb24  1  0.718349  0.967103  0.956862  1
  Pb  Pb25  1  0.218349  0.532897  0.543138  1
  Pb  Pb26  1  0.281651  0.032897  0.456862  1
  Pb  Pb27  1  0.781651  0.467103  0.043138  1
  Pb  Pb28  1  0.570081  0.627197  0.749199  1
  Pb  Pb29  1  0.070081  0.872803  0.750801  1
  Pb  Pb30  1  0.429919  0.372803  0.249199  1
  Pb  Pb31  1  0.929919  0.127197  0.250801  1
  Pb  Pb32  1  0.348052  0.151882  0.750492  1
  Pb  Pb33  1  0.848052  0.348118  0.749508  1
  Pb  Pb34  1  0.651948  0.848118  0.250492  1
  Pb  Pb35  1  0.151948  0.651882  0.249508  1
