# generated using pymatgen
data_Nd6Ni20As13
_symmetry_space_group_name_H-M   'P 1'
_cell_length_a   13.24696200
_cell_length_b   13.24696233
_cell_length_c   3.98211300
_cell_angle_alpha   90.00000000
_cell_angle_beta   90.00000000
_cell_angle_gamma   119.99999917
_symmetry_Int_Tables_number   1
_chemical_formula_structural   Nd6Ni20As13
_chemical_formula_sum   'Nd6 Ni20 As13'
_cell_volume   605.16918679
_cell_formula_units_Z   1
loop_
 _symmetry_equiv_pos_site_id
 _symmetry_equiv_pos_as_xyz
  1  'x, y, z'
loop_
 _atom_site_type_symbol
 _atom_site_label
 _atom_site_symmetry_multiplicity
 _atom_site_fract_x
 _atom_site_fract_y
 _atom_site_fract_z
 _atom_site_occupancy
  Nd  Nd0  1  0.532664  0.815653  0.000000  1
  Nd  Nd1  1  0.282988  0.467336  0.000000  1
  Nd  Nd2  1  0.184347  0.717012  0.000000  1
  Nd  Nd3  1  0.813376  0.279432  0.500000  1
  Nd  Nd4  1  0.466056  0.186624  0.500000  1
  Nd  Nd5  1  0.720568  0.533944  0.500000  1
  Ni  Ni6  1  0.803124  0.913980  0.000000  1
  Ni  Ni7  1  0.110856  0.196876  0.000000  1
  Ni  Ni8  1  0.086020  0.889144  0.000000  1
  Ni  Ni9  1  0.333333  0.666667  0.500000  1
  Ni  Ni10  1  0.936612  0.076509  0.500000  1
  Ni  Ni11  1  0.139898  0.063388  0.500000  1
  Ni  Ni12  1  0.923491  0.860102  0.500000  1
  Ni  Ni13  1  0.666667  0.333333  0.000000  1
  Ni  Ni14  1  0.560345  0.584259  0.000000  1
  Ni  Ni15  1  0.023914  0.439655  0.000000  1
  Ni  Ni16  1  0.415741  0.976086  0.000000  1
  Ni  Ni17  1  0.690862  0.761943  0.500000  1
  Ni  Ni18  1  0.071081  0.309138  0.500000  1
  Ni  Ni19  1  0.238057  0.928919  0.500000  1
  Ni  Ni20  1  0.975502  0.561779  0.500000  1
  Ni  Ni21  1  0.586277  0.024498  0.500000  1
  Ni  Ni22  1  0.438221  0.413723  0.500000  1
  Ni  Ni23  1  0.756945  0.077886  0.000000  1
  Ni  Ni24  1  0.320942  0.243055  0.000000  1
  Ni  Ni25  1  0.922114  0.679058  0.000000  1
  As  As26  1  0.480283  0.616384  0.500000  1
  As  As27  1  0.136100  0.519717  0.500000  1
  As  As28  1  0.383616  0.863900  0.500000  1
  As  As29  1  0.726446  0.961124  0.500000  1
  As  As30  1  0.234679  0.273554  0.500000  1
  As  As31  1  0.038876  0.765321  0.500000  1
  As  As32  1  0.863398  0.476136  0.000000  1
  As  As33  1  0.612739  0.136602  0.000000  1
  As  As34  1  0.523864  0.387261  0.000000  1
  As  As35  1  0.956130  0.234291  0.000000  1
  As  As36  1  0.278161  0.043870  0.000000  1
  As  As37  1  0.765709  0.721839  0.000000  1
  As  As38  1  0.000000  0.000000  0.000000  1
