# generated using pymatgen
data_Y2Ho8Cd3In5Pd4
_symmetry_space_group_name_H-M   'P 1'
_cell_length_a   3.60118300
_cell_length_b   8.10884409
_cell_length_c   18.31545200
_cell_angle_alpha   89.99011229
_cell_angle_beta   90.00000000
_cell_angle_gamma   90.00000000
_symmetry_Int_Tables_number   1
_chemical_formula_structural   Y2Ho8Cd3In5Pd4
_chemical_formula_sum   'Y2 Ho8 Cd3 In5 Pd4'
_cell_volume   534.83740914
_cell_formula_units_Z   1
loop_
 _symmetry_equiv_pos_site_id
 _symmetry_equiv_pos_as_xyz
  1  'x, y, z'
loop_
 _atom_site_type_symbol
 _atom_site_label
 _atom_site_symmetry_multiplicity
 _atom_site_fract_x
 _atom_site_fract_y
 _atom_site_fract_z
 _atom_site_occupancy
  Y  Y0  1  0.000000  0.500370  0.499453  1
  Y  Y1  1  0.000000  0.999667  0.999909  1
  Ho  Ho2  1  0.000000  0.742352  0.281072  1
  Ho  Ho3  1  0.000000  0.260086  0.720193  1
  Ho  Ho4  1  0.000000  0.756998  0.781084  1
  Ho  Ho5  1  0.000000  0.241878  0.219078  1
  Ho  Ho6  1  0.000000  0.611851  0.083948  1
  Ho  Ho7  1  0.000000  0.388068  0.916813  1
  Ho  Ho8  1  0.000000  0.885075  0.583863  1
  Ho  Ho9  1  0.000000  0.112573  0.415701  1
  Cd  Cd10  1  0.500000  0.711075  0.931354  1
  Cd  Cd11  1  0.500000  0.288945  0.068643  1
  Cd  Cd12  1  0.500000  0.788462  0.431370  1
  In  In13  1  0.500000  0.209574  0.568299  1
  In  In14  1  0.500000  0.579788  0.648797  1
  In  In15  1  0.500000  0.423081  0.351200  1
  In  In16  1  0.500000  0.922738  0.147713  1
  In  In17  1  0.500000  0.077495  0.851762  1
  Pd  Pd18  1  0.500000  0.523857  0.196701  1
  Pd  Pd19  1  0.500000  0.475573  0.803371  1
  Pd  Pd20  1  0.500000  0.976269  0.696450  1
  Pd  Pd21  1  0.500000  0.024226  0.303224  1
