# generated using pymatgen
data_Ba4DyU3F24
_symmetry_space_group_name_H-M   'P 1'
_cell_length_a   7.58351472
_cell_length_b   8.80683045
_cell_length_c   8.94772112
_cell_angle_alpha   102.20039085
_cell_angle_beta   96.51381680
_cell_angle_gamma   114.63457852
_symmetry_Int_Tables_number   1
_chemical_formula_structural   Ba4DyU3F24
_chemical_formula_sum   'Ba4 Dy1 U3 F24'
_cell_volume   517.09125668
_cell_formula_units_Z   1
loop_
 _symmetry_equiv_pos_site_id
 _symmetry_equiv_pos_as_xyz
  1  'x, y, z'
loop_
 _atom_site_type_symbol
 _atom_site_label
 _atom_site_symmetry_multiplicity
 _atom_site_fract_x
 _atom_site_fract_y
 _atom_site_fract_z
 _atom_site_occupancy
  Ba  Ba0  1  0.295988  0.769345  0.545749  1
  Ba  Ba1  1  0.295770  0.309239  0.769671  1
  Ba  Ba2  1  0.708820  0.237836  0.463402  1
  Ba  Ba3  1  0.706601  0.675193  0.228543  1
  Dy  Dy4  1  0.764267  0.219950  0.931374  1
  U  U5  1  0.174630  0.261037  0.276729  1
  U  U6  1  0.240147  0.782463  0.063749  1
  U  U7  1  0.815074  0.742845  0.721900  1
  F  F8  1  0.080568  0.958107  0.699524  1
  F  F9  1  0.406724  0.633374  0.003458  1
  F  F10  1  0.918474  0.037043  0.298164  1
  F  F11  1  0.230772  0.037649  0.147372  1
  F  F12  1  0.765536  0.958810  0.855390  1
  F  F13  1  0.092294  0.762159  0.271027  1
  F  F14  1  0.882858  0.613773  0.500892  1
  F  F15  1  0.129529  0.713767  0.798492  1
  F  F16  1  0.486797  0.624850  0.700540  1
  F  F17  1  0.310228  0.187885  0.470734  1
  F  F18  1  0.106711  0.240159  0.023159  1
  F  F19  1  0.302007  0.544197  0.288631  1
  F  F20  1  0.697791  0.462608  0.710243  1
  F  F21  1  0.597339  0.368882  0.995214  1
  F  F22  1  0.873043  0.282353  0.200894  1
  F  F23  1  0.517729  0.101215  0.711659  1
  F  F24  1  0.491293  0.988905  0.000054  1
  F  F25  1  0.899695  0.760095  0.978475  1
  F  F26  1  0.914949  0.245031  0.732204  1
  F  F27  1  0.480106  0.899829  0.287913  1
  F  F28  1  0.505089  0.373869  0.299891  1
  F  F29  1  0.007389  0.506198  0.001218  1
  F  F30  1  0.117472  0.389675  0.498821  1
  F  F31  1  0.684312  0.811658  0.524914  1
