# generated using pymatgen
data_La8Sc12Si15Hg
_symmetry_space_group_name_H-M   'P 1'
_cell_length_a   7.34526301
_cell_length_b   7.60600739
_cell_length_c   14.45289232
_cell_angle_alpha   89.94921461
_cell_angle_beta   89.69192971
_cell_angle_gamma   90.23207136
_symmetry_Int_Tables_number   1
_chemical_formula_structural   La8Sc12Si15Hg
_chemical_formula_sum   'La8 Sc12 Si15 Hg1'
_cell_volume   807.43736226
_cell_formula_units_Z   1
loop_
 _symmetry_equiv_pos_site_id
 _symmetry_equiv_pos_as_xyz
  1  'x, y, z'
loop_
 _atom_site_type_symbol
 _atom_site_label
 _atom_site_symmetry_multiplicity
 _atom_site_fract_x
 _atom_site_fract_y
 _atom_site_fract_z
 _atom_site_occupancy
  La  La0  1  0.006881  0.168576  0.397598  1
  La  La1  1  0.513186  0.326984  0.397616  1
  La  La2  1  0.488677  0.670859  0.903543  1
  La  La3  1  0.496491  0.677928  0.601500  1
  La  La4  1  0.989657  0.835151  0.598220  1
  La  La5  1  0.987838  0.829081  0.903499  1
  La  La6  1  0.511102  0.329082  0.096626  1
  La  La7  1  0.012129  0.171355  0.097826  1
  Sc  Sc8  1  0.342069  0.168032  0.630123  1
  Sc  Sc9  1  0.665071  0.824651  0.372708  1
  Sc  Sc10  1  0.662962  0.004038  0.752792  1
  Sc  Sc11  1  0.168001  0.677006  0.370280  1
  Sc  Sc12  1  0.829999  0.323846  0.876358  1
  Sc  Sc13  1  0.821831  0.324817  0.627171  1
  Sc  Sc14  1  0.839212  0.505704  0.249080  1
  Sc  Sc15  1  0.340344  0.993932  0.248058  1
  Sc  Sc16  1  0.328371  0.173476  0.875686  1
  Sc  Sc17  1  0.168766  0.675792  0.124802  1
  Sc  Sc18  1  0.670866  0.824681  0.124046  1
  Sc  Sc19  1  0.160108  0.495235  0.755455  1
  Si  Si20  1  0.288619  0.883883  0.751937  1
  Si  Si21  1  0.465200  0.628061  0.247654  1
  Si  Si22  1  0.034340  0.131382  0.751601  1
  Si  Si23  1  0.534673  0.373999  0.752523  1
  Si  Si24  1  0.964384  0.872187  0.248104  1
  Si  Si25  1  0.707853  0.114018  0.247318  1
  Si  Si26  1  0.850581  0.536578  0.039826  1
  Si  Si27  1  0.349951  0.962635  0.040085  1
  Si  Si28  1  0.149380  0.462771  0.961323  1
  Si  Si29  1  0.650772  0.040240  0.537705  1
  Si  Si30  1  0.347601  0.959869  0.460109  1
  Si  Si31  1  0.840063  0.544205  0.457144  1
  Si  Si32  1  0.793549  0.615273  0.752159  1
  Si  Si33  1  0.209148  0.385202  0.248322  1
  Si  Si34  1  0.648921  0.036836  0.960034  1
  Hg  Hg35  1  0.161403  0.452632  0.541169  1
