# generated using pymatgen
data_Nd3Tm(ScPt)4
_symmetry_space_group_name_H-M   'P 1'
_cell_length_a   4.66847000
_cell_length_b   7.08163521
_cell_length_c   8.52297315
_cell_angle_alpha   89.62071706
_cell_angle_beta   90.00000000
_cell_angle_gamma   90.00000000
_symmetry_Int_Tables_number   1
_chemical_formula_structural   Nd3Tm(ScPt)4
_chemical_formula_sum   'Nd3 Tm1 Sc4 Pt4'
_cell_volume   281.76674092
_cell_formula_units_Z   1
loop_
 _symmetry_equiv_pos_site_id
 _symmetry_equiv_pos_as_xyz
  1  'x, y, z'
loop_
 _atom_site_type_symbol
 _atom_site_label
 _atom_site_symmetry_multiplicity
 _atom_site_fract_x
 _atom_site_fract_y
 _atom_site_fract_z
 _atom_site_occupancy
  Nd  Nd0  1  0.250000  0.982906  0.322684  1
  Nd  Nd1  1  0.250000  0.483796  0.175525  1
  Nd  Nd2  1  0.750000  0.016836  0.680951  1
  Tm  Tm3  1  0.750000  0.519901  0.822324  1
  Sc  Sc4  1  0.250000  0.361116  0.578904  1
  Sc  Sc5  1  0.250000  0.859512  0.925625  1
  Sc  Sc6  1  0.750000  0.637429  0.430800  1
  Sc  Sc7  1  0.750000  0.139181  0.069829  1
  Pt  Pt8  1  0.250000  0.243387  0.900752  1
  Pt  Pt9  1  0.250000  0.734674  0.599887  1
  Pt  Pt10  1  0.750000  0.759301  0.087015  1
  Pt  Pt11  1  0.750000  0.261962  0.405704  1
