# generated using pymatgen
data_MgZr2Co5B2
_symmetry_space_group_name_H-M   'P 1'
_cell_length_a   8.86850900
_cell_length_b   8.86850900
_cell_length_c   3.06701000
_cell_angle_alpha   90.00000000
_cell_angle_beta   90.00000000
_cell_angle_gamma   90.00000000
_symmetry_Int_Tables_number   1
_chemical_formula_structural   MgZr2Co5B2
_chemical_formula_sum   'Mg2 Zr4 Co10 B4'
_cell_volume   241.22172243
_cell_formula_units_Z   2
loop_
 _symmetry_equiv_pos_site_id
 _symmetry_equiv_pos_as_xyz
  1  'x, y, z'
loop_
 _atom_site_type_symbol
 _atom_site_label
 _atom_site_symmetry_multiplicity
 _atom_site_fract_x
 _atom_site_fract_y
 _atom_site_fract_z
 _atom_site_occupancy
  Mg  Mg0  1  0.000000  0.000000  0.000000  1
  Mg  Mg1  1  0.500000  0.500000  0.000000  1
  Zr  Zr2  1  0.822984  0.322984  0.000000  1
  Zr  Zr3  1  0.322984  0.177016  0.000000  1
  Zr  Zr4  1  0.677016  0.822984  0.000000  1
  Zr  Zr5  1  0.177016  0.677016  0.000000  1
  Co  Co6  1  0.500000  0.000000  0.500000  1
  Co  Co7  1  0.000000  0.500000  0.500000  1
  Co  Co8  1  0.069728  0.230286  0.500000  1
  Co  Co9  1  0.230286  0.930272  0.500000  1
  Co  Co10  1  0.769714  0.069728  0.500000  1
  Co  Co11  1  0.930272  0.769714  0.500000  1
  Co  Co12  1  0.430272  0.730286  0.500000  1
  Co  Co13  1  0.569728  0.269714  0.500000  1
  Co  Co14  1  0.730286  0.569728  0.500000  1
  Co  Co15  1  0.269714  0.430272  0.500000  1
  B  B16  1  0.618737  0.118737  0.000000  1
  B  B17  1  0.118737  0.381263  0.000000  1
  B  B18  1  0.881263  0.618737  0.000000  1
  B  B19  1  0.381263  0.881263  0.000000  1
