# generated using pymatgen
data_Tb3LuCdRu
_symmetry_space_group_name_H-M   'P 1'
_cell_length_a   9.63014635
_cell_length_b   9.62903620
_cell_length_c   9.62958862
_cell_angle_alpha   59.75878083
_cell_angle_beta   59.76148840
_cell_angle_gamma   59.75887357
_symmetry_Int_Tables_number   1
_chemical_formula_structural   Tb3LuCdRu
_chemical_formula_sum   'Tb12 Lu4 Cd4 Ru4'
_cell_volume   627.96063612
_cell_formula_units_Z   4
loop_
 _symmetry_equiv_pos_site_id
 _symmetry_equiv_pos_as_xyz
  1  'x, y, z'
loop_
 _atom_site_type_symbol
 _atom_site_label
 _atom_site_symmetry_multiplicity
 _atom_site_fract_x
 _atom_site_fract_y
 _atom_site_fract_z
 _atom_site_occupancy
  Tb  Tb0  1  0.561122  0.561109  0.939455  1
  Tb  Tb1  1  0.939878  0.560296  0.939884  1
  Tb  Tb2  1  0.560300  0.939876  0.939855  1
  Tb  Tb3  1  0.939892  0.939889  0.560278  1
  Tb  Tb4  1  0.561107  0.939499  0.561090  1
  Tb  Tb5  1  0.939487  0.561130  0.561079  1
  Tb  Tb6  1  0.189592  0.189601  0.810239  1
  Tb  Tb7  1  0.810264  0.189845  0.810297  1
  Tb  Tb8  1  0.189867  0.810242  0.810287  1
  Tb  Tb9  1  0.810284  0.810240  0.189863  1
  Tb  Tb10  1  0.189575  0.810209  0.189575  1
  Tb  Tb11  1  0.810218  0.189589  0.189597  1
  Lu  Lu12  1  0.344090  0.344098  0.966522  1
  Lu  Lu13  1  0.344026  0.966638  0.344112  1
  Lu  Lu14  1  0.966618  0.344017  0.344072  1
  Lu  Lu15  1  0.345265  0.345194  0.345257  1
  Cd  Cd16  1  0.580015  0.580018  0.259607  1
  Cd  Cd17  1  0.580018  0.259585  0.580020  1
  Cd  Cd18  1  0.259583  0.580021  0.579992  1
  Cd  Cd19  1  0.579778  0.579805  0.579754  1
  Ru  Ru20  1  0.140378  0.140367  0.578099  1
  Ru  Ru21  1  0.140417  0.577996  0.140423  1
  Ru  Ru22  1  0.577990  0.140431  0.140413  1
  Ru  Ru23  1  0.140234  0.140306  0.140230  1
