# generated using pymatgen
data_Nd3Y13Cd4(CoPd)2
_symmetry_space_group_name_H-M   'P 1'
_cell_length_a   9.70150027
_cell_length_b   9.69665802
_cell_length_c   9.72538600
_cell_angle_alpha   59.90194723
_cell_angle_beta   59.91852207
_cell_angle_gamma   60.11048024
_symmetry_Int_Tables_number   1
_chemical_formula_structural   Nd3Y13Cd4(CoPd)2
_chemical_formula_sum   'Nd3 Y13 Cd4 Co2 Pd2'
_cell_volume   646.58040547
_cell_formula_units_Z   1
loop_
 _symmetry_equiv_pos_site_id
 _symmetry_equiv_pos_as_xyz
  1  'x, y, z'
loop_
 _atom_site_type_symbol
 _atom_site_label
 _atom_site_symmetry_multiplicity
 _atom_site_fract_x
 _atom_site_fract_y
 _atom_site_fract_z
 _atom_site_occupancy
  Nd  Nd0  1  0.346592  0.347104  0.361487  1
  Nd  Nd1  1  0.346592  0.347104  0.944816  1
  Nd  Nd2  1  0.340981  0.953062  0.352978  1
  Y  Y3  1  0.951850  0.342797  0.352676  1
  Y  Y4  1  0.821550  0.187893  0.188753  1
  Y  Y5  1  0.187228  0.821113  0.803804  1
  Y  Y6  1  0.187228  0.821113  0.187855  1
  Y  Y7  1  0.821550  0.187893  0.801802  1
  Y  Y8  1  0.186484  0.186532  0.813492  1
  Y  Y9  1  0.810506  0.810690  0.189402  1
  Y  Y10  1  0.934901  0.562842  0.566127  1
  Y  Y11  1  0.563461  0.933958  0.936064  1
  Y  Y12  1  0.563461  0.933958  0.566518  1
  Y  Y13  1  0.934901  0.562842  0.936131  1
  Y  Y14  1  0.563446  0.563085  0.936734  1
  Y  Y15  1  0.934632  0.935108  0.565130  1
  Cd  Cd16  1  0.583040  0.580407  0.579212  1
  Cd  Cd17  1  0.583040  0.580407  0.257342  1
  Cd  Cd18  1  0.586067  0.252675  0.580629  1
  Cd  Cd19  1  0.252586  0.583793  0.581811  1
  Co  Co20  1  0.140804  0.143722  0.141484  1
  Co  Co21  1  0.140804  0.143722  0.573989  1
  Pd  Pd22  1  0.141963  0.574114  0.141962  1
  Pd  Pd23  1  0.576331  0.144063  0.139803  1
