# generated using pymatgen
data_TaNb(SiIr)2
_symmetry_space_group_name_H-M   'P 1'
_cell_length_a   3.81667900
_cell_length_b   6.44746600
_cell_length_c   7.32760300
_cell_angle_alpha   90.00000000
_cell_angle_beta   90.00000000
_cell_angle_gamma   90.00000000
_symmetry_Int_Tables_number   1
_chemical_formula_structural   TaNb(SiIr)2
_chemical_formula_sum   'Ta2 Nb2 Si4 Ir4'
_cell_volume   180.31698111
_cell_formula_units_Z   2
loop_
 _symmetry_equiv_pos_site_id
 _symmetry_equiv_pos_as_xyz
  1  'x, y, z'
loop_
 _atom_site_type_symbol
 _atom_site_label
 _atom_site_symmetry_multiplicity
 _atom_site_fract_x
 _atom_site_fract_y
 _atom_site_fract_z
 _atom_site_occupancy
  Ta  Ta0  1  0.750000  0.024200  0.672885  1
  Ta  Ta1  1  0.250000  0.475800  0.172885  1
  Nb  Nb2  1  0.750000  0.524164  0.828444  1
  Nb  Nb3  1  0.250000  0.975836  0.328444  1
  Si  Si4  1  0.250000  0.231710  0.876052  1
  Si  Si5  1  0.250000  0.731537  0.624029  1
  Si  Si6  1  0.750000  0.768463  0.124029  1
  Si  Si7  1  0.750000  0.268290  0.376052  1
  Ir  Ir8  1  0.250000  0.855586  0.935117  1
  Ir  Ir9  1  0.250000  0.353508  0.563473  1
  Ir  Ir10  1  0.750000  0.644414  0.435117  1
  Ir  Ir11  1  0.750000  0.146492  0.063473  1
