# generated using pymatgen
data_LiYb4AlPt4
_symmetry_space_group_name_H-M   'P 1'
_cell_length_a   5.68412114
_cell_length_b   5.68411940
_cell_length_c   7.83020067
_cell_angle_alpha   78.27499248
_cell_angle_beta   78.27499709
_cell_angle_gamma   58.82995445
_symmetry_Int_Tables_number   1
_chemical_formula_structural   LiYb4AlPt4
_chemical_formula_sum   'Li1 Yb4 Al1 Pt4'
_cell_volume   210.49230047
_cell_formula_units_Z   1
loop_
 _symmetry_equiv_pos_site_id
 _symmetry_equiv_pos_as_xyz
  1  'x, y, z'
loop_
 _atom_site_type_symbol
 _atom_site_label
 _atom_site_symmetry_multiplicity
 _atom_site_fract_x
 _atom_site_fract_y
 _atom_site_fract_z
 _atom_site_occupancy
  Li  Li0  1  0.125413  0.874587  0.750000  1
  Yb  Yb1  1  0.792569  0.505660  0.853113  1
  Yb  Yb2  1  0.494340  0.207431  0.646887  1
  Yb  Yb3  1  0.211354  0.489134  0.151934  1
  Yb  Yb4  1  0.510866  0.788646  0.348066  1
  Al  Al5  1  0.881430  0.118570  0.250000  1
  Pt  Pt6  1  0.996533  0.734834  0.499413  1
  Pt  Pt7  1  0.265166  0.003467  0.000587  1
  Pt  Pt8  1  0.988634  0.266303  0.490489  1
  Pt  Pt9  1  0.733697  0.011366  0.009511  1
