# generated using pymatgen
data_Ta11NbCo8(ReN)4
_symmetry_space_group_name_H-M   'P 1'
_cell_length_a   8.10443647
_cell_length_b   8.10821360
_cell_length_c   8.10821292
_cell_angle_alpha   60.05278448
_cell_angle_beta   60.01540920
_cell_angle_gamma   60.01540605
_symmetry_Int_Tables_number   1
_chemical_formula_structural   Ta11NbCo8(ReN)4
_chemical_formula_sum   'Ta11 Nb1 Co8 Re4 N4'
_cell_volume   376.99212786
_cell_formula_units_Z   1
loop_
 _symmetry_equiv_pos_site_id
 _symmetry_equiv_pos_as_xyz
  1  'x, y, z'
loop_
 _atom_site_type_symbol
 _atom_site_label
 _atom_site_symmetry_multiplicity
 _atom_site_fract_x
 _atom_site_fract_y
 _atom_site_fract_z
 _atom_site_occupancy
  Ta  Ta0  1  0.807569  0.808500  0.191484  1
  Ta  Ta1  1  0.192446  0.191484  0.808500  1
  Ta  Ta2  1  0.807569  0.191484  0.808500  1
  Ta  Ta3  1  0.192446  0.808500  0.191484  1
  Ta  Ta4  1  0.192316  0.807684  0.807684  1
  Ta  Ta5  1  0.807005  0.192995  0.192995  1
  Ta  Ta6  1  0.442410  0.442509  0.057240  1
  Ta  Ta7  1  0.057842  0.057240  0.442509  1
  Ta  Ta8  1  0.442410  0.057240  0.442509  1
  Ta  Ta9  1  0.057842  0.442509  0.057240  1
  Ta  Ta10  1  0.058090  0.441910  0.441910  1
  Nb  Nb11  1  0.440931  0.059069  0.059069  1
  Co  Co12  1  0.735207  0.421546  0.421546  1
  Co  Co13  1  0.421882  0.734029  0.422207  1
  Co  Co14  1  0.421882  0.422207  0.734029  1
  Co  Co15  1  0.421701  0.421546  0.421546  1
  Co  Co16  1  0.515047  0.828105  0.828105  1
  Co  Co17  1  0.828743  0.514603  0.827912  1
  Co  Co18  1  0.828743  0.827912  0.514603  1
  Co  Co19  1  0.828743  0.828105  0.828105  1
  Re  Re20  1  0.125342  0.624881  0.624881  1
  Re  Re21  1  0.625446  0.124703  0.624404  1
  Re  Re22  1  0.625446  0.624404  0.124703  1
  Re  Re23  1  0.624896  0.624881  0.624881  1
  N  N24  1  0.626269  0.125843  0.125843  1
  N  N25  1  0.124865  0.625264  0.125007  1
  N  N26  1  0.124865  0.125007  0.625264  1
  N  N27  1  0.122045  0.125843  0.125843  1
