# generated using pymatgen
data_Th2Np6TiSe17
_symmetry_space_group_name_H-M   'P 1'
_cell_length_a   8.29849005
_cell_length_b   8.29849170
_cell_length_c   10.97771889
_cell_angle_alpha   80.85830627
_cell_angle_beta   80.85830106
_cell_angle_gamma   65.47320154
_symmetry_Int_Tables_number   1
_chemical_formula_structural   Th2Np6TiSe17
_chemical_formula_sum   'Th2 Np6 Ti1 Se17'
_cell_volume   675.38664537
_cell_formula_units_Z   1
loop_
 _symmetry_equiv_pos_site_id
 _symmetry_equiv_pos_as_xyz
  1  'x, y, z'
loop_
 _atom_site_type_symbol
 _atom_site_label
 _atom_site_symmetry_multiplicity
 _atom_site_fract_x
 _atom_site_fract_y
 _atom_site_fract_z
 _atom_site_occupancy
  Th  Th0  1  0.681731  0.681731  0.981578  1
  Th  Th1  1  0.318269  0.318269  0.018422  1
  Np  Np2  1  0.816969  0.298010  0.302180  1
  Np  Np3  1  0.298010  0.816969  0.302180  1
  Np  Np4  1  0.183031  0.701990  0.697820  1
  Np  Np5  1  0.701990  0.183031  0.697820  1
  Np  Np6  1  0.204937  0.204937  0.542022  1
  Np  Np7  1  0.795063  0.795063  0.457978  1
  Ti  Ti8  1  0.000000  0.000000  0.000000  1
  Se  Se9  1  0.825349  0.431205  0.533790  1
  Se  Se10  1  0.431205  0.825349  0.533790  1
  Se  Se11  1  0.174651  0.568795  0.466210  1
  Se  Se12  1  0.568795  0.174651  0.466210  1
  Se  Se13  1  0.941314  0.320662  0.029144  1
  Se  Se14  1  0.320662  0.941314  0.029144  1
  Se  Se15  1  0.058686  0.679338  0.970856  1
  Se  Se16  1  0.679338  0.058686  0.970856  1
  Se  Se17  1  0.208053  0.208053  0.278976  1
  Se  Se18  1  0.791947  0.791947  0.721024  1
  Se  Se19  1  0.060701  0.060701  0.771302  1
  Se  Se20  1  0.939299  0.939299  0.228698  1
  Se  Se21  1  0.304103  0.304103  0.751035  1
  Se  Se22  1  0.695897  0.695897  0.248965  1
  Se  Se23  1  0.520477  0.520477  0.829170  1
  Se  Se24  1  0.479523  0.479523  0.170830  1
  Se  Se25  1  0.000000  0.000000  0.500000  1
