# generated using pymatgen
data_Ti2V2SiC3
_symmetry_space_group_name_H-M   'P 1'
_cell_length_a   3.00905700
_cell_length_b   3.00905555
_cell_length_c   22.09703300
_cell_angle_alpha   90.00000000
_cell_angle_beta   90.00000000
_cell_angle_gamma   119.99998291
_symmetry_Int_Tables_number   1
_chemical_formula_structural   Ti2V2SiC3
_chemical_formula_sum   'Ti4 V4 Si2 C6'
_cell_volume   173.27076435
_cell_formula_units_Z   2
loop_
 _symmetry_equiv_pos_site_id
 _symmetry_equiv_pos_as_xyz
  1  'x, y, z'
loop_
 _atom_site_type_symbol
 _atom_site_label
 _atom_site_symmetry_multiplicity
 _atom_site_fract_x
 _atom_site_fract_y
 _atom_site_fract_z
 _atom_site_occupancy
  Ti  Ti0  1  0.333333  0.666667  0.443658  1
  Ti  Ti1  1  0.666667  0.333333  0.556342  1
  Ti  Ti2  1  0.666667  0.333333  0.943658  1
  Ti  Ti3  1  0.333333  0.666667  0.056342  1
  V  V4  1  0.000000  0.000000  0.335688  1
  V  V5  1  0.000000  0.000000  0.664312  1
  V  V6  1  0.000000  0.000000  0.835688  1
  V  V7  1  0.000000  0.000000  0.164312  1
  Si  Si8  1  0.333333  0.666667  0.250000  1
  Si  Si9  1  0.666667  0.333333  0.750000  1
  C  C10  1  0.000000  0.000000  0.500000  1
  C  C11  1  0.000000  0.000000  0.000000  1
  C  C12  1  0.666667  0.333333  0.384142  1
  C  C13  1  0.333333  0.666667  0.615858  1
  C  C14  1  0.333333  0.666667  0.884142  1
  C  C15  1  0.666667  0.333333  0.115858  1
