# generated using pymatgen
data_Tb3Er7(InSb)3
_symmetry_space_group_name_H-M   'P 1'
_cell_length_a   8.92576731
_cell_length_b   8.90452404
_cell_length_c   6.51849900
_cell_angle_alpha   90.00000000
_cell_angle_beta   90.00000000
_cell_angle_gamma   120.01684011
_symmetry_Int_Tables_number   1
_chemical_formula_structural   Tb3Er7(InSb)3
_chemical_formula_sum   'Tb3 Er7 In3 Sb3'
_cell_volume   448.60156575
_cell_formula_units_Z   1
loop_
 _symmetry_equiv_pos_site_id
 _symmetry_equiv_pos_as_xyz
  1  'x, y, z'
loop_
 _atom_site_type_symbol
 _atom_site_label
 _atom_site_symmetry_multiplicity
 _atom_site_fract_x
 _atom_site_fract_y
 _atom_site_fract_z
 _atom_site_occupancy
  Tb  Tb0  1  0.002623  0.763851  0.750000  1
  Tb  Tb1  1  0.003556  0.238876  0.250000  1
  Tb  Tb2  1  0.761414  0.999807  0.750000  1
  Er  Er3  1  0.763698  0.760160  0.250000  1
  Er  Er4  1  0.240171  0.236456  0.750000  1
  Er  Er5  1  0.237655  0.000146  0.250000  1
  Er  Er6  1  0.330271  0.665992  0.498897  1
  Er  Er7  1  0.664483  0.333749  0.000495  1
  Er  Er8  1  0.664483  0.333749  0.499505  1
  Er  Er9  1  0.330271  0.665992  0.001103  1
  In  In10  1  0.398182  0.000908  0.750000  1
  In  In11  1  0.396857  0.398311  0.250000  1
  In  In12  1  0.998304  0.603088  0.250000  1
  Sb  Sb13  1  0.997668  0.392490  0.750000  1
  Sb  Sb14  1  0.604226  0.606955  0.750000  1
  Sb  Sb15  1  0.606137  0.999471  0.250000  1
