# generated using pymatgen
data_Li2Pr3AlRh3
_symmetry_space_group_name_H-M   'P 1'
_cell_length_a   7.32454854
_cell_length_b   7.25410813
_cell_length_c   4.12795100
_cell_angle_alpha   90.00000000
_cell_angle_beta   90.00000000
_cell_angle_gamma   119.68237504
_symmetry_Int_Tables_number   1
_chemical_formula_structural   Li2Pr3AlRh3
_chemical_formula_sum   'Li2 Pr3 Al1 Rh3'
_cell_volume   190.55097533
_cell_formula_units_Z   1
loop_
 _symmetry_equiv_pos_site_id
 _symmetry_equiv_pos_as_xyz
  1  'x, y, z'
loop_
 _atom_site_type_symbol
 _atom_site_label
 _atom_site_symmetry_multiplicity
 _atom_site_fract_x
 _atom_site_fract_y
 _atom_site_fract_z
 _atom_site_occupancy
  Li  Li0  1  0.768469  0.768202  0.000000  1
  Li  Li1  1  0.231531  0.999733  0.000000  1
  Pr  Pr2  1  0.412129  0.410021  0.500000  1
  Pr  Pr3  1  0.587871  0.997892  0.500000  1
  Pr  Pr4  1  0.000000  0.583532  0.500000  1
  Al  Al5  1  0.000000  0.235235  0.000000  1
  Rh  Rh6  1  0.682088  0.326478  0.000000  1
  Rh  Rh7  1  0.317912  0.644392  0.000000  1
  Rh  Rh8  1  0.000000  0.034515  0.500000  1
