# generated using pymatgen
data_SrSm(H5Rh)2
_symmetry_space_group_name_H-M   'P 1'
_cell_length_a   4.56235300
_cell_length_b   4.91541944
_cell_length_c   12.22281477
_cell_angle_alpha   92.92834845
_cell_angle_beta   90.00000000
_cell_angle_gamma   90.00000000
_symmetry_Int_Tables_number   1
_chemical_formula_structural   SrSm(H5Rh)2
_chemical_formula_sum   'Sr2 Sm2 H20 Rh4'
_cell_volume   273.74943217
_cell_formula_units_Z   2
loop_
 _symmetry_equiv_pos_site_id
 _symmetry_equiv_pos_as_xyz
  1  'x, y, z'
loop_
 _atom_site_type_symbol
 _atom_site_label
 _atom_site_symmetry_multiplicity
 _atom_site_fract_x
 _atom_site_fract_y
 _atom_site_fract_z
 _atom_site_occupancy
  Sr  Sr0  1  0.266342  0.835092  0.145919  1
  Sr  Sr1  1  0.766342  0.664908  0.854081  1
  Sm  Sm2  1  0.297363  0.164771  0.648671  1
  Sm  Sm3  1  0.797363  0.335229  0.351329  1
  H  H4  1  0.547955  0.381164  0.514849  1
  H  H5  1  0.047955  0.118836  0.485151  1
  H  H6  1  0.885320  0.618530  0.040336  1
  H  H7  1  0.385320  0.881470  0.959664  1
  H  H8  1  0.126440  0.000034  0.810900  1
  H  H9  1  0.626440  0.499966  0.189100  1
  H  H10  1  0.346711  0.080402  0.331964  1
  H  H11  1  0.846711  0.419598  0.668036  1
  H  H12  1  0.243530  0.450670  0.836228  1
  H  H13  1  0.743530  0.049330  0.163772  1
  H  H14  1  0.308101  0.570975  0.338184  1
  H  H15  1  0.808101  0.929025  0.661816  1
  H  H16  1  0.590216  0.151420  0.822174  1
  H  H17  1  0.090216  0.348580  0.177826  1
  H  H18  1  0.895444  0.833813  0.326560  1
  H  H19  1  0.395444  0.666187  0.673440  1
  H  H20  1  0.994571  0.132912  0.990508  1
  H  H21  1  0.494571  0.367088  0.009492  1
  H  H22  1  0.501629  0.872470  0.498287  1
  H  H23  1  0.001629  0.627530  0.501713  1
  Rh  Rh24  1  0.309257  0.170625  0.905894  1
  Rh  Rh25  1  0.809257  0.329375  0.094106  1
  Rh  Rh26  1  0.187121  0.852109  0.412781  1
  Rh  Rh27  1  0.687121  0.647891  0.587219  1
