# generated using pymatgen
data_Y13Ho3MgIn3Pt4
_symmetry_space_group_name_H-M   'P 1'
_cell_length_a   9.78495834
_cell_length_b   9.75475627
_cell_length_c   9.75475800
_cell_angle_alpha   60.00000090
_cell_angle_beta   60.10205178
_cell_angle_gamma   60.10204505
_symmetry_Int_Tables_number   1
_chemical_formula_structural   Y13Ho3MgIn3Pt4
_chemical_formula_sum   'Y13 Ho3 Mg1 In3 Pt4'
_cell_volume   659.39412200
_cell_formula_units_Z   1
loop_
 _symmetry_equiv_pos_site_id
 _symmetry_equiv_pos_as_xyz
  1  'x, y, z'
loop_
 _atom_site_type_symbol
 _atom_site_label
 _atom_site_symmetry_multiplicity
 _atom_site_fract_x
 _atom_site_fract_y
 _atom_site_fract_z
 _atom_site_occupancy
  Y  Y0  1  0.195894  0.601369  0.601369  1
  Y  Y1  1  0.058426  0.440859  0.440859  1
  Y  Y2  1  0.438483  0.061303  0.061303  1
  Y  Y3  1  0.438483  0.061303  0.438911  1
  Y  Y4  1  0.058426  0.440859  0.059857  1
  Y  Y5  1  0.438483  0.438911  0.061303  1
  Y  Y6  1  0.058426  0.059857  0.440859  1
  Y  Y7  1  0.185790  0.813678  0.813678  1
  Y  Y8  1  0.813290  0.187576  0.187576  1
  Y  Y9  1  0.813290  0.187576  0.811557  1
  Y  Y10  1  0.185790  0.813678  0.186855  1
  Y  Y11  1  0.813290  0.811557  0.187576  1
  Y  Y12  1  0.185790  0.186855  0.813678  1
  Ho  Ho13  1  0.600292  0.599442  0.599442  1
  Ho  Ho14  1  0.600292  0.599442  0.200823  1
  Ho  Ho15  1  0.600292  0.200823  0.599442  1
  Mg  Mg16  1  0.516034  0.827988  0.827988  1
  In  In17  1  0.832569  0.833391  0.833391  1
  In  In18  1  0.832569  0.833391  0.500649  1
  In  In19  1  0.832569  0.500649  0.833391  1
  Pt  Pt20  1  0.393924  0.392962  0.392962  1
  Pt  Pt21  1  0.393924  0.392962  0.820154  1
  Pt  Pt22  1  0.393924  0.820154  0.392962  1
  Pt  Pt23  1  0.819752  0.393417  0.393417  1
