# generated using pymatgen
data_Pr4Fe5Ru3O20
_symmetry_space_group_name_H-M   'P 1'
_cell_length_a   5.84683200
_cell_length_b   7.77989680
_cell_length_c   8.93143305
_cell_angle_alpha   90.30908470
_cell_angle_beta   90.00000000
_cell_angle_gamma   90.00000000
_symmetry_Int_Tables_number   1
_chemical_formula_structural   Pr4Fe5Ru3O20
_chemical_formula_sum   'Pr4 Fe5 Ru3 O20'
_cell_volume   406.26487850
_cell_formula_units_Z   1
loop_
 _symmetry_equiv_pos_site_id
 _symmetry_equiv_pos_as_xyz
  1  'x, y, z'
loop_
 _atom_site_type_symbol
 _atom_site_label
 _atom_site_symmetry_multiplicity
 _atom_site_fract_x
 _atom_site_fract_y
 _atom_site_fract_z
 _atom_site_occupancy
  Pr  Pr0  1  0.999403  0.361398  0.671180  1
  Pr  Pr1  1  0.999403  0.638602  0.328820  1
  Pr  Pr2  1  0.004359  0.862141  0.829583  1
  Pr  Pr3  1  0.004359  0.137859  0.170417  1
  Fe  Fe4  1  0.502999  0.108537  0.861190  1
  Fe  Fe5  1  0.502999  0.891463  0.138810  1
  Fe  Fe6  1  0.493505  0.597973  0.645768  1
  Fe  Fe7  1  0.493505  0.402027  0.354232  1
  Fe  Fe8  1  0.252585  0.500000  0.000000  1
  Ru  Ru9  1  0.726931  0.000000  0.500000  1
  Ru  Ru10  1  0.749405  0.500000  0.000000  1
  Ru  Ru11  1  0.275219  0.000000  0.500000  1
  O  O12  1  0.255669  0.901741  0.290441  1
  O  O13  1  0.255669  0.098259  0.709559  1
  O  O14  1  0.751807  0.401593  0.206298  1
  O  O15  1  0.751807  0.598407  0.793702  1
  O  O16  1  0.747713  0.096861  0.708692  1
  O  O17  1  0.747713  0.903139  0.291308  1
  O  O18  1  0.241614  0.599753  0.789420  1
  O  O19  1  0.241614  0.400247  0.210580  1
  O  O20  1  0.505041  0.342745  0.929499  1
  O  O21  1  0.505041  0.657255  0.070501  1
  O  O22  1  0.501378  0.829693  0.574025  1
  O  O23  1  0.501378  0.170307  0.425975  1
  O  O24  1  0.274053  0.000000  0.000000  1
  O  O25  1  0.726840  0.500000  0.500000  1
  O  O26  1  0.729623  0.000000  0.000000  1
  O  O27  1  0.267628  0.500000  0.500000  1
  O  O28  1  0.000746  0.150671  0.448954  1
  O  O29  1  0.000746  0.849329  0.551046  1
  O  O30  1  0.994624  0.665416  0.055950  1
  O  O31  1  0.994624  0.334584  0.944050  1
