# generated using pymatgen
data_GdThTc3Ge4
_symmetry_space_group_name_H-M   'P 1'
_cell_length_a   8.35102700
_cell_length_b   5.81318821
_cell_length_c   7.05884100
_cell_angle_alpha   76.29725804
_cell_angle_beta   90.00000000
_cell_angle_gamma   90.00000000
_symmetry_Int_Tables_number   1
_chemical_formula_structural   GdThTc3Ge4
_chemical_formula_sum   'Gd2 Th2 Tc6 Ge8'
_cell_volume   332.92573519
_cell_formula_units_Z   2
loop_
 _symmetry_equiv_pos_site_id
 _symmetry_equiv_pos_as_xyz
  1  'x, y, z'
loop_
 _atom_site_type_symbol
 _atom_site_label
 _atom_site_symmetry_multiplicity
 _atom_site_fract_x
 _atom_site_fract_y
 _atom_site_fract_z
 _atom_site_occupancy
  Gd  Gd0  1  0.434418  0.928859  0.750659  1
  Gd  Gd1  1  0.934418  0.571141  0.249341  1
  Th  Th2  1  0.555485  0.077697  0.246119  1
  Th  Th3  1  0.055485  0.422303  0.753881  1
  Tc  Tc4  1  0.214591  0.122356  0.109328  1
  Tc  Tc5  1  0.714591  0.377644  0.890672  1
  Tc  Tc6  1  0.796491  0.895218  0.888036  1
  Tc  Tc7  1  0.296491  0.604782  0.111964  1
  Tc  Tc8  1  0.001865  0.995462  0.501751  1
  Tc  Tc9  1  0.501865  0.504538  0.498249  1
  Ge  Ge10  1  0.908638  0.110284  0.135684  1
  Ge  Ge11  1  0.408638  0.389716  0.864316  1
  Ge  Ge12  1  0.097408  0.872568  0.885658  1
  Ge  Ge13  1  0.597408  0.627432  0.114342  1
  Ge  Ge14  1  0.743714  0.216638  0.583218  1
  Ge  Ge15  1  0.243714  0.283362  0.416782  1
  Ge  Ge16  1  0.247389  0.772764  0.411061  1
  Ge  Ge17  1  0.747389  0.727236  0.588939  1
