# generated using pymatgen
data_LiErTm(Co3P2)3
_symmetry_space_group_name_H-M   'P 1'
_cell_length_a   3.65957100
_cell_length_b   10.24628500
_cell_length_c   11.80254500
_cell_angle_alpha   90.00000000
_cell_angle_beta   90.00000000
_cell_angle_gamma   90.00000000
_symmetry_Int_Tables_number   1
_chemical_formula_structural   LiErTm(Co3P2)3
_chemical_formula_sum   'Li2 Er2 Tm2 Co18 P12'
_cell_volume   442.56011772
_cell_formula_units_Z   2
loop_
 _symmetry_equiv_pos_site_id
 _symmetry_equiv_pos_as_xyz
  1  'x, y, z'
loop_
 _atom_site_type_symbol
 _atom_site_label
 _atom_site_symmetry_multiplicity
 _atom_site_fract_x
 _atom_site_fract_y
 _atom_site_fract_z
 _atom_site_occupancy
  Li  Li0  1  0.250000  0.702613  0.990846  1
  Li  Li1  1  0.250000  0.797387  0.490846  1
  Er  Er2  1  0.750000  0.420370  0.297718  1
  Er  Er3  1  0.750000  0.079630  0.797718  1
  Tm  Tm4  1  0.250000  0.579085  0.702297  1
  Tm  Tm5  1  0.250000  0.920915  0.202297  1
  Co  Co6  1  0.750000  0.288288  0.008547  1
  Co  Co7  1  0.750000  0.211712  0.508547  1
  Co  Co8  1  0.250000  0.404261  0.486916  1
  Co  Co9  1  0.250000  0.095739  0.986916  1
  Co  Co10  1  0.750000  0.591041  0.515480  1
  Co  Co11  1  0.750000  0.908959  0.015480  1
  Co  Co12  1  0.250000  0.224187  0.174679  1
  Co  Co13  1  0.250000  0.275813  0.674679  1
  Co  Co14  1  0.750000  0.779573  0.826297  1
  Co  Co15  1  0.750000  0.720427  0.326297  1
  Co  Co16  1  0.250000  0.880619  0.698850  1
  Co  Co17  1  0.250000  0.619381  0.198850  1
  Co  Co18  1  0.750000  0.120734  0.299363  1
  Co  Co19  1  0.750000  0.379266  0.799363  1
  Co  Co20  1  0.250000  0.463423  0.931218  1
  Co  Co21  1  0.250000  0.036577  0.431218  1
  Co  Co22  1  0.750000  0.533473  0.066486  1
  Co  Co23  1  0.750000  0.966527  0.566486  1
  P  P24  1  0.250000  0.422415  0.112426  1
  P  P25  1  0.250000  0.077585  0.612426  1
  P  P26  1  0.750000  0.577179  0.883430  1
  P  P27  1  0.750000  0.922821  0.383430  1
  P  P28  1  0.250000  0.267232  0.866791  1
  P  P29  1  0.250000  0.232768  0.366791  1
  P  P30  1  0.750000  0.731208  0.138044  1
  P  P31  1  0.750000  0.768792  0.638044  1
  P  P32  1  0.250000  0.600932  0.393012  1
  P  P33  1  0.250000  0.899068  0.893012  1
  P  P34  1  0.750000  0.396467  0.607604  1
  P  P35  1  0.750000  0.103533  0.107604  1
