# generated using pymatgen
data_LiDy5BeP11Ir18
_symmetry_space_group_name_H-M   'P 1'
_cell_length_a   12.70748951
_cell_length_b   12.72473771
_cell_length_c   3.96239600
_cell_angle_alpha   90.00000000
_cell_angle_beta   90.00000000
_cell_angle_gamma   120.39929193
_symmetry_Int_Tables_number   1
_chemical_formula_structural   LiDy5BeP11Ir18
_chemical_formula_sum   'Li1 Dy5 Be1 P11 Ir18'
_cell_volume   552.63146794
_cell_formula_units_Z   1
loop_
 _symmetry_equiv_pos_site_id
 _symmetry_equiv_pos_as_xyz
  1  'x, y, z'
loop_
 _atom_site_type_symbol
 _atom_site_label
 _atom_site_symmetry_multiplicity
 _atom_site_fract_x
 _atom_site_fract_y
 _atom_site_fract_z
 _atom_site_occupancy
  Li  Li0  1  0.000535  0.444463  0.500000  1
  Dy  Dy1  1  0.341071  0.664547  0.500000  1
  Dy  Dy2  1  0.669738  0.334097  0.500000  1
  Dy  Dy3  1  0.999026  0.811502  0.000000  1
  Dy  Dy4  1  0.186129  0.184810  0.000000  1
  Dy  Dy5  1  0.806753  0.993411  0.000000  1
  Be  Be6  1  0.518216  0.685632  0.000000  1
  P  P7  1  0.001761  0.633532  0.500000  1
  P  P8  1  0.361167  0.365913  0.500000  1
  P  P9  1  0.636154  0.993580  0.500000  1
  P  P10  1  0.313084  0.827510  0.000000  1
  P  P11  1  0.170188  0.484555  0.000000  1
  P  P12  1  0.485460  0.178366  0.000000  1
  P  P13  1  0.693366  0.519916  0.000000  1
  P  P14  1  0.831048  0.314913  0.000000  1
  P  P15  1  0.996333  0.177085  0.500000  1
  P  P16  1  0.818282  0.820518  0.500000  1
  P  P17  1  0.179566  0.001829  0.500000  1
  Ir  Ir18  1  0.509889  0.871147  0.000000  1
  Ir  Ir19  1  0.132283  0.642642  0.000000  1
  Ir  Ir20  1  0.355808  0.484495  0.000000  1
  Ir  Ir21  1  0.495351  0.367761  0.000000  1
  Ir  Ir22  1  0.871486  0.511935  0.000000  1
  Ir  Ir23  1  0.637691  0.134373  0.000000  1
  Ir  Ir24  1  0.540520  0.552954  0.500000  1
  Ir  Ir25  1  0.458806  0.000234  0.500000  1
  Ir  Ir26  1  0.997027  0.278719  0.000000  1
  Ir  Ir27  1  0.712095  0.713383  0.000000  1
  Ir  Ir28  1  0.288401  0.003470  0.000000  1
  Ir  Ir29  1  0.623694  0.804388  0.500000  1
  Ir  Ir30  1  0.197716  0.824552  0.500000  1
  Ir  Ir31  1  0.177756  0.373198  0.500000  1
  Ir  Ir32  1  0.378252  0.184813  0.500000  1
  Ir  Ir33  1  0.801707  0.624807  0.500000  1
  Ir  Ir34  1  0.813747  0.190335  0.500000  1
  Ir  Ir35  1  0.999897  0.000615  0.500000  1
