# generated using pymatgen
data_PrDy9(In2Pd)4
_symmetry_space_group_name_H-M   'P 1'
_cell_length_a   3.66357400
_cell_length_b   8.19359272
_cell_length_c   18.44301000
_cell_angle_alpha   90.16192443
_cell_angle_beta   90.00000000
_cell_angle_gamma   90.00000000
_symmetry_Int_Tables_number   1
_chemical_formula_structural   PrDy9(In2Pd)4
_chemical_formula_sum   'Pr1 Dy9 In8 Pd4'
_cell_volume   553.61698811
_cell_formula_units_Z   1
loop_
 _symmetry_equiv_pos_site_id
 _symmetry_equiv_pos_as_xyz
  1  'x, y, z'
loop_
 _atom_site_type_symbol
 _atom_site_label
 _atom_site_symmetry_multiplicity
 _atom_site_fract_x
 _atom_site_fract_y
 _atom_site_fract_z
 _atom_site_occupancy
  Pr  Pr0  1  0.500000  0.000000  0.000000  1
  Dy  Dy1  1  0.500000  0.241268  0.780319  1
  Dy  Dy2  1  0.500000  0.758732  0.219681  1
  Dy  Dy3  1  0.500000  0.259831  0.281928  1
  Dy  Dy4  1  0.500000  0.740169  0.718072  1
  Dy  Dy5  1  0.500000  0.118074  0.583603  1
  Dy  Dy6  1  0.500000  0.881926  0.416397  1
  Dy  Dy7  1  0.500000  0.378830  0.084093  1
  Dy  Dy8  1  0.500000  0.621170  0.915907  1
  Dy  Dy9  1  0.500000  0.500000  0.500000  1
  In  In10  1  0.000000  0.080592  0.153815  1
  In  In11  1  0.000000  0.919408  0.846185  1
  In  In12  1  0.000000  0.420707  0.650323  1
  In  In13  1  0.000000  0.579293  0.349677  1
  In  In14  1  0.000000  0.207423  0.432564  1
  In  In15  1  0.000000  0.792577  0.567436  1
  In  In16  1  0.000000  0.299289  0.930576  1
  In  In17  1  0.000000  0.700711  0.069424  1
  Pd  Pd18  1  0.000000  0.024700  0.694965  1
  Pd  Pd19  1  0.000000  0.975300  0.305035  1
  Pd  Pd20  1  0.000000  0.474586  0.196600  1
  Pd  Pd21  1  0.000000  0.525414  0.803400  1
