# generated using pymatgen
data_Li4Nd2ErLuSi6
_symmetry_space_group_name_H-M   'P 1'
_cell_length_a   9.30337092
_cell_length_b   9.30337149
_cell_length_c   6.83208100
_cell_angle_alpha   90.00000000
_cell_angle_beta   90.00000000
_cell_angle_gamma   153.50473799
_symmetry_Int_Tables_number   1
_chemical_formula_structural   Li4Nd2ErLuSi6
_chemical_formula_sum   'Li4 Nd2 Er1 Lu1 Si6'
_cell_volume   263.80869459
_cell_formula_units_Z   1
loop_
 _symmetry_equiv_pos_site_id
 _symmetry_equiv_pos_as_xyz
  1  'x, y, z'
loop_
 _atom_site_type_symbol
 _atom_site_label
 _atom_site_symmetry_multiplicity
 _atom_site_fract_x
 _atom_site_fract_y
 _atom_site_fract_z
 _atom_site_occupancy
  Li  Li0  1  0.191166  0.808834  0.058581  1
  Li  Li1  1  0.191166  0.808834  0.441419  1
  Li  Li2  1  0.808080  0.191920  0.940334  1
  Li  Li3  1  0.808080  0.191920  0.559666  1
  Nd  Nd4  1  0.555145  0.444855  0.250000  1
  Nd  Nd5  1  0.445717  0.554283  0.750000  1
  Er  Er6  1  0.345542  0.654458  0.250000  1
  Lu  Lu7  1  0.654191  0.345809  0.750000  1
  Si  Si8  1  0.723989  0.276011  0.250000  1
  Si  Si9  1  0.274878  0.725122  0.750000  1
  Si  Si10  1  0.060181  0.939819  0.924060  1
  Si  Si11  1  0.940842  0.059158  0.075648  1
  Si  Si12  1  0.940842  0.059158  0.424352  1
  Si  Si13  1  0.060181  0.939819  0.575940  1
