# generated using pymatgen
data_Nd3Dy5(HgPt)2
_symmetry_space_group_name_H-M   'P 1'
_cell_length_a   9.76216708
_cell_length_b   9.76216680
_cell_length_c   9.76216600
_cell_angle_alpha   60.00000273
_cell_angle_beta   60.00000366
_cell_angle_gamma   60.00000151
_symmetry_Int_Tables_number   1
_chemical_formula_structural   Nd3Dy5(HgPt)2
_chemical_formula_sum   'Nd6 Dy10 Hg4 Pt4'
_cell_volume   657.84514958
_cell_formula_units_Z   2
loop_
 _symmetry_equiv_pos_site_id
 _symmetry_equiv_pos_as_xyz
  1  'x, y, z'
loop_
 _atom_site_type_symbol
 _atom_site_label
 _atom_site_symmetry_multiplicity
 _atom_site_fract_x
 _atom_site_fract_y
 _atom_site_fract_z
 _atom_site_occupancy
  Nd  Nd0  1  0.938762  0.561238  0.561238  1
  Nd  Nd1  1  0.561238  0.938762  0.938762  1
  Nd  Nd2  1  0.561238  0.938762  0.561238  1
  Nd  Nd3  1  0.938762  0.561238  0.938762  1
  Nd  Nd4  1  0.561238  0.561238  0.938762  1
  Nd  Nd5  1  0.938762  0.938762  0.561238  1
  Dy  Dy6  1  0.352180  0.352180  0.352180  1
  Dy  Dy7  1  0.352180  0.352180  0.943460  1
  Dy  Dy8  1  0.352180  0.943460  0.352180  1
  Dy  Dy9  1  0.943460  0.352180  0.352180  1
  Dy  Dy10  1  0.811111  0.188889  0.188889  1
  Dy  Dy11  1  0.188889  0.811111  0.811111  1
  Dy  Dy12  1  0.188889  0.811111  0.188889  1
  Dy  Dy13  1  0.811111  0.188889  0.811111  1
  Dy  Dy14  1  0.188889  0.188889  0.811111  1
  Dy  Dy15  1  0.811111  0.811111  0.188889  1
  Hg  Hg16  1  0.583392  0.583392  0.583392  1
  Hg  Hg17  1  0.583392  0.583392  0.249824  1
  Hg  Hg18  1  0.583392  0.249824  0.583392  1
  Hg  Hg19  1  0.249824  0.583392  0.583392  1
  Pt  Pt20  1  0.143435  0.143435  0.143435  1
  Pt  Pt21  1  0.143435  0.143435  0.569695  1
  Pt  Pt22  1  0.143435  0.569695  0.143435  1
  Pt  Pt23  1  0.569695  0.143435  0.143435  1
