# generated using pymatgen
data_TbHo7(ThRh)6
_symmetry_space_group_name_H-M   'P 1'
_cell_length_a   9.87829400
_cell_length_b   9.77082851
_cell_length_c   6.35442804
_cell_angle_alpha   90.08147238
_cell_angle_beta   90.00000000
_cell_angle_gamma   120.36450280
_symmetry_Int_Tables_number   1
_chemical_formula_structural   TbHo7(ThRh)6
_chemical_formula_sum   'Tb1 Ho7 Th6 Rh6'
_cell_volume   529.19160781
_cell_formula_units_Z   1
loop_
 _symmetry_equiv_pos_site_id
 _symmetry_equiv_pos_as_xyz
  1  'x, y, z'
loop_
 _atom_site_type_symbol
 _atom_site_label
 _atom_site_symmetry_multiplicity
 _atom_site_fract_x
 _atom_site_fract_y
 _atom_site_fract_z
 _atom_site_occupancy
  Tb  Tb0  1  0.332912  0.665826  0.458969  1
  Ho  Ho1  1  0.872859  0.745719  0.741660  1
  Ho  Ho2  1  0.540536  0.463193  0.444971  1
  Ho  Ho3  1  0.922657  0.463193  0.444971  1
  Ho  Ho4  1  0.538872  0.077743  0.444931  1
  Ho  Ho5  1  0.462102  0.540383  0.940641  1
  Ho  Ho6  1  0.078280  0.540383  0.940641  1
  Ho  Ho7  1  0.460872  0.921747  0.941084  1
  Th  Th8  1  0.666757  0.333512  0.960269  1
  Th  Th9  1  0.126613  0.869316  0.243133  1
  Th  Th10  1  0.742703  0.869316  0.243133  1
  Th  Th11  1  0.128847  0.257694  0.242281  1
  Th  Th12  1  0.869799  0.125331  0.739742  1
  Th  Th13  1  0.255532  0.125331  0.739742  1
  Rh  Rh14  1  0.813580  0.185580  0.195891  1
  Rh  Rh15  1  0.371998  0.185580  0.195891  1
  Rh  Rh16  1  0.813652  0.627306  0.196671  1
  Rh  Rh17  1  0.190898  0.818650  0.693738  1
  Rh  Rh18  1  0.627753  0.818650  0.693738  1
  Rh  Rh19  1  0.182774  0.365547  0.701441  1
