# generated using pymatgen
data_PrDy3Y(FeB3)2
_symmetry_space_group_name_H-M   'P 1'
_cell_length_a   5.43940821
_cell_length_b   5.43940768
_cell_length_c   8.31471625
_cell_angle_alpha   70.90743105
_cell_angle_beta   70.90743525
_cell_angle_gamma   59.99998870
_symmetry_Int_Tables_number   1
_chemical_formula_structural   PrDy3Y(FeB3)2
_chemical_formula_sum   'Pr1 Dy3 Y1 Fe2 B6'
_cell_volume   197.26909889
_cell_formula_units_Z   1
loop_
 _symmetry_equiv_pos_site_id
 _symmetry_equiv_pos_as_xyz
  1  'x, y, z'
loop_
 _atom_site_type_symbol
 _atom_site_label
 _atom_site_symmetry_multiplicity
 _atom_site_fract_x
 _atom_site_fract_y
 _atom_site_fract_z
 _atom_site_occupancy
  Pr  Pr0  1  0.999935  0.999935  0.000195  1
  Dy  Dy1  1  0.749752  0.749752  0.750744  1
  Dy  Dy2  1  0.250239  0.250239  0.249284  1
  Dy  Dy3  1  0.582761  0.582761  0.251717  1
  Y  Y4  1  0.417153  0.417153  0.748541  1
  Fe  Fe5  1  0.882968  0.882968  0.351096  1
  Fe  Fe6  1  0.117034  0.117034  0.648900  1
  B  B7  1  0.499998  0.167569  0.499921  1
  B  B8  1  0.832512  0.499998  0.499921  1
  B  B9  1  0.167569  0.832512  0.499921  1
  B  B10  1  0.167569  0.499998  0.499921  1
  B  B11  1  0.832512  0.167569  0.499921  1
  B  B12  1  0.499998  0.832512  0.499921  1
