# generated using pymatgen
data_Hf12Mn3Si12Pt
_symmetry_space_group_name_H-M   'P 1'
_cell_length_a   3.80380500
_cell_length_b   10.37182708
_cell_length_c   11.68456811
_cell_angle_alpha   90.05113381
_cell_angle_beta   89.99999510
_cell_angle_gamma   90.00000000
_symmetry_Int_Tables_number   1
_chemical_formula_structural   Hf12Mn3Si12Pt
_chemical_formula_sum   'Hf12 Mn3 Si12 Pt1'
_cell_volume   460.98416141
_cell_formula_units_Z   1
loop_
 _symmetry_equiv_pos_site_id
 _symmetry_equiv_pos_as_xyz
  1  'x, y, z'
loop_
 _atom_site_type_symbol
 _atom_site_label
 _atom_site_symmetry_multiplicity
 _atom_site_fract_x
 _atom_site_fract_y
 _atom_site_fract_z
 _atom_site_occupancy
  Hf  Hf0  1  0.249999  0.877943  0.023814  1
  Hf  Hf1  1  0.250000  0.623690  0.518492  1
  Hf  Hf2  1  0.750000  0.123790  0.980255  1
  Hf  Hf3  1  0.750001  0.377158  0.479937  1
  Hf  Hf4  1  0.250000  0.929903  0.595333  1
  Hf  Hf5  1  0.250000  0.570737  0.101364  1
  Hf  Hf6  1  0.750000  0.071062  0.401098  1
  Hf  Hf7  1  0.750000  0.429169  0.900653  1
  Hf  Hf8  1  0.250000  0.653102  0.801665  1
  Hf  Hf9  1  0.249999  0.840776  0.300487  1
  Hf  Hf10  1  0.750000  0.337299  0.199792  1
  Hf  Hf11  1  0.750000  0.161360  0.698443  1
  Mn  Mn12  1  0.249999  0.382936  0.678125  1
  Mn  Mn13  1  0.249998  0.120032  0.178459  1
  Mn  Mn14  1  0.750002  0.618530  0.322099  1
  Si  Si15  1  0.250002  0.023833  0.826583  1
  Si  Si16  1  0.250001  0.482545  0.325196  1
  Si  Si17  1  0.749998  0.985231  0.174658  1
  Si  Si18  1  0.749999  0.515243  0.674445  1
  Si  Si19  1  0.250000  0.254320  0.840843  1
  Si  Si20  1  0.250000  0.247907  0.342681  1
  Si  Si21  1  0.749999  0.748877  0.158355  1
  Si  Si22  1  0.750001  0.746390  0.654168  1
  Si  Si23  1  0.250000  0.195089  0.542001  1
  Si  Si24  1  0.250000  0.307229  0.041915  1
  Si  Si25  1  0.749999  0.806981  0.457278  1
  Si  Si26  1  0.750000  0.686860  0.961457  1
  Pt  Pt27  1  0.750002  0.882010  0.820401  1
