# generated using pymatgen
data_La2Tb3Ir2
_symmetry_space_group_name_H-M   'P 1'
_cell_length_a   6.59071489
_cell_length_b   7.26296136
_cell_length_c   8.92371569
_cell_angle_alpha   96.73352016
_cell_angle_beta   111.67127181
_cell_angle_gamma   89.99999756
_symmetry_Int_Tables_number   1
_chemical_formula_structural   La2Tb3Ir2
_chemical_formula_sum   'La4 Tb6 Ir4'
_cell_volume   393.79638992
_cell_formula_units_Z   2
loop_
 _symmetry_equiv_pos_site_id
 _symmetry_equiv_pos_as_xyz
  1  'x, y, z'
loop_
 _atom_site_type_symbol
 _atom_site_label
 _atom_site_symmetry_multiplicity
 _atom_site_fract_x
 _atom_site_fract_y
 _atom_site_fract_z
 _atom_site_occupancy
  La  La0  1  0.979498  0.917172  0.192677  1
  La  La1  1  0.786820  0.582828  0.807323  1
  La  La2  1  0.020502  0.082828  0.807323  1
  La  La3  1  0.213180  0.417172  0.192677  1
  Tb  Tb4  1  0.641551  0.817250  0.433200  1
  Tb  Tb5  1  0.208351  0.682750  0.566800  1
  Tb  Tb6  1  0.358449  0.182750  0.566800  1
  Tb  Tb7  1  0.791649  0.317250  0.433200  1
  Tb  Tb8  1  0.429185  0.750000  0.000000  1
  Tb  Tb9  1  0.570815  0.250000  0.000000  1
  Ir  Ir10  1  0.815448  0.577566  0.227536  1
  Ir  Ir11  1  0.587912  0.922434  0.772464  1
  Ir  Ir12  1  0.184552  0.422434  0.772464  1
  Ir  Ir13  1  0.412088  0.077566  0.227536  1
