# generated using pymatgen
data_La3ThZn3CuSn4
_symmetry_space_group_name_H-M   'P 1'
_cell_length_a   4.59587400
_cell_length_b   4.59587381
_cell_length_c   16.89562800
_cell_angle_alpha   90.00000000
_cell_angle_beta   90.00000000
_cell_angle_gamma   119.99998694
_symmetry_Int_Tables_number   1
_chemical_formula_structural   La3ThZn3CuSn4
_chemical_formula_sum   'La3 Th1 Zn3 Cu1 Sn4'
_cell_volume   309.05888783
_cell_formula_units_Z   1
loop_
 _symmetry_equiv_pos_site_id
 _symmetry_equiv_pos_as_xyz
  1  'x, y, z'
loop_
 _atom_site_type_symbol
 _atom_site_label
 _atom_site_symmetry_multiplicity
 _atom_site_fract_x
 _atom_site_fract_y
 _atom_site_fract_z
 _atom_site_occupancy
  La  La0  1  0.000000  0.000000  0.249494  1
  La  La1  1  0.000000  0.000000  0.501294  1
  La  La2  1  0.000000  0.000000  0.994912  1
  Th  Th3  1  0.000000  0.000000  0.754859  1
  Zn  Zn4  1  0.666667  0.333333  0.661926  1
  Zn  Zn5  1  0.333333  0.666667  0.154664  1
  Zn  Zn6  1  0.333333  0.666667  0.344019  1
  Cu  Cu7  1  0.666667  0.333333  0.841788  1
  Sn  Sn8  1  0.666667  0.333333  0.114494  1
  Sn  Sn9  1  0.666667  0.333333  0.385110  1
  Sn  Sn10  1  0.333333  0.666667  0.877851  1
  Sn  Sn11  1  0.333333  0.666667  0.619591  1
