# generated using pymatgen
data_Th8Si12MoPd3
_symmetry_space_group_name_H-M   'P 1'
_cell_length_a   8.32608000
_cell_length_b   8.32608054
_cell_length_c   8.42523500
_cell_angle_alpha   90.00000000
_cell_angle_beta   90.00000000
_cell_angle_gamma   119.99998989
_symmetry_Int_Tables_number   1
_chemical_formula_structural   Th8Si12MoPd3
_chemical_formula_sum   'Th8 Si12 Mo1 Pd3'
_cell_volume   505.81754154
_cell_formula_units_Z   1
loop_
 _symmetry_equiv_pos_site_id
 _symmetry_equiv_pos_as_xyz
  1  'x, y, z'
loop_
 _atom_site_type_symbol
 _atom_site_label
 _atom_site_symmetry_multiplicity
 _atom_site_fract_x
 _atom_site_fract_y
 _atom_site_fract_z
 _atom_site_occupancy
  Th  Th0  1  0.503570  0.496430  0.755877  1
  Th  Th1  1  0.503841  0.496159  0.244061  1
  Th  Th2  1  0.992858  0.496430  0.755877  1
  Th  Th3  1  0.992319  0.496159  0.244061  1
  Th  Th4  1  0.503570  0.007142  0.755877  1
  Th  Th5  1  0.503841  0.007681  0.244061  1
  Th  Th6  1  0.000000  0.000000  0.748709  1
  Th  Th7  1  0.000000  0.000000  0.251286  1
  Si  Si8  1  0.835518  0.164482  0.999714  1
  Si  Si9  1  0.164358  0.835642  0.000232  1
  Si  Si10  1  0.328965  0.164482  0.999714  1
  Si  Si11  1  0.165566  0.834434  0.499775  1
  Si  Si12  1  0.671284  0.835642  0.000232  1
  Si  Si13  1  0.834586  0.165414  0.500208  1
  Si  Si14  1  0.835518  0.671035  0.999714  1
  Si  Si15  1  0.668867  0.834434  0.499775  1
  Si  Si16  1  0.164358  0.328716  0.000232  1
  Si  Si17  1  0.330830  0.165414  0.500208  1
  Si  Si18  1  0.165566  0.331133  0.499775  1
  Si  Si19  1  0.834586  0.669170  0.500208  1
  Mo  Mo20  1  0.666667  0.333333  0.999887  1
  Pd  Pd21  1  0.333333  0.666667  0.000361  1
  Pd  Pd22  1  0.333333  0.666667  0.499705  1
  Pd  Pd23  1  0.666667  0.333333  0.500451  1
