# generated using pymatgen
data_Nd2Cr(MoO6)2
_symmetry_space_group_name_H-M   'P 1'
_cell_length_a   7.16103465
_cell_length_b   7.16103445
_cell_length_c   11.29647400
_cell_angle_alpha   79.99472057
_cell_angle_beta   79.99471568
_cell_angle_gamma   112.92501034
_symmetry_Int_Tables_number   1
_chemical_formula_structural   Nd2Cr(MoO6)2
_chemical_formula_sum   'Nd4 Cr2 Mo4 O24'
_cell_volume   506.46565651
_cell_formula_units_Z   2
loop_
 _symmetry_equiv_pos_site_id
 _symmetry_equiv_pos_as_xyz
  1  'x, y, z'
loop_
 _atom_site_type_symbol
 _atom_site_label
 _atom_site_symmetry_multiplicity
 _atom_site_fract_x
 _atom_site_fract_y
 _atom_site_fract_z
 _atom_site_occupancy
  Nd  Nd0  1  0.196018  0.453318  0.091085  1
  Nd  Nd1  1  0.546682  0.803982  0.408915  1
  Nd  Nd2  1  0.803982  0.546682  0.908915  1
  Nd  Nd3  1  0.453318  0.196018  0.591085  1
  Cr  Cr4  1  0.618930  0.381070  0.250000  1
  Cr  Cr5  1  0.381070  0.618930  0.750000  1
  Mo  Mo6  1  0.000926  0.293168  0.458025  1
  Mo  Mo7  1  0.706832  0.999074  0.041975  1
  Mo  Mo8  1  0.999074  0.706832  0.541975  1
  Mo  Mo9  1  0.293168  0.000926  0.958025  1
  O  O10  1  0.521847  0.123658  0.279392  1
  O  O11  1  0.876342  0.478153  0.220608  1
  O  O12  1  0.478153  0.876342  0.720608  1
  O  O13  1  0.123658  0.521847  0.779392  1
  O  O14  1  0.554103  0.468551  0.120116  1
  O  O15  1  0.531449  0.445897  0.379884  1
  O  O16  1  0.445897  0.531449  0.879884  1
  O  O17  1  0.468551  0.554103  0.620116  1
  O  O18  1  0.120682  0.291442  0.305426  1
  O  O19  1  0.708558  0.879318  0.194574  1
  O  O20  1  0.879318  0.708558  0.694574  1
  O  O21  1  0.291442  0.120682  0.805426  1
  O  O22  1  0.721965  0.108435  0.475017  1
  O  O23  1  0.891565  0.278035  0.024983  1
  O  O24  1  0.278035  0.891565  0.524983  1
  O  O25  1  0.108435  0.721965  0.975017  1
  O  O26  1  0.407085  0.825724  0.071784  1
  O  O27  1  0.174276  0.592915  0.428216  1
  O  O28  1  0.592915  0.174276  0.928216  1
  O  O29  1  0.825724  0.407085  0.571784  1
  O  O30  1  0.891735  0.819931  0.438010  1
  O  O31  1  0.180069  0.108265  0.061990  1
  O  O32  1  0.108265  0.180069  0.561990  1
  O  O33  1  0.819931  0.891735  0.938010  1
