# generated using pymatgen
data_SiF8
_symmetry_space_group_name_H-M   'P 1'
_cell_length_a   6.05754377
_cell_length_b   6.05754358
_cell_length_c   6.05754472
_cell_angle_alpha   120.33277875
_cell_angle_beta   120.33277470
_cell_angle_gamma   89.42457133
_symmetry_Int_Tables_number   1
_chemical_formula_structural   SiF8
_chemical_formula_sum   'Si1 F8'
_cell_volume   156.37273455
_cell_formula_units_Z   1
loop_
 _symmetry_equiv_pos_site_id
 _symmetry_equiv_pos_as_xyz
  1  'x, y, z'
loop_
 _atom_site_type_symbol
 _atom_site_label
 _atom_site_symmetry_multiplicity
 _atom_site_fract_x
 _atom_site_fract_y
 _atom_site_fract_z
 _atom_site_occupancy
  Si  Si0  1  0.000000  0.000000  0.000000  1
  F  F1  1  0.417298  0.417298  0.000000  1
  F  F2  1  0.582702  0.582702  0.000000  1
  F  F3  1  0.667148  0.167148  0.500000  1
  F  F4  1  0.832852  0.332852  0.500000  1
  F  F5  1  0.106848  0.320708  0.213859  1
  F  F6  1  0.106848  0.892989  0.786141  1
  F  F7  1  0.679292  0.893152  0.786141  1
  F  F8  1  0.107011  0.893152  0.213859  1
