# generated using pymatgen
data_Y3Sc2SnSb2
_symmetry_space_group_name_H-M   'P 1'
_cell_length_a   6.15895400
_cell_length_b   8.79546105
_cell_length_c   8.79451834
_cell_angle_alpha   119.70227897
_cell_angle_beta   90.00021236
_cell_angle_gamma   89.99941387
_symmetry_Int_Tables_number   1
_chemical_formula_structural   Y3Sc2SnSb2
_chemical_formula_sum   'Y6 Sc4 Sn2 Sb4'
_cell_volume   413.81226381
_cell_formula_units_Z   2
loop_
 _symmetry_equiv_pos_site_id
 _symmetry_equiv_pos_as_xyz
  1  'x, y, z'
loop_
 _atom_site_type_symbol
 _atom_site_label
 _atom_site_symmetry_multiplicity
 _atom_site_fract_x
 _atom_site_fract_y
 _atom_site_fract_z
 _atom_site_occupancy
  Y  Y0  1  0.750004  0.244501  0.001519  1
  Y  Y1  1  0.750000  0.753642  0.755740  1
  Y  Y2  1  0.749999  0.999537  0.243003  1
  Y  Y3  1  0.249997  0.756466  0.999291  1
  Y  Y4  1  0.250005  0.245058  0.243737  1
  Y  Y5  1  0.250006  0.000653  0.754991  1
  Sc  Sc6  1  0.499590  0.333565  0.667320  1
  Sc  Sc7  1  0.499907  0.666388  0.332777  1
  Sc  Sc8  1  0.000095  0.666383  0.332779  1
  Sc  Sc9  1  0.000408  0.333562  0.667327  1
  Sn  Sn10  1  0.749993  0.602940  0.000705  1
  Sn  Sn11  1  0.749992  0.395325  0.396352  1
  Sb  Sb12  1  0.750001  0.000270  0.605370  1
  Sb  Sb13  1  0.250003  0.396555  0.999453  1
  Sb  Sb14  1  0.250002  0.605033  0.604830  1
  Sb  Sb15  1  0.250002  0.000123  0.394805  1
