# generated using pymatgen
data_V8Re3Mo4Os
_symmetry_space_group_name_H-M   'P 1'
_cell_length_a   6.10277700
_cell_length_b   4.31821300
_cell_length_c   8.64334500
_cell_angle_alpha   90.00000000
_cell_angle_beta   90.00001989
_cell_angle_gamma   90.00000000
_symmetry_Int_Tables_number   1
_chemical_formula_structural   V8Re3Mo4Os
_chemical_formula_sum   'V8 Re3 Mo4 Os1'
_cell_volume   227.77885713
_cell_formula_units_Z   1
loop_
 _symmetry_equiv_pos_site_id
 _symmetry_equiv_pos_as_xyz
  1  'x, y, z'
loop_
 _atom_site_type_symbol
 _atom_site_label
 _atom_site_symmetry_multiplicity
 _atom_site_fract_x
 _atom_site_fract_y
 _atom_site_fract_z
 _atom_site_occupancy
  V  V0  1  0.000165  0.750000  0.125095  1
  V  V1  1  0.499821  0.750000  0.125109  1
  V  V2  1  0.999342  0.249999  0.375001  1
  V  V3  1  0.500724  0.249999  0.375001  1
  V  V4  1  0.499826  0.750000  0.624892  1
  V  V5  1  0.000168  0.750000  0.624903  1
  V  V6  1  0.499182  0.249999  0.874999  1
  V  V7  1  0.000846  0.249999  0.875000  1
  Re  Re8  1  0.249894  0.249999  0.124167  1
  Re  Re9  1  0.750044  0.750000  0.375000  1
  Re  Re10  1  0.249898  0.249999  0.625832  1
  Mo  Mo11  1  0.750039  0.249999  0.124604  1
  Mo  Mo12  1  0.249994  0.750000  0.375000  1
  Mo  Mo13  1  0.750044  0.249999  0.625396  1
  Mo  Mo14  1  0.249981  0.750000  0.874998  1
  Os  Os15  1  0.750032  0.750000  0.875001  1
