# generated using pymatgen
data_MgScSnB2Ir5
_symmetry_space_group_name_H-M   'P 1'
_cell_length_a   9.55916715
_cell_length_b   9.55916715
_cell_length_c   3.11405800
_cell_angle_alpha   90.00000000
_cell_angle_beta   90.00000000
_cell_angle_gamma   90.10678564
_symmetry_Int_Tables_number   1
_chemical_formula_structural   MgScSnB2Ir5
_chemical_formula_sum   'Mg2 Sc2 Sn2 B4 Ir10'
_cell_volume   284.55489066
_cell_formula_units_Z   2
loop_
 _symmetry_equiv_pos_site_id
 _symmetry_equiv_pos_as_xyz
  1  'x, y, z'
loop_
 _atom_site_type_symbol
 _atom_site_label
 _atom_site_symmetry_multiplicity
 _atom_site_fract_x
 _atom_site_fract_y
 _atom_site_fract_z
 _atom_site_occupancy
  Mg  Mg0  1  0.324538  0.175462  0.000000  1
  Mg  Mg1  1  0.675462  0.824538  0.000000  1
  Sc  Sc2  1  0.823813  0.323813  0.000000  1
  Sc  Sc3  1  0.176187  0.676187  0.000000  1
  Sn  Sn4  1  0.500000  0.500000  0.000000  1
  Sn  Sn5  1  0.000000  0.000000  0.000000  1
  B  B6  1  0.621371  0.121371  0.000000  1
  B  B7  1  0.378629  0.878629  0.000000  1
  B  B8  1  0.122399  0.377601  0.000000  1
  B  B9  1  0.877601  0.622399  0.000000  1
  Ir  Ir10  1  0.500000  0.000000  0.500000  1
  Ir  Ir11  1  0.000000  0.500000  0.500000  1
  Ir  Ir12  1  0.723937  0.569148  0.500000  1
  Ir  Ir13  1  0.276063  0.430852  0.500000  1
  Ir  Ir14  1  0.222248  0.925957  0.500000  1
  Ir  Ir15  1  0.777752  0.074043  0.500000  1
  Ir  Ir16  1  0.425957  0.722248  0.500000  1
  Ir  Ir17  1  0.574043  0.277752  0.500000  1
  Ir  Ir18  1  0.069148  0.223937  0.500000  1
  Ir  Ir19  1  0.930852  0.776063  0.500000  1
