# generated using pymatgen
data_CeErRe4(SiC)2
_symmetry_space_group_name_H-M   'P 1'
_cell_length_a   5.81621628
_cell_length_b   5.81621792
_cell_length_c   7.30924700
_cell_angle_alpha   90.00000000
_cell_angle_beta   90.00000000
_cell_angle_gamma   140.09732453
_symmetry_Int_Tables_number   1
_chemical_formula_structural   CeErRe4(SiC)2
_chemical_formula_sum   'Ce1 Er1 Re4 Si2 C2'
_cell_volume   158.61369027
_cell_formula_units_Z   1
loop_
 _symmetry_equiv_pos_site_id
 _symmetry_equiv_pos_as_xyz
  1  'x, y, z'
loop_
 _atom_site_type_symbol
 _atom_site_label
 _atom_site_symmetry_multiplicity
 _atom_site_fract_x
 _atom_site_fract_y
 _atom_site_fract_z
 _atom_site_occupancy
  Ce  Ce0  1  0.456483  0.543517  0.750000  1
  Er  Er1  1  0.542610  0.457390  0.250000  1
  Re  Re2  1  0.826558  0.173442  0.063651  1
  Re  Re3  1  0.173344  0.826656  0.939690  1
  Re  Re4  1  0.173344  0.826656  0.560310  1
  Re  Re5  1  0.826558  0.173442  0.436349  1
  Si  Si6  1  0.264519  0.735481  0.250000  1
  Si  Si7  1  0.734998  0.265002  0.750000  1
  C  C8  1  0.000793  0.999207  0.005799  1
  C  C9  1  0.000793  0.999207  0.494201  1
