# generated using pymatgen
data_Tb2TmTh11Os6
_symmetry_space_group_name_H-M   'P 1'
_cell_length_a   9.88753246
_cell_length_b   9.98408131
_cell_length_c   6.37523858
_cell_angle_alpha   90.06521091
_cell_angle_beta   90.00930246
_cell_angle_gamma   120.17407484
_symmetry_Int_Tables_number   1
_chemical_formula_structural   Tb2TmTh11Os6
_chemical_formula_sum   'Tb2 Tm1 Th11 Os6'
_cell_volume   544.07428351
_cell_formula_units_Z   1
loop_
 _symmetry_equiv_pos_site_id
 _symmetry_equiv_pos_as_xyz
  1  'x, y, z'
loop_
 _atom_site_type_symbol
 _atom_site_label
 _atom_site_symmetry_multiplicity
 _atom_site_fract_x
 _atom_site_fract_y
 _atom_site_fract_z
 _atom_site_occupancy
  Tb  Tb0  1  0.073562  0.535605  0.299946  1
  Tb  Tb1  1  0.928119  0.463495  0.798771  1
  Tm  Tm2  1  0.460651  0.536859  0.300453  1
  Th  Th3  1  0.252399  0.128262  0.510064  1
  Th  Th4  1  0.540561  0.079624  0.796944  1
  Th  Th5  1  0.745173  0.872066  0.014512  1
  Th  Th6  1  0.667074  0.334129  0.274612  1
  Th  Th7  1  0.126871  0.870480  0.009208  1
  Th  Th8  1  0.460827  0.918647  0.295692  1
  Th  Th9  1  0.536959  0.466227  0.801222  1
  Th  Th10  1  0.874446  0.129678  0.511562  1
  Th  Th11  1  0.125298  0.255186  0.014708  1
  Th  Th12  1  0.873255  0.745960  0.509392  1
  Th  Th13  1  0.332464  0.665079  0.770431  1
  Os  Os14  1  0.811643  0.629012  0.047518  1
  Os  Os15  1  0.812870  0.182078  0.046049  1
  Os  Os16  1  0.629749  0.812499  0.544974  1
  Os  Os17  1  0.371538  0.187350  0.042162  1
  Os  Os18  1  0.188214  0.369692  0.552283  1
  Os  Os19  1  0.188326  0.818073  0.543493  1
