# generated using pymatgen
data_Nd8YTm11Sn16
_symmetry_space_group_name_H-M   'P 1'
_cell_length_a   8.29276517
_cell_length_b   8.29387202
_cell_length_c   15.25950400
_cell_angle_alpha   90.04884102
_cell_angle_beta   90.04146859
_cell_angle_gamma   89.99718064
_symmetry_Int_Tables_number   1
_chemical_formula_structural   Nd8YTm11Sn16
_chemical_formula_sum   'Nd8 Y1 Tm11 Sn16'
_cell_volume   1049.53479851
_cell_formula_units_Z   1
loop_
 _symmetry_equiv_pos_site_id
 _symmetry_equiv_pos_as_xyz
  1  'x, y, z'
loop_
 _atom_site_type_symbol
 _atom_site_label
 _atom_site_symmetry_multiplicity
 _atom_site_fract_x
 _atom_site_fract_y
 _atom_site_fract_z
 _atom_site_occupancy
  Nd  Nd0  1  0.650976  0.002065  0.467185  1
  Nd  Nd1  1  0.349457  0.997983  0.966146  1
  Nd  Nd2  1  0.002587  0.650755  0.533361  1
  Nd  Nd3  1  0.501884  0.849728  0.216701  1
  Nd  Nd4  1  0.497700  0.150956  0.716753  1
  Nd  Nd5  1  0.849734  0.502449  0.782795  1
  Nd  Nd6  1  0.150492  0.497728  0.283847  1
  Nd  Nd7  1  0.997213  0.349099  0.033107  1
  Y  Y8  1  0.497133  0.340033  0.121165  1
  Tm  Tm9  1  0.998596  0.160324  0.628833  1
  Tm  Tm10  1  0.839907  0.001649  0.870871  1
  Tm  Tm11  1  0.159832  0.997914  0.371436  1
  Tm  Tm12  1  0.501530  0.660271  0.621124  1
  Tm  Tm13  1  0.339967  0.498432  0.878515  1
  Tm  Tm14  1  0.660066  0.500971  0.378987  1
  Tm  Tm15  1  0.001734  0.839662  0.129207  1
  Tm  Tm16  1  0.327672  0.327417  0.500207  1
  Tm  Tm17  1  0.172603  0.827630  0.749948  1
  Tm  Tm18  1  0.827300  0.171921  0.250318  1
  Tm  Tm19  1  0.673295  0.673014  0.999668  1
  Sn  Sn20  1  0.290865  0.962296  0.568629  1
  Sn  Sn21  1  0.709818  0.036499  0.068232  1
  Sn  Sn22  1  0.962356  0.290465  0.431612  1
  Sn  Sn23  1  0.462289  0.208164  0.319483  1
  Sn  Sn24  1  0.537640  0.791093  0.818304  1
  Sn  Sn25  1  0.209423  0.462546  0.681272  1
  Sn  Sn26  1  0.792171  0.538122  0.181915  1
  Sn  Sn27  1  0.037835  0.708974  0.931436  1
  Sn  Sn28  1  0.802780  0.863189  0.673568  1
  Sn  Sn29  1  0.195265  0.136511  0.174614  1
  Sn  Sn30  1  0.862549  0.801887  0.326436  1
  Sn  Sn31  1  0.363325  0.697219  0.423865  1
  Sn  Sn32  1  0.637696  0.302900  0.922749  1
  Sn  Sn33  1  0.697463  0.363141  0.576382  1
  Sn  Sn34  1  0.301901  0.639486  0.075240  1
  Sn  Sn35  1  0.136945  0.197507  0.826086  1
