# generated using pymatgen
data_Dy3Er7In8(CuPt)2
_symmetry_space_group_name_H-M   'P 1'
_cell_length_a   3.61429300
_cell_length_b   8.06568333
_cell_length_c   18.09050503
_cell_angle_alpha   90.07895434
_cell_angle_beta   90.00000000
_cell_angle_gamma   90.00000000
_symmetry_Int_Tables_number   1
_chemical_formula_structural   Dy3Er7In8(CuPt)2
_chemical_formula_sum   'Dy3 Er7 In8 Cu2 Pt2'
_cell_volume   527.36924879
_cell_formula_units_Z   1
loop_
 _symmetry_equiv_pos_site_id
 _symmetry_equiv_pos_as_xyz
  1  'x, y, z'
loop_
 _atom_site_type_symbol
 _atom_site_label
 _atom_site_symmetry_multiplicity
 _atom_site_fract_x
 _atom_site_fract_y
 _atom_site_fract_z
 _atom_site_occupancy
  Dy  Dy0  1  0.000000  0.117557  0.415518  1
  Dy  Dy1  1  0.000000  0.000020  0.999988  1
  Dy  Dy2  1  0.000000  0.500028  0.499984  1
  Er  Er3  1  0.000000  0.882656  0.584837  1
  Er  Er4  1  0.000000  0.383462  0.915460  1
  Er  Er5  1  0.000000  0.616582  0.084570  1
  Er  Er6  1  0.000000  0.246314  0.219568  1
  Er  Er7  1  0.000000  0.753640  0.780379  1
  Er  Er8  1  0.000000  0.260153  0.720296  1
  Er  Er9  1  0.000000  0.739705  0.279634  1
  In  In10  1  0.500000  0.421807  0.351906  1
  In  In11  1  0.500000  0.578648  0.647968  1
  In  In12  1  0.500000  0.074850  0.849549  1
  In  In13  1  0.500000  0.925137  0.150433  1
  In  In14  1  0.500000  0.292445  0.066573  1
  In  In15  1  0.500000  0.707552  0.933435  1
  In  In16  1  0.500000  0.206608  0.568158  1
  In  In17  1  0.500000  0.792893  0.432037  1
  Cu  Cu18  1  0.500000  0.025950  0.301915  1
  Cu  Cu19  1  0.500000  0.973845  0.697784  1
  Pt  Pt20  1  0.500000  0.473354  0.802477  1
  Pt  Pt21  1  0.500000  0.526794  0.197531  1
