# generated using pymatgen
data_Zr10Sn7Hg
_symmetry_space_group_name_H-M   'P 1'
_cell_length_a   8.84890100
_cell_length_b   8.84889983
_cell_length_c   5.96999500
_cell_angle_alpha   90.00000000
_cell_angle_beta   90.00000000
_cell_angle_gamma   120.00000063
_symmetry_Int_Tables_number   1
_chemical_formula_structural   Zr10Sn7Hg
_chemical_formula_sum   'Zr10 Sn7 Hg1'
_cell_volume   404.83980926
_cell_formula_units_Z   1
loop_
 _symmetry_equiv_pos_site_id
 _symmetry_equiv_pos_as_xyz
  1  'x, y, z'
loop_
 _atom_site_type_symbol
 _atom_site_label
 _atom_site_symmetry_multiplicity
 _atom_site_fract_x
 _atom_site_fract_y
 _atom_site_fract_z
 _atom_site_occupancy
  Zr  Zr0  1  0.333333  0.666667  0.000000  1
  Zr  Zr1  1  0.666667  0.333333  0.500000  1
  Zr  Zr2  1  0.666667  0.333333  0.000000  1
  Zr  Zr3  1  0.333333  0.666667  0.500000  1
  Zr  Zr4  1  0.281341  0.000000  0.252694  1
  Zr  Zr5  1  0.281341  0.281341  0.747306  1
  Zr  Zr6  1  0.000000  0.718659  0.747306  1
  Zr  Zr7  1  0.000000  0.281341  0.252694  1
  Zr  Zr8  1  0.718659  0.718659  0.252694  1
  Zr  Zr9  1  0.718659  0.000000  0.747306  1
  Sn  Sn10  1  0.000000  0.000000  0.500000  1
  Sn  Sn11  1  0.616566  0.000000  0.248420  1
  Sn  Sn12  1  0.616566  0.616566  0.751580  1
  Sn  Sn13  1  0.000000  0.383434  0.751580  1
  Sn  Sn14  1  0.000000  0.616566  0.248420  1
  Sn  Sn15  1  0.383434  0.383434  0.248420  1
  Sn  Sn16  1  0.383434  0.000000  0.751580  1
  Hg  Hg17  1  0.000000  0.000000  0.000000  1
