# generated using pymatgen
data_Ta3P6PdO24
_symmetry_space_group_name_H-M   'P 1'
_cell_length_a   8.68073141
_cell_length_b   9.04768523
_cell_length_c   8.75616149
_cell_angle_alpha   89.05125508
_cell_angle_beta   59.77667885
_cell_angle_gamma   118.13394123
_symmetry_Int_Tables_number   1
_chemical_formula_structural   Ta3P6PdO24
_chemical_formula_sum   'Ta3 P6 Pd1 O24'
_cell_volume   494.07218846
_cell_formula_units_Z   1
loop_
 _symmetry_equiv_pos_site_id
 _symmetry_equiv_pos_as_xyz
  1  'x, y, z'
loop_
 _atom_site_type_symbol
 _atom_site_label
 _atom_site_symmetry_multiplicity
 _atom_site_fract_x
 _atom_site_fract_y
 _atom_site_fract_z
 _atom_site_occupancy
  Ta  Ta0  1  0.287498  0.928938  0.355634  1
  Ta  Ta1  1  0.283222  0.421719  0.858469  1
  Ta  Ta2  1  0.714135  0.569659  0.143292  1
  P  P3  1  0.778890  0.753258  0.751950  1
  P  P4  1  0.498947  0.242760  0.536439  1
  P  P5  1  0.504544  0.749955  0.462990  1
  P  P6  1  0.209160  0.246790  0.257458  1
  P  P7  1  0.785822  0.252561  0.963721  1
  P  P8  1  0.223351  0.755317  0.025793  1
  Pd  Pd9  1  0.708337  0.063469  0.643702  1
  O  O10  1  0.677221  0.908331  0.460929  1
  O  O11  1  0.001441  0.716807  0.089501  1
  O  O12  1  0.224169  0.587141  0.996965  1
  O  O13  1  0.243637  0.790329  0.191033  1
  O  O14  1  0.990921  0.273107  0.929908  1
  O  O15  1  0.795793  0.419511  0.013017  1
  O  O16  1  0.773713  0.246085  0.799994  1
  O  O17  1  0.801840  0.713971  0.909813  1
  O  O18  1  0.980837  0.788031  0.565559  1
  O  O19  1  0.674327  0.233960  0.525734  1
  O  O20  1  0.759465  0.912021  0.764291  1
  O  O21  1  0.584442  0.583487  0.779697  1
  O  O22  1  0.592758  0.088052  0.145486  1
  O  O23  1  0.614264  0.413644  0.376816  1
  O  O24  1  0.196548  0.274684  0.088988  1
  O  O25  1  0.358771  0.269231  0.720787  1
  O  O26  1  0.615770  0.707679  0.282366  1
  O  O27  1  0.346832  0.081660  0.510480  1
  O  O28  1  0.386820  0.917235  0.847503  1
  O  O29  1  0.363974  0.579301  0.634046  1
  O  O30  1  0.225188  0.083719  0.267260  1
  O  O31  1  0.423029  0.412743  0.203436  1
  O  O32  1  0.345228  0.780471  0.454969  1
  O  O33  1  0.031236  0.234376  0.439842  1
