# generated using pymatgen
data_LiEr19(Cd3Pd)2
_symmetry_space_group_name_H-M   'P 1'
_cell_length_a   9.53880900
_cell_length_b   9.53880796
_cell_length_c   9.62497300
_cell_angle_alpha   90.00000000
_cell_angle_beta   90.00000000
_cell_angle_gamma   120.00000015
_symmetry_Int_Tables_number   1
_chemical_formula_structural   LiEr19(Cd3Pd)2
_chemical_formula_sum   'Li1 Er19 Cd6 Pd2'
_cell_volume   758.43507434
_cell_formula_units_Z   1
loop_
 _symmetry_equiv_pos_site_id
 _symmetry_equiv_pos_as_xyz
  1  'x, y, z'
loop_
 _atom_site_type_symbol
 _atom_site_label
 _atom_site_symmetry_multiplicity
 _atom_site_fract_x
 _atom_site_fract_y
 _atom_site_fract_z
 _atom_site_occupancy
  Li  Li0  1  0.000000  0.000000  0.000000  1
  Er  Er1  1  0.205739  0.794261  0.941166  1
  Er  Er2  1  0.205739  0.411480  0.941166  1
  Er  Er3  1  0.588520  0.794261  0.941166  1
  Er  Er4  1  0.794261  0.205739  0.058834  1
  Er  Er5  1  0.794261  0.588520  0.058834  1
  Er  Er6  1  0.411480  0.205739  0.058834  1
  Er  Er7  1  0.791543  0.208457  0.445856  1
  Er  Er8  1  0.791543  0.583084  0.445856  1
  Er  Er9  1  0.416916  0.208457  0.445856  1
  Er  Er10  1  0.208457  0.791543  0.554144  1
  Er  Er11  1  0.208457  0.416916  0.554144  1
  Er  Er12  1  0.583084  0.791543  0.554144  1
  Er  Er13  1  0.543020  0.456980  0.752824  1
  Er  Er14  1  0.543020  0.086039  0.752824  1
  Er  Er15  1  0.913961  0.456980  0.752824  1
  Er  Er16  1  0.456980  0.543020  0.247176  1
  Er  Er17  1  0.456980  0.913961  0.247176  1
  Er  Er18  1  0.086039  0.543020  0.247176  1
  Er  Er19  1  0.000000  0.000000  0.500000  1
  Cd  Cd20  1  0.888013  0.111987  0.757469  1
  Cd  Cd21  1  0.888013  0.776025  0.757469  1
  Cd  Cd22  1  0.223975  0.111987  0.757469  1
  Cd  Cd23  1  0.111987  0.888013  0.242531  1
  Cd  Cd24  1  0.111987  0.223975  0.242531  1
  Cd  Cd25  1  0.776025  0.888013  0.242531  1
  Pd  Pd26  1  0.333333  0.666667  0.751411  1
  Pd  Pd27  1  0.666667  0.333333  0.248589  1
