# generated using pymatgen
data_V4Br7O
_symmetry_space_group_name_H-M   'P 1'
_cell_length_a   8.06829560
_cell_length_b   8.06829450
_cell_length_c   8.06184466
_cell_angle_alpha   55.18268432
_cell_angle_beta   55.18268812
_cell_angle_gamma   55.53468279
_symmetry_Int_Tables_number   1
_chemical_formula_structural   V4Br7O
_chemical_formula_sum   'V4 Br7 O1'
_cell_volume   330.55338151
_cell_formula_units_Z   1
loop_
 _symmetry_equiv_pos_site_id
 _symmetry_equiv_pos_as_xyz
  1  'x, y, z'
loop_
 _atom_site_type_symbol
 _atom_site_label
 _atom_site_symmetry_multiplicity
 _atom_site_fract_x
 _atom_site_fract_y
 _atom_site_fract_z
 _atom_site_occupancy
  V  V0  1  0.524363  0.981335  0.476945  1
  V  V1  1  0.981335  0.524363  0.476945  1
  V  V2  1  0.498816  0.498816  0.998829  1
  V  V3  1  0.973290  0.973290  0.032806  1
  Br  Br4  1  0.741003  0.741003  0.743557  1
  Br  Br5  1  0.248901  0.744219  0.236769  1
  Br  Br6  1  0.744219  0.248901  0.236769  1
  Br  Br7  1  0.255724  0.255724  0.250322  1
  Br  Br8  1  0.225520  0.225520  0.734052  1
  Br  Br9  1  0.750981  0.249192  0.763732  1
  Br  Br10  1  0.249192  0.750981  0.763732  1
  O  O11  1  0.806655  0.806655  0.285540  1
