# generated using pymatgen
data_Nd5HfMoO12
_symmetry_space_group_name_H-M   'P 1'
_cell_length_a   7.12233669
_cell_length_b   7.12233690
_cell_length_c   7.65817241
_cell_angle_alpha   74.44911250
_cell_angle_beta   74.44910516
_cell_angle_gamma   51.18602410
_symmetry_Int_Tables_number   1
_chemical_formula_structural   Nd5HfMoO12
_chemical_formula_sum   'Nd5 Hf1 Mo1 O12'
_cell_volume   289.01585922
_cell_formula_units_Z   1
loop_
 _symmetry_equiv_pos_site_id
 _symmetry_equiv_pos_as_xyz
  1  'x, y, z'
loop_
 _atom_site_type_symbol
 _atom_site_label
 _atom_site_symmetry_multiplicity
 _atom_site_fract_x
 _atom_site_fract_y
 _atom_site_fract_z
 _atom_site_occupancy
  Nd  Nd0  1  0.306684  0.299201  0.361219  1
  Nd  Nd1  1  0.700799  0.693316  0.638781  1
  Nd  Nd2  1  0.303888  0.309581  0.829912  1
  Nd  Nd3  1  0.690419  0.696112  0.170088  1
  Nd  Nd4  1  0.005641  0.994359  0.500000  1
  Hf  Hf5  1  0.758935  0.241065  0.000000  1
  Mo  Mo6  1  0.244185  0.755815  0.000000  1
  O  O7  1  0.897891  0.436692  0.917477  1
  O  O8  1  0.417223  0.895209  0.919633  1
  O  O9  1  0.104791  0.582777  0.080367  1
  O  O10  1  0.563308  0.102109  0.082523  1
  O  O11  1  0.096347  0.596682  0.573656  1
  O  O12  1  0.594273  0.094124  0.578399  1
  O  O13  1  0.905876  0.405727  0.421601  1
  O  O14  1  0.403318  0.903653  0.426344  1
  O  O15  1  0.006630  0.993615  0.816827  1
  O  O16  1  0.006385  0.993370  0.183173  1
  O  O17  1  0.495389  0.501983  0.818081  1
  O  O18  1  0.498017  0.504611  0.181919  1
