# generated using pymatgen
data_Ti4Be2B4Ru9Rh
_symmetry_space_group_name_H-M   'P 1'
_cell_length_a   2.95837900
_cell_length_b   9.03674721
_cell_length_c   9.05913321
_cell_angle_alpha   90.02457611
_cell_angle_beta   90.00000000
_cell_angle_gamma   90.00000000
_symmetry_Int_Tables_number   1
_chemical_formula_structural   Ti4Be2B4Ru9Rh
_chemical_formula_sum   'Ti4 Be2 B4 Ru9 Rh1'
_cell_volume   242.18796071
_cell_formula_units_Z   1
loop_
 _symmetry_equiv_pos_site_id
 _symmetry_equiv_pos_as_xyz
  1  'x, y, z'
loop_
 _atom_site_type_symbol
 _atom_site_label
 _atom_site_symmetry_multiplicity
 _atom_site_fract_x
 _atom_site_fract_y
 _atom_site_fract_z
 _atom_site_occupancy
  Ti  Ti0  1  0.000000  0.826129  0.177046  1
  Ti  Ti1  1  0.000000  0.326288  0.325035  1
  Ti  Ti2  1  0.000000  0.673101  0.670251  1
  Ti  Ti3  1  0.000000  0.175765  0.826005  1
  Be  Be4  1  0.000000  0.499164  0.999893  1
  Be  Be5  1  0.000000  0.999957  0.500260  1
  B  B6  1  0.000000  0.129226  0.129899  1
  B  B7  1  0.000000  0.628943  0.370580  1
  B  B8  1  0.000000  0.370747  0.628983  1
  B  B9  1  0.000000  0.874600  0.869489  1
  Ru  Ru10  1  0.499999  0.998476  0.000811  1
  Ru  Ru11  1  0.499999  0.294162  0.071471  1
  Ru  Ru12  1  0.499999  0.571479  0.205539  1
  Ru  Ru13  1  0.499999  0.071015  0.294608  1
  Ru  Ru14  1  0.499999  0.794921  0.429003  1
  Ru  Ru15  1  0.499999  0.500308  0.499810  1
  Ru  Ru16  1  0.499999  0.205132  0.571949  1
  Ru  Ru17  1  0.499999  0.927895  0.706233  1
  Ru  Ru18  1  0.499999  0.427570  0.794593  1
  Rh  Rh19  1  0.499999  0.705133  0.928552  1
