# generated using pymatgen
data_CsNd3CI6
_symmetry_space_group_name_H-M   'P 1'
_cell_length_a   9.61582478
_cell_length_b   9.67275306
_cell_length_c   10.26130503
_cell_angle_alpha   71.21437178
_cell_angle_beta   84.63278989
_cell_angle_gamma   89.25260258
_symmetry_Int_Tables_number   1
_chemical_formula_structural   CsNd3CI6
_chemical_formula_sum   'Cs2 Nd6 C2 I12'
_cell_volume   899.46823774
_cell_formula_units_Z   2
loop_
 _symmetry_equiv_pos_site_id
 _symmetry_equiv_pos_as_xyz
  1  'x, y, z'
loop_
 _atom_site_type_symbol
 _atom_site_label
 _atom_site_symmetry_multiplicity
 _atom_site_fract_x
 _atom_site_fract_y
 _atom_site_fract_z
 _atom_site_occupancy
  Cs  Cs0  1  0.465160  0.367523  0.327951  1
  Cs  Cs1  1  0.534841  0.632477  0.672049  1
  Nd  Nd2  1  0.919042  0.750135  0.003784  1
  Nd  Nd3  1  0.080958  0.249865  0.996215  1
  Nd  Nd4  1  0.748413  0.083245  0.001608  1
  Nd  Nd5  1  0.251586  0.916755  0.998393  1
  Nd  Nd6  1  0.973817  0.893647  0.312412  1
  Nd  Nd7  1  0.026182  0.106353  0.687589  1
  C  C8  1  0.006090  0.024365  0.927501  1
  C  C9  1  0.993909  0.975635  0.072499  1
  I  I10  1  0.075004  0.203702  0.326578  1
  I  I11  1  0.924996  0.796298  0.673422  1
  I  I12  1  0.208288  0.590398  0.000694  1
  I  I13  1  0.791713  0.409602  0.999306  1
  I  I14  1  0.405509  0.203889  0.000497  1
  I  I15  1  0.594490  0.796112  0.999502  1
  I  I16  1  0.662827  0.003481  0.329744  1
  I  I17  1  0.337173  0.996519  0.670256  1
  I  I18  1  0.282832  0.775326  0.325367  1
  I  I19  1  0.717168  0.224674  0.674633  1
  I  I20  1  0.850382  0.587418  0.328803  1
  I  I21  1  0.149617  0.412582  0.671197  1
