# generated using pymatgen
data_Re7Si14Rh
_symmetry_space_group_name_H-M   'P 1'
_cell_length_a   3.18148063
_cell_length_b   8.32335521
_cell_length_c   11.73982934
_cell_angle_alpha   92.93021546
_cell_angle_beta   97.78750911
_cell_angle_gamma   90.00000257
_symmetry_Int_Tables_number   1
_chemical_formula_structural   Re7Si14Rh
_chemical_formula_sum   'Re7 Si14 Rh1'
_cell_volume   307.60029908
_cell_formula_units_Z   1
loop_
 _symmetry_equiv_pos_site_id
 _symmetry_equiv_pos_as_xyz
  1  'x, y, z'
loop_
 _atom_site_type_symbol
 _atom_site_label
 _atom_site_symmetry_multiplicity
 _atom_site_fract_x
 _atom_site_fract_y
 _atom_site_fract_z
 _atom_site_occupancy
  Re  Re0  1  0.273974  0.480382  0.547948  1
  Re  Re1  1  0.397692  0.366503  0.795383  1
  Re  Re2  1  0.523678  0.225409  0.047355  1
  Re  Re3  1  0.652683  0.110025  0.305366  1
  Re  Re4  1  0.767995  0.969405  0.535990  1
  Re  Re5  1  0.898443  0.849896  0.796887  1
  Re  Re6  1  0.023218  0.717352  0.046438  1
  Si  Si7  1  0.182049  0.887686  0.364098  1
  Si  Si8  1  0.315863  0.787141  0.631726  1
  Si  Si9  1  0.441698  0.654856  0.883396  1
  Si  Si10  1  0.569103  0.526641  0.138206  1
  Si  Si11  1  0.691798  0.393341  0.383595  1
  Si  Si12  1  0.827873  0.228779  0.655746  1
  Si  Si13  1  0.994806  0.003154  0.989610  1
  Si  Si14  1  0.105065  0.292283  0.210129  1
  Si  Si15  1  0.235581  0.184020  0.471162  1
  Si  Si16  1  0.729940  0.683813  0.459882  1
  Si  Si17  1  0.855648  0.560484  0.711296  1
  Si  Si18  1  0.981284  0.423194  0.962567  1
  Si  Si19  1  0.575273  0.904704  0.150546  1
  Si  Si20  1  0.414038  0.080514  0.828075  1
  Rh  Rh21  1  0.150168  0.583814  0.300337  1
