# generated using pymatgen
data_NpU(TlCl3)4
_symmetry_space_group_name_H-M   'P 1'
_cell_length_a   7.41010700
_cell_length_b   7.41010700
_cell_length_c   10.33779800
_cell_angle_alpha   90.00000000
_cell_angle_beta   90.00000000
_cell_angle_gamma   90.00000000
_symmetry_Int_Tables_number   1
_chemical_formula_structural   NpU(TlCl3)4
_chemical_formula_sum   'Np1 U1 Tl4 Cl12'
_cell_volume   567.64523954
_cell_formula_units_Z   1
loop_
 _symmetry_equiv_pos_site_id
 _symmetry_equiv_pos_as_xyz
  1  'x, y, z'
loop_
 _atom_site_type_symbol
 _atom_site_label
 _atom_site_symmetry_multiplicity
 _atom_site_fract_x
 _atom_site_fract_y
 _atom_site_fract_z
 _atom_site_occupancy
  Np  Np0  1  0.500000  0.500000  0.500000  1
  U  U1  1  0.000000  0.000000  0.000000  1
  Tl  Tl2  1  0.500000  0.000000  0.743801  1
  Tl  Tl3  1  0.500000  0.000000  0.256199  1
  Tl  Tl4  1  0.000000  0.500000  0.256199  1
  Tl  Tl5  1  0.000000  0.500000  0.743801  1
  Cl  Cl6  1  0.802797  0.290461  0.000000  1
  Cl  Cl7  1  0.197203  0.709539  0.000000  1
  Cl  Cl8  1  0.500000  0.500000  0.247581  1
  Cl  Cl9  1  0.302224  0.204163  0.500000  1
  Cl  Cl10  1  0.290461  0.197203  0.000000  1
  Cl  Cl11  1  0.795837  0.302224  0.500000  1
  Cl  Cl12  1  0.000000  0.000000  0.249820  1
  Cl  Cl13  1  0.697776  0.795837  0.500000  1
  Cl  Cl14  1  0.204163  0.697776  0.500000  1
  Cl  Cl15  1  0.500000  0.500000  0.752419  1
  Cl  Cl16  1  0.709539  0.802797  0.000000  1
  Cl  Cl17  1  0.000000  0.000000  0.750180  1
