# generated using pymatgen
data_Eu4AlGa5(O3F)4
_symmetry_space_group_name_H-M   'P 1'
_cell_length_a   7.99791353
_cell_length_b   7.99791230
_cell_length_c   7.99791315
_cell_angle_alpha   109.34123813
_cell_angle_beta   109.53625736
_cell_angle_gamma   109.53624454
_symmetry_Int_Tables_number   1
_chemical_formula_structural   Eu4AlGa5(O3F)4
_chemical_formula_sum   'Eu4 Al1 Ga5 O12 F4'
_cell_volume   393.82788116
_cell_formula_units_Z   1
loop_
 _symmetry_equiv_pos_site_id
 _symmetry_equiv_pos_as_xyz
  1  'x, y, z'
loop_
 _atom_site_type_symbol
 _atom_site_label
 _atom_site_symmetry_multiplicity
 _atom_site_fract_x
 _atom_site_fract_y
 _atom_site_fract_z
 _atom_site_occupancy
  Eu  Eu0  1  0.301923  0.303804  0.298925  1
  Eu  Eu1  1  0.698077  0.997002  0.001882  1
  Eu  Eu2  1  0.004879  0.701075  0.002998  1
  Eu  Eu3  1  0.995121  0.998118  0.696196  1
  Al  Al4  1  0.500000  0.750000  0.250000  1
  Ga  Ga5  1  0.252321  0.750281  0.498873  1
  Ga  Ga6  1  0.747679  0.246552  0.497960  1
  Ga  Ga7  1  0.748592  0.502040  0.249719  1
  Ga  Ga8  1  0.251408  0.501127  0.753448  1
  Ga  Ga9  1  0.500000  0.250000  0.750000  1
  O  O10  1  0.279312  0.545500  0.547290  1
  O  O11  1  0.720688  0.267977  0.266187  1
  O  O12  1  0.998210  0.452710  0.732023  1
  O  O13  1  0.545798  0.554324  0.276401  1
  O  O14  1  0.001790  0.733813  0.454500  1
  O  O15  1  0.266601  0.266347  0.724812  1
  O  O16  1  0.454202  0.730604  0.008526  1
  O  O17  1  0.733399  0.458210  0.999746  1
  O  O18  1  0.541536  0.275188  0.541790  1
  O  O19  1  0.722078  0.991474  0.445676  1
  O  O20  1  0.458464  0.000254  0.733653  1
  O  O21  1  0.277922  0.723599  0.269396  1
  F  F22  1  0.783883  0.782626  0.785099  1
  F  F23  1  0.216117  0.001215  0.998743  1
  F  F24  1  0.997527  0.214901  0.998785  1
  F  F25  1  0.002473  0.001257  0.217374  1
