# generated using pymatgen
data_Eu2Co7P6
_symmetry_space_group_name_H-M   'P 1'
_cell_length_a   10.55914400
_cell_length_b   10.55914400
_cell_length_c   3.84801700
_cell_angle_alpha   90.00000000
_cell_angle_beta   90.00000000
_cell_angle_gamma   90.00000000
_symmetry_Int_Tables_number   1
_chemical_formula_structural   Eu2Co7P6
_chemical_formula_sum   'Eu4 Co14 P12'
_cell_volume   429.03666413
_cell_formula_units_Z   2
loop_
 _symmetry_equiv_pos_site_id
 _symmetry_equiv_pos_as_xyz
  1  'x, y, z'
loop_
 _atom_site_type_symbol
 _atom_site_label
 _atom_site_symmetry_multiplicity
 _atom_site_fract_x
 _atom_site_fract_y
 _atom_site_fract_z
 _atom_site_occupancy
  Eu  Eu0  1  0.153431  0.653431  0.748935  1
  Eu  Eu1  1  0.346569  0.153431  0.251065  1
  Eu  Eu2  1  0.653431  0.846569  0.251065  1
  Eu  Eu3  1  0.846569  0.346569  0.748935  1
  Co  Co4  1  0.546080  0.281008  0.763597  1
  Co  Co5  1  0.046080  0.218992  0.236403  1
  Co  Co6  1  0.718992  0.546080  0.236403  1
  Co  Co7  1  0.281008  0.453920  0.236403  1
  Co  Co8  1  0.342236  0.842236  0.267224  1
  Co  Co9  1  0.842236  0.657764  0.732776  1
  Co  Co10  1  0.953920  0.781008  0.236403  1
  Co  Co11  1  0.218992  0.953920  0.763597  1
  Co  Co12  1  0.781008  0.046080  0.763597  1
  Co  Co13  1  0.000000  0.000000  0.000000  1
  Co  Co14  1  0.157764  0.342236  0.732776  1
  Co  Co15  1  0.453920  0.718992  0.763597  1
  Co  Co16  1  0.500000  0.500000  0.000000  1
  Co  Co17  1  0.657764  0.157764  0.267224  1
  P  P18  1  0.862696  0.117785  0.275214  1
  P  P19  1  0.362696  0.382215  0.724786  1
  P  P20  1  0.578295  0.078295  0.767393  1
  P  P21  1  0.637304  0.617785  0.724786  1
  P  P22  1  0.617785  0.362696  0.275214  1
  P  P23  1  0.078295  0.421705  0.232607  1
  P  P24  1  0.382215  0.637304  0.275214  1
  P  P25  1  0.921705  0.578295  0.232607  1
  P  P26  1  0.117785  0.137304  0.724786  1
  P  P27  1  0.421705  0.921705  0.767393  1
  P  P28  1  0.137304  0.882215  0.275214  1
  P  P29  1  0.882215  0.862696  0.724786  1
