# generated using pymatgen
data_BaNaEr2(ReN3)4
_symmetry_space_group_name_H-M   'P 1'
_cell_length_a   7.39081495
_cell_length_b   7.39081582
_cell_length_c   6.21323751
_cell_angle_alpha   77.63659448
_cell_angle_beta   77.63657695
_cell_angle_gamma   86.63705516
_symmetry_Int_Tables_number   1
_chemical_formula_structural   BaNaEr2(ReN3)4
_chemical_formula_sum   'Ba1 Na1 Er2 Re4 N12'
_cell_volume   323.80455773
_cell_formula_units_Z   1
loop_
 _symmetry_equiv_pos_site_id
 _symmetry_equiv_pos_as_xyz
  1  'x, y, z'
loop_
 _atom_site_type_symbol
 _atom_site_label
 _atom_site_symmetry_multiplicity
 _atom_site_fract_x
 _atom_site_fract_y
 _atom_site_fract_z
 _atom_site_occupancy
  Ba  Ba0  1  0.688387  0.311613  0.250000  1
  Na  Na1  1  0.301038  0.698962  0.750000  1
  Er  Er2  1  0.916180  0.083820  0.750000  1
  Er  Er3  1  0.098982  0.901018  0.250000  1
  Re  Re4  1  0.628848  0.803764  0.225853  1
  Re  Re5  1  0.196236  0.371152  0.274147  1
  Re  Re6  1  0.372770  0.204388  0.776064  1
  Re  Re7  1  0.795612  0.627230  0.723936  1
  N  N8  1  0.355497  0.342387  0.002364  1
  N  N9  1  0.023795  0.190767  0.365154  1
  N  N10  1  0.809233  0.976205  0.134846  1
  N  N11  1  0.207898  0.017386  0.866115  1
  N  N12  1  0.646732  0.667375  0.996469  1
  N  N13  1  0.879406  0.394667  0.785754  1
  N  N14  1  0.095677  0.594471  0.217446  1
  N  N15  1  0.982614  0.792102  0.633885  1
  N  N16  1  0.405529  0.904323  0.282554  1
  N  N17  1  0.657613  0.644503  0.497636  1
  N  N18  1  0.605333  0.120594  0.714246  1
  N  N19  1  0.332625  0.353268  0.503531  1
