# generated using pymatgen
data_Zr3SiIrRu3Pt
_symmetry_space_group_name_H-M   'P 1'
_cell_length_a   7.26278200
_cell_length_b   7.26278138
_cell_length_c   3.29413200
_cell_angle_alpha   90.00000000
_cell_angle_beta   90.00000000
_cell_angle_gamma   120.00000282
_symmetry_Int_Tables_number   1
_chemical_formula_structural   Zr3SiIrRu3Pt
_chemical_formula_sum   'Zr3 Si1 Ir1 Ru3 Pt1'
_cell_volume   150.47958936
_cell_formula_units_Z   1
loop_
 _symmetry_equiv_pos_site_id
 _symmetry_equiv_pos_as_xyz
  1  'x, y, z'
loop_
 _atom_site_type_symbol
 _atom_site_label
 _atom_site_symmetry_multiplicity
 _atom_site_fract_x
 _atom_site_fract_y
 _atom_site_fract_z
 _atom_site_occupancy
  Zr  Zr0  1  0.392692  0.398764  0.500000  1
  Zr  Zr1  1  0.601236  0.993927  0.500000  1
  Zr  Zr2  1  0.006073  0.607308  0.500000  1
  Si  Si3  1  0.000000  0.000000  0.500000  1
  Ir  Ir4  1  0.333333  0.666667  0.000000  1
  Ru  Ru5  1  0.999590  0.240497  0.000000  1
  Ru  Ru6  1  0.240907  0.000410  0.000000  1
  Ru  Ru7  1  0.759503  0.759093  0.000000  1
  Pt  Pt8  1  0.666667  0.333333  0.000000  1
