# generated using pymatgen
data_Ho2Er2Cu3Sb8
_symmetry_space_group_name_H-M   'P 1'
_cell_length_a   10.58512159
_cell_length_b   10.58512133
_cell_length_c   10.58028200
_cell_angle_alpha   146.57408990
_cell_angle_beta   146.57409763
_cell_angle_gamma   48.05364459
_symmetry_Int_Tables_number   1
_chemical_formula_structural   Ho2Er2Cu3Sb8
_chemical_formula_sum   'Ho2 Er2 Cu3 Sb8'
_cell_volume   358.17525674
_cell_formula_units_Z   1
loop_
 _symmetry_equiv_pos_site_id
 _symmetry_equiv_pos_as_xyz
  1  'x, y, z'
loop_
 _atom_site_type_symbol
 _atom_site_label
 _atom_site_symmetry_multiplicity
 _atom_site_fract_x
 _atom_site_fract_y
 _atom_site_fract_z
 _atom_site_occupancy
  Ho  Ho0  1  0.633693  0.633693  0.508729  1
  Ho  Ho1  1  0.124963  0.124963  0.491271  1
  Er  Er2  1  0.365117  0.875243  0.000000  1
  Er  Er3  1  0.875243  0.365117  0.000000  1
  Cu  Cu4  1  0.000936  0.000936  0.000000  1
  Cu  Cu5  1  0.000750  0.500750  0.500000  1
  Cu  Cu6  1  0.500750  0.000750  0.500000  1
  Sb  Sb7  1  0.335774  0.335774  0.517347  1
  Sb  Sb8  1  0.818426  0.818426  0.482653  1
  Sb  Sb9  1  0.666001  0.181634  0.000000  1
  Sb  Sb10  1  0.181634  0.666001  0.000000  1
  Sb  Sb11  1  0.249467  0.249467  0.000000  1
  Sb  Sb12  1  0.748931  0.748931  0.000000  1
  Sb  Sb13  1  0.749157  0.249157  0.500000  1
  Sb  Sb14  1  0.249157  0.749157  0.500000  1
