# generated using pymatgen
data_Yb9Hg4
_symmetry_space_group_name_H-M   'P 1'
_cell_length_a   9.88841435
_cell_length_b   9.88768876
_cell_length_c   9.91363889
_cell_angle_alpha   92.92556843
_cell_angle_beta   92.98976576
_cell_angle_gamma   153.83740033
_symmetry_Int_Tables_number   1
_chemical_formula_structural   Yb9Hg4
_chemical_formula_sum   'Yb9 Hg4'
_cell_volume   416.12603839
_cell_formula_units_Z   1
loop_
 _symmetry_equiv_pos_site_id
 _symmetry_equiv_pos_as_xyz
  1  'x, y, z'
loop_
 _atom_site_type_symbol
 _atom_site_label
 _atom_site_symmetry_multiplicity
 _atom_site_fract_x
 _atom_site_fract_y
 _atom_site_fract_z
 _atom_site_occupancy
  Yb  Yb0  1  0.500000  0.500000  0.000000  1
  Yb  Yb1  1  0.616029  0.901320  0.517218  1
  Yb  Yb2  1  0.383971  0.098680  0.482782  1
  Yb  Yb3  1  0.098316  0.615821  0.713923  1
  Yb  Yb4  1  0.901684  0.384179  0.286077  1
  Yb  Yb5  1  0.874029  0.813604  0.687193  1
  Yb  Yb6  1  0.125971  0.186396  0.312807  1
  Yb  Yb7  1  0.187439  0.873119  0.060359  1
  Yb  Yb8  1  0.812561  0.126881  0.939641  1
  Hg  Hg9  1  0.731799  0.550876  0.282566  1
  Hg  Hg10  1  0.268201  0.449124  0.717434  1
  Hg  Hg11  1  0.448823  0.731960  0.180656  1
  Hg  Hg12  1  0.551177  0.268040  0.819344  1
