# generated using pymatgen
data_TbDy3Ho4(SiBr6)2
_symmetry_space_group_name_H-M   'P 1'
_cell_length_a   4.05091900
_cell_length_b   13.22913316
_cell_length_c   14.01299517
_cell_angle_alpha   90.01783927
_cell_angle_beta   90.00000000
_cell_angle_gamma   90.00000000
_symmetry_Int_Tables_number   1
_chemical_formula_structural   TbDy3Ho4(SiBr6)2
_chemical_formula_sum   'Tb1 Dy3 Ho4 Si2 Br12'
_cell_volume   750.95843288
_cell_formula_units_Z   1
loop_
 _symmetry_equiv_pos_site_id
 _symmetry_equiv_pos_as_xyz
  1  'x, y, z'
loop_
 _atom_site_type_symbol
 _atom_site_label
 _atom_site_symmetry_multiplicity
 _atom_site_fract_x
 _atom_site_fract_y
 _atom_site_fract_z
 _atom_site_occupancy
  Tb  Tb0  1  0.000000  0.381459  0.078794  1
  Dy  Dy1  1  0.000000  0.118242  0.578593  1
  Dy  Dy2  1  0.000000  0.881755  0.421409  1
  Dy  Dy3  1  0.000000  0.618372  0.921328  1
  Ho  Ho4  1  0.500000  0.117783  0.341552  1
  Ho  Ho5  1  0.500000  0.882221  0.658438  1
  Ho  Ho6  1  0.500000  0.617804  0.158394  1
  Ho  Ho7  1  0.500000  0.382259  0.841564  1
  Si  Si8  1  0.500000  0.000002  0.499998  1
  Si  Si9  1  0.500000  0.500498  0.999646  1
  Br  Br10  1  0.500000  0.242644  0.164220  1
  Br  Br11  1  0.500000  0.756763  0.836140  1
  Br  Br12  1  0.500000  0.743320  0.336203  1
  Br  Br13  1  0.500000  0.256693  0.663787  1
  Br  Br14  1  0.000000  0.254795  0.410189  1
  Br  Br15  1  0.000000  0.745198  0.589826  1
  Br  Br16  1  0.000000  0.754820  0.089874  1
  Br  Br17  1  0.000000  0.245029  0.909744  1
  Br  Br18  1  0.000000  0.003148  0.243119  1
  Br  Br19  1  0.000000  0.996839  0.756891  1
  Br  Br20  1  0.000000  0.503565  0.257208  1
  Br  Br21  1  0.000000  0.496792  0.743082  1
