# generated using pymatgen
data_CeSc15(ZnNi)4
_symmetry_space_group_name_H-M   'P 1'
_cell_length_a   8.80732817
_cell_length_b   8.80732803
_cell_length_c   8.80732874
_cell_angle_alpha   60.24448072
_cell_angle_beta   60.24447972
_cell_angle_gamma   60.24448310
_symmetry_Int_Tables_number   1
_chemical_formula_structural   CeSc15(ZnNi)4
_chemical_formula_sum   'Ce1 Sc15 Zn4 Ni4'
_cell_volume   485.75187948
_cell_formula_units_Z   1
loop_
 _symmetry_equiv_pos_site_id
 _symmetry_equiv_pos_as_xyz
  1  'x, y, z'
loop_
 _atom_site_type_symbol
 _atom_site_label
 _atom_site_symmetry_multiplicity
 _atom_site_fract_x
 _atom_site_fract_y
 _atom_site_fract_z
 _atom_site_occupancy
  Ce  Ce0  1  0.351264  0.351264  0.351264  1
  Sc  Sc1  1  0.357150  0.357150  0.928374  1
  Sc  Sc2  1  0.357150  0.928374  0.357150  1
  Sc  Sc3  1  0.928374  0.357150  0.357150  1
  Sc  Sc4  1  0.814499  0.187437  0.187437  1
  Sc  Sc5  1  0.191498  0.810550  0.810550  1
  Sc  Sc6  1  0.187437  0.814499  0.187437  1
  Sc  Sc7  1  0.810550  0.191498  0.810550  1
  Sc  Sc8  1  0.187437  0.187437  0.814499  1
  Sc  Sc9  1  0.810550  0.810550  0.191498  1
  Sc  Sc10  1  0.935120  0.565773  0.565773  1
  Sc  Sc11  1  0.564353  0.936188  0.936188  1
  Sc  Sc12  1  0.565773  0.935120  0.565773  1
  Sc  Sc13  1  0.936188  0.564353  0.936188  1
  Sc  Sc14  1  0.565773  0.565773  0.935120  1
  Sc  Sc15  1  0.936188  0.936188  0.564353  1
  Zn  Zn16  1  0.580459  0.580459  0.580459  1
  Zn  Zn17  1  0.583620  0.583620  0.254453  1
  Zn  Zn18  1  0.583620  0.254453  0.583620  1
  Zn  Zn19  1  0.254453  0.583620  0.583620  1
  Ni  Ni20  1  0.146834  0.146834  0.146834  1
  Ni  Ni21  1  0.141488  0.141488  0.568731  1
  Ni  Ni22  1  0.141488  0.568731  0.141488  1
  Ni  Ni23  1  0.568731  0.141488  0.141488  1
