# generated using pymatgen
data_Cs4OsO4
_symmetry_space_group_name_H-M   'P 1'
_cell_length_a   6.32853556
_cell_length_b   6.32853522
_cell_length_c   6.88066850
_cell_angle_alpha   73.23844491
_cell_angle_beta   73.23844368
_cell_angle_gamma   64.93172350
_symmetry_Int_Tables_number   1
_chemical_formula_structural   Cs4OsO4
_chemical_formula_sum   'Cs4 Os1 O4'
_cell_volume   234.58062848
_cell_formula_units_Z   1
loop_
 _symmetry_equiv_pos_site_id
 _symmetry_equiv_pos_as_xyz
  1  'x, y, z'
loop_
 _atom_site_type_symbol
 _atom_site_label
 _atom_site_symmetry_multiplicity
 _atom_site_fract_x
 _atom_site_fract_y
 _atom_site_fract_z
 _atom_site_occupancy
  Cs  Cs0  1  0.190531  0.190531  0.418780  1
  Cs  Cs1  1  0.382998  0.382998  0.851894  1
  Cs  Cs2  1  0.617002  0.617002  0.148106  1
  Cs  Cs3  1  0.809469  0.809469  0.581220  1
  Os  Os4  1  0.000000  0.000000  0.000000  1
  O  O5  1  0.695660  0.095246  0.180892  1
  O  O6  1  0.304340  0.904754  0.819108  1
  O  O7  1  0.095246  0.695660  0.180892  1
  O  O8  1  0.904754  0.304340  0.819108  1
