# generated using pymatgen
data_Nd2MgSi5PPd20
_symmetry_space_group_name_H-M   'P 1'
_cell_length_a   8.71927143
_cell_length_b   8.71927142
_cell_length_c   8.71692200
_cell_angle_alpha   60.00892057
_cell_angle_beta   60.00892062
_cell_angle_gamma   59.98216219
_symmetry_Int_Tables_number   1
_chemical_formula_structural   Nd2MgSi5PPd20
_chemical_formula_sum   'Nd2 Mg1 Si5 P1 Pd20'
_cell_volume   468.60671179
_cell_formula_units_Z   1
loop_
 _symmetry_equiv_pos_site_id
 _symmetry_equiv_pos_as_xyz
  1  'x, y, z'
loop_
 _atom_site_type_symbol
 _atom_site_label
 _atom_site_symmetry_multiplicity
 _atom_site_fract_x
 _atom_site_fract_y
 _atom_site_fract_z
 _atom_site_occupancy
  Nd  Nd0  1  0.249700  0.249700  0.250300  1
  Nd  Nd1  1  0.749700  0.749700  0.750300  1
  Mg  Mg2  1  0.000907  0.000907  0.999093  1
  Si  Si3  1  0.734387  0.264408  0.265613  1
  Si  Si4  1  0.264408  0.734387  0.735592  1
  Si  Si5  1  0.264408  0.734387  0.265613  1
  Si  Si6  1  0.734387  0.264408  0.735592  1
  Si  Si7  1  0.265370  0.265370  0.734630  1
  P  P8  1  0.735389  0.735389  0.264611  1
  Pd  Pd9  1  0.385460  0.385460  0.385137  1
  Pd  Pd10  1  0.614871  0.614871  0.613214  1
  Pd  Pd11  1  0.385460  0.385460  0.843944  1
  Pd  Pd12  1  0.386786  0.842957  0.385129  1
  Pd  Pd13  1  0.614871  0.614871  0.157043  1
  Pd  Pd14  1  0.614863  0.156056  0.614540  1
  Pd  Pd15  1  0.842957  0.386786  0.385129  1
  Pd  Pd16  1  0.156056  0.614863  0.614540  1
  Pd  Pd17  1  0.344255  0.000054  0.999946  1
  Pd  Pd18  1  0.656547  0.998241  0.001759  1
  Pd  Pd19  1  0.000054  0.344255  0.655745  1
  Pd  Pd20  1  0.998241  0.656547  0.343453  1
  Pd  Pd21  1  0.000054  0.344255  0.999946  1
  Pd  Pd22  1  0.656547  0.998241  0.343453  1
  Pd  Pd23  1  0.998241  0.656547  0.001759  1
  Pd  Pd24  1  0.344255  0.000054  0.655745  1
  Pd  Pd25  1  0.000456  0.000456  0.344005  1
  Pd  Pd26  1  0.000456  0.000456  0.655083  1
  Pd  Pd27  1  0.655995  0.344917  0.999544  1
  Pd  Pd28  1  0.344917  0.655995  0.999544  1
