# generated using pymatgen
data_Y4MoRuC4
_symmetry_space_group_name_H-M   'P 1'
_cell_length_a   5.10493400
_cell_length_b   6.60656085
_cell_length_c   9.94135636
_cell_angle_alpha   89.33232818
_cell_angle_beta   90.00000000
_cell_angle_gamma   90.00000000
_symmetry_Int_Tables_number   1
_chemical_formula_structural   Y4MoRuC4
_chemical_formula_sum   'Y8 Mo2 Ru2 C8'
_cell_volume   335.25998779
_cell_formula_units_Z   2
loop_
 _symmetry_equiv_pos_site_id
 _symmetry_equiv_pos_as_xyz
  1  'x, y, z'
loop_
 _atom_site_type_symbol
 _atom_site_label
 _atom_site_symmetry_multiplicity
 _atom_site_fract_x
 _atom_site_fract_y
 _atom_site_fract_z
 _atom_site_occupancy
  Y  Y0  1  0.250000  0.675908  0.557981  1
  Y  Y1  1  0.750000  0.324092  0.442019  1
  Y  Y2  1  0.750000  0.823859  0.058552  1
  Y  Y3  1  0.250000  0.176141  0.941448  1
  Y  Y4  1  0.250000  0.538500  0.218668  1
  Y  Y5  1  0.750000  0.461500  0.781332  1
  Y  Y6  1  0.750000  0.967686  0.715783  1
  Y  Y7  1  0.250000  0.032314  0.284217  1
  Mo  Mo8  1  0.250000  0.715948  0.866847  1
  Mo  Mo9  1  0.750000  0.284052  0.133153  1
  Ru  Ru10  1  0.750000  0.780785  0.365766  1
  Ru  Ru11  1  0.250000  0.219215  0.634234  1
  C  C12  1  0.250000  0.449103  0.758111  1
  C  C13  1  0.750000  0.550897  0.241889  1
  C  C14  1  0.750000  0.048283  0.258911  1
  C  C15  1  0.250000  0.951717  0.741089  1
  C  C16  1  0.250000  0.821964  0.051138  1
  C  C17  1  0.750000  0.178036  0.948862  1
  C  C18  1  0.750000  0.678542  0.547042  1
  C  C19  1  0.250000  0.321458  0.452958  1
