# generated using pymatgen
data_PrAg3Ru3PtO14
_symmetry_space_group_name_H-M   'P 1'
_cell_length_a   7.31489735
_cell_length_b   7.28878238
_cell_length_c   7.31489646
_cell_angle_alpha   59.19453005
_cell_angle_beta   59.64934993
_cell_angle_gamma   59.19452975
_symmetry_Int_Tables_number   1
_chemical_formula_structural   PrAg3Ru3PtO14
_chemical_formula_sum   'Pr1 Ag3 Ru3 Pt1 O14'
_cell_volume   271.65951784
_cell_formula_units_Z   1
loop_
 _symmetry_equiv_pos_site_id
 _symmetry_equiv_pos_as_xyz
  1  'x, y, z'
loop_
 _atom_site_type_symbol
 _atom_site_label
 _atom_site_symmetry_multiplicity
 _atom_site_fract_x
 _atom_site_fract_y
 _atom_site_fract_z
 _atom_site_occupancy
  Pr  Pr0  1  0.625000  0.625000  0.625000  1
  Ag  Ag1  1  0.625000  0.625000  0.125000  1
  Ag  Ag2  1  0.625000  0.125000  0.625000  1
  Ag  Ag3  1  0.125000  0.625000  0.625000  1
  Ru  Ru4  1  0.125000  0.125000  0.625000  1
  Ru  Ru5  1  0.625000  0.125000  0.125000  1
  Ru  Ru6  1  0.125000  0.125000  0.125000  1
  Pt  Pt7  1  0.125000  0.625000  0.125000  1
  O  O8  1  0.758628  0.761582  0.758628  1
  O  O9  1  0.491372  0.488418  0.491372  1
  O  O10  1  0.046944  0.449298  0.046944  1
  O  O11  1  0.804233  0.191191  0.804233  1
  O  O12  1  0.059240  0.073104  0.435565  1
  O  O13  1  0.435565  0.073104  0.059240  1
  O  O14  1  0.042528  0.453772  0.459378  1
  O  O15  1  0.459378  0.453772  0.042528  1
  O  O16  1  0.445767  0.058809  0.445767  1
  O  O17  1  0.207472  0.796228  0.790622  1
  O  O18  1  0.814435  0.176896  0.190760  1
  O  O19  1  0.203056  0.800702  0.203056  1
  O  O20  1  0.790622  0.796228  0.207472  1
  O  O21  1  0.190760  0.176896  0.814435  1
