# generated using pymatgen
data_Dy9Y11Si15Au
_symmetry_space_group_name_H-M   'P 1'
_cell_length_a   7.46252690
_cell_length_b   7.69793179
_cell_length_c   14.66923525
_cell_angle_alpha   90.15634494
_cell_angle_beta   90.50803152
_cell_angle_gamma   90.15052133
_symmetry_Int_Tables_number   1
_chemical_formula_structural   Dy9Y11Si15Au
_chemical_formula_sum   'Dy9 Y11 Si15 Au1'
_cell_volume   842.65000109
_cell_formula_units_Z   1
loop_
 _symmetry_equiv_pos_site_id
 _symmetry_equiv_pos_as_xyz
  1  'x, y, z'
loop_
 _atom_site_type_symbol
 _atom_site_label
 _atom_site_symmetry_multiplicity
 _atom_site_fract_x
 _atom_site_fract_y
 _atom_site_fract_z
 _atom_site_occupancy
  Dy  Dy0  1  0.680147  0.174122  0.623215  1
  Dy  Dy1  1  0.182706  0.321689  0.877342  1
  Dy  Dy2  1  0.318330  0.819475  0.121436  1
  Dy  Dy3  1  0.823612  0.677721  0.377496  1
  Dy  Dy4  1  0.318959  0.824749  0.377739  1
  Dy  Dy5  1  0.817478  0.678760  0.121869  1
  Dy  Dy6  1  0.680949  0.179608  0.877554  1
  Dy  Dy7  1  0.178479  0.321323  0.623444  1
  Dy  Dy8  1  0.526257  0.679222  0.601017  1
  Y  Y9  1  0.028824  0.816578  0.901232  1
  Y  Y10  1  0.470019  0.317875  0.098602  1
  Y  Y11  1  0.976512  0.181975  0.399814  1
  Y  Y12  1  0.470835  0.321904  0.400075  1
  Y  Y13  1  0.970119  0.183365  0.098309  1
  Y  Y14  1  0.530491  0.682687  0.900209  1
  Y  Y15  1  0.025154  0.817900  0.600769  1
  Y  Y16  1  0.851293  0.508440  0.749984  1
  Y  Y17  1  0.349570  0.989000  0.748769  1
  Y  Y18  1  0.149928  0.488725  0.249993  1
  Y  Y19  1  0.651477  0.011037  0.250785  1
  Si  Si20  1  0.145076  0.528124  0.040167  1
  Si  Si21  1  0.353976  0.029404  0.959983  1
  Si  Si22  1  0.850937  0.471709  0.541824  1
  Si  Si23  1  0.342284  0.027900  0.542829  1
  Si  Si24  1  0.855126  0.471158  0.959263  1
  Si  Si25  1  0.644371  0.970895  0.039389  1
  Si  Si26  1  0.148389  0.530625  0.461090  1
  Si  Si27  1  0.478149  0.395285  0.750276  1
  Si  Si28  1  0.976450  0.104385  0.752068  1
  Si  Si29  1  0.523042  0.607238  0.248661  1
  Si  Si30  1  0.024970  0.894770  0.247232  1
  Si  Si31  1  0.733997  0.871304  0.752264  1
  Si  Si32  1  0.233852  0.626687  0.751168  1
  Si  Si33  1  0.267979  0.126163  0.247010  1
  Si  Si34  1  0.765595  0.375321  0.248693  1
  Au  Au35  1  0.654665  0.972883  0.458429  1
