# generated using pymatgen
data_CdHg12Ge(As2Br3)4
_symmetry_space_group_name_H-M   'P 1'
_cell_length_a   12.75587693
_cell_length_b   12.75270293
_cell_length_c   12.75644000
_cell_angle_alpha   90.00000000
_cell_angle_beta   90.00000000
_cell_angle_gamma   90.12776482
_symmetry_Int_Tables_number   1
_chemical_formula_structural   CdHg12Ge(As2Br3)4
_chemical_formula_sum   'Cd2 Hg24 Ge2 As16 Br24'
_cell_volume   2075.10928807
_cell_formula_units_Z   2
loop_
 _symmetry_equiv_pos_site_id
 _symmetry_equiv_pos_as_xyz
  1  'x, y, z'
loop_
 _atom_site_type_symbol
 _atom_site_label
 _atom_site_symmetry_multiplicity
 _atom_site_fract_x
 _atom_site_fract_y
 _atom_site_fract_z
 _atom_site_occupancy
  Cd  Cd0  1  0.000000  0.500000  0.500000  1
  Cd  Cd1  1  0.500000  0.500000  0.000000  1
  Hg  Hg2  1  0.716427  0.718742  0.477436  1
  Hg  Hg3  1  0.218958  0.022681  0.283638  1
  Hg  Hg4  1  0.976958  0.715495  0.780366  1
  Hg  Hg5  1  0.783573  0.281258  0.977436  1
  Hg  Hg6  1  0.523042  0.284505  0.280366  1
  Hg  Hg7  1  0.781042  0.977319  0.716362  1
  Hg  Hg8  1  0.022630  0.216491  0.718892  1
  Hg  Hg9  1  0.477370  0.783509  0.218892  1
  Hg  Hg10  1  0.219558  0.477023  0.784407  1
  Hg  Hg11  1  0.476958  0.715495  0.719634  1
  Hg  Hg12  1  0.784467  0.219841  0.476945  1
  Hg  Hg13  1  0.283573  0.281258  0.522564  1
  Hg  Hg14  1  0.023042  0.284505  0.219634  1
  Hg  Hg15  1  0.977370  0.783509  0.281108  1
  Hg  Hg16  1  0.780442  0.522977  0.215593  1
  Hg  Hg17  1  0.280442  0.522977  0.284407  1
  Hg  Hg18  1  0.284467  0.219841  0.023055  1
  Hg  Hg19  1  0.281042  0.977319  0.783638  1
  Hg  Hg20  1  0.522630  0.216491  0.781108  1
  Hg  Hg21  1  0.216427  0.718742  0.022564  1
  Hg  Hg22  1  0.719558  0.477023  0.715593  1
  Hg  Hg23  1  0.715533  0.780159  0.976945  1
  Hg  Hg24  1  0.215533  0.780159  0.523055  1
  Hg  Hg25  1  0.718958  0.022681  0.216362  1
  Ge  Ge26  1  0.500000  0.000000  0.500000  1
  Ge  Ge27  1  0.000000  0.000000  0.000000  1
  As  As28  1  0.829809  0.170280  0.669898  1
  As  As29  1  0.784060  0.715804  0.284206  1
  As  As30  1  0.830097  0.330114  0.170212  1
  As  As31  1  0.169903  0.669886  0.829788  1
  As  As32  1  0.329809  0.170280  0.830102  1
  As  As33  1  0.330097  0.330114  0.329788  1
  As  As34  1  0.215940  0.284196  0.715794  1
  As  As35  1  0.715718  0.215857  0.284238  1
  As  As36  1  0.170191  0.829720  0.330102  1
  As  As37  1  0.670191  0.829720  0.169898  1
  As  As38  1  0.784282  0.784143  0.784238  1
  As  As39  1  0.215718  0.215857  0.215762  1
  As  As40  1  0.284282  0.784143  0.715762  1
  As  As41  1  0.715940  0.284196  0.784206  1
  As  As42  1  0.669903  0.669886  0.670212  1
  As  As43  1  0.284060  0.715804  0.215794  1
  Br  Br44  1  0.036271  0.217488  0.959514  1
  Br  Br45  1  0.784883  0.460459  0.464778  1
  Br  Br46  1  0.963729  0.782512  0.040486  1
  Br  Br47  1  0.535232  0.284783  0.039476  1
  Br  Br48  1  0.964768  0.715217  0.539476  1
  Br  Br49  1  0.284883  0.460459  0.035222  1
  Br  Br50  1  0.039434  0.535344  0.284825  1
  Br  Br51  1  0.459663  0.036201  0.282627  1
  Br  Br52  1  0.782550  0.040466  0.964042  1
  Br  Br53  1  0.539434  0.535344  0.215175  1
  Br  Br54  1  0.717450  0.959534  0.464042  1
  Br  Br55  1  0.217450  0.959534  0.035958  1
  Br  Br56  1  0.460566  0.464656  0.784825  1
  Br  Br57  1  0.282550  0.040466  0.535958  1
  Br  Br58  1  0.959663  0.036201  0.217373  1
  Br  Br59  1  0.035232  0.284783  0.460524  1
  Br  Br60  1  0.540337  0.963799  0.717373  1
  Br  Br61  1  0.715117  0.539541  0.964778  1
  Br  Br62  1  0.215117  0.539541  0.535222  1
  Br  Br63  1  0.536271  0.217488  0.540486  1
  Br  Br64  1  0.960566  0.464656  0.715175  1
  Br  Br65  1  0.040337  0.963799  0.782627  1
  Br  Br66  1  0.463729  0.782512  0.459514  1
  Br  Br67  1  0.464768  0.715217  0.960524  1
