# generated using pymatgen
data_Y4Ga5Ir9
_symmetry_space_group_name_H-M   'P 1'
_cell_length_a   5.57248400
_cell_length_b   5.57248375
_cell_length_c   23.69106000
_cell_angle_alpha   90.00000000
_cell_angle_beta   90.00000000
_cell_angle_gamma   119.99998959
_symmetry_Int_Tables_number   1
_chemical_formula_structural   Y4Ga5Ir9
_chemical_formula_sum   'Y8 Ga10 Ir18'
_cell_volume   637.10763721
_cell_formula_units_Z   2
loop_
 _symmetry_equiv_pos_site_id
 _symmetry_equiv_pos_as_xyz
  1  'x, y, z'
loop_
 _atom_site_type_symbol
 _atom_site_label
 _atom_site_symmetry_multiplicity
 _atom_site_fract_x
 _atom_site_fract_y
 _atom_site_fract_z
 _atom_site_occupancy
  Y  Y0  1  0.333333  0.666667  0.529263  1
  Y  Y1  1  0.666667  0.333333  0.470737  1
  Y  Y2  1  0.666667  0.333333  0.029263  1
  Y  Y3  1  0.333333  0.666667  0.970737  1
  Y  Y4  1  0.333333  0.666667  0.677361  1
  Y  Y5  1  0.666667  0.333333  0.322639  1
  Y  Y6  1  0.666667  0.333333  0.177361  1
  Y  Y7  1  0.333333  0.666667  0.822639  1
  Ga  Ga8  1  0.000000  0.000000  0.000000  1
  Ga  Ga9  1  0.000000  0.000000  0.500000  1
  Ga  Ga10  1  0.333333  0.666667  0.167616  1
  Ga  Ga11  1  0.666667  0.333333  0.832384  1
  Ga  Ga12  1  0.666667  0.333333  0.667616  1
  Ga  Ga13  1  0.333333  0.666667  0.332384  1
  Ga  Ga14  1  0.000000  0.000000  0.165122  1
  Ga  Ga15  1  0.000000  0.000000  0.834878  1
  Ga  Ga16  1  0.000000  0.000000  0.665122  1
  Ga  Ga17  1  0.000000  0.000000  0.334878  1
  Ir  Ir18  1  0.170057  0.340113  0.083391  1
  Ir  Ir19  1  0.829943  0.659887  0.916609  1
  Ir  Ir20  1  0.659887  0.829943  0.083391  1
  Ir  Ir21  1  0.829943  0.659887  0.583391  1
  Ir  Ir22  1  0.340113  0.170057  0.916609  1
  Ir  Ir23  1  0.170057  0.340113  0.416609  1
  Ir  Ir24  1  0.170057  0.829943  0.083391  1
  Ir  Ir25  1  0.340113  0.170057  0.583391  1
  Ir  Ir26  1  0.829943  0.170057  0.916609  1
  Ir  Ir27  1  0.659887  0.829943  0.416609  1
  Ir  Ir28  1  0.829943  0.170057  0.583391  1
  Ir  Ir29  1  0.170057  0.829943  0.416609  1
  Ir  Ir30  1  0.165432  0.330862  0.250000  1
  Ir  Ir31  1  0.834568  0.669138  0.750000  1
  Ir  Ir32  1  0.669138  0.834568  0.250000  1
  Ir  Ir33  1  0.330862  0.165432  0.750000  1
  Ir  Ir34  1  0.165432  0.834568  0.250000  1
  Ir  Ir35  1  0.834568  0.165432  0.750000  1
