# generated using pymatgen
data_LiEr6Cd22As
_symmetry_space_group_name_H-M   'P 1'
_cell_length_a   9.78034678
_cell_length_b   9.78034714
_cell_length_c   9.78034600
_cell_angle_alpha   60.00000384
_cell_angle_beta   60.00000265
_cell_angle_gamma   59.99999710
_symmetry_Int_Tables_number   1
_chemical_formula_structural   LiEr6Cd22As
_chemical_formula_sum   'Li1 Er6 Cd22 As1'
_cell_volume   661.52727747
_cell_formula_units_Z   1
loop_
 _symmetry_equiv_pos_site_id
 _symmetry_equiv_pos_as_xyz
  1  'x, y, z'
loop_
 _atom_site_type_symbol
 _atom_site_label
 _atom_site_symmetry_multiplicity
 _atom_site_fract_x
 _atom_site_fract_y
 _atom_site_fract_z
 _atom_site_occupancy
  Li  Li0  1  0.500000  0.500000  0.500000  1
  Er  Er1  1  0.796148  0.796148  0.203852  1
  Er  Er2  1  0.203852  0.796148  0.203852  1
  Er  Er3  1  0.796148  0.203852  0.203852  1
  Er  Er4  1  0.203852  0.203852  0.796148  1
  Er  Er5  1  0.796148  0.203852  0.796148  1
  Er  Er6  1  0.203852  0.796148  0.796148  1
  Cd  Cd7  1  0.834070  0.834070  0.497787  1
  Cd  Cd8  1  0.834070  0.497787  0.834070  1
  Cd  Cd9  1  0.497787  0.834070  0.834070  1
  Cd  Cd10  1  0.834070  0.834070  0.834070  1
  Cd  Cd11  1  0.165930  0.165930  0.502213  1
  Cd  Cd12  1  0.165930  0.502213  0.165930  1
  Cd  Cd13  1  0.502213  0.165930  0.165930  1
  Cd  Cd14  1  0.165930  0.165930  0.165930  1
  Cd  Cd15  1  0.615853  0.615853  0.152442  1
  Cd  Cd16  1  0.615853  0.152442  0.615853  1
  Cd  Cd17  1  0.152442  0.615853  0.615853  1
  Cd  Cd18  1  0.615853  0.615853  0.615853  1
  Cd  Cd19  1  0.384147  0.384147  0.847558  1
  Cd  Cd20  1  0.384147  0.847558  0.384147  1
  Cd  Cd21  1  0.847558  0.384147  0.384147  1
  Cd  Cd22  1  0.384147  0.384147  0.384147  1
  Cd  Cd23  1  0.000000  0.000000  0.500000  1
  Cd  Cd24  1  0.500000  0.000000  0.500000  1
  Cd  Cd25  1  0.000000  0.500000  0.500000  1
  Cd  Cd26  1  0.500000  0.500000  0.000000  1
  Cd  Cd27  1  0.000000  0.500000  0.000000  1
  Cd  Cd28  1  0.500000  0.000000  0.000000  1
  As  As29  1  0.000000  0.000000  0.000000  1
