# generated using pymatgen
data_Tb9Ce(Sn3O)2
_symmetry_space_group_name_H-M   'P 1'
_cell_length_a   9.10240080
_cell_length_b   9.10240076
_cell_length_c   9.10240200
_cell_angle_alpha   125.95865011
_cell_angle_beta   125.95864215
_cell_angle_gamma   79.95612448
_symmetry_Int_Tables_number   1
_chemical_formula_structural   Tb9Ce(Sn3O)2
_chemical_formula_sum   'Tb9 Ce1 Sn6 O2'
_cell_volume   477.12239544
_cell_formula_units_Z   1
loop_
 _symmetry_equiv_pos_site_id
 _symmetry_equiv_pos_as_xyz
  1  'x, y, z'
loop_
 _atom_site_type_symbol
 _atom_site_label
 _atom_site_symmetry_multiplicity
 _atom_site_fract_x
 _atom_site_fract_y
 _atom_site_fract_z
 _atom_site_occupancy
  Tb  Tb0  1  0.500245  0.301922  0.499516  1
  Tb  Tb1  1  0.802406  0.000729  0.500484  1
  Tb  Tb2  1  0.000729  0.500245  0.198323  1
  Tb  Tb3  1  0.301922  0.802406  0.801677  1
  Tb  Tb4  1  0.501901  0.700313  0.500460  1
  Tb  Tb5  1  0.199853  0.001441  0.499540  1
  Tb  Tb6  1  0.001441  0.501901  0.801588  1
  Tb  Tb7  1  0.700313  0.199853  0.198412  1
  Tb  Tb8  1  0.002228  0.002228  0.000000  1
  Ce  Ce9  1  0.502419  0.502419  0.000000  1
  Sn  Sn10  1  0.142908  0.357822  0.498606  1
  Sn  Sn11  1  0.859215  0.644302  0.501394  1
  Sn  Sn12  1  0.644302  0.142908  0.785085  1
  Sn  Sn13  1  0.357822  0.859215  0.214915  1
  Sn  Sn14  1  0.752416  0.752416  0.000000  1
  Sn  Sn15  1  0.250713  0.250713  0.000000  1
  O  O16  1  0.751002  0.251002  0.500000  1
  O  O17  1  0.251002  0.751002  0.500000  1
