# generated using pymatgen
data_AcCe2(InPd)3
_symmetry_space_group_name_H-M   'P 1'
_cell_length_a   7.81418400
_cell_length_b   7.86229105
_cell_length_c   4.17160300
_cell_angle_alpha   90.00000000
_cell_angle_beta   90.00000000
_cell_angle_gamma   120.20386841
_symmetry_Int_Tables_number   1
_chemical_formula_structural   AcCe2(InPd)3
_chemical_formula_sum   'Ac1 Ce2 In3 Pd3'
_cell_volume   221.49835487
_cell_formula_units_Z   1
loop_
 _symmetry_equiv_pos_site_id
 _symmetry_equiv_pos_as_xyz
  1  'x, y, z'
loop_
 _atom_site_type_symbol
 _atom_site_label
 _atom_site_symmetry_multiplicity
 _atom_site_fract_x
 _atom_site_fract_y
 _atom_site_fract_z
 _atom_site_occupancy
  Ac  Ac0  1  0.000000  0.584775  0.000000  1
  Ce  Ce1  1  0.412902  0.414080  0.000000  1
  Ce  Ce2  1  0.587098  0.001179  0.000000  1
  In  In3  1  0.746877  0.752693  0.500000  1
  In  In4  1  0.000000  0.241203  0.500000  1
  In  In5  1  0.253123  0.005817  0.500000  1
  Pd  Pd6  1  0.345953  0.672086  0.500000  1
  Pd  Pd7  1  0.000000  0.002035  0.000000  1
  Pd  Pd8  1  0.654047  0.326132  0.500000  1
