# generated using pymatgen
data_NdErLu2(WO6)2
_symmetry_space_group_name_H-M   'P 1'
_cell_length_a   5.39923100
_cell_length_b   7.69938954
_cell_length_c   11.40604950
_cell_angle_alpha   75.56862025
_cell_angle_beta   90.00000000
_cell_angle_gamma   90.00000000
_symmetry_Int_Tables_number   1
_chemical_formula_structural   NdErLu2(WO6)2
_chemical_formula_sum   'Nd2 Er2 Lu4 W4 O24'
_cell_volume   459.19719681
_cell_formula_units_Z   2
loop_
 _symmetry_equiv_pos_site_id
 _symmetry_equiv_pos_as_xyz
  1  'x, y, z'
loop_
 _atom_site_type_symbol
 _atom_site_label
 _atom_site_symmetry_multiplicity
 _atom_site_fract_x
 _atom_site_fract_y
 _atom_site_fract_z
 _atom_site_occupancy
  Nd  Nd0  1  0.314364  0.500000  0.750000  1
  Nd  Nd1  1  0.685636  0.500000  0.250000  1
  Er  Er2  1  0.254842  0.000000  0.750000  1
  Er  Er3  1  0.745158  0.000000  0.250000  1
  Lu  Lu4  1  0.183104  0.795648  0.078121  1
  Lu  Lu5  1  0.183104  0.204352  0.421879  1
  Lu  Lu6  1  0.816896  0.204352  0.921879  1
  Lu  Lu7  1  0.816896  0.795648  0.578121  1
  W  W8  1  0.744618  0.729002  0.884354  1
  W  W9  1  0.255382  0.729002  0.384354  1
  W  W10  1  0.744618  0.270998  0.615646  1
  W  W11  1  0.255382  0.270998  0.115646  1
  O  O12  1  0.543782  0.158887  0.068240  1
  O  O13  1  0.046939  0.055945  0.102872  1
  O  O14  1  0.015859  0.722436  0.768094  1
  O  O15  1  0.456218  0.158887  0.568240  1
  O  O16  1  0.344494  0.491265  0.386760  1
  O  O17  1  0.953061  0.055945  0.602872  1
  O  O18  1  0.546311  0.798279  0.724252  1
  O  O19  1  0.453689  0.798279  0.224252  1
  O  O20  1  0.143135  0.641829  0.547002  1
  O  O21  1  0.046939  0.944055  0.397128  1
  O  O22  1  0.456218  0.841113  0.931760  1
  O  O23  1  0.453689  0.201721  0.275748  1
  O  O24  1  0.856865  0.358171  0.452998  1
  O  O25  1  0.655506  0.491265  0.886760  1
  O  O26  1  0.344494  0.508735  0.113240  1
  O  O27  1  0.953061  0.944055  0.897128  1
  O  O28  1  0.543782  0.841113  0.431760  1
  O  O29  1  0.984141  0.277564  0.231906  1
  O  O30  1  0.546311  0.201721  0.775748  1
  O  O31  1  0.856865  0.641829  0.047002  1
  O  O32  1  0.015859  0.277564  0.731906  1
  O  O33  1  0.143135  0.358171  0.952998  1
  O  O34  1  0.984141  0.722436  0.268094  1
  O  O35  1  0.655506  0.508735  0.613240  1
