# generated using pymatgen
data_Sc4TiSi8Tc5
_symmetry_space_group_name_H-M   'P 1'
_cell_length_a   6.65928302
_cell_length_b   6.63408000
_cell_length_c   12.48033235
_cell_angle_alpha   90.00000000
_cell_angle_beta   89.90597885
_cell_angle_gamma   90.00000000
_symmetry_Int_Tables_number   1
_chemical_formula_structural   Sc4TiSi8Tc5
_chemical_formula_sum   'Sc8 Ti2 Si16 Tc10'
_cell_volume   551.35807926
_cell_formula_units_Z   2
loop_
 _symmetry_equiv_pos_site_id
 _symmetry_equiv_pos_as_xyz
  1  'x, y, z'
loop_
 _atom_site_type_symbol
 _atom_site_label
 _atom_site_symmetry_multiplicity
 _atom_site_fract_x
 _atom_site_fract_y
 _atom_site_fract_z
 _atom_site_occupancy
  Sc  Sc0  1  0.339203  0.991473  0.467485  1
  Sc  Sc1  1  0.504742  0.839556  0.718977  1
  Sc  Sc2  1  0.490069  0.157706  0.216772  1
  Sc  Sc3  1  0.841045  0.505887  0.279982  1
  Sc  Sc4  1  0.160797  0.491473  0.782515  1
  Sc  Sc5  1  0.658955  0.005887  0.970018  1
  Sc  Sc6  1  0.995258  0.339556  0.531023  1
  Sc  Sc7  1  0.009931  0.657706  0.033228  1
  Ti  Ti8  1  0.837629  0.164738  0.751973  1
  Ti  Ti9  1  0.662371  0.664738  0.498027  1
  Si  Si10  1  0.206037  0.129163  0.678097  1
  Si  Si11  1  0.378600  0.695190  0.927813  1
  Si  Si12  1  0.627804  0.296155  0.429185  1
  Si  Si13  1  0.695389  0.381919  0.069941  1
  Si  Si14  1  0.293963  0.629163  0.571903  1
  Si  Si15  1  0.804611  0.881919  0.180059  1
  Si  Si16  1  0.121400  0.195190  0.322187  1
  Si  Si17  1  0.872196  0.796155  0.820815  1
  Si  Si18  1  0.270914  0.978077  0.059858  1
  Si  Si19  1  0.520707  0.775781  0.304932  1
  Si  Si20  1  0.466830  0.212316  0.815128  1
  Si  Si21  1  0.791993  0.531351  0.687496  1
  Si  Si22  1  0.229086  0.478077  0.190142  1
  Si  Si23  1  0.708007  0.031351  0.562504  1
  Si  Si24  1  0.979293  0.275781  0.945068  1
  Si  Si25  1  0.033170  0.712316  0.434872  1
  Tc  Tc26  1  0.334338  0.332052  0.000903  1
  Tc  Tc27  1  0.165662  0.832052  0.249097  1
  Tc  Tc28  1  0.173307  0.986511  0.864288  1
  Tc  Tc29  1  0.518352  0.692308  0.111405  1
  Tc  Tc30  1  0.501341  0.332444  0.619938  1
  Tc  Tc31  1  0.685225  0.497372  0.880024  1
  Tc  Tc32  1  0.326693  0.486511  0.385712  1
  Tc  Tc33  1  0.814775  0.997372  0.369976  1
  Tc  Tc34  1  0.981648  0.192308  0.138595  1
  Tc  Tc35  1  0.998659  0.832444  0.630062  1
