# generated using pymatgen
data_Tm4Lu8In2Fe2Tc
_symmetry_space_group_name_H-M   'P 1'
_cell_length_a   8.22422411
_cell_length_b   8.22422500
_cell_length_c   8.22422484
_cell_angle_alpha   108.80484155
_cell_angle_beta   108.80483545
_cell_angle_gamma   110.81235851
_symmetry_Int_Tables_number   1
_chemical_formula_structural   Tm4Lu8In2Fe2Tc
_chemical_formula_sum   'Tm4 Lu8 In2 Fe2 Tc1'
_cell_volume   428.03972085
_cell_formula_units_Z   1
loop_
 _symmetry_equiv_pos_site_id
 _symmetry_equiv_pos_as_xyz
  1  'x, y, z'
loop_
 _atom_site_type_symbol
 _atom_site_label
 _atom_site_symmetry_multiplicity
 _atom_site_fract_x
 _atom_site_fract_y
 _atom_site_fract_z
 _atom_site_occupancy
  Tm  Tm0  1  0.307428  0.307428  0.614857  1
  Tm  Tm1  1  0.692572  0.692572  0.385143  1
  Tm  Tm2  1  0.692572  0.307428  0.000000  1
  Tm  Tm3  1  0.307428  0.692572  0.000000  1
  Lu  Lu4  1  0.192955  0.431179  0.238224  1
  Lu  Lu5  1  0.807045  0.568821  0.761776  1
  Lu  Lu6  1  0.192955  0.954730  0.761776  1
  Lu  Lu7  1  0.954730  0.192955  0.761776  1
  Lu  Lu8  1  0.807045  0.045270  0.238224  1
  Lu  Lu9  1  0.045270  0.807045  0.238224  1
  Lu  Lu10  1  0.431179  0.192955  0.238224  1
  Lu  Lu11  1  0.568821  0.807045  0.761776  1
  In  In12  1  0.000000  0.500000  0.500000  1
  In  In13  1  0.500000  0.000000  0.500000  1
  Fe  Fe14  1  0.382329  0.382329  0.000000  1
  Fe  Fe15  1  0.617671  0.617671  0.000000  1
  Tc  Tc16  1  0.000000  0.000000  0.000000  1
