# generated using pymatgen
data_Nd7Sm(BeSi3)4
_symmetry_space_group_name_H-M   'P 1'
_cell_length_a   7.94475745
_cell_length_b   7.94475890
_cell_length_c   8.56862500
_cell_angle_alpha   90.00000000
_cell_angle_beta   90.00000000
_cell_angle_gamma   120.00150116
_symmetry_Int_Tables_number   1
_chemical_formula_structural   Nd7Sm(BeSi3)4
_chemical_formula_sum   'Nd7 Sm1 Be4 Si12'
_cell_volume   468.37808206
_cell_formula_units_Z   1
loop_
 _symmetry_equiv_pos_site_id
 _symmetry_equiv_pos_as_xyz
  1  'x, y, z'
loop_
 _atom_site_type_symbol
 _atom_site_label
 _atom_site_symmetry_multiplicity
 _atom_site_fract_x
 _atom_site_fract_y
 _atom_site_fract_z
 _atom_site_occupancy
  Nd  Nd0  1  0.500145  0.499855  0.250000  1
  Nd  Nd1  1  0.000323  0.500159  0.750000  1
  Nd  Nd2  1  0.999690  0.499831  0.250000  1
  Nd  Nd3  1  0.499841  0.999677  0.750000  1
  Nd  Nd4  1  0.500169  0.000310  0.250000  1
  Nd  Nd5  1  0.999997  0.000003  0.750000  1
  Nd  Nd6  1  0.999988  0.000012  0.250000  1
  Sm  Sm7  1  0.499847  0.500153  0.750000  1
  Be  Be8  1  0.666465  0.333535  0.998287  1
  Be  Be9  1  0.333536  0.666464  0.998549  1
  Be  Be10  1  0.333536  0.666464  0.501451  1
  Be  Be11  1  0.666465  0.333535  0.501713  1
  Si  Si12  1  0.827572  0.172428  0.999496  1
  Si  Si13  1  0.172422  0.827578  0.000262  1
  Si  Si14  1  0.345138  0.172978  0.998639  1
  Si  Si15  1  0.172422  0.827578  0.499738  1
  Si  Si16  1  0.654867  0.827023  0.999392  1
  Si  Si17  1  0.827572  0.172428  0.500504  1
  Si  Si18  1  0.827022  0.654862  0.998639  1
  Si  Si19  1  0.654867  0.827023  0.500608  1
  Si  Si20  1  0.172977  0.345133  0.999392  1
  Si  Si21  1  0.345138  0.172978  0.501361  1
  Si  Si22  1  0.172977  0.345133  0.500608  1
  Si  Si23  1  0.827022  0.654862  0.501361  1
