# generated using pymatgen
data_TbCd3P6N13
_symmetry_space_group_name_H-M   'P 1'
_cell_length_a   7.30967236
_cell_length_b   7.32220845
_cell_length_c   7.32220934
_cell_angle_alpha   109.50587873
_cell_angle_beta   109.43654508
_cell_angle_gamma   109.43654444
_symmetry_Int_Tables_number   1
_chemical_formula_structural   TbCd3P6N13
_chemical_formula_sum   'Tb1 Cd3 P6 N13'
_cell_volume   301.81853146
_cell_formula_units_Z   1
loop_
 _symmetry_equiv_pos_site_id
 _symmetry_equiv_pos_as_xyz
  1  'x, y, z'
loop_
 _atom_site_type_symbol
 _atom_site_label
 _atom_site_symmetry_multiplicity
 _atom_site_fract_x
 _atom_site_fract_y
 _atom_site_fract_z
 _atom_site_occupancy
  Tb  Tb0  1  0.688469  0.000000  0.000000  1
  Cd  Cd1  1  0.002545  0.000000  0.706158  1
  Cd  Cd2  1  0.002545  0.706158  0.000000  1
  Cd  Cd3  1  0.296388  0.293842  0.293842  1
  P  P4  1  0.248067  0.748862  0.497011  1
  P  P5  1  0.751056  0.251851  0.502989  1
  P  P6  1  0.751056  0.502989  0.251851  1
  P  P7  1  0.248067  0.497011  0.748862  1
  P  P8  1  0.499205  0.748149  0.251138  1
  P  P9  1  0.499205  0.251138  0.748149  1
  N  N10  1  0.991030  0.000000  0.000000  1
  N  N11  1  0.717934  0.285903  0.285903  1
  N  N12  1  0.279374  0.712198  0.278978  1
  N  N13  1  0.300791  0.577947  0.577947  1
  N  N14  1  0.567176  0.566780  0.287802  1
  N  N15  1  0.432031  0.714097  0.000000  1
  N  N16  1  0.000396  0.721022  0.433220  1
  N  N17  1  0.567176  0.287802  0.566780  1
  N  N18  1  0.722844  0.000000  0.422053  1
  N  N19  1  0.432031  0.000000  0.714097  1
  N  N20  1  0.722844  0.422053  0.000000  1
  N  N21  1  0.279374  0.278978  0.712198  1
  N  N22  1  0.000396  0.433220  0.721022  1
