# generated using pymatgen
data_CeEr2As2P2Pd7
_symmetry_space_group_name_H-M   'P 1'
_cell_length_a   8.01321179
_cell_length_b   8.01321295
_cell_length_c   9.55510304
_cell_angle_alpha   55.70999747
_cell_angle_beta   55.70999090
_cell_angle_gamma   29.39582418
_symmetry_Int_Tables_number   1
_chemical_formula_structural   CeEr2As2P2Pd7
_chemical_formula_sum   'Ce1 Er2 As2 P2 Pd7'
_cell_volume   244.80003691
_cell_formula_units_Z   1
loop_
 _symmetry_equiv_pos_site_id
 _symmetry_equiv_pos_as_xyz
  1  'x, y, z'
loop_
 _atom_site_type_symbol
 _atom_site_label
 _atom_site_symmetry_multiplicity
 _atom_site_fract_x
 _atom_site_fract_y
 _atom_site_fract_z
 _atom_site_occupancy
  Ce  Ce0  1  0.500000  0.500000  0.500000  1
  Er  Er1  1  0.819483  0.819483  0.172871  1
  Er  Er2  1  0.180517  0.180517  0.827129  1
  As  As3  1  0.393328  0.393328  0.321909  1
  As  As4  1  0.606672  0.606672  0.678091  1
  P  P5  1  0.840144  0.840144  0.754418  1
  P  P6  1  0.159856  0.159856  0.245582  1
  Pd  Pd7  1  0.670529  0.670529  0.071805  1
  Pd  Pd8  1  0.015732  0.015732  0.205986  1
  Pd  Pd9  1  0.984268  0.984268  0.794014  1
  Pd  Pd10  1  0.500000  0.500000  0.000000  1
  Pd  Pd11  1  0.192219  0.192219  0.467099  1
  Pd  Pd12  1  0.807781  0.807781  0.532901  1
  Pd  Pd13  1  0.329471  0.329471  0.928195  1
