# generated using pymatgen
data_La5Pr3(Os5Br2)2
_symmetry_space_group_name_H-M   'P 1'
_cell_length_a   11.56455927
_cell_length_b   11.56455848
_cell_length_c   4.29607400
_cell_angle_alpha   90.00000000
_cell_angle_beta   90.00000000
_cell_angle_gamma   91.88628036
_symmetry_Int_Tables_number   1
_chemical_formula_structural   La5Pr3(Os5Br2)2
_chemical_formula_sum   'La5 Pr3 Os10 Br4'
_cell_volume   574.24140044
_cell_formula_units_Z   1
loop_
 _symmetry_equiv_pos_site_id
 _symmetry_equiv_pos_as_xyz
  1  'x, y, z'
loop_
 _atom_site_type_symbol
 _atom_site_label
 _atom_site_symmetry_multiplicity
 _atom_site_fract_x
 _atom_site_fract_y
 _atom_site_fract_z
 _atom_site_occupancy
  La  La0  1  0.038024  0.668185  0.500000  1
  La  La1  1  0.960859  0.332199  0.500000  1
  La  La2  1  0.272458  0.272458  0.000000  1
  La  La3  1  0.668185  0.038024  0.500000  1
  La  La4  1  0.332199  0.960859  0.500000  1
  Pr  Pr5  1  0.725877  0.725877  0.000000  1
  Pr  Pr6  1  0.378692  0.622375  0.000000  1
  Pr  Pr7  1  0.622375  0.378692  0.000000  1
  Os  Os8  1  0.577364  0.577364  0.500000  1
  Os  Os9  1  0.423432  0.423432  0.500000  1
  Os  Os10  1  0.214785  0.473643  0.500000  1
  Os  Os11  1  0.786053  0.527301  0.500000  1
  Os  Os12  1  0.522254  0.895006  0.000000  1
  Os  Os13  1  0.527301  0.786053  0.500000  1
  Os  Os14  1  0.477800  0.105667  0.000000  1
  Os  Os15  1  0.105667  0.477800  0.000000  1
  Os  Os16  1  0.473643  0.214785  0.500000  1
  Os  Os17  1  0.895006  0.522254  0.000000  1
  Br  Br18  1  0.879695  0.879695  0.500000  1
  Br  Br19  1  0.171081  0.828731  0.000000  1
  Br  Br20  1  0.118516  0.118516  0.500000  1
  Br  Br21  1  0.828731  0.171081  0.000000  1
