# generated using pymatgen
data_La5Sm(OsBr3)2
_symmetry_space_group_name_H-M   'P 1'
_cell_length_a   4.33343000
_cell_length_b   9.14112613
_cell_length_c   12.25023112
_cell_angle_alpha   86.89969166
_cell_angle_beta   90.00000000
_cell_angle_gamma   90.00000000
_symmetry_Int_Tables_number   1
_chemical_formula_structural   La5Sm(OsBr3)2
_chemical_formula_sum   'La5 Sm1 Os2 Br6'
_cell_volume   484.55118675
_cell_formula_units_Z   1
loop_
 _symmetry_equiv_pos_site_id
 _symmetry_equiv_pos_as_xyz
  1  'x, y, z'
loop_
 _atom_site_type_symbol
 _atom_site_label
 _atom_site_symmetry_multiplicity
 _atom_site_fract_x
 _atom_site_fract_y
 _atom_site_fract_z
 _atom_site_occupancy
  La  La0  1  0.750000  0.673242  0.124352  1
  La  La1  1  0.250000  0.883329  0.339809  1
  La  La2  1  0.250000  0.324147  0.879812  1
  La  La3  1  0.250000  0.897072  0.890185  1
  La  La4  1  0.750000  0.122323  0.658629  1
  Sm  Sm5  1  0.750000  0.095187  0.108548  1
  Os  Os6  1  0.250000  0.882994  0.127130  1
  Os  Os7  1  0.750000  0.115109  0.872359  1
  Br  Br8  1  0.250000  0.390863  0.129842  1
  Br  Br9  1  0.750000  0.122326  0.377956  1
  Br  Br10  1  0.750000  0.604245  0.872292  1
  Br  Br11  1  0.250000  0.357835  0.626226  1
  Br  Br12  1  0.750000  0.647197  0.376644  1
  Br  Br13  1  0.250000  0.884132  0.616215  1
