# generated using pymatgen
data_NdEu4Te5
_symmetry_space_group_name_H-M   'P 1'
_cell_length_a   7.98106437
_cell_length_b   7.98106414
_cell_length_c   11.26988109
_cell_angle_alpha   61.67532011
_cell_angle_beta   61.67531997
_cell_angle_gamma   33.44975247
_symmetry_Int_Tables_number   1
_chemical_formula_structural   NdEu4Te5
_chemical_formula_sum   'Nd1 Eu4 Te5'
_cell_volume   343.71590268
_cell_formula_units_Z   1
loop_
 _symmetry_equiv_pos_site_id
 _symmetry_equiv_pos_as_xyz
  1  'x, y, z'
loop_
 _atom_site_type_symbol
 _atom_site_label
 _atom_site_symmetry_multiplicity
 _atom_site_fract_x
 _atom_site_fract_y
 _atom_site_fract_z
 _atom_site_occupancy
  Nd  Nd0  1  0.000000  0.000000  0.000000  1
  Eu  Eu1  1  0.600303  0.600303  0.599497  1
  Eu  Eu2  1  0.199259  0.199259  0.199222  1
  Eu  Eu3  1  0.800741  0.800741  0.800778  1
  Eu  Eu4  1  0.399697  0.399697  0.400503  1
  Te  Te5  1  0.198355  0.198355  0.702977  1
  Te  Te6  1  0.801645  0.801645  0.297023  1
  Te  Te7  1  0.401588  0.401588  0.901464  1
  Te  Te8  1  0.000000  0.000000  0.500000  1
  Te  Te9  1  0.598412  0.598412  0.098536  1
