# generated using pymatgen
data_Pr5Y7(Er2Bi3)4
_symmetry_space_group_name_H-M   'P 1'
_cell_length_a   8.35643247
_cell_length_b   9.57131998
_cell_length_c   12.21951059
_cell_angle_alpha   90.06545809
_cell_angle_beta   89.91172026
_cell_angle_gamma   90.09677401
_symmetry_Int_Tables_number   1
_chemical_formula_structural   Pr5Y7(Er2Bi3)4
_chemical_formula_sum   'Pr5 Y7 Er8 Bi12'
_cell_volume   977.33879475
_cell_formula_units_Z   1
loop_
 _symmetry_equiv_pos_site_id
 _symmetry_equiv_pos_as_xyz
  1  'x, y, z'
loop_
 _atom_site_type_symbol
 _atom_site_label
 _atom_site_symmetry_multiplicity
 _atom_site_fract_x
 _atom_site_fract_y
 _atom_site_fract_z
 _atom_site_occupancy
  Pr  Pr0  1  0.183986  0.750135  0.719771  1
  Pr  Pr1  1  0.684017  0.750930  0.779148  1
  Pr  Pr2  1  0.815893  0.249825  0.279893  1
  Pr  Pr3  1  0.316830  0.250070  0.220610  1
  Pr  Pr4  1  0.692706  0.560886  0.060583  1
  Y  Y5  1  0.193406  0.937626  0.439505  1
  Y  Y6  1  0.304923  0.062406  0.938829  1
  Y  Y7  1  0.807132  0.437514  0.560513  1
  Y  Y8  1  0.352560  0.750532  0.216896  1
  Y  Y9  1  0.854875  0.750566  0.283842  1
  Y  Y10  1  0.647127  0.250849  0.783338  1
  Y  Y11  1  0.147164  0.250406  0.716425  1
  Er  Er12  1  0.025476  0.750090  0.988379  1
  Er  Er13  1  0.525178  0.750038  0.511772  1
  Er  Er14  1  0.975162  0.250398  0.011594  1
  Er  Er15  1  0.475007  0.250139  0.488976  1
  Er  Er16  1  0.307907  0.434983  0.940129  1
  Er  Er17  1  0.806686  0.064975  0.560119  1
  Er  Er18  1  0.693177  0.934362  0.060630  1
  Er  Er19  1  0.193096  0.565177  0.439683  1
  Bi  Bi20  1  0.434843  0.008945  0.670787  1
  Bi  Bi21  1  0.935887  0.491591  0.827680  1
  Bi  Bi22  1  0.564265  0.508451  0.330872  1
  Bi  Bi23  1  0.065049  0.992230  0.171047  1
  Bi  Bi24  1  0.565465  0.991517  0.329747  1
  Bi  Bi25  1  0.068771  0.508479  0.171791  1
  Bi  Bi26  1  0.433968  0.491671  0.670688  1
  Bi  Bi27  1  0.934530  0.009108  0.829095  1
  Bi  Bi28  1  0.403266  0.751068  0.961315  1
  Bi  Bi29  1  0.906628  0.751746  0.537198  1
  Bi  Bi30  1  0.591485  0.241518  0.036294  1
  Bi  Bi31  1  0.093534  0.251768  0.462852  1
