# generated using pymatgen
data_Yb5Y3(Si4W3)4
_symmetry_space_group_name_H-M   'P 1'
_cell_length_a   6.72317266
_cell_length_b   6.93387817
_cell_length_c   12.99323678
_cell_angle_alpha   89.93324495
_cell_angle_beta   89.97316140
_cell_angle_gamma   89.95735346
_symmetry_Int_Tables_number   1
_chemical_formula_structural   Yb5Y3(Si4W3)4
_chemical_formula_sum   'Yb5 Y3 Si16 W12'
_cell_volume   605.71365203
_cell_formula_units_Z   1
loop_
 _symmetry_equiv_pos_site_id
 _symmetry_equiv_pos_as_xyz
  1  'x, y, z'
loop_
 _atom_site_type_symbol
 _atom_site_label
 _atom_site_symmetry_multiplicity
 _atom_site_fract_x
 _atom_site_fract_y
 _atom_site_fract_z
 _atom_site_occupancy
  Yb  Yb0  1  0.498324  0.334474  0.090228  1
  Yb  Yb1  1  0.998243  0.167663  0.408240  1
  Yb  Yb2  1  0.501081  0.668136  0.591883  1
  Yb  Yb3  1  0.001230  0.831351  0.907999  1
  Yb  Yb4  1  0.501241  0.666795  0.909794  1
  Y  Y5  1  0.000110  0.830266  0.593470  1
  Y  Y6  1  0.499520  0.331745  0.407245  1
  Y  Y7  1  0.999478  0.168731  0.092286  1
  Si  Si8  1  0.661281  0.041670  0.544612  1
  Si  Si9  1  0.161356  0.458660  0.954851  1
  Si  Si10  1  0.339443  0.957616  0.045053  1
  Si  Si11  1  0.838998  0.541801  0.454984  1
  Si  Si12  1  0.337826  0.957219  0.455082  1
  Si  Si13  1  0.838727  0.543708  0.044783  1
  Si  Si14  1  0.661187  0.041183  0.954744  1
  Si  Si15  1  0.162129  0.456940  0.544612  1
  Si  Si16  1  0.534192  0.376628  0.750044  1
  Si  Si17  1  0.035117  0.123854  0.749934  1
  Si  Si18  1  0.465253  0.626967  0.248951  1
  Si  Si19  1  0.965515  0.874536  0.250450  1
  Si  Si20  1  0.798181  0.632086  0.751256  1
  Si  Si21  1  0.302742  0.865878  0.751571  1
  Si  Si22  1  0.199480  0.367331  0.249786  1
  Si  Si23  1  0.698756  0.133353  0.249808  1
  W  W24  1  0.833506  0.333908  0.625869  1
  W  W25  1  0.333934  0.167085  0.873284  1
  W  W26  1  0.165707  0.665343  0.126153  1
  W  W27  1  0.666644  0.834487  0.374362  1
  W  W28  1  0.166459  0.665514  0.373556  1
  W  W29  1  0.667048  0.835576  0.126935  1
  W  W30  1  0.835299  0.331929  0.872950  1
  W  W31  1  0.334092  0.166247  0.626167  1
  W  W32  1  0.661254  0.008923  0.749582  1
  W  W33  1  0.160553  0.490848  0.749173  1
  W  W34  1  0.337766  0.994001  0.250568  1
  W  W35  1  0.838330  0.507549  0.249734  1
