# generated using pymatgen
data_La4Yb5ErSn8
_symmetry_space_group_name_H-M   'P 1'
_cell_length_a   7.97147700
_cell_length_b   8.49805842
_cell_length_c   16.05382200
_cell_angle_alpha   90.10183454
_cell_angle_beta   90.00000000
_cell_angle_gamma   90.00000000
_symmetry_Int_Tables_number   1
_chemical_formula_structural   La4Yb5ErSn8
_chemical_formula_sum   'La8 Yb10 Er2 Sn16'
_cell_volume   1087.51753252
_cell_formula_units_Z   2
loop_
 _symmetry_equiv_pos_site_id
 _symmetry_equiv_pos_as_xyz
  1  'x, y, z'
loop_
 _atom_site_type_symbol
 _atom_site_label
 _atom_site_symmetry_multiplicity
 _atom_site_fract_x
 _atom_site_fract_y
 _atom_site_fract_z
 _atom_site_occupancy
  La  La0  1  0.494418  0.317202  0.904197  1
  La  La1  1  0.994418  0.182798  0.595803  1
  La  La2  1  0.504981  0.685720  0.403518  1
  La  La3  1  0.004981  0.814280  0.096482  1
  La  La4  1  0.506827  0.684511  0.096330  1
  La  La5  1  0.006827  0.815489  0.403670  1
  La  La6  1  0.494027  0.315556  0.595145  1
  La  La7  1  0.994027  0.184444  0.904855  1
  Yb  Yb8  1  0.666648  0.171269  0.376501  1
  Yb  Yb9  1  0.166648  0.328731  0.123499  1
  Yb  Yb10  1  0.667817  0.171598  0.123515  1
  Yb  Yb11  1  0.167817  0.328402  0.376485  1
  Yb  Yb12  1  0.332424  0.828624  0.623086  1
  Yb  Yb13  1  0.832424  0.671376  0.876914  1
  Yb  Yb14  1  0.162991  0.502947  0.750006  1
  Yb  Yb15  1  0.662991  0.997053  0.749994  1
  Yb  Yb16  1  0.838759  0.494498  0.250388  1
  Yb  Yb17  1  0.338759  0.005502  0.249612  1
  Er  Er18  1  0.332073  0.827919  0.875626  1
  Er  Er19  1  0.832073  0.672081  0.624374  1
  Sn  Sn20  1  0.327906  0.034122  0.036906  1
  Sn  Sn21  1  0.827906  0.465878  0.463094  1
  Sn  Sn22  1  0.673397  0.961171  0.539716  1
  Sn  Sn23  1  0.173397  0.538829  0.960284  1
  Sn  Sn24  1  0.665946  0.962688  0.959379  1
  Sn  Sn25  1  0.165946  0.537312  0.540621  1
  Sn  Sn26  1  0.329718  0.036087  0.461382  1
  Sn  Sn27  1  0.829718  0.463913  0.038618  1
  Sn  Sn28  1  0.534986  0.611689  0.748312  1
  Sn  Sn29  1  0.034986  0.888311  0.751688  1
  Sn  Sn30  1  0.466088  0.395221  0.249753  1
  Sn  Sn31  1  0.966088  0.104779  0.250247  1
  Sn  Sn32  1  0.288967  0.137925  0.751182  1
  Sn  Sn33  1  0.788967  0.362075  0.748818  1
  Sn  Sn34  1  0.712028  0.859406  0.250057  1
  Sn  Sn35  1  0.212028  0.640594  0.249943  1
