# generated using pymatgen
data_Nd16Cd4Ir3Pd
_symmetry_space_group_name_H-M   'P 1'
_cell_length_a   9.96784260
_cell_length_b   9.96784286
_cell_length_c   9.96784330
_cell_angle_alpha   60.23813387
_cell_angle_beta   60.23812899
_cell_angle_gamma   60.23813941
_symmetry_Int_Tables_number   1
_chemical_formula_structural   Nd16Cd4Ir3Pd
_chemical_formula_sum   'Nd16 Cd4 Ir3 Pd1'
_cell_volume   704.08245475
_cell_formula_units_Z   1
loop_
 _symmetry_equiv_pos_site_id
 _symmetry_equiv_pos_as_xyz
  1  'x, y, z'
loop_
 _atom_site_type_symbol
 _atom_site_label
 _atom_site_symmetry_multiplicity
 _atom_site_fract_x
 _atom_site_fract_y
 _atom_site_fract_z
 _atom_site_occupancy
  Nd  Nd0  1  0.347192  0.347192  0.347192  1
  Nd  Nd1  1  0.352998  0.352998  0.949112  1
  Nd  Nd2  1  0.352998  0.949112  0.352998  1
  Nd  Nd3  1  0.949112  0.352998  0.352998  1
  Nd  Nd4  1  0.803941  0.191071  0.191071  1
  Nd  Nd5  1  0.188728  0.809290  0.809290  1
  Nd  Nd6  1  0.191071  0.803941  0.191071  1
  Nd  Nd7  1  0.809290  0.188728  0.809290  1
  Nd  Nd8  1  0.191071  0.191071  0.803941  1
  Nd  Nd9  1  0.809290  0.809290  0.188728  1
  Nd  Nd10  1  0.939883  0.562358  0.562358  1
  Nd  Nd11  1  0.562697  0.938384  0.938384  1
  Nd  Nd12  1  0.562358  0.939883  0.562358  1
  Nd  Nd13  1  0.938384  0.562697  0.938384  1
  Nd  Nd14  1  0.562358  0.562358  0.939883  1
  Nd  Nd15  1  0.938384  0.938384  0.562697  1
  Cd  Cd16  1  0.580423  0.580423  0.580423  1
  Cd  Cd17  1  0.580340  0.580340  0.258428  1
  Cd  Cd18  1  0.580340  0.258428  0.580340  1
  Cd  Cd19  1  0.258428  0.580340  0.580340  1
  Ir  Ir20  1  0.142082  0.142082  0.573840  1
  Ir  Ir21  1  0.142082  0.573840  0.142082  1
  Ir  Ir22  1  0.573840  0.142082  0.142082  1
  Pd  Pd23  1  0.142706  0.142706  0.142706  1
