# generated using pymatgen
data_La6TcRhI6
_symmetry_space_group_name_H-M   'P 1'
_cell_length_a   4.36839000
_cell_length_b   9.56772757
_cell_length_c   12.75543403
_cell_angle_alpha   87.22790925
_cell_angle_beta   90.00000000
_cell_angle_gamma   90.00000000
_symmetry_Int_Tables_number   1
_chemical_formula_structural   La6TcRhI6
_chemical_formula_sum   'La6 Tc1 Rh1 I6'
_cell_volume   532.49672750
_cell_formula_units_Z   1
loop_
 _symmetry_equiv_pos_site_id
 _symmetry_equiv_pos_as_xyz
  1  'x, y, z'
loop_
 _atom_site_type_symbol
 _atom_site_label
 _atom_site_symmetry_multiplicity
 _atom_site_fract_x
 _atom_site_fract_y
 _atom_site_fract_z
 _atom_site_occupancy
  La  La0  1  0.250000  0.315173  0.880948  1
  La  La1  1  0.750000  0.683193  0.123844  1
  La  La2  1  0.750000  0.116862  0.660520  1
  La  La3  1  0.250000  0.882592  0.326836  1
  La  La4  1  0.750000  0.092399  0.107426  1
  La  La5  1  0.250000  0.902662  0.892776  1
  Tc  Tc6  1  0.250000  0.886946  0.134921  1
  Rh  Rh7  1  0.750000  0.115448  0.873134  1
  I  I8  1  0.750000  0.133538  0.381296  1
  I  I9  1  0.250000  0.868016  0.618708  1
  I  I10  1  0.250000  0.368373  0.621592  1
  I  I11  1  0.750000  0.632597  0.378631  1
  I  I12  1  0.750000  0.608824  0.865512  1
  I  I13  1  0.250000  0.393379  0.133857  1
