# generated using pymatgen
data_DyY3Al4(Ga7Ir3)2
_symmetry_space_group_name_H-M   'P 1'
_cell_length_a   7.57432501
_cell_length_b   7.57425400
_cell_length_c   9.53036400
_cell_angle_alpha   90.00000000
_cell_angle_beta   90.00000000
_cell_angle_gamma   119.74130355
_symmetry_Int_Tables_number   1
_chemical_formula_structural   DyY3Al4(Ga7Ir3)2
_chemical_formula_sum   'Dy1 Y3 Al4 Ga14 Ir6'
_cell_volume   474.73379243
_cell_formula_units_Z   1
loop_
 _symmetry_equiv_pos_site_id
 _symmetry_equiv_pos_as_xyz
  1  'x, y, z'
loop_
 _atom_site_type_symbol
 _atom_site_label
 _atom_site_symmetry_multiplicity
 _atom_site_fract_x
 _atom_site_fract_y
 _atom_site_fract_z
 _atom_site_occupancy
  Dy  Dy0  1  0.000747  0.669696  0.250000  1
  Y  Y1  1  0.999272  0.330306  0.750000  1
  Y  Y2  1  0.669691  0.000728  0.250000  1
  Y  Y3  1  0.330310  0.999273  0.750000  1
  Al  Al4  1  0.331859  0.331859  0.553170  1
  Al  Al5  1  0.668150  0.668141  0.446820  1
  Al  Al6  1  0.668150  0.668141  0.053180  1
  Al  Al7  1  0.331859  0.331859  0.946830  1
  Ga  Ga8  1  0.127276  0.127257  0.250000  1
  Ga  Ga9  1  0.872726  0.872727  0.750000  1
  Ga  Ga10  1  0.000294  0.335192  0.079402  1
  Ga  Ga11  1  0.999703  0.664824  0.920625  1
  Ga  Ga12  1  0.999703  0.664824  0.579375  1
  Ga  Ga13  1  0.335160  0.000278  0.420599  1
  Ga  Ga14  1  0.000294  0.335192  0.420598  1
  Ga  Ga15  1  0.664823  0.999707  0.579388  1
  Ga  Ga16  1  0.664823  0.999707  0.920612  1
  Ga  Ga17  1  0.335160  0.000278  0.079401  1
  Ga  Ga18  1  0.346395  0.549413  0.250000  1
  Ga  Ga19  1  0.653591  0.450585  0.750000  1
  Ga  Ga20  1  0.549437  0.346434  0.250000  1
  Ga  Ga21  1  0.450586  0.653590  0.750000  1
  Ir  Ir22  1  0.669349  0.330665  0.000005  1
  Ir  Ir23  1  0.330647  0.669341  0.000008  1
  Ir  Ir24  1  0.330647  0.669341  0.499992  1
  Ir  Ir25  1  0.669349  0.330665  0.499995  1
  Ir  Ir26  1  0.999999  0.999989  0.000008  1
  Ir  Ir27  1  0.999999  0.999989  0.499992  1
