# generated using pymatgen
data_Ba4P4PdPt3
_symmetry_space_group_name_H-M   'P 1'
_cell_length_a   6.63521279
_cell_length_b   6.63521283
_cell_length_c   6.63521200
_cell_angle_alpha   89.80663366
_cell_angle_beta   90.19336634
_cell_angle_gamma   89.80663108
_symmetry_Int_Tables_number   1
_chemical_formula_structural   Ba4P4PdPt3
_chemical_formula_sum   'Ba4 P4 Pd1 Pt3'
_cell_volume   292.11716664
_cell_formula_units_Z   1
loop_
 _symmetry_equiv_pos_site_id
 _symmetry_equiv_pos_as_xyz
  1  'x, y, z'
loop_
 _atom_site_type_symbol
 _atom_site_label
 _atom_site_symmetry_multiplicity
 _atom_site_fract_x
 _atom_site_fract_y
 _atom_site_fract_z
 _atom_site_occupancy
  Ba  Ba0  1  0.608020  0.393577  0.893678  1
  Ba  Ba1  1  0.393678  0.891980  0.606423  1
  Ba  Ba2  1  0.106423  0.106322  0.108020  1
  Ba  Ba3  1  0.892102  0.607898  0.392102  1
  P  P4  1  0.167671  0.332329  0.667671  1
  P  P5  1  0.668436  0.172202  0.335642  1
  P  P6  1  0.327798  0.664358  0.168436  1
  P  P7  1  0.835642  0.831564  0.827798  1
  Pd  Pd8  1  0.598976  0.901024  0.098976  1
  Pt  Pt9  1  0.099594  0.597563  0.899223  1
  Pt  Pt10  1  0.399223  0.400406  0.402437  1
  Pt  Pt11  1  0.902437  0.100777  0.599594  1
