# generated using pymatgen
data_DyLuNb2(Fe4P3)2
_symmetry_space_group_name_H-M   'P 1'
_cell_length_a   3.68263400
_cell_length_b   10.45295500
_cell_length_c   12.34274600
_cell_angle_alpha   90.00000000
_cell_angle_beta   90.00000000
_cell_angle_gamma   90.00000000
_symmetry_Int_Tables_number   1
_chemical_formula_structural   DyLuNb2(Fe4P3)2
_chemical_formula_sum   'Dy2 Lu2 Nb4 Fe16 P12'
_cell_volume   475.12669399
_cell_formula_units_Z   2
loop_
 _symmetry_equiv_pos_site_id
 _symmetry_equiv_pos_as_xyz
  1  'x, y, z'
loop_
 _atom_site_type_symbol
 _atom_site_label
 _atom_site_symmetry_multiplicity
 _atom_site_fract_x
 _atom_site_fract_y
 _atom_site_fract_z
 _atom_site_occupancy
  Dy  Dy0  1  0.750000  0.416222  0.286976  1
  Dy  Dy1  1  0.750000  0.083778  0.786976  1
  Lu  Lu2  1  0.250000  0.585362  0.713686  1
  Lu  Lu3  1  0.250000  0.914638  0.213686  1
  Nb  Nb4  1  0.250000  0.705811  0.992925  1
  Nb  Nb5  1  0.250000  0.794189  0.492925  1
  Nb  Nb6  1  0.750000  0.294479  0.008490  1
  Nb  Nb7  1  0.750000  0.205521  0.508490  1
  Fe  Fe8  1  0.250000  0.418821  0.493394  1
  Fe  Fe9  1  0.250000  0.081179  0.993394  1
  Fe  Fe10  1  0.750000  0.583298  0.508894  1
  Fe  Fe11  1  0.750000  0.916702  0.008894  1
  Fe  Fe12  1  0.250000  0.213965  0.172254  1
  Fe  Fe13  1  0.250000  0.286035  0.672254  1
  Fe  Fe14  1  0.750000  0.783282  0.827885  1
  Fe  Fe15  1  0.750000  0.716718  0.327885  1
  Fe  Fe16  1  0.250000  0.879021  0.698292  1
  Fe  Fe17  1  0.250000  0.620979  0.198292  1
  Fe  Fe18  1  0.750000  0.118239  0.300250  1
  Fe  Fe19  1  0.750000  0.381761  0.800250  1
  Fe  Fe20  1  0.250000  0.465098  0.932491  1
  Fe  Fe21  1  0.250000  0.034902  0.432491  1
  Fe  Fe22  1  0.750000  0.536345  0.065667  1
  Fe  Fe23  1  0.750000  0.963655  0.565667  1
  P  P24  1  0.250000  0.427157  0.112110  1
  P  P25  1  0.250000  0.072843  0.612110  1
  P  P26  1  0.750000  0.576235  0.885999  1
  P  P27  1  0.750000  0.923765  0.385999  1
  P  P28  1  0.250000  0.273835  0.855921  1
  P  P29  1  0.250000  0.226165  0.355921  1
  P  P30  1  0.750000  0.728180  0.145462  1
  P  P31  1  0.750000  0.771820  0.645462  1
  P  P32  1  0.250000  0.596536  0.376525  1
  P  P33  1  0.250000  0.903464  0.876525  1
  P  P34  1  0.750000  0.407890  0.622778  1
  P  P35  1  0.750000  0.092110  0.122778  1
