# generated using pymatgen
data_Li2La2Zn15
_symmetry_space_group_name_H-M   'P 1'
_cell_length_a   6.90642596
_cell_length_b   6.90642496
_cell_length_c   6.90642555
_cell_angle_alpha   84.01551168
_cell_angle_beta   84.01551563
_cell_angle_gamma   84.01551309
_symmetry_Int_Tables_number   1
_chemical_formula_structural   Li2La2Zn15
_chemical_formula_sum   'Li2 La2 Zn15'
_cell_volume   324.39114008
_cell_formula_units_Z   1
loop_
 _symmetry_equiv_pos_site_id
 _symmetry_equiv_pos_as_xyz
  1  'x, y, z'
loop_
 _atom_site_type_symbol
 _atom_site_label
 _atom_site_symmetry_multiplicity
 _atom_site_fract_x
 _atom_site_fract_y
 _atom_site_fract_z
 _atom_site_occupancy
  Li  Li0  1  0.900947  0.900947  0.900947  1
  Li  Li1  1  0.099053  0.099053  0.099053  1
  La  La2  1  0.660833  0.660833  0.660833  1
  La  La3  1  0.339167  0.339167  0.339167  1
  Zn  Zn4  1  0.000000  0.000000  0.500000  1
  Zn  Zn5  1  0.000000  0.500000  0.000000  1
  Zn  Zn6  1  0.500000  0.000000  0.000000  1
  Zn  Zn7  1  0.293223  0.706777  0.000000  1
  Zn  Zn8  1  0.706777  0.000000  0.293223  1
  Zn  Zn9  1  0.000000  0.293223  0.706777  1
  Zn  Zn10  1  0.293223  0.000000  0.706777  1
  Zn  Zn11  1  0.000000  0.706777  0.293223  1
  Zn  Zn12  1  0.706777  0.293223  0.000000  1
  Zn  Zn13  1  0.347610  0.347610  0.840170  1
  Zn  Zn14  1  0.347610  0.840170  0.347610  1
  Zn  Zn15  1  0.840170  0.347610  0.347610  1
  Zn  Zn16  1  0.652390  0.652390  0.159830  1
  Zn  Zn17  1  0.652390  0.159830  0.652390  1
  Zn  Zn18  1  0.159830  0.652390  0.652390  1
