# generated using pymatgen
data_Tm4CoTc2Ru5
_symmetry_space_group_name_H-M   'P 1'
_cell_length_a   5.26013160
_cell_length_b   5.26013192
_cell_length_c   8.92935300
_cell_angle_alpha   90.00000000
_cell_angle_beta   90.00000000
_cell_angle_gamma   122.02633636
_symmetry_Int_Tables_number   1
_chemical_formula_structural   Tm4CoTc2Ru5
_chemical_formula_sum   'Tm4 Co1 Tc2 Ru5'
_cell_volume   209.46377076
_cell_formula_units_Z   1
loop_
 _symmetry_equiv_pos_site_id
 _symmetry_equiv_pos_as_xyz
  1  'x, y, z'
loop_
 _atom_site_type_symbol
 _atom_site_label
 _atom_site_symmetry_multiplicity
 _atom_site_fract_x
 _atom_site_fract_y
 _atom_site_fract_z
 _atom_site_occupancy
  Tm  Tm0  1  0.334859  0.665141  0.430399  1
  Tm  Tm1  1  0.664413  0.335587  0.561461  1
  Tm  Tm2  1  0.664413  0.335587  0.938539  1
  Tm  Tm3  1  0.334859  0.665141  0.069601  1
  Co  Co4  1  0.833453  0.166547  0.250000  1
  Tc  Tc5  1  0.173578  0.339168  0.750000  1
  Tc  Tc6  1  0.660832  0.826422  0.750000  1
  Ru  Ru7  1  0.992538  0.007462  0.494651  1
  Ru  Ru8  1  0.992538  0.007462  0.005349  1
  Ru  Ru9  1  0.830718  0.655182  0.250000  1
  Ru  Ru10  1  0.344818  0.169282  0.250000  1
  Ru  Ru11  1  0.172981  0.827019  0.750000  1
