# generated using pymatgen
data_YFeCoB2
_symmetry_space_group_name_H-M   'P 1'
_cell_length_a   5.31768692
_cell_length_b   5.31768711
_cell_length_c   5.31768598
_cell_angle_alpha   140.28057142
_cell_angle_beta   140.28056954
_cell_angle_gamma   57.42753547
_symmetry_Int_Tables_number   1
_chemical_formula_structural   YFeCoB2
_chemical_formula_sum   'Y1 Fe1 Co1 B2'
_cell_volume   60.88089502
_cell_formula_units_Z   1
loop_
 _symmetry_equiv_pos_site_id
 _symmetry_equiv_pos_as_xyz
  1  'x, y, z'
loop_
 _atom_site_type_symbol
 _atom_site_label
 _atom_site_symmetry_multiplicity
 _atom_site_fract_x
 _atom_site_fract_y
 _atom_site_fract_z
 _atom_site_occupancy
  Y  Y0  1  0.000000  0.000000  0.000000  1
  Fe  Fe1  1  0.750000  0.250000  0.500000  1
  Co  Co2  1  0.250000  0.750000  0.500000  1
  B  B3  1  0.661154  0.661154  0.000000  1
  B  B4  1  0.338846  0.338846  0.000000  1
