# generated using pymatgen
data_Tb3Ho5(TcB6)4
_symmetry_space_group_name_H-M   'P 1'
_cell_length_a   3.68591000
_cell_length_b   9.15515300
_cell_length_c   11.54423200
_cell_angle_alpha   89.99677233
_cell_angle_beta   90.00000000
_cell_angle_gamma   90.00000000
_symmetry_Int_Tables_number   1
_chemical_formula_structural   Tb3Ho5(TcB6)4
_chemical_formula_sum   'Tb3 Ho5 Tc4 B24'
_cell_volume   389.56091656
_cell_formula_units_Z   1
loop_
 _symmetry_equiv_pos_site_id
 _symmetry_equiv_pos_as_xyz
  1  'x, y, z'
loop_
 _atom_site_type_symbol
 _atom_site_label
 _atom_site_symmetry_multiplicity
 _atom_site_fract_x
 _atom_site_fract_y
 _atom_site_fract_z
 _atom_site_occupancy
  Tb  Tb0  1  0.000000  0.323724  0.414186  1
  Tb  Tb1  1  0.000000  0.676227  0.585897  1
  Tb  Tb2  1  0.000000  0.823836  0.085745  1
  Ho  Ho3  1  0.000000  0.176059  0.914224  1
  Ho  Ho4  1  0.000000  0.942796  0.369100  1
  Ho  Ho5  1  0.000000  0.057385  0.630934  1
  Ho  Ho6  1  0.000000  0.442561  0.130619  1
  Ho  Ho7  1  0.000000  0.557156  0.869266  1
  Tc  Tc8  1  0.000000  0.639056  0.320250  1
  Tc  Tc9  1  0.000000  0.360757  0.680040  1
  Tc  Tc10  1  0.000000  0.139050  0.179411  1
  Tc  Tc11  1  0.000000  0.861298  0.820399  1
  B  B12  1  0.500000  0.553559  0.432566  1
  B  B13  1  0.500000  0.446291  0.567582  1
  B  B14  1  0.500000  0.053767  0.066977  1
  B  B15  1  0.500000  0.946908  0.932630  1
  B  B16  1  0.500000  0.749227  0.418165  1
  B  B17  1  0.500000  0.250781  0.582034  1
  B  B18  1  0.500000  0.249120  0.081190  1
  B  B19  1  0.500000  0.750965  0.918151  1
  B  B20  1  0.500000  0.791866  0.265220  1
  B  B21  1  0.500000  0.207901  0.735212  1
  B  B22  1  0.500000  0.291800  0.234465  1
  B  B23  1  0.500000  0.708229  0.765362  1
  B  B24  1  0.500000  0.630508  0.185478  1
  B  B25  1  0.500000  0.369048  0.814864  1
  B  B26  1  0.500000  0.130600  0.314294  1
  B  B27  1  0.500000  0.869634  0.685696  1
  B  B28  1  0.500000  0.982577  0.211714  1
  B  B29  1  0.500000  0.018118  0.788404  1
  B  B30  1  0.500000  0.482380  0.287999  1
  B  B31  1  0.500000  0.517395  0.712066  1
  B  B32  1  0.500000  0.599367  0.027693  1
  B  B33  1  0.500000  0.399945  0.972095  1
  B  B34  1  0.500000  0.099307  0.472340  1
  B  B35  1  0.500000  0.900803  0.527731  1
