# generated using pymatgen
data_TlS23
_symmetry_space_group_name_H-M   'P 1'
_cell_length_a   5.52676100
_cell_length_b   9.73169282
_cell_length_c   15.62274900
_cell_angle_alpha   89.32126794
_cell_angle_beta   87.71929618
_cell_angle_gamma   90.82233009
_symmetry_Int_Tables_number   1
_chemical_formula_structural   TlS23
_chemical_formula_sum   'Tl1 S23'
_cell_volume   839.44857520
_cell_formula_units_Z   1
loop_
 _symmetry_equiv_pos_site_id
 _symmetry_equiv_pos_as_xyz
  1  'x, y, z'
loop_
 _atom_site_type_symbol
 _atom_site_label
 _atom_site_symmetry_multiplicity
 _atom_site_fract_x
 _atom_site_fract_y
 _atom_site_fract_z
 _atom_site_occupancy
  Tl  Tl0  1  0.491678  0.171724  0.380871  1
  S  S1  1  0.524682  0.792705  0.393837  1
  S  S2  1  0.004183  0.299969  0.109115  1
  S  S3  1  0.790089  0.237196  0.519122  1
  S  S4  1  0.305098  0.766177  0.502965  1
  S  S5  1  0.196756  0.257620  0.997015  1
  S  S6  1  0.799360  0.742455  0.003170  1
  S  S7  1  0.201317  0.400507  0.349366  1
  S  S8  1  0.690404  0.607693  0.365987  1
  S  S9  1  0.799887  0.127083  0.145126  1
  S  S10  1  0.204314  0.871834  0.134413  1
  S  S11  1  0.699545  0.633314  0.638176  1
  S  S12  1  0.308010  0.371196  0.626155  1
  S  S13  1  0.204237  0.878257  0.860438  1
  S  S14  1  0.793299  0.126687  0.865177  1
  S  S15  1  0.000885  0.698813  0.108339  1
  S  S16  1  0.505787  0.806361  0.609089  1
  S  S17  1  0.533279  0.201425  0.611386  1
  S  S18  1  0.004129  0.703194  0.892863  1
  S  S19  1  0.990677  0.301216  0.892736  1
  S  S20  1  0.466418  0.504669  0.283032  1
  S  S21  1  0.006998  0.996104  0.216650  1
  S  S22  1  0.478221  0.499621  0.710006  1
  S  S23  1  0.000745  0.004177  0.784966  1
