# generated using pymatgen
data_Y3IO8
_symmetry_space_group_name_H-M   'P 1'
_cell_length_a   5.43805653
_cell_length_b   5.43885006
_cell_length_c   5.43887490
_cell_angle_alpha   85.55794683
_cell_angle_beta   85.62105869
_cell_angle_gamma   85.61978114
_symmetry_Int_Tables_number   1
_chemical_formula_structural   Y3IO8
_chemical_formula_sum   'Y3 I1 O8'
_cell_volume   159.51078390
_cell_formula_units_Z   1
loop_
 _symmetry_equiv_pos_site_id
 _symmetry_equiv_pos_as_xyz
  1  'x, y, z'
loop_
 _atom_site_type_symbol
 _atom_site_label
 _atom_site_symmetry_multiplicity
 _atom_site_fract_x
 _atom_site_fract_y
 _atom_site_fract_z
 _atom_site_occupancy
  Y  Y0  1  0.504949  0.257138  0.256906  1
  Y  Y1  1  0.505729  0.756132  0.757107  1
  Y  Y2  1  0.007046  0.756420  0.255651  1
  I  I3  1  0.004263  0.254455  0.754492  1
  O  O4  1  0.156659  0.026333  0.525983  1
  O  O5  1  0.840619  0.481120  0.981340  1
  O  O6  1  0.231468  0.481978  0.591081  1
  O  O7  1  0.776578  0.025174  0.905124  1
  O  O8  1  0.231616  0.091104  0.981840  1
  O  O9  1  0.776181  0.405187  0.525588  1
  O  O10  1  0.326390  0.576717  0.076686  1
  O  O11  1  0.638502  0.888241  0.388201  1
