# generated using pymatgen
data_Sr4Os6O19
_symmetry_space_group_name_H-M   'P 1'
_cell_length_a   8.03917955
_cell_length_b   8.03917893
_cell_length_c   8.03917900
_cell_angle_alpha   109.47122584
_cell_angle_beta   109.47122428
_cell_angle_gamma   109.47121499
_symmetry_Int_Tables_number   1
_chemical_formula_structural   Sr4Os6O19
_chemical_formula_sum   'Sr4 Os6 O19'
_cell_volume   399.95691938
_cell_formula_units_Z   1
loop_
 _symmetry_equiv_pos_site_id
 _symmetry_equiv_pos_as_xyz
  1  'x, y, z'
loop_
 _atom_site_type_symbol
 _atom_site_label
 _atom_site_symmetry_multiplicity
 _atom_site_fract_x
 _atom_site_fract_y
 _atom_site_fract_z
 _atom_site_occupancy
  Sr  Sr0  1  0.000000  0.000000  0.295881  1
  Sr  Sr1  1  0.000000  0.295881  0.000000  1
  Sr  Sr2  1  0.704119  0.704119  0.704119  1
  Sr  Sr3  1  0.295881  0.000000  0.000000  1
  Os  Os4  1  0.362902  0.500000  0.862902  1
  Os  Os5  1  0.862902  0.362902  0.500000  1
  Os  Os6  1  0.500000  0.137098  0.637098  1
  Os  Os7  1  0.137098  0.637098  0.500000  1
  Os  Os8  1  0.500000  0.862902  0.362902  1
  Os  Os9  1  0.637098  0.500000  0.137098  1
  O  O10  1  0.333237  0.000000  0.333237  1
  O  O11  1  0.333237  0.333237  0.000000  1
  O  O12  1  0.000000  0.666763  0.666763  1
  O  O13  1  0.666763  0.666763  0.000000  1
  O  O14  1  0.000000  0.333237  0.333237  1
  O  O15  1  0.666763  0.000000  0.666763  1
  O  O16  1  0.000000  0.000000  0.000000  1
  O  O17  1  0.355748  0.290187  0.644511  1
  O  O18  1  0.065560  0.354323  0.709813  1
  O  O19  1  0.711237  0.355489  0.645677  1
  O  O20  1  0.355489  0.645677  0.711237  1
  O  O21  1  0.288763  0.934440  0.644252  1
  O  O22  1  0.644511  0.355748  0.290187  1
  O  O23  1  0.290187  0.644511  0.355748  1
  O  O24  1  0.709813  0.065560  0.354323  1
  O  O25  1  0.934440  0.644252  0.288763  1
  O  O26  1  0.645677  0.711237  0.355489  1
  O  O27  1  0.644252  0.288763  0.934440  1
  O  O28  1  0.354323  0.709813  0.065560  1
