# generated using pymatgen
data_Th3Cd(Pd5Pt)2
_symmetry_space_group_name_H-M   'P 1'
_cell_length_a   5.89914723
_cell_length_b   5.89914632
_cell_length_c   9.69741200
_cell_angle_alpha   90.00000000
_cell_angle_beta   90.00000000
_cell_angle_gamma   120.11991659
_symmetry_Int_Tables_number   1
_chemical_formula_structural   Th3Cd(Pd5Pt)2
_chemical_formula_sum   'Th3 Cd1 Pd10 Pt2'
_cell_volume   291.90318237
_cell_formula_units_Z   1
loop_
 _symmetry_equiv_pos_site_id
 _symmetry_equiv_pos_as_xyz
  1  'x, y, z'
loop_
 _atom_site_type_symbol
 _atom_site_label
 _atom_site_symmetry_multiplicity
 _atom_site_fract_x
 _atom_site_fract_y
 _atom_site_fract_z
 _atom_site_occupancy
  Th  Th0  1  0.999693  0.000307  0.493126  1
  Th  Th1  1  0.999693  0.000307  0.006874  1
  Th  Th2  1  0.667055  0.332945  0.750000  1
  Cd  Cd3  1  0.333404  0.666596  0.250000  1
  Pd  Pd4  1  0.499114  0.500886  0.497464  1
  Pd  Pd5  1  0.498783  0.998217  0.497260  1
  Pd  Pd6  1  0.001783  0.501217  0.497260  1
  Pd  Pd7  1  0.499114  0.500886  0.002536  1
  Pd  Pd8  1  0.498783  0.998217  0.002740  1
  Pd  Pd9  1  0.001783  0.501217  0.002740  1
  Pd  Pd10  1  0.824806  0.649576  0.250000  1
  Pd  Pd11  1  0.350424  0.175194  0.250000  1
  Pd  Pd12  1  0.825147  0.174853  0.250000  1
  Pd  Pd13  1  0.172554  0.827446  0.750000  1
  Pt  Pt14  1  0.172561  0.344695  0.750000  1
  Pt  Pt15  1  0.655305  0.827439  0.750000  1
