# generated using pymatgen
data_Sr6ScCo4O15
_symmetry_space_group_name_H-M   'P 1'
_cell_length_a   6.95218588
_cell_length_b   6.95218533
_cell_length_c   6.95218560
_cell_angle_alpha   87.62026140
_cell_angle_beta   87.62026585
_cell_angle_gamma   87.62025585
_symmetry_Int_Tables_number   1
_chemical_formula_structural   Sr6ScCo4O15
_chemical_formula_sum   'Sr6 Sc1 Co4 O15'
_cell_volume   335.17317721
_cell_formula_units_Z   1
loop_
 _symmetry_equiv_pos_site_id
 _symmetry_equiv_pos_as_xyz
  1  'x, y, z'
loop_
 _atom_site_type_symbol
 _atom_site_label
 _atom_site_symmetry_multiplicity
 _atom_site_fract_x
 _atom_site_fract_y
 _atom_site_fract_z
 _atom_site_occupancy
  Sr  Sr0  1  0.500000  0.859951  0.140049  1
  Sr  Sr1  1  0.140049  0.500000  0.859951  1
  Sr  Sr2  1  0.859951  0.140049  0.500000  1
  Sr  Sr3  1  0.000000  0.673305  0.326695  1
  Sr  Sr4  1  0.326695  0.000000  0.673305  1
  Sr  Sr5  1  0.673305  0.326695  0.000000  1
  Sc  Sc6  1  0.500000  0.500000  0.500000  1
  Co  Co7  1  0.710720  0.710720  0.710720  1
  Co  Co8  1  0.289280  0.289280  0.289280  1
  Co  Co9  1  0.907152  0.907152  0.907152  1
  Co  Co10  1  0.092848  0.092848  0.092848  1
  O  O11  1  0.366182  0.542226  0.232786  1
  O  O12  1  0.232786  0.366182  0.542226  1
  O  O13  1  0.542226  0.232786  0.366182  1
  O  O14  1  0.633818  0.767214  0.457774  1
  O  O15  1  0.457774  0.633818  0.767214  1
  O  O16  1  0.767214  0.457774  0.633818  1
  O  O17  1  0.199215  0.029125  0.339287  1
  O  O18  1  0.339287  0.199215  0.029125  1
  O  O19  1  0.029125  0.339287  0.199215  1
  O  O20  1  0.800785  0.660713  0.970875  1
  O  O21  1  0.970875  0.800785  0.660713  1
  O  O22  1  0.154298  0.845702  0.000000  1
  O  O23  1  0.845702  0.000000  0.154298  1
  O  O24  1  0.000000  0.154298  0.845702  1
  O  O25  1  0.660713  0.970875  0.800785  1
