# generated using pymatgen
data_Tb3DyEr2(AlC3)2
_symmetry_space_group_name_H-M   'P 1'
_cell_length_a   3.57226800
_cell_length_b   7.06779605
_cell_length_c   9.96757100
_cell_angle_alpha   89.78734707
_cell_angle_beta   90.00000000
_cell_angle_gamma   90.00000000
_symmetry_Int_Tables_number   1
_chemical_formula_structural   Tb3DyEr2(AlC3)2
_chemical_formula_sum   'Tb3 Dy1 Er2 Al2 C6'
_cell_volume   251.66011396
_cell_formula_units_Z   1
loop_
 _symmetry_equiv_pos_site_id
 _symmetry_equiv_pos_as_xyz
  1  'x, y, z'
loop_
 _atom_site_type_symbol
 _atom_site_label
 _atom_site_symmetry_multiplicity
 _atom_site_fract_x
 _atom_site_fract_y
 _atom_site_fract_z
 _atom_site_occupancy
  Tb  Tb0  1  0.500000  0.510759  0.198324  1
  Tb  Tb1  1  0.000000  0.750459  0.459533  1
  Tb  Tb2  1  0.000000  0.250360  0.540527  1
  Dy  Dy3  1  0.500000  0.487475  0.801893  1
  Er  Er4  1  0.500000  0.988202  0.201168  1
  Er  Er5  1  0.500000  0.011437  0.798245  1
  Al  Al6  1  0.000000  0.759266  0.004375  1
  Al  Al7  1  0.000000  0.239809  0.995013  1
  C  C8  1  0.500000  0.509669  0.567124  1
  C  C9  1  0.500000  0.491387  0.434705  1
  C  C10  1  0.500000  0.991194  0.565965  1
  C  C11  1  0.500000  0.009601  0.433498  1
  C  C12  1  0.000000  0.753290  0.207623  1
  C  C13  1  0.000000  0.247094  0.792005  1
