# generated using pymatgen
data_Al2V3Tc2Mo
_symmetry_space_group_name_H-M   'P 1'
_cell_length_a   4.83526434
_cell_length_b   4.83526328
_cell_length_c   4.83267977
_cell_angle_alpha   89.97496822
_cell_angle_beta   90.02503495
_cell_angle_gamma   90.13601043
_symmetry_Int_Tables_number   1
_chemical_formula_structural   Al2V3Tc2Mo
_chemical_formula_sum   'Al2 V3 Tc2 Mo1'
_cell_volume   112.98663126
_cell_formula_units_Z   1
loop_
 _symmetry_equiv_pos_site_id
 _symmetry_equiv_pos_as_xyz
  1  'x, y, z'
loop_
 _atom_site_type_symbol
 _atom_site_label
 _atom_site_symmetry_multiplicity
 _atom_site_fract_x
 _atom_site_fract_y
 _atom_site_fract_z
 _atom_site_occupancy
  Al  Al0  1  0.503295  0.496769  0.493693  1
  Al  Al1  1  0.996769  0.003295  0.006307  1
  V  V2  1  0.500682  0.249733  0.998192  1
  V  V3  1  0.749733  0.000682  0.501808  1
  V  V4  1  0.000432  0.500432  0.250000  1
  Tc  Tc5  1  0.499714  0.749226  0.998600  1
  Tc  Tc6  1  0.249226  0.999714  0.501400  1
  Mo  Mo7  1  0.000149  0.500149  0.750000  1
