# generated using pymatgen
data_Ti12Al8Pt4C3N
_symmetry_space_group_name_H-M   'P 1'
_cell_length_a   8.21523658
_cell_length_b   8.21523632
_cell_length_c   8.21523601
_cell_angle_alpha   60.11314283
_cell_angle_beta   60.11314419
_cell_angle_gamma   60.11313990
_symmetry_Int_Tables_number   1
_chemical_formula_structural   Ti12Al8Pt4C3N
_chemical_formula_sum   'Ti12 Al8 Pt4 C3 N1'
_cell_volume   393.05834474
_cell_formula_units_Z   1
loop_
 _symmetry_equiv_pos_site_id
 _symmetry_equiv_pos_as_xyz
  1  'x, y, z'
loop_
 _atom_site_type_symbol
 _atom_site_label
 _atom_site_symmetry_multiplicity
 _atom_site_fract_x
 _atom_site_fract_y
 _atom_site_fract_z
 _atom_site_occupancy
  Ti  Ti0  1  0.814943  0.814943  0.185325  1
  Ti  Ti1  1  0.064675  0.435057  0.435057  1
  Ti  Ti2  1  0.432110  0.066124  0.066124  1
  Ti  Ti3  1  0.066124  0.066124  0.432110  1
  Ti  Ti4  1  0.066124  0.432110  0.066124  1
  Ti  Ti5  1  0.435057  0.064675  0.435057  1
  Ti  Ti6  1  0.183876  0.817890  0.183876  1
  Ti  Ti7  1  0.185325  0.814943  0.814943  1
  Ti  Ti8  1  0.817890  0.183876  0.183876  1
  Ti  Ti9  1  0.814943  0.185325  0.814943  1
  Ti  Ti10  1  0.435057  0.435057  0.064675  1
  Ti  Ti11  1  0.183876  0.183876  0.817890  1
  Al  Al12  1  0.414582  0.757181  0.414582  1
  Al  Al13  1  0.835418  0.835418  0.492819  1
  Al  Al14  1  0.492819  0.835418  0.835418  1
  Al  Al15  1  0.835986  0.835986  0.835986  1
  Al  Al16  1  0.757181  0.414582  0.414582  1
  Al  Al17  1  0.414014  0.414014  0.414014  1
  Al  Al18  1  0.414582  0.414582  0.757181  1
  Al  Al19  1  0.835418  0.492819  0.835418  1
  Pt  Pt20  1  0.625000  0.125000  0.625000  1
  Pt  Pt21  1  0.625000  0.625000  0.125000  1
  Pt  Pt22  1  0.125000  0.625000  0.625000  1
  Pt  Pt23  1  0.625000  0.625000  0.625000  1
  C  C24  1  0.125000  0.625000  0.125000  1
  C  C25  1  0.125000  0.125000  0.625000  1
  C  C26  1  0.625000  0.125000  0.125000  1
  N  N27  1  0.125000  0.125000  0.125000  1
