# generated using pymatgen
data_Cd4PdRu3O14
_symmetry_space_group_name_H-M   'P 1'
_cell_length_a   7.27404050
_cell_length_b   7.22996382
_cell_length_c   7.27404000
_cell_angle_alpha   59.79812958
_cell_angle_beta   60.00000225
_cell_angle_gamma   59.79812618
_symmetry_Int_Tables_number   1
_chemical_formula_structural   Cd4PdRu3O14
_chemical_formula_sum   'Cd4 Pd1 Ru3 O14'
_cell_volume   269.67495233
_cell_formula_units_Z   1
loop_
 _symmetry_equiv_pos_site_id
 _symmetry_equiv_pos_as_xyz
  1  'x, y, z'
loop_
 _atom_site_type_symbol
 _atom_site_label
 _atom_site_symmetry_multiplicity
 _atom_site_fract_x
 _atom_site_fract_y
 _atom_site_fract_z
 _atom_site_occupancy
  Cd  Cd0  1  0.125000  0.625000  0.125000  1
  Cd  Cd1  1  0.125000  0.125000  0.625000  1
  Cd  Cd2  1  0.625000  0.125000  0.125000  1
  Cd  Cd3  1  0.125000  0.125000  0.125000  1
  Pd  Pd4  1  0.625000  0.125000  0.625000  1
  Ru  Ru5  1  0.625000  0.625000  0.125000  1
  Ru  Ru6  1  0.125000  0.625000  0.625000  1
  Ru  Ru7  1  0.625000  0.625000  0.625000  1
  O  O8  1  0.700502  0.667859  0.315819  1
  O  O9  1  0.934181  0.582141  0.549498  1
  O  O10  1  0.541325  0.952184  0.965167  1
  O  O11  1  0.965167  0.952184  0.541325  1
  O  O12  1  0.934181  0.582141  0.934181  1
  O  O13  1  0.541325  0.952184  0.541325  1
  O  O14  1  0.315819  0.667859  0.315819  1
  O  O15  1  0.315819  0.667859  0.700502  1
  O  O16  1  0.708675  0.297816  0.284833  1
  O  O17  1  0.708675  0.297816  0.708675  1
  O  O18  1  0.549498  0.582141  0.934181  1
  O  O19  1  0.284833  0.297816  0.708675  1
  O  O20  1  0.247544  0.257367  0.247544  1
  O  O21  1  0.002456  0.992633  0.002456  1
