# generated using pymatgen
data_Tb3HoAl18(OsPd2)2
_symmetry_space_group_name_H-M   'P 1'
_cell_length_a   7.60174234
_cell_length_b   7.60493914
_cell_length_c   9.51238600
_cell_angle_alpha   90.00000000
_cell_angle_beta   90.00000000
_cell_angle_gamma   119.40961175
_symmetry_Int_Tables_number   1
_chemical_formula_structural   Tb3HoAl18(OsPd2)2
_chemical_formula_sum   'Tb3 Ho1 Al18 Os2 Pd4'
_cell_volume   479.05132362
_cell_formula_units_Z   1
loop_
 _symmetry_equiv_pos_site_id
 _symmetry_equiv_pos_as_xyz
  1  'x, y, z'
loop_
 _atom_site_type_symbol
 _atom_site_label
 _atom_site_symmetry_multiplicity
 _atom_site_fract_x
 _atom_site_fract_y
 _atom_site_fract_z
 _atom_site_occupancy
  Tb  Tb0  1  0.994969  0.672356  0.250000  1
  Tb  Tb1  1  0.005253  0.327529  0.750000  1
  Tb  Tb2  1  0.672260  0.994765  0.250000  1
  Ho  Ho3  1  0.326953  0.005217  0.750000  1
  Al  Al4  1  0.128074  0.127983  0.250000  1
  Al  Al5  1  0.872526  0.872197  0.750000  1
  Al  Al6  1  0.000873  0.331012  0.076066  1
  Al  Al7  1  0.999737  0.669504  0.923547  1
  Al  Al8  1  0.999737  0.669504  0.576453  1
  Al  Al9  1  0.331028  0.000830  0.424446  1
  Al  Al10  1  0.000873  0.331012  0.423934  1
  Al  Al11  1  0.668354  0.999149  0.576446  1
  Al  Al12  1  0.668354  0.999149  0.923554  1
  Al  Al13  1  0.331028  0.000830  0.075554  1
  Al  Al14  1  0.329621  0.329142  0.554522  1
  Al  Al15  1  0.670473  0.670475  0.446075  1
  Al  Al16  1  0.670473  0.670475  0.053925  1
  Al  Al17  1  0.329621  0.329142  0.945478  1
  Al  Al18  1  0.342314  0.548373  0.250000  1
  Al  Al19  1  0.657184  0.450888  0.750000  1
  Al  Al20  1  0.548284  0.342136  0.250000  1
  Al  Al21  1  0.451371  0.658096  0.750000  1
  Os  Os22  1  0.000290  0.000131  0.999639  1
  Os  Os23  1  0.000290  0.000131  0.500361  1
  Pd  Pd24  1  0.672162  0.327948  0.000030  1
  Pd  Pd25  1  0.327869  0.672041  0.000034  1
  Pd  Pd26  1  0.327869  0.672041  0.499966  1
  Pd  Pd27  1  0.672162  0.327948  0.499970  1
