# generated using pymatgen
data_Tb4Nd3Dy(CdIr)2
_symmetry_space_group_name_H-M   'P 1'
_cell_length_a   9.76836332
_cell_length_b   9.76836387
_cell_length_c   9.76753800
_cell_angle_alpha   60.00279669
_cell_angle_beta   60.00279484
_cell_angle_gamma   59.99441309
_symmetry_Int_Tables_number   1
_chemical_formula_structural   Tb4Nd3Dy(CdIr)2
_chemical_formula_sum   'Tb8 Nd6 Dy2 Cd4 Ir4'
_cell_volume   659.04300278
_cell_formula_units_Z   2
loop_
 _symmetry_equiv_pos_site_id
 _symmetry_equiv_pos_as_xyz
  1  'x, y, z'
loop_
 _atom_site_type_symbol
 _atom_site_label
 _atom_site_symmetry_multiplicity
 _atom_site_fract_x
 _atom_site_fract_y
 _atom_site_fract_z
 _atom_site_occupancy
  Tb  Tb0  1  0.347653  0.347653  0.348065  1
  Tb  Tb1  1  0.347653  0.347653  0.956627  1
  Tb  Tb2  1  0.348065  0.956627  0.347653  1
  Tb  Tb3  1  0.956627  0.348065  0.347653  1
  Tb  Tb4  1  0.812034  0.187966  0.187966  1
  Tb  Tb5  1  0.187966  0.812034  0.812034  1
  Tb  Tb6  1  0.187966  0.812034  0.187966  1
  Tb  Tb7  1  0.812034  0.187966  0.812034  1
  Nd  Nd8  1  0.940674  0.559326  0.559326  1
  Nd  Nd9  1  0.559326  0.940674  0.940674  1
  Nd  Nd10  1  0.559326  0.940674  0.559326  1
  Nd  Nd11  1  0.940674  0.559326  0.940674  1
  Nd  Nd12  1  0.559132  0.559132  0.940868  1
  Nd  Nd13  1  0.940868  0.940868  0.559132  1
  Dy  Dy14  1  0.188161  0.188161  0.811839  1
  Dy  Dy15  1  0.811839  0.811839  0.188161  1
  Cd  Cd16  1  0.579705  0.579705  0.579559  1
  Cd  Cd17  1  0.579705  0.579705  0.261031  1
  Cd  Cd18  1  0.579559  0.261031  0.579705  1
  Cd  Cd19  1  0.261031  0.579559  0.579705  1
  Ir  Ir20  1  0.141456  0.141456  0.141017  1
  Ir  Ir21  1  0.141456  0.141456  0.576072  1
  Ir  Ir22  1  0.141017  0.576072  0.141456  1
  Ir  Ir23  1  0.576072  0.141017  0.141456  1
