# generated using pymatgen
data_Lu4MnAl6Ru
_symmetry_space_group_name_H-M   'P 1'
_cell_length_a   5.45251700
_cell_length_b   5.45251705
_cell_length_c   8.70239200
_cell_angle_alpha   90.00000000
_cell_angle_beta   90.00000000
_cell_angle_gamma   120.00000579
_symmetry_Int_Tables_number   1
_chemical_formula_structural   Lu4MnAl6Ru
_chemical_formula_sum   'Lu4 Mn1 Al6 Ru1'
_cell_volume   224.05947229
_cell_formula_units_Z   1
loop_
 _symmetry_equiv_pos_site_id
 _symmetry_equiv_pos_as_xyz
  1  'x, y, z'
loop_
 _atom_site_type_symbol
 _atom_site_label
 _atom_site_symmetry_multiplicity
 _atom_site_fract_x
 _atom_site_fract_y
 _atom_site_fract_z
 _atom_site_occupancy
  Lu  Lu0  1  0.333333  0.666667  0.056816  1
  Lu  Lu1  1  0.666667  0.333333  0.553813  1
  Lu  Lu2  1  0.333333  0.666667  0.446187  1
  Lu  Lu3  1  0.666667  0.333333  0.943184  1
  Mn  Mn4  1  0.000000  0.000000  0.500000  1
  Al  Al5  1  0.836654  0.673307  0.250427  1
  Al  Al6  1  0.163346  0.836654  0.749573  1
  Al  Al7  1  0.673307  0.836654  0.749573  1
  Al  Al8  1  0.326693  0.163346  0.250427  1
  Al  Al9  1  0.836654  0.163346  0.250427  1
  Al  Al10  1  0.163346  0.326693  0.749573  1
  Ru  Ru11  1  0.000000  0.000000  0.000000  1
