# generated using pymatgen
data_Nd4Gd4Te(WO8)3
_symmetry_space_group_name_H-M   'P 1'
_cell_length_a   5.42886086
_cell_length_b   9.34983592
_cell_length_c   10.20189849
_cell_angle_alpha   90.00520038
_cell_angle_beta   90.06181024
_cell_angle_gamma   89.86022136
_symmetry_Int_Tables_number   1
_chemical_formula_structural   Nd4Gd4Te(WO8)3
_chemical_formula_sum   'Nd4 Gd4 Te1 W3 O24'
_cell_volume   517.83589516
_cell_formula_units_Z   1
loop_
 _symmetry_equiv_pos_site_id
 _symmetry_equiv_pos_as_xyz
  1  'x, y, z'
loop_
 _atom_site_type_symbol
 _atom_site_label
 _atom_site_symmetry_multiplicity
 _atom_site_fract_x
 _atom_site_fract_y
 _atom_site_fract_z
 _atom_site_occupancy
  Nd  Nd0  1  0.035285  0.221473  0.864732  1
  Nd  Nd1  1  0.532389  0.281414  0.136231  1
  Nd  Nd2  1  0.965392  0.720437  0.633356  1
  Nd  Nd3  1  0.464861  0.781480  0.364740  1
  Gd  Gd4  1  0.022416  0.102813  0.460446  1
  Gd  Gd5  1  0.521574  0.396560  0.539871  1
  Gd  Gd6  1  0.977707  0.603634  0.041193  1
  Gd  Gd7  1  0.480264  0.894464  0.958759  1
  Te  Te8  1  0.961221  0.992985  0.144643  1
  W  W9  1  0.539498  0.006986  0.646295  1
  W  W10  1  0.038594  0.493623  0.354182  1
  W  W11  1  0.460616  0.506730  0.853599  1
  O  O12  1  0.249820  0.416131  0.993431  1
  O  O13  1  0.752367  0.081095  0.005731  1
  O  O14  1  0.748918  0.915903  0.506511  1
  O  O15  1  0.248612  0.583753  0.494356  1
  O  O16  1  0.223389  0.111315  0.065696  1
  O  O17  1  0.721186  0.387359  0.936575  1
  O  O18  1  0.777248  0.611281  0.436897  1
  O  O19  1  0.276355  0.889799  0.563604  1
  O  O20  1  0.312075  0.362238  0.326669  1
  O  O21  1  0.810594  0.138339  0.675129  1
  O  O22  1  0.689769  0.859923  0.174630  1
  O  O23  1  0.189207  0.639391  0.826756  1
  O  O24  1  0.167034  0.949088  0.293031  1
  O  O25  1  0.668777  0.548670  0.708762  1
  O  O26  1  0.830411  0.452473  0.208565  1
  O  O27  1  0.333438  0.049705  0.792254  1
  O  O28  1  0.184407  0.634526  0.239619  1
  O  O29  1  0.683026  0.863514  0.759541  1
  O  O30  1  0.820834  0.137011  0.258553  1
  O  O31  1  0.315899  0.365035  0.739328  1
  O  O32  1  0.088503  0.844878  0.028194  1
  O  O33  1  0.590780  0.656497  0.969255  1
  O  O34  1  0.907845  0.341712  0.467556  1
  O  O35  1  0.409690  0.157766  0.531312  1
