# generated using pymatgen
data_Ba2LuPaO6
_symmetry_space_group_name_H-M   'P 1'
_cell_length_a   6.13949030
_cell_length_b   6.13948904
_cell_length_c   6.13948900
_cell_angle_alpha   60.26100413
_cell_angle_beta   60.26100013
_cell_angle_gamma   60.26100970
_symmetry_Int_Tables_number   1
_chemical_formula_structural   Ba2LuPaO6
_chemical_formula_sum   'Ba2 Lu1 Pa1 O6'
_cell_volume   164.60383714
_cell_formula_units_Z   1
loop_
 _symmetry_equiv_pos_site_id
 _symmetry_equiv_pos_as_xyz
  1  'x, y, z'
loop_
 _atom_site_type_symbol
 _atom_site_label
 _atom_site_symmetry_multiplicity
 _atom_site_fract_x
 _atom_site_fract_y
 _atom_site_fract_z
 _atom_site_occupancy
  Ba  Ba0  1  0.250043  0.250043  0.250043  1
  Ba  Ba1  1  0.749957  0.749957  0.749957  1
  Lu  Lu2  1  0.500000  0.500000  0.500000  1
  Pa  Pa3  1  0.000000  0.000000  0.000000  1
  O  O4  1  0.750940  0.301461  0.195834  1
  O  O5  1  0.698537  0.804166  0.249060  1
  O  O6  1  0.195835  0.750939  0.301462  1
  O  O7  1  0.804165  0.249062  0.698536  1
  O  O8  1  0.301462  0.195834  0.750940  1
  O  O9  1  0.249060  0.698538  0.804165  1
