# generated using pymatgen
data_YTh(CoC2)2
_symmetry_space_group_name_H-M   'P 1'
_cell_length_a   3.75770567
_cell_length_b   3.72485298
_cell_length_c   7.40717687
_cell_angle_alpha   82.04610419
_cell_angle_beta   82.18369004
_cell_angle_gamma   90.12546729
_symmetry_Int_Tables_number   1
_chemical_formula_structural   YTh(CoC2)2
_chemical_formula_sum   'Y1 Th1 Co2 C4'
_cell_volume   101.70281242
_cell_formula_units_Z   1
loop_
 _symmetry_equiv_pos_site_id
 _symmetry_equiv_pos_as_xyz
  1  'x, y, z'
loop_
 _atom_site_type_symbol
 _atom_site_label
 _atom_site_symmetry_multiplicity
 _atom_site_fract_x
 _atom_site_fract_y
 _atom_site_fract_z
 _atom_site_occupancy
  Y  Y0  1  0.068010  0.930150  0.001262  1
  Th  Th1  1  0.930269  0.069107  0.498773  1
  Co  Co2  1  0.372151  0.513476  0.697303  1
  Co  Co3  1  0.511187  0.374486  0.192166  1
  C  C4  1  0.443471  0.592435  0.426844  1
  C  C5  1  0.593062  0.442824  0.929649  1
  C  C6  1  0.491275  0.855279  0.268925  1
  C  C7  1  0.857573  0.489243  0.778878  1
