# generated using pymatgen
data_Be5Co2PW4
_symmetry_space_group_name_H-M   'P 1'
_cell_length_a   4.58952054
_cell_length_b   4.58952126
_cell_length_c   7.25331000
_cell_angle_alpha   90.00000000
_cell_angle_beta   90.00000000
_cell_angle_gamma   120.09395907
_symmetry_Int_Tables_number   1
_chemical_formula_structural   Be5Co2PW4
_chemical_formula_sum   'Be5 Co2 P1 W4'
_cell_volume   132.18726242
_cell_formula_units_Z   1
loop_
 _symmetry_equiv_pos_site_id
 _symmetry_equiv_pos_as_xyz
  1  'x, y, z'
loop_
 _atom_site_type_symbol
 _atom_site_label
 _atom_site_symmetry_multiplicity
 _atom_site_fract_x
 _atom_site_fract_y
 _atom_site_fract_z
 _atom_site_occupancy
  Be  Be0  1  0.828341  0.656800  0.250000  1
  Be  Be1  1  0.343200  0.171659  0.250000  1
  Be  Be2  1  0.166747  0.833253  0.750000  1
  Be  Be3  1  0.165338  0.332959  0.750000  1
  Be  Be4  1  0.667041  0.834662  0.750000  1
  Co  Co5  1  0.000190  0.999810  0.496000  1
  Co  Co6  1  0.000190  0.999810  0.004000  1
  P  P7  1  0.832005  0.167995  0.250000  1
  W  W8  1  0.333584  0.666416  0.432321  1
  W  W9  1  0.664890  0.335110  0.570843  1
  W  W10  1  0.664890  0.335110  0.929157  1
  W  W11  1  0.333584  0.666416  0.067679  1
