# generated using pymatgen
data_TmZrRh6C
_symmetry_space_group_name_H-M   'P 1'
_cell_length_a   5.73788014
_cell_length_b   5.73788070
_cell_length_c   5.73788000
_cell_angle_alpha   60.00000401
_cell_angle_beta   60.00000078
_cell_angle_gamma   59.99999710
_symmetry_Int_Tables_number   1
_chemical_formula_structural   TmZrRh6C
_chemical_formula_sum   'Tm1 Zr1 Rh6 C1'
_cell_volume   133.57938980
_cell_formula_units_Z   1
loop_
 _symmetry_equiv_pos_site_id
 _symmetry_equiv_pos_as_xyz
  1  'x, y, z'
loop_
 _atom_site_type_symbol
 _atom_site_label
 _atom_site_symmetry_multiplicity
 _atom_site_fract_x
 _atom_site_fract_y
 _atom_site_fract_z
 _atom_site_occupancy
  Tm  Tm0  1  0.250000  0.250000  0.250000  1
  Zr  Zr1  1  0.750000  0.750000  0.750000  1
  Rh  Rh2  1  0.754065  0.754065  0.245934  1
  Rh  Rh3  1  0.754065  0.245934  0.245934  1
  Rh  Rh4  1  0.245934  0.754065  0.245934  1
  Rh  Rh5  1  0.245934  0.245934  0.754065  1
  Rh  Rh6  1  0.754065  0.245934  0.754065  1
  Rh  Rh7  1  0.245934  0.754065  0.754065  1
  C  C8  1  0.500000  0.500000  0.500000  1
