# generated using pymatgen
data_CsGaSn3O8
_symmetry_space_group_name_H-M   'P 1'
_cell_length_a   7.65330752
_cell_length_b   7.65330731
_cell_length_c   10.65463208
_cell_angle_alpha   46.60182597
_cell_angle_beta   46.60182646
_cell_angle_gamma   24.38103152
_symmetry_Int_Tables_number   1
_chemical_formula_structural   CsGaSn3O8
_chemical_formula_sum   'Cs1 Ga1 Sn3 O8'
_cell_volume   183.23848712
_cell_formula_units_Z   1
loop_
 _symmetry_equiv_pos_site_id
 _symmetry_equiv_pos_as_xyz
  1  'x, y, z'
loop_
 _atom_site_type_symbol
 _atom_site_label
 _atom_site_symmetry_multiplicity
 _atom_site_fract_x
 _atom_site_fract_y
 _atom_site_fract_z
 _atom_site_occupancy
  Cs  Cs0  1  0.497062  0.497062  0.999247  1
  Ga  Ga1  1  0.349387  0.349387  0.814553  1
  Sn  Sn2  1  0.658463  0.658463  0.169433  1
  Sn  Sn3  1  0.157444  0.157444  0.494643  1
  Sn  Sn4  1  0.837051  0.837051  0.520452  1
  O  O5  1  0.156150  0.156150  0.044735  1
  O  O6  1  0.848398  0.848398  0.941582  1
  O  O7  1  0.204244  0.204244  0.644067  1
  O  O8  1  0.791322  0.791322  0.367695  1
  O  O9  1  0.536007  0.536007  0.629562  1
  O  O10  1  0.461343  0.461343  0.372036  1
  O  O11  1  0.166236  0.166236  0.291528  1
  O  O12  1  0.836894  0.836894  0.710467  1
