# generated using pymatgen
data_Tm18Lu2ZnBi11
_symmetry_space_group_name_H-M   'P 1'
_cell_length_a   8.12288405
_cell_length_b   9.39907400
_cell_length_c   11.87038200
_cell_angle_alpha   90.00000000
_cell_angle_beta   89.68458724
_cell_angle_gamma   90.00000000
_symmetry_Int_Tables_number   1
_chemical_formula_structural   Tm18Lu2ZnBi11
_chemical_formula_sum   'Tm18 Lu2 Zn1 Bi11'
_cell_volume   906.26130537
_cell_formula_units_Z   1
loop_
 _symmetry_equiv_pos_site_id
 _symmetry_equiv_pos_as_xyz
  1  'x, y, z'
loop_
 _atom_site_type_symbol
 _atom_site_label
 _atom_site_symmetry_multiplicity
 _atom_site_fract_x
 _atom_site_fract_y
 _atom_site_fract_z
 _atom_site_occupancy
  Tm  Tm0  1  0.980035  0.750000  0.489870  1
  Tm  Tm1  1  0.475252  0.750000  0.010411  1
  Tm  Tm2  1  0.356700  0.250000  0.294905  1
  Tm  Tm3  1  0.647430  0.750000  0.716151  1
  Tm  Tm4  1  0.149689  0.750000  0.782521  1
  Tm  Tm5  1  0.853002  0.250000  0.216096  1
  Tm  Tm6  1  0.191516  0.250000  0.778797  1
  Tm  Tm7  1  0.809976  0.750000  0.217428  1
  Tm  Tm8  1  0.313185  0.750000  0.281329  1
  Tm  Tm9  1  0.674432  0.250000  0.710376  1
  Tm  Tm10  1  0.193813  0.066075  0.061328  1
  Tm  Tm11  1  0.806284  0.934593  0.940396  1
  Tm  Tm12  1  0.308974  0.952497  0.558896  1
  Tm  Tm13  1  0.806284  0.565407  0.940396  1
  Tm  Tm14  1  0.684222  0.071979  0.445381  1
  Tm  Tm15  1  0.193813  0.433925  0.061328  1
  Tm  Tm16  1  0.684222  0.428021  0.445381  1
  Tm  Tm17  1  0.308974  0.547503  0.558896  1
  Lu  Lu18  1  0.036376  0.250000  0.508568  1
  Lu  Lu19  1  0.525378  0.250000  0.989359  1
  Zn  Zn20  1  0.407813  0.250000  0.539735  1
  Bi  Bi21  1  0.594275  0.750000  0.457253  1
  Bi  Bi22  1  0.094359  0.750000  0.042600  1
  Bi  Bi23  1  0.906432  0.250000  0.954865  1
  Bi  Bi24  1  0.063236  0.002847  0.324278  1
  Bi  Bi25  1  0.935228  0.997755  0.675369  1
  Bi  Bi26  1  0.435663  0.997454  0.825048  1
  Bi  Bi27  1  0.935228  0.502245  0.675369  1
  Bi  Bi28  1  0.564654  0.004198  0.174174  1
  Bi  Bi29  1  0.063236  0.497153  0.324278  1
  Bi  Bi30  1  0.564654  0.495802  0.174174  1
  Bi  Bi31  1  0.435663  0.502546  0.825048  1
