# generated using pymatgen
data_KNdTm2(SbAu)4
_symmetry_space_group_name_H-M   'P 1'
_cell_length_a   4.62668800
_cell_length_b   4.62668820
_cell_length_c   17.41621600
_cell_angle_alpha   90.00000000
_cell_angle_beta   90.00000000
_cell_angle_gamma   120.00001285
_symmetry_Int_Tables_number   1
_chemical_formula_structural   KNdTm2(SbAu)4
_chemical_formula_sum   'K1 Nd1 Tm2 Sb4 Au4'
_cell_volume   322.86786700
_cell_formula_units_Z   1
loop_
 _symmetry_equiv_pos_site_id
 _symmetry_equiv_pos_as_xyz
  1  'x, y, z'
loop_
 _atom_site_type_symbol
 _atom_site_label
 _atom_site_symmetry_multiplicity
 _atom_site_fract_x
 _atom_site_fract_y
 _atom_site_fract_z
 _atom_site_occupancy
  K  K0  1  0.000000  0.000000  0.252177  1
  Nd  Nd1  1  0.000000  0.000000  0.983791  1
  Tm  Tm2  1  0.000000  0.000000  0.512881  1
  Tm  Tm3  1  0.000000  0.000000  0.745067  1
  Sb  Sb4  1  0.333333  0.666667  0.392990  1
  Sb  Sb5  1  0.666667  0.333333  0.614180  1
  Sb  Sb6  1  0.666667  0.333333  0.876376  1
  Sb  Sb7  1  0.333333  0.666667  0.109329  1
  Au  Au8  1  0.666667  0.333333  0.438447  1
  Au  Au9  1  0.333333  0.666667  0.665995  1
  Au  Au10  1  0.333333  0.666667  0.828923  1
  Au  Au11  1  0.666667  0.333333  0.079845  1
