# generated using pymatgen
data_HoTm(CoB)8
_symmetry_space_group_name_H-M   'P 1'
_cell_length_a   6.92353800
_cell_length_b   6.92353800
_cell_length_c   3.82863100
_cell_angle_alpha   90.00000000
_cell_angle_beta   90.00000000
_cell_angle_gamma   90.00000000
_symmetry_Int_Tables_number   1
_chemical_formula_structural   HoTm(CoB)8
_chemical_formula_sum   'Ho1 Tm1 Co8 B8'
_cell_volume   183.52687588
_cell_formula_units_Z   1
loop_
 _symmetry_equiv_pos_site_id
 _symmetry_equiv_pos_as_xyz
  1  'x, y, z'
loop_
 _atom_site_type_symbol
 _atom_site_label
 _atom_site_symmetry_multiplicity
 _atom_site_fract_x
 _atom_site_fract_y
 _atom_site_fract_z
 _atom_site_occupancy
  Ho  Ho0  1  0.000000  0.000000  0.000000  1
  Tm  Tm1  1  0.500000  0.500000  0.500000  1
  Co  Co2  1  0.381154  0.141357  0.890221  1
  Co  Co3  1  0.618846  0.858643  0.890221  1
  Co  Co4  1  0.359555  0.880384  0.390191  1
  Co  Co5  1  0.640445  0.119616  0.390191  1
  Co  Co6  1  0.119616  0.359555  0.609809  1
  Co  Co7  1  0.880384  0.640445  0.609809  1
  Co  Co8  1  0.141357  0.618846  0.109779  1
  Co  Co9  1  0.858643  0.381154  0.109779  1
  B  B10  1  0.798712  0.662610  0.106376  1
  B  B11  1  0.201288  0.337390  0.106376  1
  B  B12  1  0.836830  0.300698  0.605728  1
  B  B13  1  0.163170  0.699302  0.605728  1
  B  B14  1  0.699302  0.836830  0.394272  1
  B  B15  1  0.300698  0.163170  0.394272  1
  B  B16  1  0.662610  0.201288  0.893624  1
  B  B17  1  0.337390  0.798712  0.893624  1
