# generated using pymatgen
data_Dy3Lu5In3Ni
_symmetry_space_group_name_H-M   'P 1'
_cell_length_a   10.23723500
_cell_length_b   10.23684890
_cell_length_c   6.98448801
_cell_angle_alpha   90.00176879
_cell_angle_beta   90.00000000
_cell_angle_gamma   120.00124444
_symmetry_Int_Tables_number   1
_chemical_formula_structural   Dy3Lu5In3Ni
_chemical_formula_sum   'Dy6 Lu10 In6 Ni2'
_cell_volume   633.88244861
_cell_formula_units_Z   2
loop_
 _symmetry_equiv_pos_site_id
 _symmetry_equiv_pos_as_xyz
  1  'x, y, z'
loop_
 _atom_site_type_symbol
 _atom_site_label
 _atom_site_symmetry_multiplicity
 _atom_site_fract_x
 _atom_site_fract_y
 _atom_site_fract_z
 _atom_site_occupancy
  Dy  Dy0  1  0.465561  0.931123  0.210870  1
  Dy  Dy1  1  0.534015  0.466131  0.710335  1
  Dy  Dy2  1  0.932117  0.466131  0.710335  1
  Dy  Dy3  1  0.534288  0.068577  0.711235  1
  Dy  Dy4  1  0.999906  0.999813  0.229012  1
  Dy  Dy5  1  0.000059  0.000119  0.729802  1
  Lu  Lu6  1  0.177635  0.820932  0.507640  1
  Lu  Lu7  1  0.643297  0.820932  0.507640  1
  Lu  Lu8  1  0.178266  0.356532  0.505992  1
  Lu  Lu9  1  0.823148  0.179273  0.010281  1
  Lu  Lu10  1  0.356125  0.179273  0.010281  1
  Lu  Lu11  1  0.821481  0.642964  0.010588  1
  Lu  Lu12  1  0.332885  0.665770  0.821366  1
  Lu  Lu13  1  0.667278  0.334554  0.320592  1
  Lu  Lu14  1  0.464838  0.535098  0.209603  1
  Lu  Lu15  1  0.070258  0.535098  0.209603  1
  In  In16  1  0.162830  0.836572  0.962202  1
  In  In17  1  0.673742  0.836572  0.962202  1
  In  In18  1  0.163709  0.327420  0.962977  1
  In  In19  1  0.836925  0.162515  0.462248  1
  In  In20  1  0.325591  0.162515  0.462248  1
  In  In21  1  0.837282  0.674565  0.461500  1
  Ni  Ni22  1  0.332151  0.664304  0.442048  1
  Ni  Ni23  1  0.666611  0.333219  0.944235  1
