# generated using pymatgen
data_Yb3Te2(ClO3)2
_symmetry_space_group_name_H-M   'P 1'
_cell_length_a   8.44467882
_cell_length_b   8.44467764
_cell_length_c   10.45052361
_cell_angle_alpha   75.95363416
_cell_angle_beta   75.95363917
_cell_angle_gamma   37.80634115
_symmetry_Int_Tables_number   1
_chemical_formula_structural   Yb3Te2(ClO3)2
_chemical_formula_sum   'Yb6 Te4 Cl4 O12'
_cell_volume   441.54751590
_cell_formula_units_Z   2
loop_
 _symmetry_equiv_pos_site_id
 _symmetry_equiv_pos_as_xyz
  1  'x, y, z'
loop_
 _atom_site_type_symbol
 _atom_site_label
 _atom_site_symmetry_multiplicity
 _atom_site_fract_x
 _atom_site_fract_y
 _atom_site_fract_z
 _atom_site_occupancy
  Yb  Yb0  1  0.672744  0.672744  0.603712  1
  Yb  Yb1  1  0.743779  0.743779  0.217084  1
  Yb  Yb2  1  0.327256  0.327256  0.396288  1
  Yb  Yb3  1  0.974464  0.974464  0.186847  1
  Yb  Yb4  1  0.025536  0.025536  0.813153  1
  Yb  Yb5  1  0.256221  0.256221  0.782916  1
  Te  Te6  1  0.391773  0.391773  0.053980  1
  Te  Te7  1  0.881645  0.881645  0.588708  1
  Te  Te8  1  0.118355  0.118355  0.411292  1
  Te  Te9  1  0.608227  0.608227  0.946020  1
  Cl  Cl10  1  0.179557  0.179557  0.090894  1
  Cl  Cl11  1  0.532127  0.532127  0.288192  1
  Cl  Cl12  1  0.467873  0.467873  0.711808  1
  Cl  Cl13  1  0.820443  0.820443  0.909106  1
  O  O14  1  0.546739  0.047556  0.600552  1
  O  O15  1  0.916307  0.916306  0.404149  1
  O  O16  1  0.400842  0.880301  0.805199  1
  O  O17  1  0.453261  0.952444  0.399448  1
  O  O18  1  0.119699  0.599158  0.194800  1
  O  O19  1  0.047556  0.546739  0.600553  1
  O  O20  1  0.880301  0.400842  0.805199  1
  O  O21  1  0.599158  0.119699  0.194801  1
  O  O22  1  0.271978  0.728022  0.000000  1
  O  O23  1  0.083694  0.083694  0.595851  1
  O  O24  1  0.952444  0.453261  0.399448  1
  O  O25  1  0.728022  0.271978  0.000000  1
