# generated using pymatgen
data_Y2Ho5Se8
_symmetry_space_group_name_H-M   'P 1'
_cell_length_a   8.02232507
_cell_length_b   8.01993030
_cell_length_c   8.02232500
_cell_angle_alpha   119.99012476
_cell_angle_beta   89.99247229
_cell_angle_gamma   119.99012188
_symmetry_Int_Tables_number   1
_chemical_formula_structural   Y2Ho5Se8
_chemical_formula_sum   'Y2 Ho5 Se8'
_cell_volume   365.10199535
_cell_formula_units_Z   1
loop_
 _symmetry_equiv_pos_site_id
 _symmetry_equiv_pos_as_xyz
  1  'x, y, z'
loop_
 _atom_site_type_symbol
 _atom_site_label
 _atom_site_symmetry_multiplicity
 _atom_site_fract_x
 _atom_site_fract_y
 _atom_site_fract_z
 _atom_site_occupancy
  Y  Y0  1  0.249998  0.500001  0.750005  1
  Y  Y1  1  0.249994  0.000000  0.750007  1
  Ho  Ho2  1  0.249989  0.000000  0.249988  1
  Ho  Ho3  1  0.249989  0.499976  0.249988  1
  Ho  Ho4  1  0.750018  0.000000  0.249983  1
  Ho  Ho5  1  0.750012  0.000000  0.750011  1
  Ho  Ho6  1  0.750012  0.500023  0.750011  1
  Se  Se7  1  0.998804  0.000000  0.001196  1
  Se  Se8  1  0.501184  0.000000  0.498816  1
  Se  Se9  1  0.992455  0.987468  0.492457  1
  Se  Se10  1  0.992455  0.497444  0.492457  1
  Se  Se11  1  0.506507  0.500001  0.493496  1
  Se  Se12  1  0.993499  0.500001  0.006503  1
  Se  Se13  1  0.507544  0.502558  0.007545  1
  Se  Se14  1  0.507544  0.012531  0.007545  1
