# generated using pymatgen
data_Pr2Dy3Er(IrO7)2
_symmetry_space_group_name_H-M   'P 1'
_cell_length_a   6.47258960
_cell_length_b   6.47684935
_cell_length_c   7.51500400
_cell_angle_alpha   90.00000000
_cell_angle_beta   90.00000000
_cell_angle_gamma   109.69327241
_symmetry_Int_Tables_number   1
_chemical_formula_structural   Pr2Dy3Er(IrO7)2
_chemical_formula_sum   'Pr2 Dy3 Er1 Ir2 O14'
_cell_volume   296.61702500
_cell_formula_units_Z   1
loop_
 _symmetry_equiv_pos_site_id
 _symmetry_equiv_pos_as_xyz
  1  'x, y, z'
loop_
 _atom_site_type_symbol
 _atom_site_label
 _atom_site_symmetry_multiplicity
 _atom_site_fract_x
 _atom_site_fract_y
 _atom_site_fract_z
 _atom_site_occupancy
  Pr  Pr0  1  0.998548  0.997770  0.999255  1
  Pr  Pr1  1  0.998548  0.997770  0.500745  1
  Dy  Dy2  1  0.515475  0.061912  0.250000  1
  Dy  Dy3  1  0.936076  0.484555  0.750000  1
  Dy  Dy4  1  0.062407  0.515060  0.250000  1
  Er  Er5  1  0.486274  0.938357  0.750000  1
  Ir  Ir6  1  0.498873  0.499316  0.999305  1
  Ir  Ir7  1  0.498873  0.499316  0.500695  1
  O  O8  1  0.592500  0.596588  0.750000  1
  O  O9  1  0.412710  0.413245  0.250000  1
  O  O10  1  0.837994  0.120714  0.750000  1
  O  O11  1  0.160467  0.878439  0.250000  1
  O  O12  1  0.125398  0.838712  0.750000  1
  O  O13  1  0.878796  0.159881  0.250000  1
  O  O14  1  0.441433  0.180868  0.964259  1
  O  O15  1  0.558040  0.819531  0.467997  1
  O  O16  1  0.179708  0.438086  0.965570  1
  O  O17  1  0.819350  0.560698  0.466311  1
  O  O18  1  0.441433  0.180868  0.535741  1
  O  O19  1  0.558040  0.819531  0.032003  1
  O  O20  1  0.819350  0.560698  0.033689  1
  O  O21  1  0.179708  0.438086  0.534430  1
