# generated using pymatgen
data_Tl3Rh(SO4)6
_symmetry_space_group_name_H-M   'P 1'
_cell_length_a   8.67139033
_cell_length_b   8.67065480
_cell_length_c   9.36287300
_cell_angle_alpha   62.39810595
_cell_angle_beta   62.42953451
_cell_angle_gamma   60.04712107
_symmetry_Int_Tables_number   1
_chemical_formula_structural   Tl3Rh(SO4)6
_chemical_formula_sum   'Tl3 Rh1 S6 O24'
_cell_volume   515.36671138
_cell_formula_units_Z   1
loop_
 _symmetry_equiv_pos_site_id
 _symmetry_equiv_pos_as_xyz
  1  'x, y, z'
loop_
 _atom_site_type_symbol
 _atom_site_label
 _atom_site_symmetry_multiplicity
 _atom_site_fract_x
 _atom_site_fract_y
 _atom_site_fract_z
 _atom_site_occupancy
  Tl  Tl0  1  0.643482  0.642687  0.071265  1
  Tl  Tl1  1  0.352921  0.352751  0.941191  1
  Tl  Tl2  1  0.153746  0.154075  0.539142  1
  Rh  Rh3  1  0.841422  0.841609  0.475165  1
  S  S4  1  0.746680  0.464294  0.744644  1
  S  S5  1  0.043859  0.746798  0.745096  1
  S  S6  1  0.560723  0.953637  0.254491  1
  S  S7  1  0.953930  0.231216  0.254581  1
  S  S8  1  0.231159  0.561139  0.254116  1
  S  S9  1  0.464340  0.043788  0.744725  1
  O  O10  1  0.920459  0.684933  0.917495  1
  O  O11  1  0.479205  0.919735  0.916306  1
  O  O12  1  0.668155  0.982748  0.320492  1
  O  O13  1  0.367325  0.969051  0.370617  1
  O  O14  1  0.001274  0.949296  0.702344  1
  O  O15  1  0.707222  0.654031  0.614063  1
  O  O16  1  0.684014  0.479334  0.916185  1
  O  O17  1  0.657162  0.763246  0.233667  1
  O  O18  1  0.949023  0.346641  0.703355  1
  O  O19  1  0.241331  0.634962  0.746013  1
  O  O20  1  0.635081  0.376860  0.746211  1
  O  O21  1  0.022190  0.706452  0.616277  1
  O  O22  1  0.969275  0.294354  0.369877  1
  O  O23  1  0.346087  0.658292  0.232041  1
  O  O24  1  0.763846  0.345588  0.232977  1
  O  O25  1  0.028927  0.668152  0.320745  1
  O  O26  1  0.377198  0.241136  0.746124  1
  O  O27  1  0.257029  0.555545  0.086970  1
  O  O28  1  0.293633  0.367863  0.370471  1
  O  O29  1  0.982600  0.028780  0.322126  1
  O  O30  1  0.654126  0.023860  0.614398  1
  O  O31  1  0.346654  0.000470  0.703156  1
  O  O32  1  0.555698  0.099608  0.086730  1
  O  O33  1  0.100220  0.257065  0.086943  1
