# generated using pymatgen
data_Li4Ac3TmSi8
_symmetry_space_group_name_H-M   'P 1'
_cell_length_a   3.94591600
_cell_length_b   7.88393108
_cell_length_c   10.86245890
_cell_angle_alpha   90.09912830
_cell_angle_beta   90.00000000
_cell_angle_gamma   90.00000000
_symmetry_Int_Tables_number   1
_chemical_formula_structural   Li4Ac3TmSi8
_chemical_formula_sum   'Li4 Ac3 Tm1 Si8'
_cell_volume   337.92331068
_cell_formula_units_Z   1
loop_
 _symmetry_equiv_pos_site_id
 _symmetry_equiv_pos_as_xyz
  1  'x, y, z'
loop_
 _atom_site_type_symbol
 _atom_site_label
 _atom_site_symmetry_multiplicity
 _atom_site_fract_x
 _atom_site_fract_y
 _atom_site_fract_z
 _atom_site_occupancy
  Li  Li0  1  0.250000  0.992204  0.389603  1
  Li  Li1  1  0.250000  0.501007  0.113722  1
  Li  Li2  1  0.750000  0.000965  0.605023  1
  Li  Li3  1  0.750000  0.504146  0.888646  1
  Ac  Ac4  1  0.250000  0.145089  0.868206  1
  Ac  Ac5  1  0.250000  0.636485  0.631931  1
  Ac  Ac6  1  0.750000  0.862435  0.136281  1
  Tm  Tm7  1  0.750000  0.369286  0.366960  1
  Si  Si8  1  0.250000  0.222996  0.560904  1
  Si  Si9  1  0.250000  0.718900  0.924895  1
  Si  Si10  1  0.750000  0.763033  0.423631  1
  Si  Si11  1  0.750000  0.291824  0.088113  1
  Si  Si12  1  0.250000  0.652043  0.322573  1
  Si  Si13  1  0.250000  0.179262  0.189923  1
  Si  Si14  1  0.750000  0.327747  0.665687  1
  Si  Si15  1  0.750000  0.832577  0.823905  1
