# generated using pymatgen
data_Pa3Co(CuSn2)2
_symmetry_space_group_name_H-M   'P 1'
_cell_length_a   8.22203965
_cell_length_b   8.22628146
_cell_length_c   8.22003060
_cell_angle_alpha   109.23893022
_cell_angle_beta   109.90667230
_cell_angle_gamma   109.29399930
_symmetry_Int_Tables_number   1
_chemical_formula_structural   Pa3Co(CuSn2)2
_chemical_formula_sum   'Pa6 Co2 Cu4 Sn8'
_cell_volume   427.84051815
_cell_formula_units_Z   2
loop_
 _symmetry_equiv_pos_site_id
 _symmetry_equiv_pos_as_xyz
  1  'x, y, z'
loop_
 _atom_site_type_symbol
 _atom_site_label
 _atom_site_symmetry_multiplicity
 _atom_site_fract_x
 _atom_site_fract_y
 _atom_site_fract_z
 _atom_site_occupancy
  Pa  Pa0  1  0.862179  0.741440  0.128491  1
  Pa  Pa1  1  0.110536  0.375285  0.246301  1
  Pa  Pa2  1  0.628396  0.241204  0.362180  1
  Pa  Pa3  1  0.746232  0.875299  0.610407  1
  Pa  Pa4  1  0.390081  0.135785  0.765185  1
  Pa  Pa5  1  0.265308  0.635852  0.890189  1
  Co  Co6  1  0.748463  0.372034  0.123073  1
  Co  Co7  1  0.623009  0.871906  0.248475  1
  Cu  Cu8  1  0.250130  0.124808  0.375592  1
  Cu  Cu9  1  0.374895  0.750957  0.625519  1
  Cu  Cu10  1  0.875542  0.624866  0.750193  1
  Cu  Cu11  1  0.125554  0.250884  0.874780  1
  Sn  Sn12  1  0.163899  0.999305  0.000094  1
  Sn  Sn13  1  0.673805  0.999177  0.999438  1
  Sn  Sn14  1  0.499442  0.499297  0.173858  1
  Sn  Sn15  1  0.330910  0.832389  0.331348  1
  Sn  Sn16  1  0.998942  0.668919  0.501346  1
  Sn  Sn17  1  0.001150  0.168786  0.498893  1
  Sn  Sn18  1  0.500141  0.499400  0.663897  1
  Sn  Sn19  1  0.831388  0.332407  0.830742  1
