# generated using pymatgen
data_TbEr3Al18(PdRh)3
_symmetry_space_group_name_H-M   'P 1'
_cell_length_a   7.58946063
_cell_length_b   7.59345794
_cell_length_c   9.44720002
_cell_angle_alpha   89.99533724
_cell_angle_beta   89.98341936
_cell_angle_gamma   119.58861311
_symmetry_Int_Tables_number   1
_chemical_formula_structural   TbEr3Al18(PdRh)3
_chemical_formula_sum   'Tb1 Er3 Al18 Pd3 Rh3'
_cell_volume   473.44513292
_cell_formula_units_Z   1
loop_
 _symmetry_equiv_pos_site_id
 _symmetry_equiv_pos_as_xyz
  1  'x, y, z'
loop_
 _atom_site_type_symbol
 _atom_site_label
 _atom_site_symmetry_multiplicity
 _atom_site_fract_x
 _atom_site_fract_y
 _atom_site_fract_z
 _atom_site_occupancy
  Tb  Tb0  1  0.995880  0.669853  0.750382  1
  Er  Er1  1  0.005728  0.330714  0.249763  1
  Er  Er2  1  0.669111  0.993757  0.750332  1
  Er  Er3  1  0.329645  0.004480  0.249408  1
  Al  Al4  1  0.125460  0.126510  0.750666  1
  Al  Al5  1  0.873771  0.875117  0.249277  1
  Al  Al6  1  0.000242  0.330600  0.575544  1
  Al  Al7  1  0.999129  0.668880  0.422184  1
  Al  Al8  1  0.996918  0.664844  0.075944  1
  Al  Al9  1  0.335574  0.003750  0.925818  1
  Al  Al10  1  0.995581  0.330005  0.925847  1
  Al  Al11  1  0.669086  0.004503  0.075081  1
  Al  Al12  1  0.668409  0.999855  0.423560  1
  Al  Al13  1  0.331834  0.001712  0.575907  1
  Al  Al14  1  0.332186  0.329295  0.053171  1
  Al  Al15  1  0.670370  0.667705  0.948774  1
  Al  Al16  1  0.669162  0.669662  0.555502  1
  Al  Al17  1  0.330422  0.330554  0.442628  1
  Al  Al18  1  0.341085  0.545770  0.750787  1
  Al  Al19  1  0.658735  0.450845  0.246628  1
  Al  Al20  1  0.548438  0.340225  0.753400  1
  Al  Al21  1  0.453791  0.659862  0.249333  1
  Pd  Pd22  1  0.672127  0.327762  0.499367  1
  Pd  Pd23  1  0.327256  0.672667  0.499953  1
  Pd  Pd24  1  0.327372  0.672478  0.000353  1
  Rh  Rh25  1  0.671983  0.327877  0.000465  1
  Rh  Rh26  1  0.000353  0.000635  0.499356  1
  Rh  Rh27  1  0.000354  0.000081  0.000569  1
