# generated using pymatgen
data_Rb2Sb(WO4)3
_symmetry_space_group_name_H-M   'P 1'
_cell_length_a   7.36613766
_cell_length_b   7.36613750
_cell_length_c   7.34078852
_cell_angle_alpha   60.83179686
_cell_angle_beta   60.83179935
_cell_angle_gamma   60.52981605
_symmetry_Int_Tables_number   1
_chemical_formula_structural   Rb2Sb(WO4)3
_chemical_formula_sum   'Rb2 Sb1 W3 O12'
_cell_volume   286.29004896
_cell_formula_units_Z   1
loop_
 _symmetry_equiv_pos_site_id
 _symmetry_equiv_pos_as_xyz
  1  'x, y, z'
loop_
 _atom_site_type_symbol
 _atom_site_label
 _atom_site_symmetry_multiplicity
 _atom_site_fract_x
 _atom_site_fract_y
 _atom_site_fract_z
 _atom_site_occupancy
  Rb  Rb0  1  0.838686  0.893432  0.385057  1
  Rb  Rb1  1  0.106568  0.161314  0.614943  1
  Sb  Sb2  1  0.498911  0.501089  0.000000  1
  W  W3  1  0.994840  0.509529  0.997993  1
  W  W4  1  0.490471  0.005160  0.002007  1
  W  W5  1  0.499689  0.500311  0.500000  1
  O  O6  1  0.187104  0.192450  0.060161  1
  O  O7  1  0.568805  0.565893  0.679959  1
  O  O8  1  0.179377  0.567856  0.068352  1
  O  O9  1  0.562800  0.179595  0.694368  1
  O  O10  1  0.566042  0.181292  0.066953  1
  O  O11  1  0.180169  0.562374  0.695367  1
  O  O12  1  0.807550  0.812896  0.939839  1
  O  O13  1  0.434107  0.431195  0.320041  1
  O  O14  1  0.818708  0.433958  0.933047  1
  O  O15  1  0.437626  0.819831  0.304633  1
  O  O16  1  0.432144  0.820623  0.931648  1
  O  O17  1  0.820405  0.437200  0.305632  1
