# generated using pymatgen
data_Yb6IrWO12
_symmetry_space_group_name_H-M   'P 1'
_cell_length_a   6.49298472
_cell_length_b   6.49298432
_cell_length_c   6.49298471
_cell_angle_alpha   92.46635153
_cell_angle_beta   92.46635745
_cell_angle_gamma   92.46636689
_symmetry_Int_Tables_number   1
_chemical_formula_structural   Yb6IrWO12
_chemical_formula_sum   'Yb6 Ir1 W1 O12'
_cell_volume   272.95345415
_cell_formula_units_Z   1
loop_
 _symmetry_equiv_pos_site_id
 _symmetry_equiv_pos_as_xyz
  1  'x, y, z'
loop_
 _atom_site_type_symbol
 _atom_site_label
 _atom_site_symmetry_multiplicity
 _atom_site_fract_x
 _atom_site_fract_y
 _atom_site_fract_z
 _atom_site_occupancy
  Yb  Yb0  1  0.928207  0.431348  0.744196  1
  Yb  Yb1  1  0.744196  0.928207  0.431348  1
  Yb  Yb2  1  0.568652  0.255804  0.071793  1
  Yb  Yb3  1  0.431348  0.744196  0.928207  1
  Yb  Yb4  1  0.255804  0.071793  0.568652  1
  Yb  Yb5  1  0.071793  0.568652  0.255804  1
  Ir  Ir6  1  0.500000  0.500000  0.500000  1
  W  W7  1  0.000000  0.000000  0.000000  1
  O  O8  1  0.936945  0.287352  0.069608  1
  O  O9  1  0.930392  0.063055  0.712648  1
  O  O10  1  0.787704  0.579079  0.453282  1
  O  O11  1  0.712648  0.930392  0.063055  1
  O  O12  1  0.579079  0.453282  0.787704  1
  O  O13  1  0.546718  0.212296  0.420921  1
  O  O14  1  0.453282  0.787704  0.579079  1
  O  O15  1  0.420921  0.546718  0.212296  1
  O  O16  1  0.287352  0.069608  0.936945  1
  O  O17  1  0.212296  0.420921  0.546718  1
  O  O18  1  0.069608  0.936945  0.287352  1
  O  O19  1  0.063055  0.712648  0.930392  1
