# generated using pymatgen
data_Er12Co4HgPt
_symmetry_space_group_name_H-M   'P 1'
_cell_length_a   8.20781731
_cell_length_b   8.20781644
_cell_length_c   8.20781800
_cell_angle_alpha   111.07334506
_cell_angle_beta   110.60798737
_cell_angle_gamma   106.76609113
_symmetry_Int_Tables_number   1
_chemical_formula_structural   Er12Co4HgPt
_chemical_formula_sum   'Er12 Co4 Hg1 Pt1'
_cell_volume   424.94355177
_cell_formula_units_Z   1
loop_
 _symmetry_equiv_pos_site_id
 _symmetry_equiv_pos_as_xyz
  1  'x, y, z'
loop_
 _atom_site_type_symbol
 _atom_site_label
 _atom_site_symmetry_multiplicity
 _atom_site_fract_x
 _atom_site_fract_y
 _atom_site_fract_z
 _atom_site_occupancy
  Er  Er0  1  0.186480  0.290187  0.476667  1
  Er  Er1  1  0.813520  0.709813  0.523333  1
  Er  Er2  1  0.186480  0.709813  0.896293  1
  Er  Er3  1  0.813520  0.290187  0.103707  1
  Er  Er4  1  0.316179  0.619470  0.303291  1
  Er  Er5  1  0.683821  0.380530  0.696709  1
  Er  Er6  1  0.316179  0.012890  0.696709  1
  Er  Er7  1  0.683821  0.987110  0.303291  1
  Er  Er8  1  0.416541  0.218961  0.197580  1
  Er  Er9  1  0.583459  0.781039  0.802420  1
  Er  Er10  1  0.021380  0.218961  0.802420  1
  Er  Er11  1  0.978620  0.781039  0.197580  1
  Co  Co12  1  0.112801  0.612801  0.500000  1
  Co  Co13  1  0.887199  0.387199  0.500000  1
  Co  Co14  1  0.377629  0.000000  0.377629  1
  Co  Co15  1  0.622371  0.000000  0.622371  1
  Hg  Hg16  1  0.500000  0.500000  0.000000  1
  Pt  Pt17  1  0.000000  0.000000  0.000000  1
