# generated using pymatgen
data_Zr6Si6Tc5Os
_symmetry_space_group_name_H-M   'P 1'
_cell_length_a   7.79239332
_cell_length_b   7.79247877
_cell_length_c   7.79247855
_cell_angle_alpha   126.65890458
_cell_angle_beta   127.79626283
_cell_angle_gamma   77.88345911
_symmetry_Int_Tables_number   1
_chemical_formula_structural   Zr6Si6Tc5Os
_chemical_formula_sum   'Zr6 Si6 Tc5 Os1'
_cell_volume   290.71949549
_cell_formula_units_Z   1
loop_
 _symmetry_equiv_pos_site_id
 _symmetry_equiv_pos_as_xyz
  1  'x, y, z'
loop_
 _atom_site_type_symbol
 _atom_site_label
 _atom_site_symmetry_multiplicity
 _atom_site_fract_x
 _atom_site_fract_y
 _atom_site_fract_z
 _atom_site_occupancy
  Zr  Zr0  1  0.546442  0.092422  0.044705  1
  Zr  Zr1  1  0.453558  0.498263  0.545979  1
  Zr  Zr2  1  0.952645  0.498202  0.044360  1
  Zr  Zr3  1  0.047355  0.091715  0.545558  1
  Zr  Zr4  1  0.749379  0.900252  0.649288  1
  Zr  Zr5  1  0.250621  0.899909  0.150873  1
  Si  Si6  1  0.333641  0.830284  0.497239  1
  Si  Si7  1  0.666359  0.163599  0.496643  1
  Si  Si8  1  0.833491  0.831516  0.997380  1
  Si  Si9  1  0.166509  0.163890  0.998023  1
  Si  Si10  1  0.748865  0.497527  0.245984  1
  Si  Si11  1  0.251135  0.497119  0.748663  1
  Tc  Tc12  1  0.125949  0.748134  0.622638  1
  Tc  Tc13  1  0.874051  0.496688  0.622185  1
  Tc  Tc14  1  0.626497  0.749925  0.123052  1
  Tc  Tc15  1  0.373503  0.496554  0.123428  1
  Tc  Tc16  1  0.500000  0.243167  0.743167  1
  Os  Os17  1  0.000000  0.244836  0.244836  1
