# generated using pymatgen
data_Ho10Er2Ni4SnPd
_symmetry_space_group_name_H-M   'P 1'
_cell_length_a   8.30029160
_cell_length_b   8.32195802
_cell_length_c   8.32196341
_cell_angle_alpha   111.72155864
_cell_angle_beta   109.84640965
_cell_angle_gamma   106.98072732
_symmetry_Int_Tables_number   1
_chemical_formula_structural   Ho10Er2Ni4SnPd
_chemical_formula_sum   'Ho10 Er2 Ni4 Sn1 Pd1'
_cell_volume   441.19792704
_cell_formula_units_Z   1
loop_
 _symmetry_equiv_pos_site_id
 _symmetry_equiv_pos_as_xyz
  1  'x, y, z'
loop_
 _atom_site_type_symbol
 _atom_site_label
 _atom_site_symmetry_multiplicity
 _atom_site_fract_x
 _atom_site_fract_y
 _atom_site_fract_z
 _atom_site_occupancy
  Ho  Ho0  1  0.019080  0.214673  0.804406  1
  Ho  Ho1  1  0.980920  0.785327  0.195594  1
  Ho  Ho2  1  0.183059  0.296659  0.478899  1
  Ho  Ho3  1  0.816941  0.703341  0.521101  1
  Ho  Ho4  1  0.183058  0.704159  0.886401  1
  Ho  Ho5  1  0.816942  0.295841  0.113599  1
  Ho  Ho6  1  0.321920  0.627236  0.306336  1
  Ho  Ho7  1  0.678080  0.372764  0.693664  1
  Ho  Ho8  1  0.321920  0.015584  0.694684  1
  Ho  Ho9  1  0.678080  0.984416  0.305316  1
  Er  Er10  1  0.409716  0.215070  0.194642  1
  Er  Er11  1  0.590284  0.784930  0.805358  1
  Ni  Ni12  1  0.365201  0.001502  0.363695  1
  Ni  Ni13  1  0.634799  0.998498  0.636305  1
  Ni  Ni14  1  0.124617  0.624514  0.500102  1
  Ni  Ni15  1  0.875383  0.375486  0.499898  1
  Sn  Sn16  1  0.500000  0.500000  0.000000  1
  Pd  Pd17  1  0.000000  0.000000  0.000000  1
