# generated using pymatgen
data_Nd3Er5(HgIr)2
_symmetry_space_group_name_H-M   'P 1'
_cell_length_a   9.67309885
_cell_length_b   9.67309899
_cell_length_c   9.67309800
_cell_angle_alpha   59.99999655
_cell_angle_beta   59.99999605
_cell_angle_gamma   59.99999787
_symmetry_Int_Tables_number   1
_chemical_formula_structural   Nd3Er5(HgIr)2
_chemical_formula_sum   'Nd6 Er10 Hg4 Ir4'
_cell_volume   640.00271533
_cell_formula_units_Z   2
loop_
 _symmetry_equiv_pos_site_id
 _symmetry_equiv_pos_as_xyz
  1  'x, y, z'
loop_
 _atom_site_type_symbol
 _atom_site_label
 _atom_site_symmetry_multiplicity
 _atom_site_fract_x
 _atom_site_fract_y
 _atom_site_fract_z
 _atom_site_occupancy
  Nd  Nd0  1  0.941440  0.558560  0.558560  1
  Nd  Nd1  1  0.558560  0.941440  0.941440  1
  Nd  Nd2  1  0.558560  0.941440  0.558560  1
  Nd  Nd3  1  0.941440  0.558560  0.941440  1
  Nd  Nd4  1  0.558560  0.558560  0.941440  1
  Nd  Nd5  1  0.941440  0.941440  0.558560  1
  Er  Er6  1  0.348140  0.348140  0.348140  1
  Er  Er7  1  0.348140  0.348140  0.955580  1
  Er  Er8  1  0.348140  0.955580  0.348140  1
  Er  Er9  1  0.955580  0.348140  0.348140  1
  Er  Er10  1  0.812263  0.187737  0.187737  1
  Er  Er11  1  0.187737  0.812263  0.812263  1
  Er  Er12  1  0.187737  0.812263  0.187737  1
  Er  Er13  1  0.812263  0.187737  0.812263  1
  Er  Er14  1  0.187737  0.187737  0.812263  1
  Er  Er15  1  0.812263  0.812263  0.187737  1
  Hg  Hg16  1  0.581946  0.581946  0.581946  1
  Hg  Hg17  1  0.581946  0.581946  0.254161  1
  Hg  Hg18  1  0.581946  0.254161  0.581946  1
  Hg  Hg19  1  0.254161  0.581946  0.581946  1
  Ir  Ir20  1  0.141309  0.141309  0.141309  1
  Ir  Ir21  1  0.141309  0.141309  0.576073  1
  Ir  Ir22  1  0.141309  0.576073  0.141309  1
  Ir  Ir23  1  0.576073  0.141309  0.141309  1
