# generated using pymatgen
data_Li6La5Pr(TeO6)4
_symmetry_space_group_name_H-M   'P 1'
_cell_length_a   11.10943007
_cell_length_b   11.12468025
_cell_length_c   11.11693523
_cell_angle_alpha   109.48663469
_cell_angle_beta   109.43104492
_cell_angle_gamma   109.49640461
_symmetry_Int_Tables_number   1
_chemical_formula_structural   Li6La5Pr(TeO6)4
_chemical_formula_sum   'Li12 La10 Pr2 Te8 O48'
_cell_volume   1057.64547245
_cell_formula_units_Z   2
loop_
 _symmetry_equiv_pos_site_id
 _symmetry_equiv_pos_as_xyz
  1  'x, y, z'
loop_
 _atom_site_type_symbol
 _atom_site_label
 _atom_site_symmetry_multiplicity
 _atom_site_fract_x
 _atom_site_fract_y
 _atom_site_fract_z
 _atom_site_occupancy
  Li  Li0  1  0.874727  0.749984  0.124743  1
  Li  Li1  1  0.250022  0.874783  0.124760  1
  Li  Li2  1  0.874906  0.124874  0.249967  1
  Li  Li3  1  0.375062  0.625093  0.249967  1
  Li  Li4  1  0.749982  0.625131  0.375129  1
  Li  Li5  1  0.625147  0.250003  0.375134  1
  Li  Li6  1  0.375252  0.749931  0.625352  1
  Li  Li7  1  0.250091  0.375409  0.625356  1
  Li  Li8  1  0.124961  0.874903  0.750028  1
  Li  Li9  1  0.625066  0.375117  0.750021  1
  Li  Li10  1  0.124922  0.250031  0.874888  1
  Li  Li11  1  0.749964  0.124862  0.874888  1
  La  La12  1  0.750080  0.374920  0.124934  1
  La  La13  1  0.374839  0.249981  0.124941  1
  La  La14  1  0.624832  0.874829  0.249655  1
  La  La15  1  0.125040  0.375020  0.250075  1
  La  La16  1  0.250033  0.125099  0.375149  1
  La  La17  1  0.125141  0.750102  0.375196  1
  La  La18  1  0.749944  0.874986  0.625116  1
  La  La19  1  0.875190  0.250145  0.625117  1
  La  La20  1  0.374921  0.124896  0.749831  1
  La  La21  1  0.875062  0.625053  0.750114  1
  Pr  Pr22  1  0.250368  0.625121  0.874812  1
  Pr  Pr23  1  0.624444  0.749693  0.874812  1
  Te  Te24  1  0.999218  0.999645  0.999957  1
  Te  Te25  1  0.499781  0.999060  0.999358  1
  Te  Te26  1  0.499575  0.500288  0.999355  1
  Te  Te27  1  0.000743  0.500322  0.999976  1
  Te  Te28  1  0.999950  0.999987  0.499965  1
  Te  Te29  1  0.500065  0.500277  0.500724  1
  Te  Te30  1  0.500020  0.999986  0.499961  1
  Te  Te31  1  0.000660  0.500454  0.500719  1
  O  O32  1  0.906339  0.330221  0.020929  1
  O  O33  1  0.114589  0.190701  0.020928  1
  O  O34  1  0.405028  0.883371  0.074372  1
  O  O35  1  0.669344  0.691007  0.074369  1
  O  O36  1  0.669830  0.977456  0.092724  1
  O  O37  1  0.422896  0.615273  0.092722  1
  O  O38  1  0.924308  0.593979  0.114909  1
  O  O39  1  0.190598  0.020930  0.114906  1
  O  O40  1  0.575735  0.190121  0.169536  1
  O  O41  1  0.593805  0.479420  0.169541  1
  O  O42  1  0.170074  0.575986  0.191276  1
  O  O43  1  0.021203  0.115288  0.191273  1
  O  O44  1  0.385263  0.479207  0.309560  1
  O  O45  1  0.924295  0.330351  0.309560  1
  O  O46  1  0.308931  0.924002  0.330167  1
  O  O47  1  0.021233  0.906169  0.330165  1
  O  O48  1  0.906317  0.576069  0.385413  1
  O  O49  1  0.479094  0.309345  0.385410  1
  O  O50  1  0.521297  0.830170  0.406267  1
  O  O51  1  0.884972  0.076101  0.406269  1
  O  O52  1  0.808712  0.830068  0.423768  1
  O  O53  1  0.615056  0.093704  0.423764  1
  O  O54  1  0.308622  0.384665  0.478745  1
  O  O55  1  0.170122  0.594080  0.478746  1
  O  O56  1  0.691183  0.615173  0.521598  1
  O  O57  1  0.830415  0.406429  0.521599  1
  O  O58  1  0.191127  0.169901  0.576099  1
  O  O59  1  0.384978  0.906199  0.576105  1
  O  O60  1  0.114944  0.923971  0.593832  1
  O  O61  1  0.478883  0.169854  0.593827  1
  O  O62  1  0.521437  0.691056  0.616555  1
  O  O63  1  0.095115  0.425503  0.616555  1
  O  O64  1  0.978605  0.093700  0.669819  1
  O  O65  1  0.691213  0.076118  0.669815  1
  O  O66  1  0.615126  0.522264  0.692465  1
  O  O67  1  0.077343  0.670206  0.692468  1
  O  O68  1  0.978485  0.884860  0.808966  1
  O  O69  1  0.830483  0.424107  0.808963  1
  O  O70  1  0.405731  0.522426  0.829983  1
  O  O71  1  0.424253  0.807562  0.829984  1
  O  O72  1  0.807432  0.977615  0.884753  1
  O  O73  1  0.077320  0.407140  0.884750  1
  O  O74  1  0.575637  0.384933  0.905772  1
  O  O75  1  0.330136  0.020836  0.905774  1
  O  O76  1  0.329995  0.309042  0.923909  1
  O  O77  1  0.593910  0.114857  0.923902  1
  O  O78  1  0.095138  0.669723  0.978583  1
  O  O79  1  0.883451  0.808870  0.978589  1
