# generated using pymatgen
data_LiTb2Ni6B2Pt
_symmetry_space_group_name_H-M   'P 1'
_cell_length_a   5.05032000
_cell_length_b   5.05031950
_cell_length_c   7.17164200
_cell_angle_alpha   90.00000000
_cell_angle_beta   90.00000000
_cell_angle_gamma   119.99997704
_symmetry_Int_Tables_number   1
_chemical_formula_structural   LiTb2Ni6B2Pt
_chemical_formula_sum   'Li1 Tb2 Ni6 B2 Pt1'
_cell_volume   158.41163824
_cell_formula_units_Z   1
loop_
 _symmetry_equiv_pos_site_id
 _symmetry_equiv_pos_as_xyz
  1  'x, y, z'
loop_
 _atom_site_type_symbol
 _atom_site_label
 _atom_site_symmetry_multiplicity
 _atom_site_fract_x
 _atom_site_fract_y
 _atom_site_fract_z
 _atom_site_occupancy
  Li  Li0  1  0.666667  0.333333  0.000000  1
  Tb  Tb1  1  0.000000  0.000000  0.500000  1
  Tb  Tb2  1  0.000000  0.000000  0.000000  1
  Ni  Ni3  1  0.498854  0.997708  0.304599  1
  Ni  Ni4  1  0.498854  0.501146  0.304599  1
  Ni  Ni5  1  0.002292  0.501146  0.304599  1
  Ni  Ni6  1  0.498854  0.997708  0.695401  1
  Ni  Ni7  1  0.498854  0.501146  0.695401  1
  Ni  Ni8  1  0.002292  0.501146  0.695401  1
  B  B9  1  0.666667  0.333333  0.500000  1
  B  B10  1  0.333333  0.666667  0.500000  1
  Pt  Pt11  1  0.333333  0.666667  0.000000  1
