# generated using pymatgen
data_La3Yb6DyRu4
_symmetry_space_group_name_H-M   'P 1'
_cell_length_a   8.70021523
_cell_length_b   8.70021576
_cell_length_c   7.42067148
_cell_angle_alpha   83.32672052
_cell_angle_beta   83.32671562
_cell_angle_gamma   43.80633777
_symmetry_Int_Tables_number   1
_chemical_formula_structural   La3Yb6DyRu4
_chemical_formula_sum   'La3 Yb6 Dy1 Ru4'
_cell_volume   385.75877971
_cell_formula_units_Z   1
loop_
 _symmetry_equiv_pos_site_id
 _symmetry_equiv_pos_as_xyz
  1  'x, y, z'
loop_
 _atom_site_type_symbol
 _atom_site_label
 _atom_site_symmetry_multiplicity
 _atom_site_fract_x
 _atom_site_fract_y
 _atom_site_fract_z
 _atom_site_occupancy
  La  La0  1  0.988976  0.197455  0.087356  1
  La  La1  1  0.802545  0.011024  0.412644  1
  La  La2  1  0.559826  0.440174  0.750000  1
  Yb  Yb3  1  0.198836  0.981334  0.580770  1
  Yb  Yb4  1  0.018666  0.801164  0.919230  1
  Yb  Yb5  1  0.205334  0.367319  0.319351  1
  Yb  Yb6  1  0.632681  0.794666  0.180649  1
  Yb  Yb7  1  0.803037  0.628631  0.678197  1
  Yb  Yb8  1  0.371369  0.196963  0.821803  1
  Dy  Dy9  1  0.428974  0.571026  0.250000  1
  Ru  Ru10  1  0.165117  0.621239  0.568608  1
  Ru  Ru11  1  0.378761  0.834883  0.931392  1
  Ru  Ru12  1  0.826359  0.380482  0.408011  1
  Ru  Ru13  1  0.619518  0.173641  0.091989  1
