# generated using pymatgen
data_Tm5InGaBi
_symmetry_space_group_name_H-M   'P 1'
_cell_length_a   8.82082200
_cell_length_b   8.76417711
_cell_length_c   6.49362000
_cell_angle_alpha   90.00000000
_cell_angle_beta   90.00000000
_cell_angle_gamma   119.78780506
_symmetry_Int_Tables_number   1
_chemical_formula_structural   Tm5InGaBi
_chemical_formula_sum   'Tm10 In2 Ga2 Bi2'
_cell_volume   435.67471557
_cell_formula_units_Z   2
loop_
 _symmetry_equiv_pos_site_id
 _symmetry_equiv_pos_as_xyz
  1  'x, y, z'
loop_
 _atom_site_type_symbol
 _atom_site_label
 _atom_site_symmetry_multiplicity
 _atom_site_fract_x
 _atom_site_fract_y
 _atom_site_fract_z
 _atom_site_occupancy
  Tm  Tm0  1  0.692158  0.348279  0.006783  1
  Tm  Tm1  1  0.307842  0.656122  0.006783  1
  Tm  Tm2  1  0.307842  0.656122  0.493217  1
  Tm  Tm3  1  0.692158  0.348279  0.493217  1
  Tm  Tm4  1  0.776098  0.757241  0.750000  1
  Tm  Tm5  1  0.223902  0.981142  0.750000  1
  Tm  Tm6  1  0.000000  0.244834  0.750000  1
  Tm  Tm7  1  0.229344  0.240636  0.250000  1
  Tm  Tm8  1  0.770656  0.011292  0.250000  1
  Tm  Tm9  1  0.000000  0.759513  0.250000  1
  In  In10  1  0.599326  0.607697  0.250000  1
  In  In11  1  0.400674  0.008371  0.250000  1
  Ga  Ga12  1  0.000000  0.598606  0.750000  1
  Ga  Ga13  1  0.000000  0.396536  0.250000  1
  Bi  Bi14  1  0.398556  0.391943  0.750000  1
  Bi  Bi15  1  0.601444  0.993387  0.750000  1
