# generated using pymatgen
data_Tm5CoAu2
_symmetry_space_group_name_H-M   'P 1'
_cell_length_a   7.90809400
_cell_length_b   8.21678000
_cell_length_c   11.47041600
_cell_angle_alpha   90.00000000
_cell_angle_beta   90.00000000
_cell_angle_gamma   90.00000000
_symmetry_Int_Tables_number   1
_chemical_formula_structural   Tm5CoAu2
_chemical_formula_sum   'Tm20 Co4 Au8'
_cell_volume   745.33694833
_cell_formula_units_Z   4
loop_
 _symmetry_equiv_pos_site_id
 _symmetry_equiv_pos_as_xyz
  1  'x, y, z'
loop_
 _atom_site_type_symbol
 _atom_site_label
 _atom_site_symmetry_multiplicity
 _atom_site_fract_x
 _atom_site_fract_y
 _atom_site_fract_z
 _atom_site_occupancy
  Tm  Tm0  1  0.158545  0.750000  0.217930  1
  Tm  Tm1  1  0.658545  0.250000  0.282070  1
  Tm  Tm2  1  0.841455  0.250000  0.782070  1
  Tm  Tm3  1  0.341455  0.750000  0.717930  1
  Tm  Tm4  1  0.451835  0.750000  0.007390  1
  Tm  Tm5  1  0.951835  0.250000  0.492610  1
  Tm  Tm6  1  0.548165  0.250000  0.992610  1
  Tm  Tm7  1  0.048165  0.750000  0.507390  1
  Tm  Tm8  1  0.616166  0.750000  0.306600  1
  Tm  Tm9  1  0.116166  0.250000  0.193400  1
  Tm  Tm10  1  0.383834  0.250000  0.693400  1
  Tm  Tm11  1  0.883834  0.750000  0.806600  1
  Tm  Tm12  1  0.827687  0.960531  0.077371  1
  Tm  Tm13  1  0.327687  0.039469  0.422629  1
  Tm  Tm14  1  0.172313  0.460531  0.922629  1
  Tm  Tm15  1  0.672313  0.539469  0.577371  1
  Tm  Tm16  1  0.172313  0.039469  0.922629  1
  Tm  Tm17  1  0.672313  0.960531  0.577371  1
  Tm  Tm18  1  0.827687  0.539469  0.077371  1
  Tm  Tm19  1  0.327687  0.460531  0.422629  1
  Co  Co20  1  0.424771  0.750000  0.495245  1
  Co  Co21  1  0.924771  0.250000  0.004755  1
  Co  Co22  1  0.575229  0.250000  0.504755  1
  Co  Co23  1  0.075229  0.750000  0.995245  1
  Au  Au24  1  0.921339  0.981437  0.331310  1
  Au  Au25  1  0.421339  0.018563  0.168690  1
  Au  Au26  1  0.078661  0.481437  0.668690  1
  Au  Au27  1  0.578661  0.518563  0.831310  1
  Au  Au28  1  0.078661  0.018563  0.668690  1
  Au  Au29  1  0.578661  0.981437  0.831310  1
  Au  Au30  1  0.921339  0.518563  0.331310  1
  Au  Au31  1  0.421339  0.481437  0.168690  1
