# generated using pymatgen
data_Lu12Tc2Ni2SnPd
_symmetry_space_group_name_H-M   'P 1'
_cell_length_a   8.23160347
_cell_length_b   8.23160490
_cell_length_c   8.23160421
_cell_angle_alpha   113.85732165
_cell_angle_beta   110.58237822
_cell_angle_gamma   104.12189684
_symmetry_Int_Tables_number   1
_chemical_formula_structural   Lu12Tc2Ni2SnPd
_chemical_formula_sum   'Lu12 Tc2 Ni2 Sn1 Pd1'
_cell_volume   426.21207417
_cell_formula_units_Z   1
loop_
 _symmetry_equiv_pos_site_id
 _symmetry_equiv_pos_as_xyz
  1  'x, y, z'
loop_
 _atom_site_type_symbol
 _atom_site_label
 _atom_site_symmetry_multiplicity
 _atom_site_fract_x
 _atom_site_fract_y
 _atom_site_fract_z
 _atom_site_occupancy
  Lu  Lu0  1  0.667914  0.850836  0.182921  1
  Lu  Lu1  1  0.332086  0.515008  0.182921  1
  Lu  Lu2  1  0.819643  0.780287  0.599930  1
  Lu  Lu3  1  0.180357  0.780287  0.960642  1
  Lu  Lu4  1  0.819643  0.219713  0.039358  1
  Lu  Lu5  1  0.180357  0.219713  0.400070  1
  Lu  Lu6  1  0.667914  0.484992  0.817079  1
  Lu  Lu7  1  0.332086  0.149164  0.817079  1
  Lu  Lu8  1  0.573612  0.265617  0.307994  1
  Lu  Lu9  1  0.426388  0.734383  0.692006  1
  Lu  Lu10  1  0.042376  0.734383  0.307994  1
  Lu  Lu11  1  0.957624  0.265617  0.692006  1
  Tc  Tc12  1  0.327196  0.500000  0.827196  1
  Tc  Tc13  1  0.672804  0.500000  0.172804  1
  Ni  Ni14  1  0.880556  0.880556  0.000000  1
  Ni  Ni15  1  0.119444  0.119444  0.000000  1
  Sn  Sn16  1  0.500000  0.000000  0.500000  1
  Pd  Pd17  1  0.000000  0.500000  0.500000  1
