# generated using pymatgen
data_CeLu11FeCo3
_symmetry_space_group_name_H-M   'P 1'
_cell_length_a   6.15673959
_cell_length_b   6.81070316
_cell_length_c   9.10104200
_cell_angle_alpha   90.00000000
_cell_angle_beta   90.00000000
_cell_angle_gamma   91.47446200
_symmetry_Int_Tables_number   1
_chemical_formula_structural   CeLu11FeCo3
_chemical_formula_sum   'Ce1 Lu11 Fe1 Co3'
_cell_volume   381.49603956
_cell_formula_units_Z   1
loop_
 _symmetry_equiv_pos_site_id
 _symmetry_equiv_pos_as_xyz
  1  'x, y, z'
loop_
 _atom_site_type_symbol
 _atom_site_label
 _atom_site_symmetry_multiplicity
 _atom_site_fract_x
 _atom_site_fract_y
 _atom_site_fract_z
 _atom_site_occupancy
  Ce  Ce0  1  0.865963  0.570532  0.250000  1
  Lu  Lu1  1  0.328615  0.675531  0.061890  1
  Lu  Lu2  1  0.175176  0.175722  0.433118  1
  Lu  Lu3  1  0.677940  0.322447  0.565488  1
  Lu  Lu4  1  0.824327  0.828189  0.932792  1
  Lu  Lu5  1  0.677940  0.322447  0.934512  1
  Lu  Lu6  1  0.824327  0.828189  0.567208  1
  Lu  Lu7  1  0.328615  0.675531  0.438110  1
  Lu  Lu8  1  0.175176  0.175722  0.066882  1
  Lu  Lu9  1  0.625381  0.041169  0.250000  1
  Lu  Lu10  1  0.137713  0.455743  0.750000  1
  Lu  Lu11  1  0.366308  0.960201  0.750000  1
  Fe  Fe12  1  0.020398  0.855753  0.250000  1
  Co  Co13  1  0.470918  0.392042  0.250000  1
  Co  Co14  1  0.959523  0.110907  0.750000  1
  Co  Co15  1  0.541679  0.609877  0.750000  1
