# generated using pymatgen
data_La4HoOs2
_symmetry_space_group_name_H-M   'P 1'
_cell_length_a   6.74099330
_cell_length_b   7.32634409
_cell_length_c   8.96055076
_cell_angle_alpha   94.52349381
_cell_angle_beta   112.09531683
_cell_angle_gamma   89.99999928
_symmetry_Int_Tables_number   1
_chemical_formula_structural   La4HoOs2
_chemical_formula_sum   'La8 Ho2 Os4'
_cell_volume   408.54523929
_cell_formula_units_Z   2
loop_
 _symmetry_equiv_pos_site_id
 _symmetry_equiv_pos_as_xyz
  1  'x, y, z'
loop_
 _atom_site_type_symbol
 _atom_site_label
 _atom_site_symmetry_multiplicity
 _atom_site_fract_x
 _atom_site_fract_y
 _atom_site_fract_z
 _atom_site_occupancy
  La  La0  1  0.976424  0.909731  0.180545  1
  La  La1  1  0.795879  0.590269  0.819455  1
  La  La2  1  0.023576  0.090269  0.819455  1
  La  La3  1  0.204121  0.409731  0.180545  1
  La  La4  1  0.636591  0.819045  0.426003  1
  La  La5  1  0.210588  0.680955  0.573997  1
  La  La6  1  0.363409  0.180955  0.573997  1
  La  La7  1  0.789412  0.319045  0.426003  1
  Ho  Ho8  1  0.436759  0.750000  0.000000  1
  Ho  Ho9  1  0.563241  0.250000  0.000000  1
  Os  Os10  1  0.818845  0.571484  0.213505  1
  Os  Os11  1  0.605339  0.928516  0.786495  1
  Os  Os12  1  0.181155  0.428516  0.786495  1
  Os  Os13  1  0.394661  0.071484  0.213505  1
