# generated using pymatgen
data_Y10Tl2FeHg
_symmetry_space_group_name_H-M   'P 1'
_cell_length_a   9.75347500
_cell_length_b   9.75347613
_cell_length_c   9.66775300
_cell_angle_alpha   90.00000000
_cell_angle_beta   90.00000000
_cell_angle_gamma   120.28326308
_symmetry_Int_Tables_number   1
_chemical_formula_structural   Y10Tl2FeHg
_chemical_formula_sum   'Y20 Tl4 Fe2 Hg2'
_cell_volume   794.19703486
_cell_formula_units_Z   2
loop_
 _symmetry_equiv_pos_site_id
 _symmetry_equiv_pos_as_xyz
  1  'x, y, z'
loop_
 _atom_site_type_symbol
 _atom_site_label
 _atom_site_symmetry_multiplicity
 _atom_site_fract_x
 _atom_site_fract_y
 _atom_site_fract_z
 _atom_site_occupancy
  Y  Y0  1  0.995670  0.004330  0.514053  1
  Y  Y1  1  0.995670  0.004330  0.985947  1
  Y  Y2  1  0.541471  0.458529  0.250000  1
  Y  Y3  1  0.538516  0.077916  0.250000  1
  Y  Y4  1  0.922084  0.461483  0.250000  1
  Y  Y5  1  0.461389  0.538611  0.750000  1
  Y  Y6  1  0.464488  0.915899  0.750000  1
  Y  Y7  1  0.084101  0.535512  0.750000  1
  Y  Y8  1  0.211251  0.788749  0.436168  1
  Y  Y9  1  0.212498  0.423560  0.434625  1
  Y  Y10  1  0.576440  0.787502  0.434625  1
  Y  Y11  1  0.787567  0.212433  0.566078  1
  Y  Y12  1  0.790419  0.577938  0.566928  1
  Y  Y13  1  0.422062  0.209581  0.566928  1
  Y  Y14  1  0.787567  0.212433  0.933922  1
  Y  Y15  1  0.790419  0.577938  0.933072  1
  Y  Y16  1  0.422062  0.209581  0.933072  1
  Y  Y17  1  0.211251  0.788749  0.063832  1
  Y  Y18  1  0.212498  0.423560  0.065375  1
  Y  Y19  1  0.576440  0.787502  0.065375  1
  Tl  Tl20  1  0.883080  0.116920  0.250000  1
  Tl  Tl21  1  0.885452  0.769755  0.250000  1
  Tl  Tl22  1  0.230245  0.114548  0.250000  1
  Tl  Tl23  1  0.121753  0.878247  0.750000  1
  Fe  Fe24  1  0.331390  0.668610  0.250000  1
  Fe  Fe25  1  0.665574  0.334426  0.750000  1
  Hg  Hg26  1  0.123662  0.245018  0.750000  1
  Hg  Hg27  1  0.754982  0.876338  0.750000  1
