# generated using pymatgen
data_Hf16TiCo5Ir2
_symmetry_space_group_name_H-M   'P 1'
_cell_length_a   8.56862116
_cell_length_b   8.56862166
_cell_length_c   8.58224100
_cell_angle_alpha   60.17937636
_cell_angle_beta   60.17937447
_cell_angle_gamma   60.13541075
_symmetry_Int_Tables_number   1
_chemical_formula_structural   Hf16TiCo5Ir2
_chemical_formula_sum   'Hf16 Ti1 Co5 Ir2'
_cell_volume   447.22355343
_cell_formula_units_Z   1
loop_
 _symmetry_equiv_pos_site_id
 _symmetry_equiv_pos_as_xyz
  1  'x, y, z'
loop_
 _atom_site_type_symbol
 _atom_site_label
 _atom_site_symmetry_multiplicity
 _atom_site_fract_x
 _atom_site_fract_y
 _atom_site_fract_z
 _atom_site_occupancy
  Hf  Hf0  1  0.049955  0.649363  0.651135  1
  Hf  Hf1  1  0.649363  0.049955  0.651135  1
  Hf  Hf2  1  0.645082  0.645082  0.063731  1
  Hf  Hf3  1  0.649248  0.649248  0.649703  1
  Hf  Hf4  1  0.798883  0.798883  0.200677  1
  Hf  Hf5  1  0.194277  0.194277  0.810525  1
  Hf  Hf6  1  0.800919  0.195822  0.807720  1
  Hf  Hf7  1  0.203411  0.796816  0.201785  1
  Hf  Hf8  1  0.195822  0.800919  0.807720  1
  Hf  Hf9  1  0.796816  0.203411  0.201785  1
  Hf  Hf10  1  0.434905  0.434905  0.065472  1
  Hf  Hf11  1  0.063727  0.063727  0.436899  1
  Hf  Hf12  1  0.436231  0.068445  0.437130  1
  Hf  Hf13  1  0.066733  0.435611  0.062962  1
  Hf  Hf14  1  0.068445  0.436231  0.437130  1
  Hf  Hf15  1  0.435611  0.066733  0.062962  1
  Ti  Ti16  1  0.428009  0.428009  0.710316  1
  Co  Co17  1  0.412382  0.412382  0.413476  1
  Co  Co18  1  0.423980  0.857983  0.859552  1
  Co  Co19  1  0.857983  0.423980  0.859552  1
  Co  Co20  1  0.860104  0.860104  0.421203  1
  Co  Co21  1  0.858415  0.858415  0.859492  1
  Ir  Ir22  1  0.756757  0.412944  0.413967  1
  Ir  Ir23  1  0.412944  0.756757  0.413967  1
