# generated using pymatgen
data_Nd9Y7(InIr)4
_symmetry_space_group_name_H-M   'P 1'
_cell_length_a   9.86175229
_cell_length_b   9.86823061
_cell_length_c   9.86173400
_cell_angle_alpha   60.02085849
_cell_angle_beta   59.99940146
_cell_angle_gamma   60.02098923
_symmetry_Int_Tables_number   1
_chemical_formula_structural   Nd9Y7(InIr)4
_chemical_formula_sum   'Nd9 Y7 In4 Ir4'
_cell_volume   678.83930387
_cell_formula_units_Z   1
loop_
 _symmetry_equiv_pos_site_id
 _symmetry_equiv_pos_as_xyz
  1  'x, y, z'
loop_
 _atom_site_type_symbol
 _atom_site_label
 _atom_site_symmetry_multiplicity
 _atom_site_fract_x
 _atom_site_fract_y
 _atom_site_fract_z
 _atom_site_occupancy
  Nd  Nd0  1  0.059845  0.440119  0.440192  1
  Nd  Nd1  1  0.440611  0.059849  0.058932  1
  Nd  Nd2  1  0.440609  0.059851  0.440610  1
  Nd  Nd3  1  0.440191  0.440121  0.059844  1
  Nd  Nd4  1  0.059843  0.440124  0.059844  1
  Nd  Nd5  1  0.058932  0.059850  0.440612  1
  Nd  Nd6  1  0.650474  0.650713  0.650473  1
  Nd  Nd7  1  0.650472  0.650712  0.048337  1
  Nd  Nd8  1  0.048337  0.650712  0.650472  1
  Y  Y9  1  0.651044  0.046865  0.651045  1
  Y  Y10  1  0.187541  0.812515  0.812398  1
  Y  Y11  1  0.811418  0.187857  0.189309  1
  Y  Y12  1  0.811418  0.187852  0.811418  1
  Y  Y13  1  0.812397  0.812515  0.187540  1
  Y  Y14  1  0.187545  0.812515  0.187543  1
  Y  Y15  1  0.189309  0.187856  0.811417  1
  In  In16  1  0.419623  0.416283  0.419624  1
  In  In17  1  0.419626  0.416283  0.744467  1
  In  In18  1  0.744468  0.416283  0.419626  1
  In  In19  1  0.418843  0.743472  0.418843  1
  Ir  Ir20  1  0.857850  0.862882  0.857851  1
  Ir  Ir21  1  0.857848  0.862883  0.421420  1
  Ir  Ir22  1  0.421420  0.862883  0.857848  1
  Ir  Ir23  1  0.860333  0.419003  0.860333  1
