# generated using pymatgen
data_AcGeF7
_symmetry_space_group_name_H-M   'P 1'
_cell_length_a   5.72628000
_cell_length_b   9.40101193
_cell_length_c   12.45599044
_cell_angle_alpha   61.29119438
_cell_angle_beta   90.00000000
_cell_angle_gamma   90.00000000
_symmetry_Int_Tables_number   1
_chemical_formula_structural   AcGeF7
_chemical_formula_sum   'Ac4 Ge4 F28'
_cell_volume   588.11312230
_cell_formula_units_Z   4
loop_
 _symmetry_equiv_pos_site_id
 _symmetry_equiv_pos_as_xyz
  1  'x, y, z'
loop_
 _atom_site_type_symbol
 _atom_site_label
 _atom_site_symmetry_multiplicity
 _atom_site_fract_x
 _atom_site_fract_y
 _atom_site_fract_z
 _atom_site_occupancy
  Ac  Ac0  1  0.759481  0.805686  0.763707  1
  Ac  Ac1  1  0.259481  0.194314  0.736293  1
  Ac  Ac2  1  0.240519  0.194314  0.236293  1
  Ac  Ac3  1  0.740519  0.805686  0.263707  1
  Ge  Ge4  1  0.755672  0.274089  0.958087  1
  Ge  Ge5  1  0.255672  0.725911  0.541913  1
  Ge  Ge6  1  0.244328  0.725911  0.041913  1
  Ge  Ge7  1  0.744328  0.274089  0.458087  1
  F  F8  1  0.419635  0.711366  0.925097  1
  F  F9  1  0.919635  0.288634  0.574903  1
  F  F10  1  0.580365  0.288634  0.074903  1
  F  F11  1  0.080365  0.711366  0.425097  1
  F  F12  1  0.472783  0.281285  0.533996  1
  F  F13  1  0.972783  0.718715  0.966004  1
  F  F14  1  0.527217  0.718715  0.466004  1
  F  F15  1  0.027217  0.281285  0.033996  1
  F  F16  1  0.764724  0.495831  0.869213  1
  F  F17  1  0.264724  0.504169  0.630787  1
  F  F18  1  0.235276  0.504169  0.130787  1
  F  F19  1  0.735276  0.495831  0.369213  1
  F  F20  1  0.759635  0.052881  0.044676  1
  F  F21  1  0.259635  0.947119  0.455324  1
  F  F22  1  0.240365  0.947119  0.955324  1
  F  F23  1  0.740365  0.052881  0.544676  1
  F  F24  1  0.989901  0.728730  0.622402  1
  F  F25  1  0.489901  0.271270  0.877598  1
  F  F26  1  0.010099  0.271270  0.377598  1
  F  F27  1  0.510099  0.728730  0.122402  1
  F  F28  1  0.071483  0.736574  0.162303  1
  F  F29  1  0.571483  0.263426  0.337697  1
  F  F30  1  0.928517  0.263426  0.837697  1
  F  F31  1  0.428517  0.736574  0.662303  1
  F  F32  1  0.389981  0.964410  0.225574  1
  F  F33  1  0.889981  0.035590  0.274426  1
  F  F34  1  0.610019  0.035590  0.774426  1
  F  F35  1  0.110019  0.964410  0.725574  1
