# generated using pymatgen
data_TbPr19Si15S
_symmetry_space_group_name_H-M   'P 1'
_cell_length_a   7.93715749
_cell_length_b   7.89772611
_cell_length_c   15.35665600
_cell_angle_alpha   89.76499725
_cell_angle_beta   89.22959953
_cell_angle_gamma   89.90263895
_symmetry_Int_Tables_number   1
_chemical_formula_structural   TbPr19Si15S
_chemical_formula_sum   'Tb1 Pr19 Si15 S1'
_cell_volume   962.54318041
_cell_formula_units_Z   1
loop_
 _symmetry_equiv_pos_site_id
 _symmetry_equiv_pos_as_xyz
  1  'x, y, z'
loop_
 _atom_site_type_symbol
 _atom_site_label
 _atom_site_symmetry_multiplicity
 _atom_site_fract_x
 _atom_site_fract_y
 _atom_site_fract_z
 _atom_site_occupancy
  Tb  Tb0  1  0.313733  0.310576  0.999763  1
  Pr  Pr1  1  0.188272  0.807102  0.248879  1
  Pr  Pr2  1  0.803785  0.191577  0.751494  1
  Pr  Pr3  1  0.687733  0.687981  0.498874  1
  Pr  Pr4  1  0.380391  0.005501  0.442556  1
  Pr  Pr5  1  0.491400  0.874994  0.698882  1
  Pr  Pr6  1  0.510217  0.120810  0.195681  1
  Pr  Pr7  1  0.877107  0.485991  0.301758  1
  Pr  Pr8  1  0.124668  0.506503  0.801841  1
  Pr  Pr9  1  0.631567  0.985961  0.950304  1
  Pr  Pr10  1  0.002199  0.379026  0.550934  1
  Pr  Pr11  1  0.991315  0.622325  0.052416  1
  Pr  Pr12  1  0.140748  0.990115  0.870286  1
  Pr  Pr13  1  0.518598  0.628427  0.125654  1
  Pr  Pr14  1  0.468931  0.364754  0.632901  1
  Pr  Pr15  1  0.633385  0.522638  0.875911  1
  Pr  Pr16  1  0.370426  0.477745  0.373544  1
  Pr  Pr17  1  0.870089  0.019556  0.376614  1
  Pr  Pr18  1  0.982521  0.127360  0.123996  1
  Pr  Pr19  1  0.019970  0.876007  0.623109  1
  Si  Si20  1  0.330661  0.695527  0.951437  1
  Si  Si21  1  0.662035  0.305057  0.456040  1
  Si  Si22  1  0.698748  0.333542  0.048298  1
  Si  Si23  1  0.303288  0.665940  0.549242  1
  Si  Si24  1  0.804273  0.831504  0.202945  1
  Si  Si25  1  0.168147  0.193552  0.295684  1
  Si  Si26  1  0.841732  0.803968  0.796595  1
  Si  Si27  1  0.288631  0.925931  0.057055  1
  Si  Si28  1  0.577451  0.784591  0.308631  1
  Si  Si29  1  0.448365  0.213412  0.826363  1
  Si  Si30  1  0.787403  0.580807  0.688702  1
  Si  Si31  1  0.213513  0.419782  0.187454  1
  Si  Si32  1  0.702103  0.075564  0.561449  1
  Si  Si33  1  0.931552  0.290712  0.941017  1
  Si  Si34  1  0.077139  0.711159  0.440913  1
  S  S35  1  0.157902  0.184006  0.692778  1
