# generated using pymatgen
data_Li4La2HoTmSi6
_symmetry_space_group_name_H-M   'P 1'
_cell_length_a   9.37398990
_cell_length_b   9.37399100
_cell_length_c   6.88818500
_cell_angle_alpha   90.00000000
_cell_angle_beta   90.00000000
_cell_angle_gamma   153.13810829
_symmetry_Int_Tables_number   1
_chemical_formula_structural   Li4La2HoTmSi6
_chemical_formula_sum   'Li4 La2 Ho1 Tm1 Si6'
_cell_volume   273.48902038
_cell_formula_units_Z   1
loop_
 _symmetry_equiv_pos_site_id
 _symmetry_equiv_pos_as_xyz
  1  'x, y, z'
loop_
 _atom_site_type_symbol
 _atom_site_label
 _atom_site_symmetry_multiplicity
 _atom_site_fract_x
 _atom_site_fract_y
 _atom_site_fract_z
 _atom_site_occupancy
  Li  Li0  1  0.191140  0.808860  0.059061  1
  Li  Li1  1  0.191140  0.808860  0.440939  1
  Li  Li2  1  0.808581  0.191419  0.940416  1
  Li  Li3  1  0.808581  0.191419  0.559584  1
  La  La4  1  0.554975  0.445025  0.250000  1
  La  La5  1  0.445413  0.554587  0.750000  1
  Ho  Ho6  1  0.344583  0.655417  0.250000  1
  Tm  Tm7  1  0.655228  0.344772  0.750000  1
  Si  Si8  1  0.724717  0.275283  0.250000  1
  Si  Si9  1  0.274729  0.725271  0.750000  1
  Si  Si10  1  0.059788  0.940212  0.923380  1
  Si  Si11  1  0.940669  0.059331  0.076412  1
  Si  Si12  1  0.940669  0.059331  0.423588  1
  Si  Si13  1  0.059788  0.940212  0.576620  1
