# generated using pymatgen
data_Gd4Fe2(TcOs)3
_symmetry_space_group_name_H-M   'P 1'
_cell_length_a   5.36939200
_cell_length_b   5.35763321
_cell_length_c   8.85006900
_cell_angle_alpha   90.00000000
_cell_angle_beta   90.00000000
_cell_angle_gamma   122.40715108
_symmetry_Int_Tables_number   1
_chemical_formula_structural   Gd4Fe2(TcOs)3
_chemical_formula_sum   'Gd4 Fe2 Tc3 Os3'
_cell_volume   214.94210406
_cell_formula_units_Z   1
loop_
 _symmetry_equiv_pos_site_id
 _symmetry_equiv_pos_as_xyz
  1  'x, y, z'
loop_
 _atom_site_type_symbol
 _atom_site_label
 _atom_site_symmetry_multiplicity
 _atom_site_fract_x
 _atom_site_fract_y
 _atom_site_fract_z
 _atom_site_occupancy
  Gd  Gd0  1  0.334838  0.666693  0.438810  1
  Gd  Gd1  1  0.666585  0.334411  0.563801  1
  Gd  Gd2  1  0.666585  0.334411  0.936199  1
  Gd  Gd3  1  0.334838  0.666693  0.061190  1
  Fe  Fe4  1  0.829135  0.170504  0.250000  1
  Fe  Fe5  1  0.167913  0.831129  0.750000  1
  Tc  Tc6  1  0.823498  0.657946  0.250000  1
  Tc  Tc7  1  0.339619  0.174430  0.250000  1
  Tc  Tc8  1  0.170765  0.334472  0.750000  1
  Os  Os9  1  0.004105  0.002541  0.498037  1
  Os  Os10  1  0.004105  0.002541  0.001963  1
  Os  Os11  1  0.658016  0.824233  0.750000  1
