# generated using pymatgen
data_PrNd2Y(Mo2O7)2
_symmetry_space_group_name_H-M   'P 1'
_cell_length_a   7.49970595
_cell_length_b   7.50166060
_cell_length_c   7.49966200
_cell_angle_alpha   119.95158233
_cell_angle_beta   119.91750832
_cell_angle_gamma   90.11224413
_symmetry_Int_Tables_number   1
_chemical_formula_structural   PrNd2Y(Mo2O7)2
_chemical_formula_sum   'Pr1 Nd2 Y1 Mo4 O14'
_cell_volume   298.64913174
_cell_formula_units_Z   1
loop_
 _symmetry_equiv_pos_site_id
 _symmetry_equiv_pos_as_xyz
  1  'x, y, z'
loop_
 _atom_site_type_symbol
 _atom_site_label
 _atom_site_symmetry_multiplicity
 _atom_site_fract_x
 _atom_site_fract_y
 _atom_site_fract_z
 _atom_site_occupancy
  Pr  Pr0  1  0.375000  0.625000  0.750000  1
  Nd  Nd1  1  0.375000  0.625000  0.250000  1
  Nd  Nd2  1  0.875000  0.625000  0.250000  1
  Y  Y3  1  0.375000  0.125000  0.750000  1
  Mo  Mo4  1  0.875000  0.625000  0.750000  1
  Mo  Mo5  1  0.375000  0.125000  0.250000  1
  Mo  Mo6  1  0.875000  0.125000  0.250000  1
  Mo  Mo7  1  0.875000  0.125000  0.750000  1
  O  O8  1  0.776345  0.197414  0.991788  1
  O  O9  1  0.545450  0.464808  0.496615  1
  O  O10  1  0.208154  0.206703  0.997399  1
  O  O11  1  0.957761  0.457830  0.498465  1
  O  O12  1  0.798045  0.794993  0.579765  1
  O  O13  1  0.536003  0.036028  0.082348  1
  O  O14  1  0.252936  0.762521  0.505944  1
  O  O15  1  0.951955  0.455007  0.920235  1
  O  O16  1  0.973655  0.052586  0.508212  1
  O  O17  1  0.541846  0.043297  0.502601  1
  O  O18  1  0.213997  0.213972  0.417652  1
  O  O19  1  0.497064  0.487479  0.994056  1
  O  O20  1  0.792239  0.792170  0.001535  1
  O  O21  1  0.204550  0.785192  0.003385  1
