# generated using pymatgen
data_Ho11ErIn2FeTc2
_symmetry_space_group_name_H-M   'P 1'
_cell_length_a   8.38556834
_cell_length_b   8.38421601
_cell_length_c   8.38421473
_cell_angle_alpha   108.82026794
_cell_angle_beta   108.80185879
_cell_angle_gamma   110.79304893
_symmetry_Int_Tables_number   1
_chemical_formula_structural   Ho11ErIn2FeTc2
_chemical_formula_sum   'Ho11 Er1 In2 Fe1 Tc2'
_cell_volume   453.62469860
_cell_formula_units_Z   1
loop_
 _symmetry_equiv_pos_site_id
 _symmetry_equiv_pos_as_xyz
  1  'x, y, z'
loop_
 _atom_site_type_symbol
 _atom_site_label
 _atom_site_symmetry_multiplicity
 _atom_site_fract_x
 _atom_site_fract_y
 _atom_site_fract_z
 _atom_site_occupancy
  Ho  Ho0  1  0.304309  0.304873  0.611402  1
  Ho  Ho1  1  0.692816  0.693214  0.389051  1
  Ho  Ho2  1  0.692816  0.303764  0.999601  1
  Ho  Ho3  1  0.304309  0.692907  0.999436  1
  Ho  Ho4  1  0.190853  0.431883  0.241375  1
  Ho  Ho5  1  0.806711  0.569486  0.762267  1
  Ho  Ho6  1  0.190853  0.949479  0.758971  1
  Ho  Ho7  1  0.949570  0.190095  0.759476  1
  Ho  Ho8  1  0.806711  0.044446  0.237226  1
  Ho  Ho9  1  0.044663  0.806966  0.237696  1
  Ho  Ho10  1  0.431405  0.190477  0.240927  1
  Er  Er11  1  0.570172  0.807440  0.762732  1
  In  In12  1  0.997982  0.498126  0.499856  1
  In  In13  1  0.497909  0.997603  0.500307  1
  Fe  Fe14  1  0.630058  0.630292  0.999766  1
  Tc  Tc15  1  0.388604  0.388516  0.000088  1
  Tc  Tc16  1  0.000259  0.000437  0.999822  1
