# generated using pymatgen
data_La12C6Br17
_symmetry_space_group_name_H-M   'P 1'
_cell_length_a   11.48581230
_cell_length_b   11.48581176
_cell_length_c   18.70919800
_cell_angle_alpha   89.30446081
_cell_angle_beta   89.30446085
_cell_angle_gamma   64.09249822
_symmetry_Int_Tables_number   1
_chemical_formula_structural   La12C6Br17
_chemical_formula_sum   'La24 C12 Br34'
_cell_volume   2219.91060504
_cell_formula_units_Z   2
loop_
 _symmetry_equiv_pos_site_id
 _symmetry_equiv_pos_as_xyz
  1  'x, y, z'
loop_
 _atom_site_type_symbol
 _atom_site_label
 _atom_site_symmetry_multiplicity
 _atom_site_fract_x
 _atom_site_fract_y
 _atom_site_fract_z
 _atom_site_occupancy
  La  La0  1  0.340772  0.814166  0.290567  1
  La  La1  1  0.349463  0.354065  0.052472  1
  La  La2  1  0.354065  0.349463  0.552472  1
  La  La3  1  0.469541  0.442367  0.366820  1
  La  La4  1  0.566714  0.091738  0.883641  1
  La  La5  1  0.557633  0.530459  0.133180  1
  La  La6  1  0.711497  0.279574  0.980795  1
  La  La7  1  0.530459  0.557633  0.633180  1
  La  La8  1  0.659228  0.185834  0.709433  1
  La  La9  1  0.650537  0.645935  0.947528  1
  La  La10  1  0.064456  0.034090  0.150863  1
  La  La11  1  0.288503  0.720426  0.019205  1
  La  La12  1  0.908262  0.433286  0.616359  1
  La  La13  1  0.034090  0.064456  0.650863  1
  La  La14  1  0.433286  0.908262  0.116359  1
  La  La15  1  0.442367  0.469541  0.866820  1
  La  La16  1  0.645935  0.650537  0.447528  1
  La  La17  1  0.091738  0.566714  0.383641  1
  La  La18  1  0.935544  0.965910  0.849137  1
  La  La19  1  0.279574  0.711497  0.480795  1
  La  La20  1  0.814166  0.340772  0.790567  1
  La  La21  1  0.965910  0.935544  0.349137  1
  La  La22  1  0.720426  0.288503  0.519205  1
  La  La23  1  0.185834  0.659228  0.209433  1
  C  C24  1  0.275274  0.630752  0.348869  1
  C  C25  1  0.724726  0.369248  0.651131  1
  C  C26  1  0.369248  0.724726  0.151131  1
  C  C27  1  0.534234  0.534119  0.987686  1
  C  C28  1  0.746521  0.159498  0.847973  1
  C  C29  1  0.465766  0.465881  0.012314  1
  C  C30  1  0.253479  0.840502  0.152027  1
  C  C31  1  0.465881  0.465766  0.512314  1
  C  C32  1  0.840502  0.253479  0.652027  1
  C  C33  1  0.159498  0.746521  0.347973  1
  C  C34  1  0.630752  0.275274  0.848869  1
  C  C35  1  0.534119  0.534234  0.487686  1
  Br  Br36  1  0.308323  0.292813  0.401438  1
  Br  Br37  1  0.602015  0.106486  0.559154  1
  Br  Br38  1  0.498401  0.966411  0.255220  1
  Br  Br39  1  0.910018  0.889387  0.197886  1
  Br  Br40  1  0.707187  0.691677  0.098562  1
  Br  Br41  1  0.279181  0.806956  0.637780  1
  Br  Br42  1  0.110613  0.089982  0.302114  1
  Br  Br43  1  0.212341  0.178918  0.100927  1
  Br  Br44  1  0.893514  0.397985  0.940846  1
  Br  Br45  1  0.095178  0.595163  0.547830  1
  Br  Br46  1  0.595163  0.095178  0.047830  1
  Br  Br47  1  0.787659  0.821082  0.899073  1
  Br  Br48  1  0.624703  0.578097  0.293943  1
  Br  Br49  1  0.889387  0.910018  0.697886  1
  Br  Br50  1  0.033589  0.501599  0.244780  1
  Br  Br51  1  0.178918  0.212341  0.600927  1
  Br  Br52  1  0.720819  0.193044  0.362220  1
  Br  Br53  1  0.089982  0.110613  0.802114  1
  Br  Br54  1  0.578097  0.624703  0.793943  1
  Br  Br55  1  0.000000  0.000000  0.000000  1
  Br  Br56  1  0.397985  0.893514  0.440846  1
  Br  Br57  1  0.421903  0.375297  0.206057  1
  Br  Br58  1  0.292813  0.308323  0.901438  1
  Br  Br59  1  0.375297  0.421903  0.706057  1
  Br  Br60  1  0.821082  0.787659  0.399073  1
  Br  Br61  1  0.501599  0.033589  0.744780  1
  Br  Br62  1  0.691677  0.707187  0.598562  1
  Br  Br63  1  0.193044  0.720819  0.862220  1
  Br  Br64  1  0.404837  0.904822  0.952170  1
  Br  Br65  1  0.904822  0.404837  0.452170  1
  Br  Br66  1  0.106486  0.602015  0.059154  1
  Br  Br67  1  0.966411  0.498401  0.755220  1
  Br  Br68  1  0.806956  0.279181  0.137780  1
  Br  Br69  1  0.000000  0.000000  0.500000  1
