# generated using pymatgen
data_Y4Ho15Lu(Cd3Ru)2
_symmetry_space_group_name_H-M   'P 1'
_cell_length_a   9.56658419
_cell_length_b   9.56333830
_cell_length_c   9.80115601
_cell_angle_alpha   90.00000126
_cell_angle_beta   89.99527829
_cell_angle_gamma   119.98877525
_symmetry_Int_Tables_number   1
_chemical_formula_structural   Y4Ho15Lu(Cd3Ru)2
_chemical_formula_sum   'Y4 Ho15 Lu1 Cd6 Ru2'
_cell_volume   776.64662623
_cell_formula_units_Z   1
loop_
 _symmetry_equiv_pos_site_id
 _symmetry_equiv_pos_as_xyz
  1  'x, y, z'
loop_
 _atom_site_type_symbol
 _atom_site_label
 _atom_site_symmetry_multiplicity
 _atom_site_fract_x
 _atom_site_fract_y
 _atom_site_fract_z
 _atom_site_occupancy
  Y  Y0  1  0.917579  0.458789  0.250128  1
  Y  Y1  1  0.458947  0.541063  0.749866  1
  Y  Y2  1  0.458947  0.917885  0.749866  1
  Y  Y3  1  0.082115  0.541058  0.749866  1
  Ho  Ho4  1  0.000016  0.000008  0.999961  1
  Ho  Ho5  1  0.209327  0.790911  0.439853  1
  Ho  Ho6  1  0.209327  0.418418  0.439853  1
  Ho  Ho7  1  0.581586  0.790793  0.439845  1
  Ho  Ho8  1  0.790710  0.209153  0.560079  1
  Ho  Ho9  1  0.790710  0.581556  0.560079  1
  Ho  Ho10  1  0.418484  0.209241  0.559930  1
  Ho  Ho11  1  0.789840  0.210015  0.939909  1
  Ho  Ho12  1  0.789840  0.579822  0.939909  1
  Ho  Ho13  1  0.420215  0.210107  0.940055  1
  Ho  Ho14  1  0.210188  0.790045  0.060178  1
  Ho  Ho15  1  0.210188  0.420144  0.060178  1
  Ho  Ho16  1  0.579850  0.789926  0.060194  1
  Ho  Ho17  1  0.541011  0.458858  0.250131  1
  Ho  Ho18  1  0.541011  0.082152  0.250131  1
  Lu  Lu19  1  0.000023  0.000012  0.499993  1
  Cd  Cd20  1  0.885872  0.113995  0.251479  1
  Cd  Cd21  1  0.885872  0.771878  0.251479  1
  Cd  Cd22  1  0.228256  0.114129  0.251476  1
  Cd  Cd23  1  0.114013  0.885960  0.748521  1
  Cd  Cd24  1  0.114013  0.228052  0.748521  1
  Cd  Cd25  1  0.771952  0.885976  0.748522  1
  Ru  Ru26  1  0.333339  0.666670  0.250198  1
  Ru  Ru27  1  0.666770  0.333384  0.749798  1
