# generated using pymatgen
data_Tb3Er5Hf12Si15As
_symmetry_space_group_name_H-M   'P 1'
_cell_length_a   7.25804664
_cell_length_b   7.26999339
_cell_length_c   13.34396205
_cell_angle_alpha   89.69963686
_cell_angle_beta   89.96805509
_cell_angle_gamma   89.94816451
_symmetry_Int_Tables_number   1
_chemical_formula_structural   Tb3Er5Hf12Si15As
_chemical_formula_sum   'Tb3 Er5 Hf12 Si15 As1'
_cell_volume   704.09677827
_cell_formula_units_Z   1
loop_
 _symmetry_equiv_pos_site_id
 _symmetry_equiv_pos_as_xyz
  1  'x, y, z'
loop_
 _atom_site_type_symbol
 _atom_site_label
 _atom_site_symmetry_multiplicity
 _atom_site_fract_x
 _atom_site_fract_y
 _atom_site_fract_z
 _atom_site_occupancy
  Tb  Tb0  1  0.495655  0.155240  0.535524  1
  Tb  Tb1  1  0.344887  0.995228  0.785366  1
  Tb  Tb2  1  0.655129  0.004787  0.283861  1
  Er  Er3  1  0.995586  0.345984  0.214841  1
  Er  Er4  1  0.004685  0.655481  0.715333  1
  Er  Er5  1  0.151999  0.499905  0.466804  1
  Er  Er6  1  0.506871  0.842337  0.033646  1
  Er  Er7  1  0.844677  0.503338  0.964850  1
  Hf  Hf8  1  0.174375  0.175272  0.000108  1
  Hf  Hf9  1  0.826729  0.825953  0.500086  1
  Hf  Hf10  1  0.324609  0.677281  0.249528  1
  Hf  Hf11  1  0.674964  0.325897  0.750278  1
  Hf  Hf12  1  0.148886  0.995512  0.372779  1
  Hf  Hf13  1  0.851486  0.003163  0.875169  1
  Hf  Hf14  1  0.503307  0.649592  0.625024  1
  Hf  Hf15  1  0.351997  0.496957  0.875539  1
  Hf  Hf16  1  0.494933  0.349172  0.125154  1
  Hf  Hf17  1  0.652759  0.506082  0.376517  1
  Hf  Hf18  1  0.997157  0.149677  0.625583  1
  Hf  Hf19  1  0.000017  0.848414  0.123891  1
  Si  Si20  1  0.639565  0.704411  0.817230  1
  Si  Si21  1  0.203051  0.861675  0.566609  1
  Si  Si22  1  0.137518  0.793745  0.932468  1
  Si  Si23  1  0.795118  0.139570  0.067655  1
  Si  Si24  1  0.863621  0.205574  0.432493  1
  Si  Si25  1  0.294743  0.362968  0.682737  1
  Si  Si26  1  0.703249  0.636105  0.182810  1
  Si  Si27  1  0.293794  0.038657  0.179371  1
  Si  Si28  1  0.706238  0.950352  0.685790  1
  Si  Si29  1  0.450780  0.795044  0.435846  1
  Si  Si30  1  0.203439  0.547447  0.064507  1
  Si  Si31  1  0.549654  0.204345  0.936225  1
  Si  Si32  1  0.796176  0.452273  0.565188  1
  Si  Si33  1  0.048332  0.296805  0.814259  1
  Si  Si34  1  0.952532  0.703621  0.314547  1
  As  As35  1  0.361482  0.302139  0.322381  1
