# generated using pymatgen
data_Li4Al8OsPt3
_symmetry_space_group_name_H-M   'P 1'
_cell_length_a   6.09972000
_cell_length_b   4.29160300
_cell_length_c   8.63828000
_cell_angle_alpha   90.00015970
_cell_angle_beta   89.99982260
_cell_angle_gamma   89.99975773
_symmetry_Int_Tables_number   1
_chemical_formula_structural   Li4Al8OsPt3
_chemical_formula_sum   'Li4 Al8 Os1 Pt3'
_cell_volume   226.12923683
_cell_formula_units_Z   1
loop_
 _symmetry_equiv_pos_site_id
 _symmetry_equiv_pos_as_xyz
  1  'x, y, z'
loop_
 _atom_site_type_symbol
 _atom_site_label
 _atom_site_symmetry_multiplicity
 _atom_site_fract_x
 _atom_site_fract_y
 _atom_site_fract_z
 _atom_site_occupancy
  Li  Li0  1  0.249917  0.250000  0.124911  1
  Li  Li1  1  0.749912  0.750001  0.373398  1
  Li  Li2  1  0.250095  0.250000  0.624915  1
  Li  Li3  1  0.750085  0.750003  0.876724  1
  Al  Al4  1  0.505673  0.750001  0.125010  1
  Al  Al5  1  0.994306  0.750002  0.125076  1
  Al  Al6  1  0.504122  0.250001  0.369427  1
  Al  Al7  1  0.995846  0.250001  0.369481  1
  Al  Al8  1  0.998874  0.750000  0.625012  1
  Al  Al9  1  0.501159  0.750001  0.625062  1
  Al  Al10  1  0.995846  0.250001  0.880447  1
  Al  Al11  1  0.504180  0.250000  0.880494  1
  Os  Os12  1  0.750018  0.249999  0.124984  1
  Pt  Pt13  1  0.250022  0.749996  0.380131  1
  Pt  Pt14  1  0.749975  0.250000  0.624978  1
  Pt  Pt15  1  0.249974  0.750002  0.869949  1
