# generated using pymatgen
data_Nd16Mg2Cd2Os3Au
_symmetry_space_group_name_H-M   'P 1'
_cell_length_a   9.99930187
_cell_length_b   10.05000880
_cell_length_c   10.06535507
_cell_angle_alpha   59.93468907
_cell_angle_beta   59.76690948
_cell_angle_gamma   59.75680872
_symmetry_Int_Tables_number   1
_chemical_formula_structural   Nd16Mg2Cd2Os3Au
_chemical_formula_sum   'Nd16 Mg2 Cd2 Os3 Au1'
_cell_volume   712.30221584
_cell_formula_units_Z   1
loop_
 _symmetry_equiv_pos_site_id
 _symmetry_equiv_pos_as_xyz
  1  'x, y, z'
loop_
 _atom_site_type_symbol
 _atom_site_label
 _atom_site_symmetry_multiplicity
 _atom_site_fract_x
 _atom_site_fract_y
 _atom_site_fract_z
 _atom_site_occupancy
  Nd  Nd0  1  0.339441  0.353188  0.353909  1
  Nd  Nd1  1  0.339750  0.353410  0.953436  1
  Nd  Nd2  1  0.339849  0.954960  0.352900  1
  Nd  Nd3  1  0.968778  0.343183  0.344106  1
  Nd  Nd4  1  0.819844  0.190832  0.191681  1
  Nd  Nd5  1  0.188423  0.811129  0.810710  1
  Nd  Nd6  1  0.188637  0.811123  0.189626  1
  Nd  Nd7  1  0.819600  0.191078  0.797963  1
  Nd  Nd8  1  0.190745  0.191754  0.808913  1
  Nd  Nd9  1  0.820814  0.799522  0.189789  1
  Nd  Nd10  1  0.937723  0.561803  0.561110  1
  Nd  Nd11  1  0.554827  0.941261  0.938485  1
  Nd  Nd12  1  0.555174  0.940618  0.565848  1
  Nd  Nd13  1  0.937743  0.561780  0.939341  1
  Nd  Nd14  1  0.555558  0.566917  0.938526  1
  Nd  Nd15  1  0.937833  0.940877  0.560748  1
  Mg  Mg16  1  0.575583  0.573878  0.578764  1
  Mg  Mg17  1  0.575234  0.573948  0.270719  1
  Cd  Cd18  1  0.582068  0.257535  0.579891  1
  Cd  Cd19  1  0.255985  0.581261  0.581039  1
  Os  Os20  1  0.147929  0.137981  0.135901  1
  Os  Os21  1  0.147330  0.138075  0.578758  1
  Os  Os22  1  0.146874  0.580477  0.136367  1
  Au  Au23  1  0.574260  0.143409  0.141474  1
