# generated using pymatgen
data_Er16Mg2CdAgIr4
_symmetry_space_group_name_H-M   'P 1'
_cell_length_a   9.58246237
_cell_length_b   9.59068802
_cell_length_c   9.59068865
_cell_angle_alpha   59.80579616
_cell_angle_beta   59.67570711
_cell_angle_gamma   59.67571335
_symmetry_Int_Tables_number   1
_chemical_formula_structural   Er16Mg2CdAgIr4
_chemical_formula_sum   'Er16 Mg2 Cd1 Ag1 Ir4'
_cell_volume   619.27034387
_cell_formula_units_Z   1
loop_
 _symmetry_equiv_pos_site_id
 _symmetry_equiv_pos_as_xyz
  1  'x, y, z'
loop_
 _atom_site_type_symbol
 _atom_site_label
 _atom_site_symmetry_multiplicity
 _atom_site_fract_x
 _atom_site_fract_y
 _atom_site_fract_z
 _atom_site_occupancy
  Er  Er0  1  0.598344  0.598895  0.598895  1
  Er  Er1  1  0.599133  0.599999  0.204336  1
  Er  Er2  1  0.599133  0.204336  0.599999  1
  Er  Er3  1  0.206716  0.599104  0.599104  1
  Er  Er4  1  0.061805  0.437634  0.437634  1
  Er  Er5  1  0.437452  0.059678  0.059678  1
  Er  Er6  1  0.438368  0.060886  0.438487  1
  Er  Er7  1  0.061110  0.436260  0.060796  1
  Er  Er8  1  0.438368  0.438487  0.060886  1
  Er  Er9  1  0.061110  0.060796  0.436260  1
  Er  Er10  1  0.185837  0.811876  0.811876  1
  Er  Er11  1  0.812041  0.185754  0.185754  1
  Er  Er12  1  0.811830  0.184355  0.811805  1
  Er  Er13  1  0.187473  0.812025  0.184152  1
  Er  Er14  1  0.811830  0.811805  0.184355  1
  Er  Er15  1  0.187473  0.184152  0.812025  1
  Mg  Mg16  1  0.828010  0.830253  0.515706  1
  Mg  Mg17  1  0.828010  0.515706  0.830253  1
  Cd  Cd18  1  0.506812  0.831510  0.831510  1
  Ag  Ag19  1  0.834168  0.832912  0.832912  1
  Ir  Ir20  1  0.392462  0.391966  0.391966  1
  Ir  Ir21  1  0.393501  0.392891  0.825658  1
  Ir  Ir22  1  0.393501  0.825658  0.392891  1
  Ir  Ir23  1  0.825513  0.393059  0.393059  1
