# generated using pymatgen
data_KRb3NbFe3(PO4)6
_symmetry_space_group_name_H-M   'P 1'
_cell_length_a   10.06044800
_cell_length_b   10.06015629
_cell_length_c   10.06192900
_cell_angle_alpha   89.60980512
_cell_angle_beta   90.00000000
_cell_angle_gamma   90.00000000
_symmetry_Int_Tables_number   1
_chemical_formula_structural   KRb3NbFe3(PO4)6
_chemical_formula_sum   'K2 Rb6 Nb2 Fe6 P12 O48'
_cell_volume   1018.34099113
_cell_formula_units_Z   2
loop_
 _symmetry_equiv_pos_site_id
 _symmetry_equiv_pos_as_xyz
  1  'x, y, z'
loop_
 _atom_site_type_symbol
 _atom_site_label
 _atom_site_symmetry_multiplicity
 _atom_site_fract_x
 _atom_site_fract_y
 _atom_site_fract_z
 _atom_site_occupancy
  K  K0  1  0.296572  0.451960  0.788684  1
  K  K1  1  0.566175  0.324975  0.441545  1
  Rb  Rb2  1  0.934548  0.188728  0.928581  1
  Rb  Rb3  1  0.207531  0.041859  0.297413  1
  Rb  Rb4  1  0.707474  0.958470  0.702386  1
  Rb  Rb5  1  0.434672  0.811480  0.071405  1
  Rb  Rb6  1  0.067356  0.675911  0.561905  1
  Rb  Rb7  1  0.792232  0.543435  0.213550  1
  Nb  Nb8  1  0.587255  0.165991  0.088699  1
  Nb  Nb9  1  0.087306  0.834103  0.911186  1
  Fe  Fe10  1  0.354983  0.107070  0.641511  1
  Fe  Fe11  1  0.854606  0.893182  0.358528  1
  Fe  Fe12  1  0.414267  0.660763  0.415605  1
  Fe  Fe13  1  0.644721  0.603846  0.851319  1
  Fe  Fe14  1  0.145454  0.395718  0.148579  1
  Fe  Fe15  1  0.914113  0.338976  0.584355  1
  P  P16  1  0.877972  0.207478  0.275868  1
  P  P17  1  0.270534  0.128672  0.957045  1
  P  P18  1  0.042081  0.025541  0.621980  1
  P  P19  1  0.542340  0.975193  0.378066  1
  P  P20  1  0.770353  0.872325  0.042613  1
  P  P21  1  0.378440  0.792353  0.724666  1
  P  P22  1  0.125259  0.707697  0.232435  1
  P  P23  1  0.726863  0.623371  0.541444  1
  P  P24  1  0.957851  0.516898  0.875439  1
  P  P25  1  0.457071  0.482409  0.123978  1
  P  P26  1  0.228147  0.375979  0.458637  1
  P  P27  1  0.624278  0.292854  0.767040  1
  O  O28  1  0.641200  0.248729  0.918410  1
  O  O29  1  0.202676  0.225676  0.050541  1
  O  O30  1  0.742456  0.225086  0.193078  1
  O  O31  1  0.522140  0.201253  0.702192  1
  O  O32  1  0.265101  0.174401  0.812118  1
  O  O33  1  0.997210  0.167245  0.650412  1
  O  O34  1  0.417386  0.102779  0.002022  1
  O  O35  1  0.920286  0.061026  0.265342  1
  O  O36  1  0.524916  0.055010  0.240852  1
  O  O37  1  0.453491  0.050689  0.475318  1
  O  O38  1  0.188675  0.014794  0.580469  1
  O  O39  1  0.697393  0.009258  0.021686  1
  O  O40  1  0.197513  0.991530  0.976218  1
  O  O41  1  0.688826  0.986030  0.419711  1
  O  O42  1  0.952840  0.951501  0.524002  1
  O  O43  1  0.024684  0.944845  0.758607  1
  O  O44  1  0.420314  0.938987  0.735767  1
  O  O45  1  0.917520  0.897626  0.997900  1
  O  O46  1  0.497439  0.833286  0.350437  1
  O  O47  1  0.763996  0.829159  0.188122  1
  O  O48  1  0.021207  0.798573  0.295331  1
  O  O49  1  0.242262  0.774284  0.806202  1
  O  O50  1  0.702928  0.773935  0.950230  1
  O  O51  1  0.142579  0.751624  0.081011  1
  O  O52  1  0.348543  0.749501  0.582844  1
  O  O53  1  0.796024  0.729364  0.453660  1
  O  O54  1  0.260068  0.730914  0.299029  1
  O  O55  1  0.475329  0.701109  0.799211  1
  O  O56  1  0.734844  0.669308  0.688470  1
  O  O57  1  0.999487  0.669118  0.856935  1
  O  O58  1  0.581546  0.600010  0.499126  1
  O  O59  1  0.079211  0.562303  0.235793  1
  O  O60  1  0.480280  0.549381  0.258200  1
  O  O61  1  0.550011  0.545121  0.020830  1
  O  O62  1  0.812128  0.513409  0.921186  1
  O  O63  1  0.303369  0.508335  0.481094  1
  O  O64  1  0.803496  0.491680  0.520109  1
  O  O65  1  0.312247  0.484878  0.075312  1
  O  O66  1  0.050072  0.454583  0.979435  1
  O  O67  1  0.983264  0.449808  0.741611  1
  O  O68  1  0.575491  0.437527  0.764435  1
  O  O69  1  0.082139  0.395751  0.499858  1
  O  O70  1  0.499791  0.330747  0.144342  1
  O  O71  1  0.236862  0.330665  0.311393  1
  O  O72  1  0.976154  0.297789  0.201914  1
  O  O73  1  0.759671  0.271196  0.701218  1
  O  O74  1  0.299313  0.271432  0.546676  1
  O  O75  1  0.845162  0.251507  0.416882  1
