# generated using pymatgen
data_ErLu19(CoBi5)2
_symmetry_space_group_name_H-M   'P 1'
_cell_length_a   7.91141157
_cell_length_b   9.28695200
_cell_length_c   11.89251086
_cell_angle_alpha   90.00000000
_cell_angle_beta   89.95640527
_cell_angle_gamma   90.00000000
_symmetry_Int_Tables_number   1
_chemical_formula_structural   ErLu19(CoBi5)2
_chemical_formula_sum   'Er1 Lu19 Co2 Bi10'
_cell_volume   873.77700265
_cell_formula_units_Z   1
loop_
 _symmetry_equiv_pos_site_id
 _symmetry_equiv_pos_as_xyz
  1  'x, y, z'
loop_
 _atom_site_type_symbol
 _atom_site_label
 _atom_site_symmetry_multiplicity
 _atom_site_fract_x
 _atom_site_fract_y
 _atom_site_fract_z
 _atom_site_occupancy
  Er  Er0  1  0.910192  0.500000  0.219109  1
  Lu  Lu1  1  0.428807  0.173928  0.563073  1
  Lu  Lu2  1  0.571513  0.826012  0.063061  1
  Lu  Lu3  1  0.071550  0.731120  0.436882  1
  Lu  Lu4  1  0.928479  0.269095  0.936266  1
  Lu  Lu5  1  0.071550  0.268880  0.436882  1
  Lu  Lu6  1  0.928479  0.730905  0.936266  1
  Lu  Lu7  1  0.428807  0.826072  0.563073  1
  Lu  Lu8  1  0.571513  0.173988  0.063061  1
  Lu  Lu9  1  0.570863  0.500000  0.771292  1
  Lu  Lu10  1  0.428488  0.500000  0.271605  1
  Lu  Lu11  1  0.907160  0.000000  0.200352  1
  Lu  Lu12  1  0.092633  0.000000  0.700491  1
  Lu  Lu13  1  0.257130  0.500000  0.992428  1
  Lu  Lu14  1  0.742472  0.500000  0.493212  1
  Lu  Lu15  1  0.195469  0.000000  0.996357  1
  Lu  Lu16  1  0.804306  0.000000  0.496719  1
  Lu  Lu17  1  0.089282  0.500000  0.720045  1
  Lu  Lu18  1  0.369220  0.000000  0.310203  1
  Lu  Lu19  1  0.631403  0.000000  0.810136  1
  Co  Co20  1  0.171996  0.000000  0.488606  1
  Co  Co21  1  0.828447  0.000000  0.988377  1
  Bi  Bi22  1  0.813024  0.740476  0.671824  1
  Bi  Bi23  1  0.188101  0.259041  0.171837  1
  Bi  Bi24  1  0.678767  0.241155  0.325672  1
  Bi  Bi25  1  0.320798  0.758556  0.825156  1
  Bi  Bi26  1  0.678767  0.758845  0.325672  1
  Bi  Bi27  1  0.320798  0.241444  0.825156  1
  Bi  Bi28  1  0.813024  0.259524  0.671824  1
  Bi  Bi29  1  0.188101  0.740959  0.171837  1
  Bi  Bi30  1  0.347151  0.500000  0.527417  1
  Bi  Bi31  1  0.651712  0.500000  0.026111  1
