# generated using pymatgen
data_Yb11Pr9Sn16
_symmetry_space_group_name_H-M   'P 1'
_cell_length_a   8.01038902
_cell_length_b   8.54860236
_cell_length_c   16.09703675
_cell_angle_alpha   89.96666459
_cell_angle_beta   89.99234892
_cell_angle_gamma   89.99506281
_symmetry_Int_Tables_number   1
_chemical_formula_structural   Yb11Pr9Sn16
_chemical_formula_sum   'Yb11 Pr9 Sn16'
_cell_volume   1102.28673392
_cell_formula_units_Z   1
loop_
 _symmetry_equiv_pos_site_id
 _symmetry_equiv_pos_as_xyz
  1  'x, y, z'
loop_
 _atom_site_type_symbol
 _atom_site_label
 _atom_site_symmetry_multiplicity
 _atom_site_fract_x
 _atom_site_fract_y
 _atom_site_fract_z
 _atom_site_occupancy
  Yb  Yb0  1  0.329023  0.826291  0.877455  1
  Yb  Yb1  1  0.829478  0.672168  0.622523  1
  Yb  Yb2  1  0.670903  0.172640  0.376423  1
  Yb  Yb3  1  0.173187  0.326950  0.124859  1
  Yb  Yb4  1  0.669374  0.172993  0.124533  1
  Yb  Yb5  1  0.171071  0.327749  0.376367  1
  Yb  Yb6  1  0.328155  0.827560  0.622509  1
  Yb  Yb7  1  0.156783  0.500044  0.748991  1
  Yb  Yb8  1  0.655324  0.997976  0.748037  1
  Yb  Yb9  1  0.844219  0.497143  0.250473  1
  Yb  Yb10  1  0.342792  0.004011  0.250639  1
  Pr  Pr11  1  0.830874  0.674557  0.875332  1
  Pr  Pr12  1  0.488754  0.313889  0.905379  1
  Pr  Pr13  1  0.989491  0.184599  0.595316  1
  Pr  Pr14  1  0.510622  0.685090  0.403846  1
  Pr  Pr15  1  0.012673  0.816039  0.098148  1
  Pr  Pr16  1  0.510339  0.684218  0.097511  1
  Pr  Pr17  1  0.010345  0.815212  0.403181  1
  Pr  Pr18  1  0.488196  0.315313  0.593754  1
  Pr  Pr19  1  0.989517  0.182652  0.903764  1
  Sn  Sn20  1  0.330914  0.036129  0.039427  1
  Sn  Sn21  1  0.832609  0.465204  0.460042  1
  Sn  Sn22  1  0.667951  0.964428  0.538845  1
  Sn  Sn23  1  0.168038  0.532632  0.960904  1
  Sn  Sn24  1  0.667782  0.964940  0.961688  1
  Sn  Sn25  1  0.166498  0.534708  0.539344  1
  Sn  Sn26  1  0.331758  0.035744  0.460728  1
  Sn  Sn27  1  0.833243  0.464092  0.040653  1
  Sn  Sn28  1  0.528489  0.603760  0.749387  1
  Sn  Sn29  1  0.030209  0.898044  0.749249  1
  Sn  Sn30  1  0.471239  0.397465  0.251046  1
  Sn  Sn31  1  0.970876  0.104001  0.250113  1
  Sn  Sn32  1  0.285354  0.141158  0.749688  1
  Sn  Sn33  1  0.781079  0.359410  0.750147  1
  Sn  Sn34  1  0.715266  0.860247  0.249603  1
  Sn  Sn35  1  0.217575  0.640941  0.250096  1
