# generated using pymatgen
data_Tb4Ga10CoIr5
_symmetry_space_group_name_H-M   'P 1'
_cell_length_a   8.58035735
_cell_length_b   8.58035818
_cell_length_c   5.65036890
_cell_angle_alpha   70.79460119
_cell_angle_beta   70.79460413
_cell_angle_gamma   96.29913533
_symmetry_Int_Tables_number   1
_chemical_formula_structural   Tb4Ga10CoIr5
_chemical_formula_sum   'Tb4 Ga10 Co1 Ir5'
_cell_volume   359.73117302
_cell_formula_units_Z   1
loop_
 _symmetry_equiv_pos_site_id
 _symmetry_equiv_pos_as_xyz
  1  'x, y, z'
loop_
 _atom_site_type_symbol
 _atom_site_label
 _atom_site_symmetry_multiplicity
 _atom_site_fract_x
 _atom_site_fract_y
 _atom_site_fract_z
 _atom_site_occupancy
  Tb  Tb0  1  0.582353  0.869798  0.781350  1
  Tb  Tb1  1  0.130202  0.417647  0.718650  1
  Tb  Tb2  1  0.417179  0.130069  0.233221  1
  Tb  Tb3  1  0.869931  0.582821  0.266779  1
  Ga  Ga4  1  0.499919  0.500081  0.750000  1
  Ga  Ga5  1  0.500266  0.499734  0.250000  1
  Ga  Ga6  1  0.257007  0.094519  0.837107  1
  Ga  Ga7  1  0.905481  0.742993  0.662893  1
  Ga  Ga8  1  0.743091  0.905428  0.189787  1
  Ga  Ga9  1  0.094572  0.256909  0.310213  1
  Ga  Ga10  1  0.798322  0.201678  0.750000  1
  Ga  Ga11  1  0.198117  0.801883  0.250000  1
  Ga  Ga12  1  0.201825  0.798175  0.750000  1
  Ga  Ga13  1  0.801579  0.198421  0.250000  1
  Co  Co14  1  0.000151  0.999849  0.250000  1
  Ir  Ir15  1  0.558915  0.254633  0.592372  1
  Ir  Ir16  1  0.745367  0.441085  0.907628  1
  Ir  Ir17  1  0.441008  0.745132  0.405163  1
  Ir  Ir18  1  0.254868  0.558992  0.094837  1
  Ir  Ir19  1  0.999848  0.000152  0.750000  1
