# generated using pymatgen
data_Nd2Ho3Zr(SnIr)6
_symmetry_space_group_name_H-M   'P 1'
_cell_length_a   7.54850645
_cell_length_b   7.49924908
_cell_length_c   7.89983300
_cell_angle_alpha   90.00000000
_cell_angle_beta   90.00000000
_cell_angle_gamma   120.30463812
_symmetry_Int_Tables_number   1
_chemical_formula_structural   Nd2Ho3Zr(SnIr)6
_chemical_formula_sum   'Nd2 Ho3 Zr1 Sn6 Ir6'
_cell_volume   386.08771254
_cell_formula_units_Z   1
loop_
 _symmetry_equiv_pos_site_id
 _symmetry_equiv_pos_as_xyz
  1  'x, y, z'
loop_
 _atom_site_type_symbol
 _atom_site_label
 _atom_site_symmetry_multiplicity
 _atom_site_fract_x
 _atom_site_fract_y
 _atom_site_fract_z
 _atom_site_occupancy
  Nd  Nd0  1  0.412751  0.000899  0.250000  1
  Nd  Nd1  1  0.588816  0.592417  0.250000  1
  Ho  Ho2  1  0.599037  0.596326  0.750000  1
  Ho  Ho3  1  0.997034  0.403620  0.250000  1
  Ho  Ho4  1  0.002806  0.405541  0.750000  1
  Zr  Zr5  1  0.396803  0.998607  0.750000  1
  Sn  Sn6  1  0.259327  0.262486  0.505072  1
  Sn  Sn7  1  0.259327  0.262486  0.994928  1
  Sn  Sn8  1  0.744258  0.001215  0.987041  1
  Sn  Sn9  1  0.997113  0.736580  0.499481  1
  Sn  Sn10  1  0.744258  0.001215  0.512959  1
  Sn  Sn11  1  0.997113  0.736580  0.000519  1
  Ir  Ir12  1  0.660842  0.322928  0.521638  1
  Ir  Ir13  1  0.660842  0.322928  0.978362  1
  Ir  Ir14  1  0.332839  0.675483  0.979594  1
  Ir  Ir15  1  0.332839  0.675483  0.520406  1
  Ir  Ir16  1  0.013147  0.997834  0.750000  1
  Ir  Ir17  1  0.000852  0.007370  0.250000  1
