# generated using pymatgen
data_TbPrYTaO7
_symmetry_space_group_name_H-M   'P 1'
_cell_length_a   6.53507553
_cell_length_b   6.53507595
_cell_length_c   7.64216100
_cell_angle_alpha   90.00000000
_cell_angle_beta   90.00000000
_cell_angle_gamma   109.36738548
_symmetry_Int_Tables_number   1
_chemical_formula_structural   TbPrYTaO7
_chemical_formula_sum   'Tb2 Pr2 Y2 Ta2 O14'
_cell_volume   307.90634380
_cell_formula_units_Z   2
loop_
 _symmetry_equiv_pos_site_id
 _symmetry_equiv_pos_as_xyz
  1  'x, y, z'
loop_
 _atom_site_type_symbol
 _atom_site_label
 _atom_site_symmetry_multiplicity
 _atom_site_fract_x
 _atom_site_fract_y
 _atom_site_fract_z
 _atom_site_occupancy
  Tb  Tb0  1  0.533411  0.000444  0.750000  1
  Tb  Tb1  1  0.000444  0.533411  0.250000  1
  Pr  Pr2  1  0.499931  0.499931  0.500000  1
  Pr  Pr3  1  0.499931  0.499931  0.000000  1
  Y  Y4  1  0.467171  0.999548  0.250000  1
  Y  Y5  1  0.999548  0.467171  0.750000  1
  Ta  Ta6  1  0.999898  0.999898  0.500000  1
  Ta  Ta7  1  0.999898  0.999898  0.000000  1
  O  O8  1  0.681066  0.931539  0.468185  1
  O  O9  1  0.931539  0.681066  0.531815  1
  O  O10  1  0.681066  0.931539  0.031815  1
  O  O11  1  0.931539  0.681066  0.968185  1
  O  O12  1  0.319019  0.068523  0.531607  1
  O  O13  1  0.068523  0.319019  0.468393  1
  O  O14  1  0.319019  0.068523  0.968393  1
  O  O15  1  0.068523  0.319019  0.031607  1
  O  O16  1  0.937656  0.062307  0.750000  1
  O  O17  1  0.062307  0.937656  0.250000  1
  O  O18  1  0.362810  0.635852  0.750000  1
  O  O19  1  0.635852  0.362810  0.250000  1
  O  O20  1  0.643701  0.357146  0.750000  1
  O  O21  1  0.357146  0.643701  0.250000  1
