# generated using pymatgen
data_CaCeEr2(B6Os)2
_symmetry_space_group_name_H-M   'P 1'
_cell_length_a   3.66080500
_cell_length_b   9.16256667
_cell_length_c   11.55897583
_cell_angle_alpha   89.69894292
_cell_angle_beta   90.00000000
_cell_angle_gamma   90.00000000
_symmetry_Int_Tables_number   1
_chemical_formula_structural   CaCeEr2(B6Os)2
_chemical_formula_sum   'Ca2 Ce2 Er4 B24 Os4'
_cell_volume   387.71009048
_cell_formula_units_Z   2
loop_
 _symmetry_equiv_pos_site_id
 _symmetry_equiv_pos_as_xyz
  1  'x, y, z'
loop_
 _atom_site_type_symbol
 _atom_site_label
 _atom_site_symmetry_multiplicity
 _atom_site_fract_x
 _atom_site_fract_y
 _atom_site_fract_z
 _atom_site_occupancy
  Ca  Ca0  1  0.000000  0.323734  0.414927  1
  Ca  Ca1  1  0.000000  0.676266  0.585073  1
  Ce  Ce2  1  0.000000  0.821495  0.086585  1
  Ce  Ce3  1  0.000000  0.178505  0.913415  1
  Er  Er4  1  0.000000  0.942894  0.373128  1
  Er  Er5  1  0.000000  0.057106  0.626872  1
  Er  Er6  1  0.000000  0.444588  0.128428  1
  Er  Er7  1  0.000000  0.555412  0.871572  1
  B  B8  1  0.500000  0.554311  0.431949  1
  B  B9  1  0.500000  0.445689  0.568051  1
  B  B10  1  0.500000  0.054731  0.068174  1
  B  B11  1  0.500000  0.945269  0.931826  1
  B  B12  1  0.500000  0.747874  0.418213  1
  B  B13  1  0.500000  0.252126  0.581787  1
  B  B14  1  0.500000  0.249096  0.081652  1
  B  B15  1  0.500000  0.750904  0.918348  1
  B  B16  1  0.500000  0.791224  0.266341  1
  B  B17  1  0.500000  0.208776  0.733659  1
  B  B18  1  0.500000  0.290676  0.234341  1
  B  B19  1  0.500000  0.709324  0.765659  1
  B  B20  1  0.500000  0.631440  0.185439  1
  B  B21  1  0.500000  0.368560  0.814561  1
  B  B22  1  0.500000  0.131293  0.315131  1
  B  B23  1  0.500000  0.868707  0.684869  1
  B  B24  1  0.500000  0.984539  0.213759  1
  B  B25  1  0.500000  0.015461  0.786241  1
  B  B26  1  0.500000  0.483910  0.287542  1
  B  B27  1  0.500000  0.516090  0.712458  1
  B  B28  1  0.500000  0.605702  0.028845  1
  B  B29  1  0.500000  0.394298  0.971155  1
  B  B30  1  0.500000  0.101965  0.471719  1
  B  B31  1  0.500000  0.898035  0.528281  1
  Os  Os32  1  0.000000  0.640697  0.317680  1
  Os  Os33  1  0.000000  0.359303  0.682320  1
  Os  Os34  1  0.000000  0.137159  0.177556  1
  Os  Os35  1  0.000000  0.862841  0.822444  1
