# generated using pymatgen
data_Dy3HoB16Ir3Pt
_symmetry_space_group_name_H-M   'P 1'
_cell_length_a   7.02561524
_cell_length_b   7.02611049
_cell_length_c   7.02562258
_cell_angle_alpha   111.50214511
_cell_angle_beta   111.60564951
_cell_angle_gamma   105.37915079
_symmetry_Int_Tables_number   1
_chemical_formula_structural   Dy3HoB16Ir3Pt
_chemical_formula_sum   'Dy3 Ho1 B16 Ir3 Pt1'
_cell_volume   265.96674945
_cell_formula_units_Z   1
loop_
 _symmetry_equiv_pos_site_id
 _symmetry_equiv_pos_as_xyz
  1  'x, y, z'
loop_
 _atom_site_type_symbol
 _atom_site_label
 _atom_site_symmetry_multiplicity
 _atom_site_fract_x
 _atom_site_fract_y
 _atom_site_fract_z
 _atom_site_occupancy
  Dy  Dy0  1  0.785436  0.789782  0.004344  1
  Dy  Dy1  1  0.214564  0.218935  0.004372  1
  Dy  Dy2  1  0.753818  0.251097  0.497278  1
  Ho  Ho3  1  0.246097  0.743481  0.497385  1
  B  B4  1  0.261717  0.106576  0.368150  1
  B  B5  1  0.736428  0.893025  0.629362  1
  B  B6  1  0.263663  0.893025  0.156598  1
  B  B7  1  0.738427  0.106576  0.844860  1
  B  B8  1  0.107364  0.734039  0.841611  1
  B  B9  1  0.892759  0.264764  0.157760  1
  B  B10  1  0.107003  0.264764  0.372004  1
  B  B11  1  0.892427  0.734039  0.626676  1
  B  B12  1  0.109398  0.111741  0.524971  1
  B  B13  1  0.584566  0.585028  0.472877  1
  B  B14  1  0.112152  0.585028  0.000461  1
  B  B15  1  0.586770  0.111741  0.002343  1
  B  B16  1  0.888054  0.888403  0.473111  1
  B  B17  1  0.413079  0.415548  0.524731  1
  B  B18  1  0.890817  0.415549  0.002470  1
  B  B19  1  0.415290  0.888403  0.000347  1
  Ir  Ir20  1  0.260878  0.500385  0.760264  1
  Ir  Ir21  1  0.740120  0.500385  0.239507  1
  Ir  Ir22  1  0.499599  0.742315  0.242715  1
  Pt  Pt23  1  0.499573  0.255374  0.755801  1
