# generated using pymatgen
data_Tb7LuHg4
_symmetry_space_group_name_H-M   'P 1'
_cell_length_a   5.10296400
_cell_length_b   7.10404174
_cell_length_c   9.33017342
_cell_angle_alpha   90.13094211
_cell_angle_beta   90.00000000
_cell_angle_gamma   90.00000000
_symmetry_Int_Tables_number   1
_chemical_formula_structural   Tb7LuHg4
_chemical_formula_sum   'Tb7 Lu1 Hg4'
_cell_volume   338.23347750
_cell_formula_units_Z   1
loop_
 _symmetry_equiv_pos_site_id
 _symmetry_equiv_pos_as_xyz
  1  'x, y, z'
loop_
 _atom_site_type_symbol
 _atom_site_label
 _atom_site_symmetry_multiplicity
 _atom_site_fract_x
 _atom_site_fract_y
 _atom_site_fract_z
 _atom_site_occupancy
  Tb  Tb0  1  0.250000  0.481037  0.189842  1
  Tb  Tb1  1  0.750000  0.521712  0.808980  1
  Tb  Tb2  1  0.250000  0.979797  0.309096  1
  Tb  Tb3  1  0.750000  0.018770  0.693076  1
  Tb  Tb4  1  0.750000  0.668504  0.425190  1
  Tb  Tb5  1  0.250000  0.335669  0.572711  1
  Tb  Tb6  1  0.750000  0.161887  0.072736  1
  Lu  Lu7  1  0.250000  0.836679  0.927897  1
  Hg  Hg8  1  0.250000  0.259510  0.893872  1
  Hg  Hg9  1  0.750000  0.734508  0.101719  1
  Hg  Hg10  1  0.250000  0.766222  0.610385  1
  Hg  Hg11  1  0.750000  0.235705  0.394496  1
