# generated using pymatgen
data_Y8Tm2Os3Ru
_symmetry_space_group_name_H-M   'P 1'
_cell_length_a   6.36888130
_cell_length_b   7.33471141
_cell_length_c   8.46574818
_cell_angle_alpha   96.73970212
_cell_angle_beta   112.16866268
_cell_angle_gamma   89.98425979
_symmetry_Int_Tables_number   1
_chemical_formula_structural   Y8Tm2Os3Ru
_chemical_formula_sum   'Y8 Tm2 Os3 Ru1'
_cell_volume   363.28652591
_cell_formula_units_Z   1
loop_
 _symmetry_equiv_pos_site_id
 _symmetry_equiv_pos_as_xyz
  1  'x, y, z'
loop_
 _atom_site_type_symbol
 _atom_site_label
 _atom_site_symmetry_multiplicity
 _atom_site_fract_x
 _atom_site_fract_y
 _atom_site_fract_z
 _atom_site_occupancy
  Y  Y0  1  0.793146  0.083594  0.817042  1
  Y  Y1  1  0.974100  0.416729  0.182750  1
  Y  Y2  1  0.208758  0.917138  0.185700  1
  Y  Y3  1  0.025677  0.584207  0.817697  1
  Y  Y4  1  0.203987  0.183726  0.566039  1
  Y  Y5  1  0.639951  0.317041  0.434882  1
  Y  Y6  1  0.794098  0.815537  0.432892  1
  Y  Y7  1  0.361002  0.681930  0.564507  1
  Tm  Tm8  1  0.422747  0.250067  0.000392  1
  Tm  Tm9  1  0.578701  0.750107  0.000601  1
  Os  Os10  1  0.601845  0.423906  0.784310  1
  Os  Os11  1  0.816988  0.076368  0.215756  1
  Os  Os12  1  0.397735  0.576277  0.214735  1
  Ru  Ru13  1  0.181267  0.923373  0.782701  1
