# generated using pymatgen
data_PrThOs4
_symmetry_space_group_name_H-M   'P 1'
_cell_length_a   5.41450800
_cell_length_b   5.41450895
_cell_length_c   9.10604000
_cell_angle_alpha   90.00000000
_cell_angle_beta   90.00000000
_cell_angle_gamma   120.00000640
_symmetry_Int_Tables_number   1
_chemical_formula_structural   PrThOs4
_chemical_formula_sum   'Pr2 Th2 Os8'
_cell_volume   231.19489130
_cell_formula_units_Z   2
loop_
 _symmetry_equiv_pos_site_id
 _symmetry_equiv_pos_as_xyz
  1  'x, y, z'
loop_
 _atom_site_type_symbol
 _atom_site_label
 _atom_site_symmetry_multiplicity
 _atom_site_fract_x
 _atom_site_fract_y
 _atom_site_fract_z
 _atom_site_occupancy
  Pr  Pr0  1  0.666667  0.333333  0.937029  1
  Pr  Pr1  1  0.333333  0.666667  0.062971  1
  Th  Th2  1  0.333333  0.666667  0.429247  1
  Th  Th3  1  0.666667  0.333333  0.570753  1
  Os  Os4  1  0.170279  0.340558  0.749463  1
  Os  Os5  1  0.170279  0.829721  0.749463  1
  Os  Os6  1  0.340558  0.170279  0.250537  1
  Os  Os7  1  0.829721  0.659442  0.250537  1
  Os  Os8  1  0.659442  0.829721  0.749463  1
  Os  Os9  1  0.000000  0.000000  0.000000  1
  Os  Os10  1  0.829721  0.170279  0.250537  1
  Os  Os11  1  0.000000  0.000000  0.500000  1
