# generated using pymatgen
data_Li4Yb3HoPt4
_symmetry_space_group_name_H-M   'P 1'
_cell_length_a   3.98343700
_cell_length_b   7.02923652
_cell_length_c   8.34157500
_cell_angle_alpha   90.58030070
_cell_angle_beta   90.00000000
_cell_angle_gamma   90.00000000
_symmetry_Int_Tables_number   1
_chemical_formula_structural   Li4Yb3HoPt4
_chemical_formula_sum   'Li4 Yb3 Ho1 Pt4'
_cell_volume   233.55646518
_cell_formula_units_Z   1
loop_
 _symmetry_equiv_pos_site_id
 _symmetry_equiv_pos_as_xyz
  1  'x, y, z'
loop_
 _atom_site_type_symbol
 _atom_site_label
 _atom_site_symmetry_multiplicity
 _atom_site_fract_x
 _atom_site_fract_y
 _atom_site_fract_z
 _atom_site_occupancy
  Li  Li0  1  0.250000  0.127769  0.441343  1
  Li  Li1  1  0.250000  0.631794  0.057015  1
  Li  Li2  1  0.750000  0.866761  0.558399  1
  Li  Li3  1  0.750000  0.375500  0.942579  1
  Yb  Yb4  1  0.250000  0.042639  0.818928  1
  Yb  Yb5  1  0.250000  0.540529  0.682488  1
  Yb  Yb6  1  0.750000  0.957660  0.180321  1
  Ho  Ho7  1  0.750000  0.455960  0.322147  1
  Pt  Pt8  1  0.250000  0.742579  0.374138  1
  Pt  Pt9  1  0.250000  0.260845  0.130186  1
  Pt  Pt10  1  0.750000  0.247653  0.616590  1
  Pt  Pt11  1  0.750000  0.750310  0.875866  1
