# generated using pymatgen
data_Pa8AlSe17
_symmetry_space_group_name_H-M   'P 1'
_cell_length_a   8.27764688
_cell_length_b   8.27763832
_cell_length_c   10.99041265
_cell_angle_alpha   79.64906661
_cell_angle_beta   79.64915875
_cell_angle_gamma   64.65982928
_symmetry_Int_Tables_number   1
_chemical_formula_structural   Pa8AlSe17
_chemical_formula_sum   'Pa8 Al1 Se17'
_cell_volume   665.03440852
_cell_formula_units_Z   1
loop_
 _symmetry_equiv_pos_site_id
 _symmetry_equiv_pos_as_xyz
  1  'x, y, z'
loop_
 _atom_site_type_symbol
 _atom_site_label
 _atom_site_symmetry_multiplicity
 _atom_site_fract_x
 _atom_site_fract_y
 _atom_site_fract_z
 _atom_site_occupancy
  Pa  Pa0  1  0.820102  0.305375  0.301668  1
  Pa  Pa1  1  0.305376  0.820104  0.301670  1
  Pa  Pa2  1  0.179898  0.694625  0.698332  1
  Pa  Pa3  1  0.694624  0.179896  0.698330  1
  Pa  Pa4  1  0.202049  0.202049  0.541704  1
  Pa  Pa5  1  0.797951  0.797951  0.458296  1
  Pa  Pa6  1  0.678144  0.678144  0.986038  1
  Pa  Pa7  1  0.321856  0.321856  0.013962  1
  Al  Al8  1  0.000000  0.000000  0.000000  1
  Se  Se9  1  0.819273  0.434806  0.537579  1
  Se  Se10  1  0.434807  0.819273  0.537578  1
  Se  Se11  1  0.180727  0.565194  0.462421  1
  Se  Se12  1  0.565193  0.180727  0.462422  1
  Se  Se13  1  0.946931  0.322074  0.028929  1
  Se  Se14  1  0.322075  0.946931  0.028929  1
  Se  Se15  1  0.053069  0.677926  0.971071  1
  Se  Se16  1  0.677925  0.053069  0.971071  1
  Se  Se17  1  0.216171  0.216171  0.275952  1
  Se  Se18  1  0.783829  0.783829  0.724048  1
  Se  Se19  1  0.053956  0.053957  0.772852  1
  Se  Se20  1  0.946044  0.946043  0.227148  1
  Se  Se21  1  0.299375  0.299375  0.754971  1
  Se  Se22  1  0.700625  0.700625  0.245029  1
  Se  Se23  1  0.519303  0.519303  0.830524  1
  Se  Se24  1  0.480697  0.480697  0.169476  1
  Se  Se25  1  0.000000  0.000000  0.500000  1
