# generated using pymatgen
data_Ca3Tb2Pb3Cl
_symmetry_space_group_name_H-M   'P 1'
_cell_length_a   9.28867400
_cell_length_b   9.28867380
_cell_length_c   6.94992900
_cell_angle_alpha   90.00000000
_cell_angle_beta   90.00000000
_cell_angle_gamma   119.99999358
_symmetry_Int_Tables_number   1
_chemical_formula_structural   Ca3Tb2Pb3Cl
_chemical_formula_sum   'Ca6 Tb4 Pb6 Cl2'
_cell_volume   519.30016461
_cell_formula_units_Z   2
loop_
 _symmetry_equiv_pos_site_id
 _symmetry_equiv_pos_as_xyz
  1  'x, y, z'
loop_
 _atom_site_type_symbol
 _atom_site_label
 _atom_site_symmetry_multiplicity
 _atom_site_fract_x
 _atom_site_fract_y
 _atom_site_fract_z
 _atom_site_occupancy
  Ca  Ca0  1  0.251920  0.000000  0.250000  1
  Ca  Ca1  1  0.748080  0.000000  0.750000  1
  Ca  Ca2  1  0.000000  0.251920  0.250000  1
  Ca  Ca3  1  0.000000  0.748080  0.750000  1
  Ca  Ca4  1  0.748080  0.748080  0.250000  1
  Ca  Ca5  1  0.251920  0.251920  0.750000  1
  Tb  Tb6  1  0.333333  0.666667  0.000000  1
  Tb  Tb7  1  0.666667  0.333333  0.000000  1
  Tb  Tb8  1  0.666667  0.333333  0.500000  1
  Tb  Tb9  1  0.333333  0.666667  0.500000  1
  Pb  Pb10  1  0.594792  0.000000  0.250000  1
  Pb  Pb11  1  0.405208  0.000000  0.750000  1
  Pb  Pb12  1  0.000000  0.594792  0.250000  1
  Pb  Pb13  1  0.000000  0.405208  0.750000  1
  Pb  Pb14  1  0.405208  0.405208  0.250000  1
  Pb  Pb15  1  0.594792  0.594792  0.750000  1
  Cl  Cl16  1  0.000000  0.000000  0.000000  1
  Cl  Cl17  1  0.000000  0.000000  0.500000  1
