# generated using pymatgen
data_Ir4N3OF6
_symmetry_space_group_name_H-M   'P 1'
_cell_length_a   4.76048529
_cell_length_b   5.52439256
_cell_length_c   6.80271783
_cell_angle_alpha   99.16715468
_cell_angle_beta   110.73167481
_cell_angle_gamma   89.39751938
_symmetry_Int_Tables_number   1
_chemical_formula_structural   Ir4N3OF6
_chemical_formula_sum   'Ir4 N3 O1 F6'
_cell_volume   164.97787634
_cell_formula_units_Z   1
loop_
 _symmetry_equiv_pos_site_id
 _symmetry_equiv_pos_as_xyz
  1  'x, y, z'
loop_
 _atom_site_type_symbol
 _atom_site_label
 _atom_site_symmetry_multiplicity
 _atom_site_fract_x
 _atom_site_fract_y
 _atom_site_fract_z
 _atom_site_occupancy
  Ir  Ir0  1  0.382331  0.793317  0.312222  1
  Ir  Ir1  1  0.069283  0.715578  0.684686  1
  Ir  Ir2  1  0.602669  0.201506  0.686730  1
  Ir  Ir3  1  0.934135  0.293424  0.307351  1
  N  N4  1  0.709189  0.880404  0.583209  1
  N  N5  1  0.123283  0.622179  0.413023  1
  N  N6  1  0.284519  0.119810  0.415128  1
  O  O7  1  0.893449  0.369437  0.596024  1
  F  F8  1  0.524281  0.455191  0.198712  1
  F  F9  1  0.325699  0.041495  0.806744  1
  F  F10  1  0.474333  0.544745  0.802003  1
  F  F11  1  0.671930  0.958152  0.193315  1
  F  F12  1  0.068572  0.752043  0.997236  1
  F  F13  1  0.936325  0.252720  0.003614  1
