# generated using pymatgen
data_Be5Co2SiMo4
_symmetry_space_group_name_H-M   'P 1'
_cell_length_a   4.61795535
_cell_length_b   4.61795446
_cell_length_c   7.22466000
_cell_angle_alpha   90.00000000
_cell_angle_beta   90.00000000
_cell_angle_gamma   120.11553176
_symmetry_Int_Tables_number   1
_chemical_formula_structural   Be5Co2SiMo4
_chemical_formula_sum   'Be5 Co2 Si1 Mo4'
_cell_volume   133.27253162
_cell_formula_units_Z   1
loop_
 _symmetry_equiv_pos_site_id
 _symmetry_equiv_pos_as_xyz
  1  'x, y, z'
loop_
 _atom_site_type_symbol
 _atom_site_label
 _atom_site_symmetry_multiplicity
 _atom_site_fract_x
 _atom_site_fract_y
 _atom_site_fract_z
 _atom_site_occupancy
  Be  Be0  1  0.831658  0.664623  0.250000  1
  Be  Be1  1  0.335377  0.168342  0.250000  1
  Be  Be2  1  0.168571  0.831429  0.750000  1
  Be  Be3  1  0.166119  0.335460  0.750000  1
  Be  Be4  1  0.664540  0.833881  0.750000  1
  Co  Co5  1  0.002542  0.997458  0.502416  1
  Co  Co6  1  0.002542  0.997458  0.997584  1
  Si  Si7  1  0.832331  0.167669  0.250000  1
  Mo  Mo8  1  0.333204  0.666796  0.432023  1
  Mo  Mo9  1  0.664956  0.335044  0.572935  1
  Mo  Mo10  1  0.664956  0.335044  0.927065  1
  Mo  Mo11  1  0.333204  0.666796  0.067977  1
