# generated using pymatgen
data_Ca3Tb3Mn2(CrC6)2
_symmetry_space_group_name_H-M   'P 1'
_cell_length_a   8.11354061
_cell_length_b   8.11126463
_cell_length_c   5.05492100
_cell_angle_alpha   90.00000000
_cell_angle_beta   90.00000000
_cell_angle_gamma   120.05370871
_symmetry_Int_Tables_number   1
_chemical_formula_structural   Ca3Tb3Mn2(CrC6)2
_chemical_formula_sum   'Ca3 Tb3 Mn2 Cr2 C12'
_cell_volume   287.94443697
_cell_formula_units_Z   1
loop_
 _symmetry_equiv_pos_site_id
 _symmetry_equiv_pos_as_xyz
  1  'x, y, z'
loop_
 _atom_site_type_symbol
 _atom_site_label
 _atom_site_symmetry_multiplicity
 _atom_site_fract_x
 _atom_site_fract_y
 _atom_site_fract_z
 _atom_site_occupancy
  Ca  Ca0  1  0.610380  0.685990  0.750000  1
  Ca  Ca1  1  0.923440  0.609931  0.250000  1
  Ca  Ca2  1  0.682073  0.074995  0.250000  1
  Tb  Tb3  1  0.311894  0.931877  0.750000  1
  Tb  Tb4  1  0.068284  0.383702  0.750000  1
  Tb  Tb5  1  0.383953  0.315395  0.250000  1
  Mn  Mn6  1  0.666813  0.330859  0.750000  1
  Mn  Mn7  1  0.332143  0.663757  0.250000  1
  Cr  Cr8  1  0.999823  0.999857  0.500547  1
  Cr  Cr9  1  0.999823  0.999857  0.999453  1
  C  C10  1  0.956651  0.770096  0.750000  1
  C  C11  1  0.192585  0.961119  0.250000  1
  C  C12  1  0.771900  0.819101  0.250000  1
  C  C13  1  0.228987  0.189349  0.750000  1
  C  C14  1  0.822220  0.046733  0.750000  1
  C  C15  1  0.043876  0.225075  0.250000  1
  C  C16  1  0.859427  0.576638  0.750000  1
  C  C17  1  0.280981  0.855663  0.250000  1
  C  C18  1  0.579995  0.719839  0.250000  1
  C  C19  1  0.424837  0.282643  0.750000  1
  C  C20  1  0.140072  0.419433  0.250000  1
  C  C21  1  0.719844  0.138092  0.750000  1
