# generated using pymatgen
data_Dy16In4Ru2PtRh
_symmetry_space_group_name_H-M   'P 1'
_cell_length_a   9.69603684
_cell_length_b   9.66939955
_cell_length_c   9.68560508
_cell_angle_alpha   59.91217159
_cell_angle_beta   59.96436711
_cell_angle_gamma   59.90882803
_symmetry_Int_Tables_number   1
_chemical_formula_structural   Dy16In4Ru2PtRh
_chemical_formula_sum   'Dy16 In4 Ru2 Pt1 Rh1'
_cell_volume   641.06181883
_cell_formula_units_Z   1
loop_
 _symmetry_equiv_pos_site_id
 _symmetry_equiv_pos_as_xyz
  1  'x, y, z'
loop_
 _atom_site_type_symbol
 _atom_site_label
 _atom_site_symmetry_multiplicity
 _atom_site_fract_x
 _atom_site_fract_y
 _atom_site_fract_z
 _atom_site_occupancy
  Dy  Dy0  1  0.689452  0.310760  0.310336  1
  Dy  Dy1  1  0.691447  0.688494  0.311489  1
  Dy  Dy2  1  0.308570  0.688494  0.311489  1
  Dy  Dy3  1  0.936258  0.940595  0.562344  1
  Dy  Dy4  1  0.152086  0.151092  0.544734  1
  Dy  Dy5  1  0.560803  0.940595  0.562344  1
  Dy  Dy6  1  0.149767  0.150075  0.153299  1
  Dy  Dy7  1  0.307883  0.311444  0.685759  1
  Dy  Dy8  1  0.941040  0.558759  0.559162  1
  Dy  Dy9  1  0.560912  0.561796  0.941754  1
  Dy  Dy10  1  0.562722  0.936097  0.938460  1
  Dy  Dy11  1  0.935538  0.561796  0.941754  1
  Dy  Dy12  1  0.150480  0.546149  0.152889  1
  Dy  Dy13  1  0.308412  0.694895  0.688280  1
  Dy  Dy14  1  0.694914  0.311444  0.685759  1
  Dy  Dy15  1  0.546858  0.150075  0.153299  1
  In  In16  1  0.916774  0.917114  0.249337  1
  In  In17  1  0.246825  0.918272  0.917854  1
  In  In18  1  0.917025  0.248338  0.917612  1
  In  In19  1  0.917050  0.918272  0.917854  1
  Ru  Ru20  1  0.360791  0.357581  0.357002  1
  Ru  Ru21  1  0.924628  0.357581  0.357002  1
  Pt  Pt22  1  0.359886  0.357026  0.923203  1
  Rh  Rh23  1  0.359882  0.923252  0.356986  1
