# generated using pymatgen
data_MgAl2Pd2Pt3
_symmetry_space_group_name_H-M   'P 1'
_cell_length_a   4.06573300
_cell_length_b   5.46209031
_cell_length_c   10.67854700
_cell_angle_alpha   89.93695679
_cell_angle_beta   90.00000000
_cell_angle_gamma   90.00000000
_symmetry_Int_Tables_number   1
_chemical_formula_structural   MgAl2Pd2Pt3
_chemical_formula_sum   'Mg2 Al4 Pd4 Pt6'
_cell_volume   237.14262972
_cell_formula_units_Z   2
loop_
 _symmetry_equiv_pos_site_id
 _symmetry_equiv_pos_as_xyz
  1  'x, y, z'
loop_
 _atom_site_type_symbol
 _atom_site_label
 _atom_site_symmetry_multiplicity
 _atom_site_fract_x
 _atom_site_fract_y
 _atom_site_fract_z
 _atom_site_occupancy
  Mg  Mg0  1  0.500000  0.167967  0.361144  1
  Mg  Mg1  1  0.500000  0.832033  0.638856  1
  Al  Al2  1  0.000000  0.000000  0.000000  1
  Al  Al3  1  0.000000  0.500000  0.500000  1
  Al  Al4  1  0.500000  0.668751  0.143271  1
  Al  Al5  1  0.500000  0.331249  0.856729  1
  Pd  Pd6  1  0.000000  0.000000  0.500000  1
  Pd  Pd7  1  0.000000  0.500000  0.000000  1
  Pd  Pd8  1  0.000000  0.413846  0.259362  1
  Pd  Pd9  1  0.000000  0.586154  0.740638  1
  Pt  Pt10  1  0.500000  0.195752  0.102288  1
  Pt  Pt11  1  0.500000  0.804248  0.897712  1
  Pt  Pt12  1  0.500000  0.679353  0.388705  1
  Pt  Pt13  1  0.500000  0.320647  0.611295  1
  Pt  Pt14  1  0.000000  0.911108  0.231128  1
  Pt  Pt15  1  0.000000  0.088892  0.768872  1
