# generated using pymatgen
data_K3CuAgP2Au
_symmetry_space_group_name_H-M   'P 1'
_cell_length_a   7.55760351
_cell_length_b   7.64884743
_cell_length_c   7.44761806
_cell_angle_alpha   46.34365367
_cell_angle_beta   46.28974910
_cell_angle_gamma   48.28476634
_symmetry_Int_Tables_number   1
_chemical_formula_structural   K3CuAgP2Au
_chemical_formula_sum   'K3 Cu1 Ag1 P2 Au1'
_cell_volume   210.03444232
_cell_formula_units_Z   1
loop_
 _symmetry_equiv_pos_site_id
 _symmetry_equiv_pos_as_xyz
  1  'x, y, z'
loop_
 _atom_site_type_symbol
 _atom_site_label
 _atom_site_symmetry_multiplicity
 _atom_site_fract_x
 _atom_site_fract_y
 _atom_site_fract_z
 _atom_site_occupancy
  K  K0  1  0.913072  0.912465  0.901128  1
  K  K1  1  0.500000  0.500000  0.500000  1
  K  K2  1  0.086928  0.087535  0.098872  1
  Cu  Cu3  1  0.500000  0.500000  0.000000  1
  Ag  Ag4  1  0.000000  0.500000  0.500000  1
  P  P5  1  0.269708  0.264857  0.222187  1
  P  P6  1  0.730292  0.735143  0.777813  1
  Au  Au7  1  0.500000  0.000000  0.500000  1
