# generated using pymatgen
data_CeHo6Sn23Ir6
_symmetry_space_group_name_H-M   'P 1'
_cell_length_a   9.87657500
_cell_length_b   9.87657488
_cell_length_c   10.09510500
_cell_angle_alpha   90.00000000
_cell_angle_beta   90.00000000
_cell_angle_gamma   119.99999706
_symmetry_Int_Tables_number   1
_chemical_formula_structural   CeHo6Sn23Ir6
_chemical_formula_sum   'Ce1 Ho6 Sn23 Ir6'
_cell_volume   852.81378477
_cell_formula_units_Z   1
loop_
 _symmetry_equiv_pos_site_id
 _symmetry_equiv_pos_as_xyz
  1  'x, y, z'
loop_
 _atom_site_type_symbol
 _atom_site_label
 _atom_site_symmetry_multiplicity
 _atom_site_fract_x
 _atom_site_fract_y
 _atom_site_fract_z
 _atom_site_occupancy
  Ce  Ce0  1  0.000000  0.000000  0.000000  1
  Ho  Ho1  1  0.518858  0.481142  0.693040  1
  Ho  Ho2  1  0.518858  0.037716  0.693040  1
  Ho  Ho3  1  0.962284  0.481142  0.693040  1
  Ho  Ho4  1  0.037716  0.518858  0.306960  1
  Ho  Ho5  1  0.481142  0.962284  0.306960  1
  Ho  Ho6  1  0.481142  0.518858  0.306960  1
  Sn  Sn7  1  0.666667  0.333333  0.173637  1
  Sn  Sn8  1  0.666667  0.333333  0.876373  1
  Sn  Sn9  1  0.333333  0.666667  0.123627  1
  Sn  Sn10  1  0.352983  0.352983  0.000000  1
  Sn  Sn11  1  0.000000  0.647017  0.000000  1
  Sn  Sn12  1  0.647017  0.000000  0.000000  1
  Sn  Sn13  1  0.647017  0.647017  0.000000  1
  Sn  Sn14  1  0.333333  0.666667  0.826363  1
  Sn  Sn15  1  0.444681  0.222341  0.457842  1
  Sn  Sn16  1  0.222341  0.777659  0.542158  1
  Sn  Sn17  1  0.222341  0.444681  0.542158  1
  Sn  Sn18  1  0.555319  0.777659  0.542158  1
  Sn  Sn19  1  0.119173  0.880827  0.284456  1
  Sn  Sn20  1  0.777659  0.555319  0.457842  1
  Sn  Sn21  1  0.777659  0.222341  0.457842  1
  Sn  Sn22  1  0.352983  0.000000  0.000000  1
  Sn  Sn23  1  0.119173  0.238347  0.284456  1
  Sn  Sn24  1  0.761653  0.880827  0.284456  1
  Sn  Sn25  1  0.238347  0.119173  0.715544  1
  Sn  Sn26  1  0.880827  0.761653  0.715544  1
  Sn  Sn27  1  0.880827  0.119173  0.715544  1
  Sn  Sn28  1  0.000000  0.000000  0.500000  1
  Sn  Sn29  1  0.000000  0.352983  0.000000  1
  Ir  Ir30  1  0.169699  0.830301  0.800308  1
  Ir  Ir31  1  0.169699  0.339396  0.800308  1
  Ir  Ir32  1  0.660604  0.830301  0.800308  1
  Ir  Ir33  1  0.339396  0.169699  0.199692  1
  Ir  Ir34  1  0.830301  0.660604  0.199692  1
  Ir  Ir35  1  0.830301  0.169699  0.199692  1
