# generated using pymatgen
data_K3Ba3HoSb4
_symmetry_space_group_name_H-M   'P 1'
_cell_length_a   11.40746900
_cell_length_b   11.40746843
_cell_length_c   8.58893300
_cell_angle_alpha   90.00000000
_cell_angle_beta   90.00000000
_cell_angle_gamma   120.00000455
_symmetry_Int_Tables_number   1
_chemical_formula_structural   K3Ba3HoSb4
_chemical_formula_sum   'K6 Ba6 Ho2 Sb8'
_cell_volume   967.93991553
_cell_formula_units_Z   2
loop_
 _symmetry_equiv_pos_site_id
 _symmetry_equiv_pos_as_xyz
  1  'x, y, z'
loop_
 _atom_site_type_symbol
 _atom_site_label
 _atom_site_symmetry_multiplicity
 _atom_site_fract_x
 _atom_site_fract_y
 _atom_site_fract_z
 _atom_site_occupancy
  K  K0  1  0.863348  0.726697  0.954814  1
  K  K1  1  0.863348  0.136652  0.954814  1
  K  K2  1  0.136652  0.273303  0.454814  1
  K  K3  1  0.273303  0.136652  0.954814  1
  K  K4  1  0.136652  0.863348  0.454814  1
  K  K5  1  0.726697  0.863348  0.454814  1
  Ba  Ba6  1  0.471733  0.943464  0.777993  1
  Ba  Ba7  1  0.471733  0.528267  0.777993  1
  Ba  Ba8  1  0.528267  0.056536  0.277993  1
  Ba  Ba9  1  0.056536  0.528267  0.777993  1
  Ba  Ba10  1  0.528267  0.471733  0.277993  1
  Ba  Ba11  1  0.943464  0.471733  0.277993  1
  Ho  Ho12  1  0.666667  0.333333  0.665937  1
  Ho  Ho13  1  0.333333  0.666667  0.165937  1
  Sb  Sb14  1  0.666667  0.333333  0.015768  1
  Sb  Sb15  1  0.333333  0.666667  0.515768  1
  Sb  Sb16  1  0.807693  0.615388  0.548759  1
  Sb  Sb17  1  0.807693  0.192307  0.548759  1
  Sb  Sb18  1  0.192307  0.384612  0.048759  1
  Sb  Sb19  1  0.384612  0.192307  0.548759  1
  Sb  Sb20  1  0.192307  0.807693  0.048759  1
  Sb  Sb21  1  0.615388  0.807693  0.048759  1
