# generated using pymatgen
data_Na3U2F10
_symmetry_space_group_name_H-M   'P 1'
_cell_length_a   6.84958328
_cell_length_b   6.84958326
_cell_length_c   8.82594785
_cell_angle_alpha   50.42966551
_cell_angle_beta   50.42966432
_cell_angle_gamma   48.51855325
_symmetry_Int_Tables_number   1
_chemical_formula_structural   Na3U2F10
_chemical_formula_sum   'Na3 U2 F10'
_cell_volume   221.92842600
_cell_formula_units_Z   1
loop_
 _symmetry_equiv_pos_site_id
 _symmetry_equiv_pos_as_xyz
  1  'x, y, z'
loop_
 _atom_site_type_symbol
 _atom_site_label
 _atom_site_symmetry_multiplicity
 _atom_site_fract_x
 _atom_site_fract_y
 _atom_site_fract_z
 _atom_site_occupancy
  Na  Na0  1  0.112528  0.112528  0.589662  1
  Na  Na1  1  0.500000  0.500000  0.000000  1
  Na  Na2  1  0.887472  0.887472  0.410338  1
  U  U3  1  0.296297  0.296297  0.796868  1
  U  U4  1  0.703703  0.703703  0.203132  1
  F  F5  1  0.554507  0.041311  0.289064  1
  F  F6  1  0.958689  0.445493  0.710936  1
  F  F7  1  0.041311  0.554507  0.289064  1
  F  F8  1  0.354956  0.863433  0.100737  1
  F  F9  1  0.445493  0.958689  0.710936  1
  F  F10  1  0.732310  0.267690  0.500000  1
  F  F11  1  0.863433  0.354956  0.100737  1
  F  F12  1  0.136567  0.645044  0.899263  1
  F  F13  1  0.267690  0.732310  0.500000  1
  F  F14  1  0.645044  0.136567  0.899263  1
