# generated using pymatgen
data_Ho4Si4TcRh3
_symmetry_space_group_name_H-M   'P 1'
_cell_length_a   4.31540800
_cell_length_b   6.93982181
_cell_length_c   7.25467780
_cell_angle_alpha   89.94536656
_cell_angle_beta   90.00000000
_cell_angle_gamma   90.00000000
_symmetry_Int_Tables_number   1
_chemical_formula_structural   Ho4Si4TcRh3
_chemical_formula_sum   'Ho4 Si4 Tc1 Rh3'
_cell_volume   217.26417137
_cell_formula_units_Z   1
loop_
 _symmetry_equiv_pos_site_id
 _symmetry_equiv_pos_as_xyz
  1  'x, y, z'
loop_
 _atom_site_type_symbol
 _atom_site_label
 _atom_site_symmetry_multiplicity
 _atom_site_fract_x
 _atom_site_fract_y
 _atom_site_fract_z
 _atom_site_occupancy
  Ho  Ho0  1  0.250000  0.492004  0.690939  1
  Ho  Ho1  1  0.750000  0.512605  0.310248  1
  Ho  Ho2  1  0.250000  0.996622  0.813968  1
  Ho  Ho3  1  0.750000  0.004831  0.186135  1
  Si  Si4  1  0.250000  0.298860  0.109657  1
  Si  Si5  1  0.750000  0.701614  0.886032  1
  Si  Si6  1  0.250000  0.797858  0.401638  1
  Si  Si7  1  0.750000  0.199874  0.602542  1
  Tc  Tc8  1  0.750000  0.845465  0.567675  1
  Rh  Rh9  1  0.250000  0.154904  0.430479  1
  Rh  Rh10  1  0.750000  0.343461  0.933688  1
  Rh  Rh11  1  0.250000  0.651903  0.066998  1
