# generated using pymatgen
data_Ho5Lu5(TlSb)4
_symmetry_space_group_name_H-M   'P 1'
_cell_length_a   8.63084902
_cell_length_b   8.79775498
_cell_length_c   8.01009500
_cell_angle_alpha   90.02820584
_cell_angle_beta   90.06181760
_cell_angle_gamma   125.21931404
_symmetry_Int_Tables_number   1
_chemical_formula_structural   Ho5Lu5(TlSb)4
_chemical_formula_sum   'Ho5 Lu5 Tl4 Sb4'
_cell_volume   496.88759760
_cell_formula_units_Z   1
loop_
 _symmetry_equiv_pos_site_id
 _symmetry_equiv_pos_as_xyz
  1  'x, y, z'
loop_
 _atom_site_type_symbol
 _atom_site_label
 _atom_site_symmetry_multiplicity
 _atom_site_fract_x
 _atom_site_fract_y
 _atom_site_fract_z
 _atom_site_occupancy
  Ho  Ho0  1  0.817339  0.536477  0.168456  1
  Ho  Ho1  1  0.526899  0.799558  0.164896  1
  Ho  Ho2  1  0.183391  0.464106  0.831106  1
  Ho  Ho3  1  0.683714  0.963412  0.667959  1
  Ho  Ho4  1  0.315432  0.035765  0.332438  1
  Lu  Lu5  1  0.027219  0.295990  0.336019  1
  Lu  Lu6  1  0.971915  0.702764  0.663912  1
  Lu  Lu7  1  0.473534  0.202724  0.836621  1
  Lu  Lu8  1  0.000402  0.000551  0.999433  1
  Lu  Lu9  1  0.499723  0.499090  0.500350  1
  Tl  Tl10  1  0.367112  0.365451  0.132769  1
  Tl  Tl11  1  0.632968  0.633362  0.866779  1
  Tl  Tl12  1  0.133776  0.134056  0.633275  1
  Tl  Tl13  1  0.867509  0.865701  0.367563  1
  Sb  Sb14  1  0.791400  0.198020  0.007899  1
  Sb  Sb15  1  0.209681  0.805119  0.989230  1
  Sb  Sb16  1  0.711350  0.303657  0.509217  1
  Sb  Sb17  1  0.286638  0.694195  0.492075  1
