# generated using pymatgen
data_CsPrCr2O8
_symmetry_space_group_name_H-M   'P 1'
_cell_length_a   5.93668500
_cell_length_b   5.93668610
_cell_length_c   8.43477400
_cell_angle_alpha   90.00000000
_cell_angle_beta   90.00000000
_cell_angle_gamma   119.99999947
_symmetry_Int_Tables_number   1
_chemical_formula_structural   CsPrCr2O8
_chemical_formula_sum   'Cs1 Pr1 Cr2 O8'
_cell_volume   257.44957344
_cell_formula_units_Z   1
loop_
 _symmetry_equiv_pos_site_id
 _symmetry_equiv_pos_as_xyz
  1  'x, y, z'
loop_
 _atom_site_type_symbol
 _atom_site_label
 _atom_site_symmetry_multiplicity
 _atom_site_fract_x
 _atom_site_fract_y
 _atom_site_fract_z
 _atom_site_occupancy
  Cs  Cs0  1  0.000000  0.000000  0.500000  1
  Pr  Pr1  1  0.000000  0.000000  0.000000  1
  Cr  Cr2  1  0.333333  0.666666  0.244701  1
  Cr  Cr3  1  0.666668  0.333334  0.755298  1
  O  O4  1  0.179202  0.358403  0.178791  1
  O  O5  1  0.179203  0.820798  0.178791  1
  O  O6  1  0.641596  0.820798  0.178791  1
  O  O7  1  0.666668  0.333334  0.562831  1
  O  O8  1  0.333333  0.666666  0.437168  1
  O  O9  1  0.358403  0.179202  0.821209  1
  O  O10  1  0.820798  0.179202  0.821209  1
  O  O11  1  0.820799  0.641597  0.821209  1
