# generated using pymatgen
data_Ca2Nb3Ni9GeAs6
_symmetry_space_group_name_H-M   'P 1'
_cell_length_a   3.85164800
_cell_length_b   9.69512341
_cell_length_c   9.69512400
_cell_angle_alpha   120.00000200
_cell_angle_beta   90.00000000
_cell_angle_gamma   90.00000000
_symmetry_Int_Tables_number   1
_chemical_formula_structural   Ca2Nb3Ni9GeAs6
_chemical_formula_sum   'Ca2 Nb3 Ni9 Ge1 As6'
_cell_volume   313.53348019
_cell_formula_units_Z   1
loop_
 _symmetry_equiv_pos_site_id
 _symmetry_equiv_pos_as_xyz
  1  'x, y, z'
loop_
 _atom_site_type_symbol
 _atom_site_label
 _atom_site_symmetry_multiplicity
 _atom_site_fract_x
 _atom_site_fract_y
 _atom_site_fract_z
 _atom_site_occupancy
  Ca  Ca0  1  0.000000  0.666667  0.333333  1
  Ca  Ca1  1  0.500000  0.333333  0.666667  1
  Nb  Nb2  1  0.500000  0.776504  0.894302  1
  Nb  Nb3  1  0.500000  0.117798  0.223496  1
  Nb  Nb4  1  0.500000  0.105698  0.882202  1
  Ni  Ni5  1  0.000000  0.574028  0.937047  1
  Ni  Ni6  1  0.000000  0.363019  0.425972  1
  Ni  Ni7  1  0.000000  0.062953  0.636981  1
  Ni  Ni8  1  0.000000  0.872524  0.155524  1
  Ni  Ni9  1  0.000000  0.283001  0.127476  1
  Ni  Ni10  1  0.000000  0.844476  0.716999  1
  Ni  Ni11  1  0.500000  0.943442  0.379911  1
  Ni  Ni12  1  0.500000  0.436470  0.056558  1
  Ni  Ni13  1  0.500000  0.620089  0.563530  1
  Ge  Ge14  1  0.000000  0.000000  0.000000  1
  As  As15  1  0.500000  0.705398  0.118022  1
  As  As16  1  0.500000  0.412625  0.294602  1
  As  As17  1  0.500000  0.881978  0.587375  1
  As  As18  1  0.000000  0.582995  0.692182  1
  As  As19  1  0.000000  0.109187  0.417005  1
  As  As20  1  0.000000  0.307818  0.890813  1
