# generated using pymatgen
data_NdDy2Tm5(CdIr)2
_symmetry_space_group_name_H-M   'P 1'
_cell_length_a   9.58477333
_cell_length_b   9.61052011
_cell_length_c   9.61051940
_cell_angle_alpha   59.82283708
_cell_angle_beta   60.08857917
_cell_angle_gamma   60.08858524
_symmetry_Int_Tables_number   1
_chemical_formula_structural   NdDy2Tm5(CdIr)2
_chemical_formula_sum   'Nd2 Dy4 Tm10 Cd4 Ir4'
_cell_volume   625.97125115
_cell_formula_units_Z   2
loop_
 _symmetry_equiv_pos_site_id
 _symmetry_equiv_pos_as_xyz
  1  'x, y, z'
loop_
 _atom_site_type_symbol
 _atom_site_label
 _atom_site_symmetry_multiplicity
 _atom_site_fract_x
 _atom_site_fract_y
 _atom_site_fract_z
 _atom_site_occupancy
  Nd  Nd0  1  0.185629  0.814371  0.814371  1
  Nd  Nd1  1  0.814371  0.185629  0.185629  1
  Dy  Dy2  1  0.807113  0.192887  0.807113  1
  Dy  Dy3  1  0.192887  0.807113  0.192887  1
  Dy  Dy4  1  0.807113  0.807113  0.192887  1
  Dy  Dy5  1  0.192887  0.192887  0.807113  1
  Tm  Tm6  1  0.595231  0.599144  0.599144  1
  Tm  Tm7  1  0.599144  0.595231  0.206482  1
  Tm  Tm8  1  0.599144  0.206482  0.595231  1
  Tm  Tm9  1  0.206482  0.599144  0.599144  1
  Tm  Tm10  1  0.060466  0.439534  0.439534  1
  Tm  Tm11  1  0.439534  0.060466  0.060466  1
  Tm  Tm12  1  0.437866  0.062134  0.437866  1
  Tm  Tm13  1  0.062134  0.437866  0.062134  1
  Tm  Tm14  1  0.437866  0.437866  0.062134  1
  Tm  Tm15  1  0.062134  0.062134  0.437866  1
  Cd  Cd16  1  0.827511  0.831525  0.831525  1
  Cd  Cd17  1  0.831525  0.827511  0.509440  1
  Cd  Cd18  1  0.831525  0.509440  0.827511  1
  Cd  Cd19  1  0.509440  0.831525  0.831525  1
  Ir  Ir20  1  0.387892  0.393421  0.393421  1
  Ir  Ir21  1  0.393421  0.387892  0.825267  1
  Ir  Ir22  1  0.393421  0.825267  0.387892  1
  Ir  Ir23  1  0.825267  0.393421  0.393421  1
