# generated using pymatgen
data_Sm2Mn5P4Rh
_symmetry_space_group_name_H-M   'P 1'
_cell_length_a   3.69659800
_cell_length_b   11.09368809
_cell_length_c   12.86942388
_cell_angle_alpha   90.19571000
_cell_angle_beta   90.00000000
_cell_angle_gamma   90.00000000
_symmetry_Int_Tables_number   1
_chemical_formula_structural   Sm2Mn5P4Rh
_chemical_formula_sum   'Sm6 Mn15 P12 Rh3'
_cell_volume   527.75790484
_cell_formula_units_Z   3
loop_
 _symmetry_equiv_pos_site_id
 _symmetry_equiv_pos_as_xyz
  1  'x, y, z'
loop_
 _atom_site_type_symbol
 _atom_site_label
 _atom_site_symmetry_multiplicity
 _atom_site_fract_x
 _atom_site_fract_y
 _atom_site_fract_z
 _atom_site_occupancy
  Sm  Sm0  1  0.000000  0.497583  0.526946  1
  Sm  Sm1  1  0.500000  0.997854  0.472452  1
  Sm  Sm2  1  0.500000  0.821217  0.205357  1
  Sm  Sm3  1  0.500000  0.180300  0.205966  1
  Sm  Sm4  1  0.000000  0.680201  0.794077  1
  Sm  Sm5  1  0.000000  0.318668  0.795258  1
  Mn  Mn6  1  0.500000  0.513370  0.162929  1
  Mn  Mn7  1  0.000000  0.999788  0.833424  1
  Mn  Mn8  1  0.000000  0.501287  0.995800  1
  Mn  Mn9  1  0.500000  0.999937  0.004234  1
  Mn  Mn10  1  0.500000  0.330576  0.997077  1
  Mn  Mn11  1  0.500000  0.669500  0.998536  1
  Mn  Mn12  1  0.000000  0.166311  0.999749  1
  Mn  Mn13  1  0.000000  0.831732  0.000606  1
  Mn  Mn14  1  0.500000  0.294869  0.436873  1
  Mn  Mn15  1  0.500000  0.702339  0.432247  1
  Mn  Mn16  1  0.000000  0.198511  0.570179  1
  Mn  Mn17  1  0.000000  0.799273  0.568460  1
  Mn  Mn18  1  0.500000  0.884372  0.704393  1
  Mn  Mn19  1  0.500000  0.113055  0.704587  1
  Mn  Mn20  1  0.000000  0.620983  0.295661  1
  P  P21  1  0.500000  0.499632  0.890800  1
  P  P22  1  0.000000  0.999935  0.109250  1
  P  P23  1  0.500000  0.506045  0.354466  1
  P  P24  1  0.000000  0.999114  0.644120  1
  P  P25  1  0.500000  0.305801  0.618597  1
  P  P26  1  0.500000  0.691051  0.615500  1
  P  P27  1  0.000000  0.185985  0.389179  1
  P  P28  1  0.000000  0.810649  0.385191  1
  P  P29  1  0.500000  0.846984  0.886553  1
  P  P30  1  0.500000  0.151852  0.886131  1
  P  P31  1  0.000000  0.656113  0.112645  1
  P  P32  1  0.000000  0.345326  0.107828  1
  Rh  Rh33  1  0.500000  0.499456  0.706172  1
  Rh  Rh34  1  0.000000  0.000913  0.293425  1
  Rh  Rh35  1  0.000000  0.379418  0.295335  1
