# generated using pymatgen
data_FeF18
_symmetry_space_group_name_H-M   'P 1'
_cell_length_a   6.96297123
_cell_length_b   9.87834204
_cell_length_c   10.86843219
_cell_angle_alpha   90.88321940
_cell_angle_beta   100.15638777
_cell_angle_gamma   73.70234881
_symmetry_Int_Tables_number   1
_chemical_formula_structural   FeF18
_chemical_formula_sum   'Fe2 F36'
_cell_volume   705.81699112
_cell_formula_units_Z   2
loop_
 _symmetry_equiv_pos_site_id
 _symmetry_equiv_pos_as_xyz
  1  'x, y, z'
loop_
 _atom_site_type_symbol
 _atom_site_label
 _atom_site_symmetry_multiplicity
 _atom_site_fract_x
 _atom_site_fract_y
 _atom_site_fract_z
 _atom_site_occupancy
  Fe  Fe0  1  0.696428  0.800093  0.821488  1
  Fe  Fe1  1  0.303572  0.199907  0.178512  1
  F  F2  1  0.344675  0.386346  0.908719  1
  F  F3  1  0.655325  0.613654  0.091281  1
  F  F4  1  0.307257  0.244977  0.570282  1
  F  F5  1  0.692743  0.755023  0.429718  1
  F  F6  1  0.911755  0.211311  0.828869  1
  F  F7  1  0.088245  0.788689  0.171131  1
  F  F8  1  0.678412  0.880892  0.976088  1
  F  F9  1  0.321588  0.119108  0.023912  1
  F  F10  1  0.807539  0.631544  0.895861  1
  F  F11  1  0.192461  0.368456  0.104139  1
  F  F12  1  0.450519  0.419281  0.817345  1
  F  F13  1  0.549481  0.580719  0.182655  1
  F  F14  1  0.767909  0.741279  0.679755  1
  F  F15  1  0.232091  0.258721  0.320245  1
  F  F16  1  0.760468  0.004362  0.532531  1
  F  F17  1  0.239532  0.995638  0.467469  1
  F  F18  1  0.277271  0.202745  0.688604  1
  F  F19  1  0.722729  0.797255  0.311396  1
  F  F20  1  0.824016  0.074611  0.641063  1
  F  F21  1  0.175984  0.925389  0.358937  1
  F  F22  1  0.852699  0.938051  0.859198  1
  F  F23  1  0.147301  0.061949  0.140802  1
  F  F24  1  0.887855  0.356960  0.804042  1
  F  F25  1  0.112145  0.643040  0.195958  1
  F  F26  1  0.216628  0.694953  0.929047  1
  F  F27  1  0.783372  0.305047  0.070953  1
  F  F28  1  0.458856  0.912621  0.749663  1
  F  F29  1  0.541144  0.087379  0.250337  1
  F  F30  1  0.132957  0.755171  0.573281  1
  F  F31  1  0.867043  0.244829  0.426719  1
  F  F32  1  0.193063  0.624070  0.642324  1
  F  F33  1  0.806937  0.375930  0.357676  1
  F  F34  1  0.289160  0.790800  0.864567  1
  F  F35  1  0.710840  0.209200  0.135433  1
  F  F36  1  0.510876  0.435110  0.532076  1
  F  F37  1  0.489124  0.564890  0.467924  1
