# generated using pymatgen
data_Er9Pa2In9Rh4
_symmetry_space_group_name_H-M   'P 1'
_cell_length_a   13.09095900
_cell_length_b   13.09076515
_cell_length_c   3.55258500
_cell_angle_alpha   90.00000000
_cell_angle_beta   90.00000000
_cell_angle_gamma   111.87414034
_symmetry_Int_Tables_number   1
_chemical_formula_structural   Er9Pa2In9Rh4
_chemical_formula_sum   'Er9 Pa2 In9 Rh4'
_cell_volume   564.97737360
_cell_formula_units_Z   1
loop_
 _symmetry_equiv_pos_site_id
 _symmetry_equiv_pos_as_xyz
  1  'x, y, z'
loop_
 _atom_site_type_symbol
 _atom_site_label
 _atom_site_symmetry_multiplicity
 _atom_site_fract_x
 _atom_site_fract_y
 _atom_site_fract_z
 _atom_site_occupancy
  Er  Er0  1  0.000000  0.000000  0.000000  1
  Er  Er1  1  0.070834  0.416476  0.000000  1
  Er  Er2  1  0.929166  0.583524  0.000000  1
  Er  Er3  1  0.416489  0.070861  0.000000  1
  Er  Er4  1  0.583511  0.929139  0.000000  1
  Er  Er5  1  0.841712  0.158274  0.000000  1
  Er  Er6  1  0.158288  0.841726  0.000000  1
  Er  Er7  1  0.626121  0.373879  0.000000  1
  Er  Er8  1  0.373879  0.626121  0.000000  1
  Pa  Pa9  1  0.312318  0.312332  0.000000  1
  Pa  Pa10  1  0.687682  0.687668  0.000000  1
  In  In11  1  0.841434  0.367328  0.500000  1
  In  In12  1  0.158566  0.632672  0.500000  1
  In  In13  1  0.367327  0.841438  0.500000  1
  In  In14  1  0.632673  0.158562  0.500000  1
  In  In15  1  0.069857  0.215534  0.500000  1
  In  In16  1  0.930143  0.784466  0.500000  1
  In  In17  1  0.215538  0.069860  0.500000  1
  In  In18  1  0.784462  0.930140  0.500000  1
  In  In19  1  0.500000  0.500000  0.500000  1
  Rh  Rh20  1  0.248680  0.431783  0.500000  1
  Rh  Rh21  1  0.751320  0.568217  0.500000  1
  Rh  Rh22  1  0.431753  0.248722  0.500000  1
  Rh  Rh23  1  0.568247  0.751278  0.500000  1
