# generated using pymatgen
data_Nd5Tm3(Si3Rh)4
_symmetry_space_group_name_H-M   'P 1'
_cell_length_a   8.23952400
_cell_length_b   8.23952305
_cell_length_c   8.11949700
_cell_angle_alpha   90.00000000
_cell_angle_beta   90.00000000
_cell_angle_gamma   120.00000382
_symmetry_Int_Tables_number   1
_chemical_formula_structural   Nd5Tm3(Si3Rh)4
_chemical_formula_sum   'Nd5 Tm3 Si12 Rh4'
_cell_volume   477.37968840
_cell_formula_units_Z   1
loop_
 _symmetry_equiv_pos_site_id
 _symmetry_equiv_pos_as_xyz
  1  'x, y, z'
loop_
 _atom_site_type_symbol
 _atom_site_label
 _atom_site_symmetry_multiplicity
 _atom_site_fract_x
 _atom_site_fract_y
 _atom_site_fract_z
 _atom_site_occupancy
  Nd  Nd0  1  0.000000  0.000000  0.250000  1
  Nd  Nd1  1  0.000000  0.000000  0.750000  1
  Nd  Nd2  1  0.500408  0.499592  0.250000  1
  Nd  Nd3  1  0.500408  0.000817  0.250000  1
  Nd  Nd4  1  0.999183  0.499592  0.250000  1
  Tm  Tm5  1  0.498679  0.501321  0.750000  1
  Tm  Tm6  1  0.498679  0.997357  0.750000  1
  Tm  Tm7  1  0.002643  0.501321  0.750000  1
  Si  Si8  1  0.167010  0.832990  0.504943  1
  Si  Si9  1  0.167010  0.334019  0.504943  1
  Si  Si10  1  0.665981  0.832990  0.504943  1
  Si  Si11  1  0.832454  0.167546  0.504961  1
  Si  Si12  1  0.832454  0.664909  0.504961  1
  Si  Si13  1  0.335091  0.167546  0.504961  1
  Si  Si14  1  0.832454  0.167546  0.995039  1
  Si  Si15  1  0.832454  0.664909  0.995039  1
  Si  Si16  1  0.335091  0.167546  0.995039  1
  Si  Si17  1  0.167010  0.832990  0.995057  1
  Si  Si18  1  0.167010  0.334019  0.995057  1
  Si  Si19  1  0.665981  0.832990  0.995057  1
  Rh  Rh20  1  0.333333  0.666667  0.528827  1
  Rh  Rh21  1  0.666667  0.333333  0.537038  1
  Rh  Rh22  1  0.666667  0.333333  0.962962  1
  Rh  Rh23  1  0.333333  0.666667  0.971173  1
