# generated using pymatgen
data_GdPa2F12
_symmetry_space_group_name_H-M   'P 1'
_cell_length_a   8.37500972
_cell_length_b   8.37500947
_cell_length_c   8.49543700
_cell_angle_alpha   62.79920557
_cell_angle_beta   62.79920468
_cell_angle_gamma   80.06426301
_symmetry_Int_Tables_number   1
_chemical_formula_structural   GdPa2F12
_chemical_formula_sum   'Gd2 Pa4 F24'
_cell_volume   470.86886171
_cell_formula_units_Z   2
loop_
 _symmetry_equiv_pos_site_id
 _symmetry_equiv_pos_as_xyz
  1  'x, y, z'
loop_
 _atom_site_type_symbol
 _atom_site_label
 _atom_site_symmetry_multiplicity
 _atom_site_fract_x
 _atom_site_fract_y
 _atom_site_fract_z
 _atom_site_occupancy
  Gd  Gd0  1  0.786177  0.213823  0.250000  1
  Gd  Gd1  1  0.213823  0.786177  0.750000  1
  Pa  Pa2  1  0.636587  0.777799  0.170343  1
  Pa  Pa3  1  0.777799  0.636587  0.670343  1
  Pa  Pa4  1  0.363413  0.222201  0.829657  1
  Pa  Pa5  1  0.222201  0.363413  0.329657  1
  F  F6  1  0.744364  0.681082  0.396626  1
  F  F7  1  0.590384  0.191067  0.577429  1
  F  F8  1  0.732809  0.502781  0.220322  1
  F  F9  1  0.318918  0.255636  0.103374  1
  F  F10  1  0.071554  0.173585  0.040021  1
  F  F11  1  0.191067  0.590384  0.077429  1
  F  F12  1  0.409616  0.808933  0.422571  1
  F  F13  1  0.393781  0.606219  0.250000  1
  F  F14  1  0.606219  0.393781  0.750000  1
  F  F15  1  0.502781  0.732809  0.720322  1
  F  F16  1  0.826415  0.928446  0.459979  1
  F  F17  1  0.173585  0.071554  0.540021  1
  F  F18  1  0.267191  0.497219  0.779678  1
  F  F19  1  0.255636  0.318918  0.603374  1
  F  F20  1  0.720880  0.026661  0.150712  1
  F  F21  1  0.000000  0.500000  0.500000  1
  F  F22  1  0.973339  0.279120  0.349288  1
  F  F23  1  0.808933  0.409616  0.922571  1
  F  F24  1  0.497219  0.267191  0.279678  1
  F  F25  1  0.928446  0.826415  0.959979  1
  F  F26  1  0.279120  0.973339  0.849288  1
  F  F27  1  0.681082  0.744364  0.896626  1
  F  F28  1  0.026661  0.720880  0.650712  1
  F  F29  1  0.500000  0.000000  0.000000  1
