# generated using pymatgen
data_MgScNi6B
_symmetry_space_group_name_H-M   'P 1'
_cell_length_a   5.30883750
_cell_length_b   5.30883808
_cell_length_c   5.30883800
_cell_angle_alpha   60.00000047
_cell_angle_beta   59.99999691
_cell_angle_gamma   59.99999431
_symmetry_Int_Tables_number   1
_chemical_formula_structural   MgScNi6B
_chemical_formula_sum   'Mg1 Sc1 Ni6 B1'
_cell_volume   105.79943768
_cell_formula_units_Z   1
loop_
 _symmetry_equiv_pos_site_id
 _symmetry_equiv_pos_as_xyz
  1  'x, y, z'
loop_
 _atom_site_type_symbol
 _atom_site_label
 _atom_site_symmetry_multiplicity
 _atom_site_fract_x
 _atom_site_fract_y
 _atom_site_fract_z
 _atom_site_occupancy
  Mg  Mg0  1  0.250000  0.250000  0.250000  1
  Sc  Sc1  1  0.750000  0.750000  0.750000  1
  Ni  Ni2  1  0.739215  0.260786  0.260786  1
  Ni  Ni3  1  0.260786  0.739215  0.260786  1
  Ni  Ni4  1  0.739214  0.739214  0.260787  1
  Ni  Ni5  1  0.260786  0.260786  0.739215  1
  Ni  Ni6  1  0.739214  0.260787  0.739214  1
  Ni  Ni7  1  0.260787  0.739214  0.739214  1
  B  B8  1  0.000000  0.000000  0.000000  1
