# generated using pymatgen
data_Er7LuSc10(Si8W)2
_symmetry_space_group_name_H-M   'P 1'
_cell_length_a   6.95961165
_cell_length_b   7.25414828
_cell_length_c   13.79029415
_cell_angle_alpha   89.98922967
_cell_angle_beta   89.98712872
_cell_angle_gamma   90.41477408
_symmetry_Int_Tables_number   1
_chemical_formula_structural   Er7LuSc10(Si8W)2
_chemical_formula_sum   'Er7 Lu1 Sc10 Si16 W2'
_cell_volume   696.19927504
_cell_formula_units_Z   1
loop_
 _symmetry_equiv_pos_site_id
 _symmetry_equiv_pos_as_xyz
  1  'x, y, z'
loop_
 _atom_site_type_symbol
 _atom_site_label
 _atom_site_symmetry_multiplicity
 _atom_site_fract_x
 _atom_site_fract_y
 _atom_site_fract_z
 _atom_site_occupancy
  Er  Er0  1  0.992216  0.819836  0.903637  1
  Er  Er1  1  0.486033  0.674083  0.902185  1
  Er  Er2  1  0.992247  0.819844  0.596759  1
  Er  Er3  1  0.513674  0.325705  0.098060  1
  Er  Er4  1  0.007840  0.180100  0.403385  1
  Er  Er5  1  0.513805  0.325712  0.401508  1
  Er  Er6  1  0.486297  0.674107  0.598145  1
  Lu  Lu7  1  0.007616  0.181185  0.097240  1
  Sc  Sc8  1  0.342510  0.005769  0.249703  1
  Sc  Sc9  1  0.657509  0.994382  0.750088  1
  Sc  Sc10  1  0.326951  0.178394  0.626142  1
  Sc  Sc11  1  0.673264  0.821721  0.373556  1
  Sc  Sc12  1  0.170817  0.669755  0.373579  1
  Sc  Sc13  1  0.673435  0.821940  0.125869  1
  Sc  Sc14  1  0.829007  0.330254  0.626064  1
  Sc  Sc15  1  0.326717  0.178349  0.874020  1
  Sc  Sc16  1  0.829263  0.329840  0.874222  1
  Sc  Sc17  1  0.170937  0.670007  0.126036  1
  Si  Si18  1  0.030404  0.123384  0.750061  1
  Si  Si19  1  0.969866  0.877679  0.249685  1
  Si  Si20  1  0.478079  0.604787  0.249699  1
  Si  Si21  1  0.522062  0.395220  0.750146  1
  Si  Si22  1  0.281728  0.859393  0.750121  1
  Si  Si23  1  0.718959  0.140661  0.249490  1
  Si  Si24  1  0.204695  0.369609  0.249584  1
  Si  Si25  1  0.794870  0.629608  0.750196  1
  Si  Si26  1  0.155459  0.466141  0.544926  1
  Si  Si27  1  0.844354  0.533964  0.454877  1
  Si  Si28  1  0.343477  0.965281  0.461540  1
  Si  Si29  1  0.844942  0.532840  0.045477  1
  Si  Si30  1  0.656706  0.034532  0.538225  1
  Si  Si31  1  0.155467  0.465462  0.955488  1
  Si  Si32  1  0.656646  0.034657  0.961879  1
  Si  Si33  1  0.341994  0.966264  0.038626  1
  W  W34  1  0.152711  0.497884  0.750192  1
  W  W35  1  0.847449  0.501649  0.249592  1
