# generated using pymatgen
data_Ho3Er5Tc(B8Ru)3
_symmetry_space_group_name_H-M   'P 1'
_cell_length_a   3.64678900
_cell_length_b   9.10279064
_cell_length_c   11.48684900
_cell_angle_alpha   89.91223877
_cell_angle_beta   90.00000000
_cell_angle_gamma   90.00000000
_symmetry_Int_Tables_number   1
_chemical_formula_structural   Ho3Er5Tc(B8Ru)3
_chemical_formula_sum   'Ho3 Er5 Tc1 B24 Ru3'
_cell_volume   381.31649545
_cell_formula_units_Z   1
loop_
 _symmetry_equiv_pos_site_id
 _symmetry_equiv_pos_as_xyz
  1  'x, y, z'
loop_
 _atom_site_type_symbol
 _atom_site_label
 _atom_site_symmetry_multiplicity
 _atom_site_fract_x
 _atom_site_fract_y
 _atom_site_fract_z
 _atom_site_occupancy
  Ho  Ho0  1  0.000000  0.323866  0.413312  1
  Ho  Ho1  1  0.000000  0.677435  0.583449  1
  Ho  Ho2  1  0.000000  0.819955  0.088023  1
  Er  Er3  1  0.000000  0.177417  0.915133  1
  Er  Er4  1  0.000000  0.943105  0.372245  1
  Er  Er5  1  0.000000  0.057529  0.628416  1
  Er  Er6  1  0.000000  0.443730  0.128150  1
  Er  Er7  1  0.000000  0.556937  0.871315  1
  Tc  Tc8  1  0.000000  0.637580  0.320928  1
  B  B9  1  0.500000  0.552913  0.433169  1
  B  B10  1  0.500000  0.446467  0.567384  1
  B  B11  1  0.500000  0.053541  0.066963  1
  B  B12  1  0.500000  0.946258  0.933270  1
  B  B13  1  0.500000  0.748475  0.419414  1
  B  B14  1  0.500000  0.252015  0.580630  1
  B  B15  1  0.500000  0.248090  0.080109  1
  B  B16  1  0.500000  0.751554  0.919510  1
  B  B17  1  0.500000  0.791331  0.265868  1
  B  B18  1  0.500000  0.209278  0.734303  1
  B  B19  1  0.500000  0.290624  0.233303  1
  B  B20  1  0.500000  0.709769  0.765835  1
  B  B21  1  0.500000  0.630819  0.185350  1
  B  B22  1  0.500000  0.368695  0.815073  1
  B  B23  1  0.500000  0.131093  0.314433  1
  B  B24  1  0.500000  0.869513  0.685183  1
  B  B25  1  0.500000  0.982614  0.212640  1
  B  B26  1  0.500000  0.017552  0.787908  1
  B  B27  1  0.500000  0.481763  0.287272  1
  B  B28  1  0.500000  0.517176  0.712632  1
  B  B29  1  0.500000  0.606003  0.028756  1
  B  B30  1  0.500000  0.393061  0.970098  1
  B  B31  1  0.500000  0.107047  0.470780  1
  B  B32  1  0.500000  0.894681  0.529859  1
  Ru  Ru33  1  0.000000  0.362016  0.679746  1
  Ru  Ru34  1  0.000000  0.137399  0.178455  1
  Ru  Ru35  1  0.000000  0.862698  0.821087  1
