# generated using pymatgen
data_Ce8Cu2Si12RhAu
_symmetry_space_group_name_H-M   'P 1'
_cell_length_a   8.19476200
_cell_length_b   8.19476231
_cell_length_c   8.44168500
_cell_angle_alpha   90.00000000
_cell_angle_beta   90.00000000
_cell_angle_gamma   119.99999069
_symmetry_Int_Tables_number   1
_chemical_formula_structural   Ce8Cu2Si12RhAu
_chemical_formula_sum   'Ce8 Cu2 Si12 Rh1 Au1'
_cell_volume   490.94463777
_cell_formula_units_Z   1
loop_
 _symmetry_equiv_pos_site_id
 _symmetry_equiv_pos_as_xyz
  1  'x, y, z'
loop_
 _atom_site_type_symbol
 _atom_site_label
 _atom_site_symmetry_multiplicity
 _atom_site_fract_x
 _atom_site_fract_y
 _atom_site_fract_z
 _atom_site_occupancy
  Ce  Ce0  1  0.000000  0.000000  0.251911  1
  Ce  Ce1  1  0.000000  0.000000  0.748018  1
  Ce  Ce2  1  0.497431  0.502569  0.250259  1
  Ce  Ce3  1  0.497431  0.994862  0.250259  1
  Ce  Ce4  1  0.005138  0.502569  0.250259  1
  Ce  Ce5  1  0.496745  0.503255  0.749713  1
  Ce  Ce6  1  0.496745  0.993488  0.749713  1
  Ce  Ce7  1  0.006512  0.503255  0.749713  1
  Cu  Cu8  1  0.333333  0.666667  0.499149  1
  Cu  Cu9  1  0.666667  0.333333  0.502775  1
  Si  Si10  1  0.168200  0.831800  0.499732  1
  Si  Si11  1  0.168200  0.336401  0.499732  1
  Si  Si12  1  0.663599  0.831800  0.499732  1
  Si  Si13  1  0.830971  0.169029  0.500396  1
  Si  Si14  1  0.830971  0.661941  0.500396  1
  Si  Si15  1  0.338059  0.169029  0.500396  1
  Si  Si16  1  0.839162  0.160838  0.999434  1
  Si  Si17  1  0.839162  0.678322  0.999434  1
  Si  Si18  1  0.321678  0.160838  0.999434  1
  Si  Si19  1  0.167082  0.832918  0.000377  1
  Si  Si20  1  0.167082  0.334164  0.000377  1
  Si  Si21  1  0.665836  0.832918  0.000377  1
  Rh  Rh22  1  0.333333  0.666667  0.000179  1
  Au  Au23  1  0.666667  0.333333  0.998240  1
