# generated using pymatgen
data_HoEr7Sc11Si16Ag
_symmetry_space_group_name_H-M   'P 1'
_cell_length_a   7.00429908
_cell_length_b   7.36589455
_cell_length_c   13.97187416
_cell_angle_alpha   90.00619067
_cell_angle_beta   89.98394176
_cell_angle_gamma   89.90568984
_symmetry_Int_Tables_number   1
_chemical_formula_structural   HoEr7Sc11Si16Ag
_chemical_formula_sum   'Ho1 Er7 Sc11 Si16 Ag1'
_cell_volume   720.84889392
_cell_formula_units_Z   1
loop_
 _symmetry_equiv_pos_site_id
 _symmetry_equiv_pos_as_xyz
  1  'x, y, z'
loop_
 _atom_site_type_symbol
 _atom_site_label
 _atom_site_symmetry_multiplicity
 _atom_site_fract_x
 _atom_site_fract_y
 _atom_site_fract_z
 _atom_site_occupancy
  Ho  Ho0  1  0.484478  0.673857  0.598065  1
  Er  Er1  1  0.011337  0.176055  0.096400  1
  Er  Er2  1  0.990125  0.814928  0.901351  1
  Er  Er3  1  0.484429  0.674059  0.901719  1
  Er  Er4  1  0.990077  0.815036  0.598662  1
  Er  Er5  1  0.510645  0.323130  0.096299  1
  Er  Er6  1  0.011243  0.176012  0.403559  1
  Er  Er7  1  0.510657  0.323065  0.403633  1
  Sc  Sc8  1  0.838286  0.496662  0.250009  1
  Sc  Sc9  1  0.340249  0.003653  0.249994  1
  Sc  Sc10  1  0.657616  0.997379  0.750062  1
  Sc  Sc11  1  0.325887  0.182251  0.626637  1
  Sc  Sc12  1  0.671182  0.823833  0.374955  1
  Sc  Sc13  1  0.170425  0.678851  0.374068  1
  Sc  Sc14  1  0.671145  0.823727  0.124988  1
  Sc  Sc15  1  0.835936  0.326871  0.626509  1
  Sc  Sc16  1  0.325955  0.182281  0.873409  1
  Sc  Sc17  1  0.835763  0.326981  0.873609  1
  Sc  Sc18  1  0.170453  0.678883  0.125899  1
  Si  Si19  1  0.027678  0.098332  0.750025  1
  Si  Si20  1  0.969265  0.888781  0.250003  1
  Si  Si21  1  0.467742  0.615672  0.249989  1
  Si  Si22  1  0.536646  0.385732  0.750098  1
  Si  Si23  1  0.287624  0.881284  0.750135  1
  Si  Si24  1  0.714023  0.129271  0.250008  1
  Si  Si25  1  0.213106  0.371056  0.250015  1
  Si  Si26  1  0.776855  0.630206  0.750172  1
  Si  Si27  1  0.161750  0.460195  0.531551  1
  Si  Si28  1  0.842250  0.535203  0.461888  1
  Si  Si29  1  0.343785  0.966046  0.462493  1
  Si  Si30  1  0.842308  0.535204  0.038078  1
  Si  Si31  1  0.658548  0.034002  0.540103  1
  Si  Si32  1  0.162195  0.460463  0.968286  1
  Si  Si33  1  0.658325  0.033630  0.959825  1
  Si  Si34  1  0.343942  0.965732  0.037384  1
  Ag  Ag35  1  0.158067  0.511674  0.750120  1
