# generated using pymatgen
data_V8Tc3
_symmetry_space_group_name_H-M   'P 1'
_cell_length_a   5.01290208
_cell_length_b   5.01290207
_cell_length_c   10.78064814
_cell_angle_alpha   103.92746046
_cell_angle_beta   103.92746143
_cell_angle_gamma   34.91842706
_symmetry_Int_Tables_number   1
_chemical_formula_structural   V8Tc3
_chemical_formula_sum   'V8 Tc3'
_cell_volume   150.05348481
_cell_formula_units_Z   1
loop_
 _symmetry_equiv_pos_site_id
 _symmetry_equiv_pos_as_xyz
  1  'x, y, z'
loop_
 _atom_site_type_symbol
 _atom_site_label
 _atom_site_symmetry_multiplicity
 _atom_site_fract_x
 _atom_site_fract_y
 _atom_site_fract_z
 _atom_site_occupancy
  V  V0  1  0.724570  0.724570  0.088871  1
  V  V1  1  0.456224  0.456224  0.182182  1
  V  V2  1  0.185852  0.185852  0.273523  1
  V  V3  1  0.635395  0.635395  0.454000  1
  V  V4  1  0.364605  0.364605  0.546000  1
  V  V5  1  0.814148  0.814148  0.726477  1
  V  V6  1  0.543776  0.543776  0.817818  1
  V  V7  1  0.275430  0.275430  0.911130  1
  Tc  Tc8  1  0.000000  0.000000  0.000000  1
  Tc  Tc9  1  0.908663  0.908663  0.362230  1
  Tc  Tc10  1  0.091337  0.091337  0.637771  1
