# generated using pymatgen
data_Ca4CeIr2
_symmetry_space_group_name_H-M   'P 1'
_cell_length_a   6.67075440
_cell_length_b   7.43637860
_cell_length_c   8.73011740
_cell_angle_alpha   97.76587261
_cell_angle_beta   112.46096526
_cell_angle_gamma   89.99999296
_symmetry_Int_Tables_number   1
_chemical_formula_structural   Ca4CeIr2
_chemical_formula_sum   'Ca8 Ce2 Ir4'
_cell_volume   395.91454667
_cell_formula_units_Z   2
loop_
 _symmetry_equiv_pos_site_id
 _symmetry_equiv_pos_as_xyz
  1  'x, y, z'
loop_
 _atom_site_type_symbol
 _atom_site_label
 _atom_site_symmetry_multiplicity
 _atom_site_fract_x
 _atom_site_fract_y
 _atom_site_fract_z
 _atom_site_occupancy
  Ca  Ca0  1  0.979076  0.919298  0.176409  1
  Ca  Ca1  1  0.802666  0.580702  0.823591  1
  Ca  Ca2  1  0.020924  0.080702  0.823591  1
  Ca  Ca3  1  0.197334  0.419298  0.176409  1
  Ca  Ca4  1  0.638048  0.817355  0.436250  1
  Ca  Ca5  1  0.201798  0.682645  0.563750  1
  Ca  Ca6  1  0.361952  0.182645  0.563750  1
  Ca  Ca7  1  0.798202  0.317355  0.436250  1
  Ce  Ce8  1  0.433672  0.750000  0.000000  1
  Ce  Ce9  1  0.566328  0.250000  0.000000  1
  Ir  Ir10  1  0.788667  0.567103  0.197071  1
  Ir  Ir11  1  0.591596  0.932897  0.802929  1
  Ir  Ir12  1  0.211333  0.432897  0.802929  1
  Ir  Ir13  1  0.408404  0.067103  0.197071  1
