# generated using pymatgen
data_Pr3NiBr3
_symmetry_space_group_name_H-M   'P 1'
_cell_length_a   10.41929566
_cell_length_b   10.41929554
_cell_length_c   10.41929600
_cell_angle_alpha   109.47122347
_cell_angle_beta   109.47122323
_cell_angle_gamma   109.47121827
_symmetry_Int_Tables_number   1
_chemical_formula_structural   Pr3NiBr3
_chemical_formula_sum   'Pr12 Ni4 Br12'
_cell_volume   870.74940758
_cell_formula_units_Z   4
loop_
 _symmetry_equiv_pos_site_id
 _symmetry_equiv_pos_as_xyz
  1  'x, y, z'
loop_
 _atom_site_type_symbol
 _atom_site_label
 _atom_site_symmetry_multiplicity
 _atom_site_fract_x
 _atom_site_fract_y
 _atom_site_fract_z
 _atom_site_occupancy
  Pr  Pr0  1  0.467461  0.483730  0.233730  1
  Pr  Pr1  1  0.750000  0.233730  0.266270  1
  Pr  Pr2  1  0.750000  0.016270  0.483730  1
  Pr  Pr3  1  0.233730  0.467461  0.483730  1
  Pr  Pr4  1  0.266270  0.750000  0.233730  1
  Pr  Pr5  1  0.032539  0.266270  0.016270  1
  Pr  Pr6  1  0.016270  0.032539  0.266270  1
  Pr  Pr7  1  0.483730  0.750000  0.016270  1
  Pr  Pr8  1  0.483730  0.233730  0.467461  1
  Pr  Pr9  1  0.016270  0.483730  0.750000  1
  Pr  Pr10  1  0.266270  0.016270  0.032539  1
  Pr  Pr11  1  0.233730  0.266270  0.750000  1
  Ni  Ni12  1  0.250000  0.250000  0.250000  1
  Ni  Ni13  1  0.500000  0.000000  0.250000  1
  Ni  Ni14  1  0.000000  0.250000  0.500000  1
  Ni  Ni15  1  0.250000  0.500000  0.000000  1
  Br  Br16  1  0.250000  0.756721  0.743279  1
  Br  Br17  1  0.513443  0.506721  0.756721  1
  Br  Br18  1  0.986557  0.743279  0.993279  1
  Br  Br19  1  0.743279  0.250000  0.756721  1
  Br  Br20  1  0.993279  0.986557  0.743279  1
  Br  Br21  1  0.250000  0.993279  0.506721  1
  Br  Br22  1  0.756721  0.513443  0.506721  1
  Br  Br23  1  0.506721  0.250000  0.993279  1
  Br  Br24  1  0.756721  0.743279  0.250000  1
  Br  Br25  1  0.743279  0.993279  0.986557  1
  Br  Br26  1  0.993279  0.506721  0.250000  1
  Br  Br27  1  0.506721  0.756721  0.513443  1
