# generated using pymatgen
data_CaSc3(Zn4Ru)2
_symmetry_space_group_name_H-M   'P 1'
_cell_length_a   6.90804900
_cell_length_b   6.90804900
_cell_length_c   5.01493200
_cell_angle_alpha   90.00000000
_cell_angle_beta   90.00000000
_cell_angle_gamma   90.00000000
_symmetry_Int_Tables_number   1
_chemical_formula_structural   CaSc3(Zn4Ru)2
_chemical_formula_sum   'Ca1 Sc3 Zn8 Ru2'
_cell_volume   239.31827701
_cell_formula_units_Z   1
loop_
 _symmetry_equiv_pos_site_id
 _symmetry_equiv_pos_as_xyz
  1  'x, y, z'
loop_
 _atom_site_type_symbol
 _atom_site_label
 _atom_site_symmetry_multiplicity
 _atom_site_fract_x
 _atom_site_fract_y
 _atom_site_fract_z
 _atom_site_occupancy
  Ca  Ca0  1  0.000000  0.500000  0.757640  1
  Sc  Sc1  1  0.000000  0.000000  0.998812  1
  Sc  Sc2  1  0.500000  0.000000  0.241971  1
  Sc  Sc3  1  0.500000  0.500000  0.998812  1
  Zn  Zn4  1  0.197629  0.697629  0.272002  1
  Zn  Zn5  1  0.802371  0.697629  0.272002  1
  Zn  Zn6  1  0.802371  0.302371  0.272002  1
  Zn  Zn7  1  0.312027  0.187973  0.728821  1
  Zn  Zn8  1  0.197629  0.302371  0.272002  1
  Zn  Zn9  1  0.687973  0.187973  0.728821  1
  Zn  Zn10  1  0.687973  0.812027  0.728821  1
  Zn  Zn11  1  0.312027  0.812027  0.728821  1
  Ru  Ru12  1  0.500000  0.500000  0.499736  1
  Ru  Ru13  1  0.000000  0.000000  0.499736  1
