# generated using pymatgen
data_La8Cd(SnAu4)5
_symmetry_space_group_name_H-M   'P 1'
_cell_length_a   8.92551377
_cell_length_b   8.92551311
_cell_length_c   10.40436500
_cell_angle_alpha   90.09304817
_cell_angle_beta   90.09304817
_cell_angle_gamma   108.57901292
_symmetry_Int_Tables_number   1
_chemical_formula_structural   La8Cd(SnAu4)5
_chemical_formula_sum   'La8 Cd1 Sn5 Au20'
_cell_volume   785.66254183
_cell_formula_units_Z   1
loop_
 _symmetry_equiv_pos_site_id
 _symmetry_equiv_pos_as_xyz
  1  'x, y, z'
loop_
 _atom_site_type_symbol
 _atom_site_label
 _atom_site_symmetry_multiplicity
 _atom_site_fract_x
 _atom_site_fract_y
 _atom_site_fract_z
 _atom_site_occupancy
  La  La0  1  0.704257  0.295743  0.000000  1
  La  La1  1  0.295743  0.704257  0.000000  1
  La  La2  1  0.795986  0.204014  0.500000  1
  La  La3  1  0.204014  0.795986  0.500000  1
  La  La4  1  0.297822  0.297822  0.203063  1
  La  La5  1  0.702178  0.702178  0.796937  1
  La  La6  1  0.200773  0.200773  0.703200  1
  La  La7  1  0.799227  0.799227  0.296800  1
  Cd  Cd8  1  0.500000  0.500000  0.500000  1
  Sn  Sn9  1  0.011032  0.510940  0.249186  1
  Sn  Sn10  1  0.988968  0.489060  0.750814  1
  Sn  Sn11  1  0.489060  0.988968  0.750814  1
  Sn  Sn12  1  0.510940  0.011032  0.249186  1
  Sn  Sn13  1  0.000000  0.000000  0.000000  1
  Au  Au14  1  0.094742  0.094742  0.406387  1
  Au  Au15  1  0.905258  0.905258  0.593613  1
  Au  Au16  1  0.405678  0.405678  0.905022  1
  Au  Au17  1  0.594322  0.594322  0.094978  1
  Au  Au18  1  0.898107  0.168876  0.209532  1
  Au  Au19  1  0.101893  0.831124  0.790468  1
  Au  Au20  1  0.598982  0.331125  0.705976  1
  Au  Au21  1  0.668875  0.401018  0.294024  1
  Au  Au22  1  0.401018  0.668875  0.294024  1
  Au  Au23  1  0.331125  0.598982  0.705976  1
  Au  Au24  1  0.831124  0.101893  0.790468  1
  Au  Au25  1  0.168876  0.898107  0.209532  1
  Au  Au26  1  0.926028  0.659511  0.028639  1
  Au  Au27  1  0.073972  0.340489  0.971361  1
  Au  Au28  1  0.573483  0.837809  0.529925  1
  Au  Au29  1  0.162191  0.426517  0.470075  1
  Au  Au30  1  0.426517  0.162191  0.470075  1
  Au  Au31  1  0.837809  0.573483  0.529925  1
  Au  Au32  1  0.340489  0.073972  0.971361  1
  Au  Au33  1  0.659511  0.926028  0.028639  1
