# generated using pymatgen
data_Lu4Th2ScCo17P12
_symmetry_space_group_name_H-M   'P 1'
_cell_length_a   3.72090800
_cell_length_b   10.59862100
_cell_length_c   12.25586400
_cell_angle_alpha   90.00000000
_cell_angle_beta   90.00000000
_cell_angle_gamma   90.00000000
_symmetry_Int_Tables_number   1
_chemical_formula_structural   Lu4Th2ScCo17P12
_chemical_formula_sum   'Lu4 Th2 Sc1 Co17 P12'
_cell_volume   483.32830303
_cell_formula_units_Z   1
loop_
 _symmetry_equiv_pos_site_id
 _symmetry_equiv_pos_as_xyz
  1  'x, y, z'
loop_
 _atom_site_type_symbol
 _atom_site_label
 _atom_site_symmetry_multiplicity
 _atom_site_fract_x
 _atom_site_fract_y
 _atom_site_fract_z
 _atom_site_occupancy
  Lu  Lu0  1  0.500000  0.820076  0.204736  1
  Lu  Lu1  1  0.500000  0.179924  0.204736  1
  Lu  Lu2  1  0.000000  0.684078  0.798604  1
  Lu  Lu3  1  0.000000  0.315922  0.798604  1
  Th  Th4  1  0.000000  0.500000  0.532002  1
  Th  Th5  1  0.500000  0.000000  0.474019  1
  Sc  Sc6  1  0.500000  0.500000  0.148843  1
  Co  Co7  1  0.000000  0.000000  0.840575  1
  Co  Co8  1  0.500000  0.500000  0.704584  1
  Co  Co9  1  0.000000  0.000000  0.294819  1
  Co  Co10  1  0.000000  0.500000  0.983676  1
  Co  Co11  1  0.500000  0.000000  0.014087  1
  Co  Co12  1  0.500000  0.327056  0.989359  1
  Co  Co13  1  0.500000  0.672944  0.989359  1
  Co  Co14  1  0.000000  0.162278  0.002113  1
  Co  Co15  1  0.000000  0.837722  0.002113  1
  Co  Co16  1  0.500000  0.295678  0.432605  1
  Co  Co17  1  0.500000  0.704322  0.432605  1
  Co  Co18  1  0.000000  0.200889  0.571688  1
  Co  Co19  1  0.000000  0.799111  0.571688  1
  Co  Co20  1  0.500000  0.880173  0.711723  1
  Co  Co21  1  0.500000  0.119827  0.711723  1
  Co  Co22  1  0.000000  0.622864  0.291101  1
  Co  Co23  1  0.000000  0.377136  0.291101  1
  P  P24  1  0.500000  0.500000  0.881702  1
  P  P25  1  0.000000  0.000000  0.117343  1
  P  P26  1  0.500000  0.500000  0.353135  1
  P  P27  1  0.000000  0.000000  0.660129  1
  P  P28  1  0.500000  0.305153  0.621636  1
  P  P29  1  0.500000  0.694847  0.621636  1
  P  P30  1  0.000000  0.193234  0.381808  1
  P  P31  1  0.000000  0.806766  0.381808  1
  P  P32  1  0.500000  0.850037  0.890381  1
  P  P33  1  0.500000  0.149963  0.890381  1
  P  P34  1  0.000000  0.664648  0.101787  1
  P  P35  1  0.000000  0.335352  0.101787  1
