# generated using pymatgen
data_YHo15Cd4CoRu3
_symmetry_space_group_name_H-M   'P 1'
_cell_length_a   9.60387185
_cell_length_b   9.60387150
_cell_length_c   9.52602755
_cell_angle_alpha   59.63670670
_cell_angle_beta   59.63670216
_cell_angle_gamma   59.86051629
_symmetry_Int_Tables_number   1
_chemical_formula_structural   YHo15Cd4CoRu3
_chemical_formula_sum   'Y1 Ho15 Cd4 Co1 Ru3'
_cell_volume   617.20290303
_cell_formula_units_Z   1
loop_
 _symmetry_equiv_pos_site_id
 _symmetry_equiv_pos_as_xyz
  1  'x, y, z'
loop_
 _atom_site_type_symbol
 _atom_site_label
 _atom_site_symmetry_multiplicity
 _atom_site_fract_x
 _atom_site_fract_y
 _atom_site_fract_z
 _atom_site_occupancy
  Y  Y0  1  0.937307  0.937307  0.561119  1
  Ho  Ho1  1  0.810995  0.190713  0.186445  1
  Ho  Ho2  1  0.938112  0.563759  0.559900  1
  Ho  Ho3  1  0.939804  0.559807  0.939710  1
  Ho  Ho4  1  0.811121  0.811121  0.185820  1
  Ho  Ho5  1  0.344699  0.344699  0.351191  1
  Ho  Ho6  1  0.559807  0.939804  0.939710  1
  Ho  Ho7  1  0.563759  0.938112  0.559900  1
  Ho  Ho8  1  0.189290  0.814793  0.807383  1
  Ho  Ho9  1  0.188302  0.188302  0.807436  1
  Ho  Ho10  1  0.345897  0.345897  0.962151  1
  Ho  Ho11  1  0.344189  0.961016  0.351369  1
  Ho  Ho12  1  0.814793  0.189290  0.807383  1
  Ho  Ho13  1  0.561351  0.561351  0.938567  1
  Ho  Ho14  1  0.190713  0.810995  0.186445  1
  Ho  Ho15  1  0.961016  0.344189  0.351369  1
  Cd  Cd16  1  0.580685  0.580685  0.257051  1
  Cd  Cd17  1  0.259244  0.580115  0.579481  1
  Cd  Cd18  1  0.580502  0.580502  0.579337  1
  Cd  Cd19  1  0.580115  0.259244  0.579481  1
  Co  Co20  1  0.140722  0.140722  0.580050  1
  Ru  Ru21  1  0.580490  0.138614  0.143666  1
  Ru  Ru22  1  0.138474  0.138474  0.141371  1
  Ru  Ru23  1  0.138614  0.580490  0.143666  1
