# generated using pymatgen
data_Sc4InPt11
_symmetry_space_group_name_H-M   'P 1'
_cell_length_a   4.07037900
_cell_length_b   5.70028211
_cell_length_c   11.39147452
_cell_angle_alpha   88.24648393
_cell_angle_beta   90.00000000
_cell_angle_gamma   90.00000000
_symmetry_Int_Tables_number   1
_chemical_formula_structural   Sc4InPt11
_chemical_formula_sum   'Sc4 In1 Pt11'
_cell_volume   264.18473541
_cell_formula_units_Z   1
loop_
 _symmetry_equiv_pos_site_id
 _symmetry_equiv_pos_as_xyz
  1  'x, y, z'
loop_
 _atom_site_type_symbol
 _atom_site_label
 _atom_site_symmetry_multiplicity
 _atom_site_fract_x
 _atom_site_fract_y
 _atom_site_fract_z
 _atom_site_occupancy
  Sc  Sc0  1  0.500000  0.750782  0.376108  1
  Sc  Sc1  1  0.500000  0.722415  0.861114  1
  Sc  Sc2  1  0.500000  0.277585  0.138886  1
  Sc  Sc3  1  0.500000  0.249218  0.623892  1
  In  In4  1  0.000000  0.000000  0.000000  1
  Pt  Pt5  1  0.000000  0.009547  0.249442  1
  Pt  Pt6  1  0.000000  0.990453  0.750558  1
  Pt  Pt7  1  0.000000  0.500000  0.000000  1
  Pt  Pt8  1  0.000000  0.500000  0.500000  1
  Pt  Pt9  1  0.000000  0.509740  0.250006  1
  Pt  Pt10  1  0.000000  0.490260  0.749994  1
  Pt  Pt11  1  0.500000  0.249422  0.377325  1
  Pt  Pt12  1  0.500000  0.237806  0.878980  1
  Pt  Pt13  1  0.500000  0.762194  0.121020  1
  Pt  Pt14  1  0.500000  0.750578  0.622675  1
  Pt  Pt15  1  0.000000  0.000000  0.500000  1
