# generated using pymatgen
data_Ce3ZnGaS7
_symmetry_space_group_name_H-M   'P 1'
_cell_length_a   10.07233222
_cell_length_b   10.07565648
_cell_length_c   6.19472478
_cell_angle_alpha   89.91391057
_cell_angle_beta   90.05417083
_cell_angle_gamma   119.99753155
_symmetry_Int_Tables_number   1
_chemical_formula_structural   Ce3ZnGaS7
_chemical_formula_sum   'Ce6 Zn2 Ga2 S14'
_cell_volume   544.46045682
_cell_formula_units_Z   2
loop_
 _symmetry_equiv_pos_site_id
 _symmetry_equiv_pos_as_xyz
  1  'x, y, z'
loop_
 _atom_site_type_symbol
 _atom_site_label
 _atom_site_symmetry_multiplicity
 _atom_site_fract_x
 _atom_site_fract_y
 _atom_site_fract_z
 _atom_site_occupancy
  Ce  Ce0  1  0.231251  0.857093  0.238757  1
  Ce  Ce1  1  0.624977  0.768658  0.240571  1
  Ce  Ce2  1  0.143265  0.374770  0.239825  1
  Ce  Ce3  1  0.767588  0.141742  0.738352  1
  Ce  Ce4  1  0.375431  0.232388  0.740203  1
  Ce  Ce5  1  0.855777  0.624792  0.739016  1
  Zn  Zn6  1  0.999784  0.000334  0.001129  1
  Zn  Zn7  1  0.001409  0.999121  0.501833  1
  Ga  Ga8  1  0.666793  0.333575  0.161032  1
  Ga  Ga9  1  0.333184  0.666950  0.662156  1
  S  S10  1  0.904910  0.422641  0.008385  1
  S  S11  1  0.518400  0.095616  0.009432  1
  S  S12  1  0.577044  0.481526  0.010036  1
  S  S13  1  0.333189  0.666520  0.028155  1
  S  S14  1  0.904383  0.760742  0.307384  1
  S  S15  1  0.239020  0.143826  0.309554  1
  S  S16  1  0.856267  0.094301  0.310770  1
  S  S17  1  0.095617  0.578097  0.508975  1
  S  S18  1  0.481492  0.904420  0.509174  1
  S  S19  1  0.423336  0.518832  0.509641  1
  S  S20  1  0.666981  0.333282  0.526977  1
  S  S21  1  0.095326  0.239120  0.810796  1
  S  S22  1  0.761097  0.856252  0.809467  1
  S  S23  1  0.143477  0.905400  0.806385  1
