# generated using pymatgen
data_LaYP7Ru12
_symmetry_space_group_name_H-M   'P 1'
_cell_length_a   9.47305600
_cell_length_b   9.47305487
_cell_length_c   3.97413300
_cell_angle_alpha   90.00000000
_cell_angle_beta   90.00000000
_cell_angle_gamma   119.99999602
_symmetry_Int_Tables_number   1
_chemical_formula_structural   LaYP7Ru12
_chemical_formula_sum   'La1 Y1 P7 Ru12'
_cell_volume   308.85398130
_cell_formula_units_Z   1
loop_
 _symmetry_equiv_pos_site_id
 _symmetry_equiv_pos_as_xyz
  1  'x, y, z'
loop_
 _atom_site_type_symbol
 _atom_site_label
 _atom_site_symmetry_multiplicity
 _atom_site_fract_x
 _atom_site_fract_y
 _atom_site_fract_z
 _atom_site_occupancy
  La  La0  1  0.333333  0.666667  0.000000  1
  Y  Y1  1  0.666667  0.333333  0.500000  1
  P  P2  1  0.607027  0.718685  0.500000  1
  P  P3  1  0.000000  0.000000  0.000000  1
  P  P4  1  0.281315  0.888342  0.500000  1
  P  P5  1  0.111658  0.392973  0.500000  1
  P  P6  1  0.888088  0.571677  0.000000  1
  P  P7  1  0.428323  0.316411  0.000000  1
  P  P8  1  0.683589  0.111912  0.000000  1
  Ru  Ru9  1  0.559755  0.955617  0.500000  1
  Ru  Ru10  1  0.395862  0.440245  0.500000  1
  Ru  Ru11  1  0.914874  0.118843  0.500000  1
  Ru  Ru12  1  0.203969  0.085126  0.500000  1
  Ru  Ru13  1  0.881157  0.796031  0.500000  1
  Ru  Ru14  1  0.729129  0.893132  0.000000  1
  Ru  Ru15  1  0.106868  0.835996  0.000000  1
  Ru  Ru16  1  0.164004  0.270871  0.000000  1
  Ru  Ru17  1  0.421197  0.069671  0.000000  1
  Ru  Ru18  1  0.930329  0.351528  0.000000  1
  Ru  Ru19  1  0.648472  0.578803  0.000000  1
  Ru  Ru20  1  0.044383  0.604138  0.500000  1
