# generated using pymatgen
data_Hf6Al16Cu2IrRh4
_symmetry_space_group_name_H-M   'P 1'
_cell_length_a   8.66865018
_cell_length_b   8.68914048
_cell_length_c   8.65682637
_cell_angle_alpha   59.96671143
_cell_angle_beta   60.19971105
_cell_angle_gamma   59.87420788
_symmetry_Int_Tables_number   1
_chemical_formula_structural   Hf6Al16Cu2IrRh4
_chemical_formula_sum   'Hf6 Al16 Cu2 Ir1 Rh4'
_cell_volume   461.20911240
_cell_formula_units_Z   1
loop_
 _symmetry_equiv_pos_site_id
 _symmetry_equiv_pos_as_xyz
  1  'x, y, z'
loop_
 _atom_site_type_symbol
 _atom_site_label
 _atom_site_symmetry_multiplicity
 _atom_site_fract_x
 _atom_site_fract_y
 _atom_site_fract_z
 _atom_site_occupancy
  Hf  Hf0  1  0.693145  0.306860  0.308346  1
  Hf  Hf1  1  0.306855  0.693140  0.691654  1
  Hf  Hf2  1  0.327438  0.672576  0.328521  1
  Hf  Hf3  1  0.672562  0.327424  0.671479  1
  Hf  Hf4  1  0.307792  0.307759  0.692240  1
  Hf  Hf5  1  0.692208  0.692241  0.307760  1
  Al  Al6  1  0.337349  0.331785  0.337289  1
  Al  Al7  1  0.662651  0.668215  0.662711  1
  Al  Al8  1  0.331771  0.337310  0.993623  1
  Al  Al9  1  0.339040  0.993585  0.336359  1
  Al  Al10  1  0.668229  0.662690  0.006377  1
  Al  Al11  1  0.660960  0.006415  0.663641  1
  Al  Al12  1  0.993562  0.339019  0.330990  1
  Al  Al13  1  0.006438  0.660981  0.669010  1
  Al  Al14  1  0.124224  0.110680  0.123963  1
  Al  Al15  1  0.875776  0.889320  0.876037  1
  Al  Al16  1  0.110670  0.124276  0.641109  1
  Al  Al17  1  0.124173  0.641412  0.123846  1
  Al  Al18  1  0.889330  0.875724  0.358891  1
  Al  Al19  1  0.875827  0.358588  0.876154  1
  Al  Al20  1  0.641389  0.124222  0.110573  1
  Al  Al21  1  0.358611  0.875778  0.889427  1
  Cu  Cu22  1  0.000000  0.500000  0.000000  1
  Cu  Cu23  1  0.500000  0.000000  0.500000  1
  Ir  Ir24  1  0.000000  0.000000  0.500000  1
  Rh  Rh25  1  0.500000  0.000000  0.000000  1
  Rh  Rh26  1  0.000000  0.500000  0.500000  1
  Rh  Rh27  1  0.500000  0.500000  0.000000  1
  Rh  Rh28  1  0.000000  0.000000  0.000000  1
