# generated using pymatgen
data_Nd6LuRhO12
_symmetry_space_group_name_H-M   'P 1'
_cell_length_a   6.86970805
_cell_length_b   6.86970688
_cell_length_c   6.86970800
_cell_angle_alpha   96.58182692
_cell_angle_beta   96.58182579
_cell_angle_gamma   96.58181292
_symmetry_Int_Tables_number   1
_chemical_formula_structural   Nd6LuRhO12
_chemical_formula_sum   'Nd6 Lu1 Rh1 O12'
_cell_volume   317.24942013
_cell_formula_units_Z   1
loop_
 _symmetry_equiv_pos_site_id
 _symmetry_equiv_pos_as_xyz
  1  'x, y, z'
loop_
 _atom_site_type_symbol
 _atom_site_label
 _atom_site_symmetry_multiplicity
 _atom_site_fract_x
 _atom_site_fract_y
 _atom_site_fract_z
 _atom_site_occupancy
  Nd  Nd0  1  0.585251  0.098471  0.272146  1
  Nd  Nd1  1  0.098471  0.272146  0.585251  1
  Nd  Nd2  1  0.727854  0.414749  0.901529  1
  Nd  Nd3  1  0.272146  0.585251  0.098471  1
  Nd  Nd4  1  0.901529  0.727854  0.414749  1
  Nd  Nd5  1  0.414749  0.901529  0.727854  1
  Lu  Lu6  1  0.000000  0.000000  0.000000  1
  Rh  Rh7  1  0.500000  0.500000  0.500000  1
  O  O8  1  0.688653  0.073560  0.937742  1
  O  O9  1  0.926440  0.062258  0.311347  1
  O  O10  1  0.427015  0.205308  0.559611  1
  O  O11  1  0.062258  0.311347  0.926440  1
  O  O12  1  0.559611  0.427015  0.205308  1
  O  O13  1  0.794692  0.440389  0.572985  1
  O  O14  1  0.205308  0.559611  0.427015  1
  O  O15  1  0.440389  0.572985  0.794692  1
  O  O16  1  0.937742  0.688653  0.073560  1
  O  O17  1  0.572985  0.794692  0.440389  1
  O  O18  1  0.073560  0.937742  0.688653  1
  O  O19  1  0.311347  0.926440  0.062258  1
