# generated using pymatgen
data_PaS2
_symmetry_space_group_name_H-M   'P 1'
_cell_length_a   10.21994500
_cell_length_b   10.21994500
_cell_length_c   6.30572500
_cell_angle_alpha   90.00000000
_cell_angle_beta   90.00000000
_cell_angle_gamma   90.00000000
_symmetry_Int_Tables_number   1
_chemical_formula_structural   PaS2
_chemical_formula_sum   'Pa10 S20'
_cell_volume   658.61579821
_cell_formula_units_Z   10
loop_
 _symmetry_equiv_pos_site_id
 _symmetry_equiv_pos_as_xyz
  1  'x, y, z'
loop_
 _atom_site_type_symbol
 _atom_site_label
 _atom_site_symmetry_multiplicity
 _atom_site_fract_x
 _atom_site_fract_y
 _atom_site_fract_z
 _atom_site_occupancy
  Pa  Pa0  1  0.840221  0.153046  0.252054  1
  Pa  Pa1  1  0.653046  0.659779  0.252054  1
  Pa  Pa2  1  0.346954  0.340221  0.252054  1
  Pa  Pa3  1  0.159779  0.846954  0.252054  1
  Pa  Pa4  1  0.500000  0.000000  0.862871  1
  Pa  Pa5  1  0.340221  0.653046  0.747946  1
  Pa  Pa6  1  0.153046  0.159779  0.747946  1
  Pa  Pa7  1  0.846954  0.840221  0.747946  1
  Pa  Pa8  1  0.659779  0.346954  0.747946  1
  Pa  Pa9  1  0.000000  0.500000  0.137129  1
  S  S10  1  0.709956  0.087199  0.623315  1
  S  S11  1  0.587199  0.790044  0.623315  1
  S  S12  1  0.412801  0.209956  0.623315  1
  S  S13  1  0.290044  0.912801  0.623315  1
  S  S14  1  0.709984  0.911578  0.111646  1
  S  S15  1  0.588422  0.209984  0.111646  1
  S  S16  1  0.411578  0.790016  0.111646  1
  S  S17  1  0.290016  0.088422  0.111646  1
  S  S18  1  0.500000  0.500000  0.000000  1
  S  S19  1  0.000000  0.000000  0.000000  1
  S  S20  1  0.209984  0.411578  0.888354  1
  S  S21  1  0.088422  0.709984  0.888354  1
  S  S22  1  0.911578  0.290016  0.888354  1
  S  S23  1  0.790016  0.588422  0.888354  1
  S  S24  1  0.500000  0.500000  0.500000  1
  S  S25  1  0.000000  0.000000  0.500000  1
  S  S26  1  0.209956  0.587199  0.376685  1
  S  S27  1  0.087199  0.290044  0.376685  1
  S  S28  1  0.912801  0.709956  0.376685  1
  S  S29  1  0.790044  0.412801  0.376685  1
