# generated using pymatgen
data_Cs2TlRh3F12
_symmetry_space_group_name_H-M   'P 1'
_cell_length_a   7.51376457
_cell_length_b   7.51376508
_cell_length_c   13.73818700
_cell_angle_alpha   75.30125806
_cell_angle_beta   75.30125704
_cell_angle_gamma   60.11598241
_symmetry_Int_Tables_number   1
_chemical_formula_structural   Cs2TlRh3F12
_chemical_formula_sum   'Cs4 Tl2 Rh6 F24'
_cell_volume   642.93657139
_cell_formula_units_Z   2
loop_
 _symmetry_equiv_pos_site_id
 _symmetry_equiv_pos_as_xyz
  1  'x, y, z'
loop_
 _atom_site_type_symbol
 _atom_site_label
 _atom_site_symmetry_multiplicity
 _atom_site_fract_x
 _atom_site_fract_y
 _atom_site_fract_z
 _atom_site_occupancy
  Cs  Cs0  1  0.899378  0.470753  0.686639  1
  Cs  Cs1  1  0.100622  0.529247  0.313361  1
  Cs  Cs2  1  0.529247  0.100622  0.813361  1
  Cs  Cs3  1  0.470753  0.899378  0.186639  1
  Tl  Tl4  1  0.225759  0.774241  0.750000  1
  Tl  Tl5  1  0.774241  0.225759  0.250000  1
  Rh  Rh6  1  0.500000  0.000000  0.500000  1
  Rh  Rh7  1  0.000000  0.500000  0.000000  1
  Rh  Rh8  1  0.000000  0.000000  0.500000  1
  Rh  Rh9  1  0.000000  0.000000  0.000000  1
  Rh  Rh10  1  0.500000  0.500000  0.500000  1
  Rh  Rh11  1  0.500000  0.500000  0.000000  1
  F  F12  1  0.882948  0.976880  0.647319  1
  F  F13  1  0.525185  0.889807  0.647170  1
  F  F14  1  0.283350  0.398789  0.036722  1
  F  F15  1  0.689976  0.188742  0.027394  1
  F  F16  1  0.889807  0.525185  0.147170  1
  F  F17  1  0.110193  0.474815  0.852830  1
  F  F18  1  0.474815  0.110193  0.352830  1
  F  F19  1  0.811258  0.310024  0.472606  1
  F  F20  1  0.117052  0.023120  0.352681  1
  F  F21  1  0.601211  0.716650  0.463278  1
  F  F22  1  0.457556  0.517952  0.147004  1
  F  F23  1  0.398789  0.283350  0.536722  1
  F  F24  1  0.517952  0.457556  0.647004  1
  F  F25  1  0.809444  0.915622  0.463848  1
  F  F26  1  0.190556  0.084378  0.536152  1
  F  F27  1  0.542444  0.482048  0.852996  1
  F  F28  1  0.915622  0.809444  0.963848  1
  F  F29  1  0.482048  0.542444  0.352996  1
  F  F30  1  0.716650  0.601211  0.963278  1
  F  F31  1  0.976880  0.882948  0.147319  1
  F  F32  1  0.084378  0.190556  0.036152  1
  F  F33  1  0.310024  0.811258  0.972606  1
  F  F34  1  0.023120  0.117052  0.852681  1
  F  F35  1  0.188742  0.689976  0.527394  1
