# generated using pymatgen
data_La3Pa(NbN2)4
_symmetry_space_group_name_H-M   'P 1'
_cell_length_a   3.39824900
_cell_length_b   5.85858909
_cell_length_c   11.22702400
_cell_angle_alpha   89.99011263
_cell_angle_beta   90.00000000
_cell_angle_gamma   90.00000000
_symmetry_Int_Tables_number   1
_chemical_formula_structural   La3Pa(NbN2)4
_chemical_formula_sum   'La3 Pa1 Nb4 N8'
_cell_volume   223.51819447
_cell_formula_units_Z   1
loop_
 _symmetry_equiv_pos_site_id
 _symmetry_equiv_pos_as_xyz
  1  'x, y, z'
loop_
 _atom_site_type_symbol
 _atom_site_label
 _atom_site_symmetry_multiplicity
 _atom_site_fract_x
 _atom_site_fract_y
 _atom_site_fract_z
 _atom_site_occupancy
  La  La0  1  0.250000  0.579970  0.858450  1
  La  La1  1  0.750000  0.418921  0.142718  1
  La  La2  1  0.750000  0.918621  0.359093  1
  Pa  Pa3  1  0.250000  0.077042  0.638426  1
  Nb  Nb4  1  0.250000  0.924578  0.105645  1
  Nb  Nb5  1  0.750000  0.077491  0.895908  1
  Nb  Nb6  1  0.750000  0.576134  0.600865  1
  Nb  Nb7  1  0.250000  0.422834  0.402694  1
  N  N8  1  0.250000  0.662281  0.250144  1
  N  N9  1  0.750000  0.326338  0.745062  1
  N  N10  1  0.750000  0.854018  0.737604  1
  N  N11  1  0.250000  0.163472  0.251507  1
  N  N12  1  0.250000  0.745946  0.517258  1
  N  N13  1  0.750000  0.250564  0.497260  1
  N  N14  1  0.750000  0.775660  0.012216  1
  N  N15  1  0.250000  0.226132  0.985151  1
