# generated using pymatgen
data_CaTb2DyNi13C4
_symmetry_space_group_name_H-M   'P 1'
_cell_length_a   8.37141169
_cell_length_b   8.37208862
_cell_length_c   3.87212600
_cell_angle_alpha   90.00000000
_cell_angle_beta   90.00000000
_cell_angle_gamma   90.93905292
_symmetry_Int_Tables_number   1
_chemical_formula_structural   CaTb2DyNi13C4
_chemical_formula_sum   'Ca1 Tb2 Dy1 Ni13 C4'
_cell_volume   271.34615097
_cell_formula_units_Z   1
loop_
 _symmetry_equiv_pos_site_id
 _symmetry_equiv_pos_as_xyz
  1  'x, y, z'
loop_
 _atom_site_type_symbol
 _atom_site_label
 _atom_site_symmetry_multiplicity
 _atom_site_fract_x
 _atom_site_fract_y
 _atom_site_fract_z
 _atom_site_occupancy
  Ca  Ca0  1  0.649189  0.649472  0.500000  1
  Tb  Tb1  1  0.811525  0.188442  0.500000  1
  Tb  Tb2  1  0.348733  0.349114  0.500000  1
  Dy  Dy3  1  0.188467  0.811593  0.500000  1
  Ni  Ni4  1  0.497802  0.003865  0.500000  1
  Ni  Ni5  1  0.004271  0.499221  0.500000  1
  Ni  Ni6  1  0.001744  0.000976  0.000000  1
  Ni  Ni7  1  0.426586  0.783930  0.000000  1
  Ni  Ni8  1  0.568370  0.214245  0.000000  1
  Ni  Ni9  1  0.214043  0.569160  0.000000  1
  Ni  Ni10  1  0.783653  0.427218  0.000000  1
  Ni  Ni11  1  0.711676  0.929346  0.000000  1
  Ni  Ni12  1  0.291704  0.074136  0.000000  1
  Ni  Ni13  1  0.074762  0.291642  0.000000  1
  Ni  Ni14  1  0.930186  0.711575  0.000000  1
  Ni  Ni15  1  0.877877  0.877236  0.500000  1
  Ni  Ni16  1  0.123485  0.122870  0.500000  1
  C  C17  1  0.442307  0.555869  0.000000  1
  C  C18  1  0.555477  0.442585  0.000000  1
  C  C19  1  0.500946  0.997060  0.000000  1
  C  C20  1  0.997197  0.500447  0.000000  1
