# generated using pymatgen
data_Sr2CdPtRh
_symmetry_space_group_name_H-M   'P 1'
_cell_length_a   5.94263058
_cell_length_b   5.94263034
_cell_length_c   5.94263048
_cell_angle_alpha   135.68508986
_cell_angle_beta   117.77256612
_cell_angle_gamma   79.54437358
_symmetry_Int_Tables_number   1
_chemical_formula_structural   Sr2CdPtRh
_chemical_formula_sum   'Sr2 Cd1 Pt1 Rh1'
_cell_volume   125.74238106
_cell_formula_units_Z   1
loop_
 _symmetry_equiv_pos_site_id
 _symmetry_equiv_pos_as_xyz
  1  'x, y, z'
loop_
 _atom_site_type_symbol
 _atom_site_label
 _atom_site_symmetry_multiplicity
 _atom_site_fract_x
 _atom_site_fract_y
 _atom_site_fract_z
 _atom_site_occupancy
  Sr  Sr0  1  0.297163  0.796679  0.500484  1
  Sr  Sr1  1  0.703805  0.203321  0.500484  1
  Cd  Cd2  1  0.994209  0.000000  0.994209  1
  Pt  Pt3  1  0.283904  0.500000  0.783904  1
  Rh  Rh4  1  0.720919  0.500000  0.220919  1
