# generated using pymatgen
data_Rb4TaNb(CuTe4)2
_symmetry_space_group_name_H-M   'P 1'
_cell_length_a   15.36957344
_cell_length_b   13.74341830
_cell_length_c   8.13644860
_cell_angle_alpha   85.16259889
_cell_angle_beta   63.00061697
_cell_angle_gamma   31.83677053
_symmetry_Int_Tables_number   1
_chemical_formula_structural   Rb4TaNb(CuTe4)2
_chemical_formula_sum   'Rb4 Ta1 Nb1 Cu2 Te8'
_cell_volume   619.90074426
_cell_formula_units_Z   1
loop_
 _symmetry_equiv_pos_site_id
 _symmetry_equiv_pos_as_xyz
  1  'x, y, z'
loop_
 _atom_site_type_symbol
 _atom_site_label
 _atom_site_symmetry_multiplicity
 _atom_site_fract_x
 _atom_site_fract_y
 _atom_site_fract_z
 _atom_site_occupancy
  Rb  Rb0  1  0.320630  0.320630  0.679370  1
  Rb  Rb1  1  0.679370  0.679370  0.320630  1
  Rb  Rb2  1  0.929430  0.929430  0.570570  1
  Rb  Rb3  1  0.570570  0.570570  0.929430  1
  Ta  Ta4  1  0.750000  0.750000  0.750000  1
  Nb  Nb5  1  0.500000  0.500000  0.500000  1
  Cu  Cu6  1  0.000000  0.000000  0.000000  1
  Cu  Cu7  1  0.250000  0.250000  0.250000  1
  Te  Te8  1  0.293913  0.592771  0.907468  1
  Te  Te9  1  0.205849  0.907468  0.592771  1
  Te  Te10  1  0.907468  0.205849  0.293913  1
  Te  Te11  1  0.592771  0.293913  0.205849  1
  Te  Te12  1  0.658646  0.954720  0.042584  1
  Te  Te13  1  0.344050  0.042584  0.954720  1
  Te  Te14  1  0.042584  0.344050  0.658646  1
  Te  Te15  1  0.954720  0.658646  0.344050  1
