# generated using pymatgen
data_Ti5NbSi2P
_symmetry_space_group_name_H-M   'P 1'
_cell_length_a   6.79601800
_cell_length_b   6.79582677
_cell_length_c   3.49673200
_cell_angle_alpha   90.00000000
_cell_angle_beta   90.00000000
_cell_angle_gamma   120.00092109
_symmetry_Int_Tables_number   1
_chemical_formula_structural   Ti5NbSi2P
_chemical_formula_sum   'Ti5 Nb1 Si2 P1'
_cell_volume   139.85750273
_cell_formula_units_Z   1
loop_
 _symmetry_equiv_pos_site_id
 _symmetry_equiv_pos_as_xyz
  1  'x, y, z'
loop_
 _atom_site_type_symbol
 _atom_site_label
 _atom_site_symmetry_multiplicity
 _atom_site_fract_x
 _atom_site_fract_y
 _atom_site_fract_z
 _atom_site_occupancy
  Ti  Ti0  1  0.251628  0.000000  0.500000  1
  Ti  Ti1  1  0.748115  0.745849  0.500000  1
  Ti  Ti2  1  0.002266  0.254151  0.500000  1
  Ti  Ti3  1  0.402233  0.402325  0.000000  1
  Ti  Ti4  1  0.999908  0.597675  0.000000  1
  Nb  Nb5  1  0.595926  0.000000  0.000000  1
  Si  Si6  1  0.332766  0.665628  0.500000  1
  Si  Si7  1  0.667140  0.334372  0.500000  1
  P  P8  1  0.000018  0.000000  0.000000  1
