# generated using pymatgen
data_Ce6Er(TmIr2)3
_symmetry_space_group_name_H-M   'P 1'
_cell_length_a   8.19373100
_cell_length_b   8.19373021
_cell_length_c   6.44606500
_cell_angle_alpha   90.00000000
_cell_angle_beta   90.00000000
_cell_angle_gamma   120.00000722
_symmetry_Int_Tables_number   1
_chemical_formula_structural   Ce6Er(TmIr2)3
_chemical_formula_sum   'Ce6 Er1 Tm3 Ir6'
_cell_volume   374.79055932
_cell_formula_units_Z   1
loop_
 _symmetry_equiv_pos_site_id
 _symmetry_equiv_pos_as_xyz
  1  'x, y, z'
loop_
 _atom_site_type_symbol
 _atom_site_label
 _atom_site_symmetry_multiplicity
 _atom_site_fract_x
 _atom_site_fract_y
 _atom_site_fract_z
 _atom_site_occupancy
  Ce  Ce0  1  0.745158  0.745151  0.249746  1
  Ce  Ce1  1  0.254849  0.000008  0.249746  1
  Ce  Ce2  1  0.999992  0.254842  0.249746  1
  Ce  Ce3  1  0.254849  0.254842  0.750254  1
  Ce  Ce4  1  0.745158  0.000008  0.750254  1
  Ce  Ce5  1  0.999992  0.745151  0.750254  1
  Er  Er6  1  0.666667  0.333333  0.000000  1
  Tm  Tm7  1  0.666667  0.333333  0.500000  1
  Tm  Tm8  1  0.333333  0.666667  0.500000  1
  Tm  Tm9  1  0.333333  0.666667  0.000000  1
  Ir  Ir10  1  0.382866  0.383833  0.257144  1
  Ir  Ir11  1  0.616167  0.999034  0.257144  1
  Ir  Ir12  1  0.000966  0.617134  0.257144  1
  Ir  Ir13  1  0.616167  0.617134  0.742856  1
  Ir  Ir14  1  0.382866  0.999034  0.742856  1
  Ir  Ir15  1  0.000966  0.383833  0.742856  1
