# generated using pymatgen
data_HoTh3(Ga3Ir)6
_symmetry_space_group_name_H-M   'P 1'
_cell_length_a   7.68157400
_cell_length_b   7.69204796
_cell_length_c   9.46486100
_cell_angle_alpha   90.00000000
_cell_angle_beta   90.00000000
_cell_angle_gamma   119.74987866
_symmetry_Int_Tables_number   1
_chemical_formula_structural   HoTh3(Ga3Ir)6
_chemical_formula_sum   'Ho1 Th3 Ga18 Ir6'
_cell_volume   485.54127717
_cell_formula_units_Z   1
loop_
 _symmetry_equiv_pos_site_id
 _symmetry_equiv_pos_as_xyz
  1  'x, y, z'
loop_
 _atom_site_type_symbol
 _atom_site_label
 _atom_site_symmetry_multiplicity
 _atom_site_fract_x
 _atom_site_fract_y
 _atom_site_fract_z
 _atom_site_occupancy
  Ho  Ho0  1  0.328038  0.004665  0.750000  1
  Th  Th1  1  0.996828  0.670683  0.250000  1
  Th  Th2  1  0.002084  0.329500  0.750000  1
  Th  Th3  1  0.670177  0.995849  0.250000  1
  Ga  Ga4  1  0.136948  0.133352  0.250000  1
  Ga  Ga5  1  0.869522  0.868080  0.750000  1
  Ga  Ga6  1  0.004643  0.335389  0.079864  1
  Ga  Ga7  1  0.002745  0.670943  0.916615  1
  Ga  Ga8  1  0.002745  0.670943  0.583385  1
  Ga  Ga9  1  0.335312  0.003168  0.426956  1
  Ga  Ga10  1  0.004643  0.335389  0.420136  1
  Ga  Ga11  1  0.658067  0.996892  0.583287  1
  Ga  Ga12  1  0.658067  0.996892  0.916713  1
  Ga  Ga13  1  0.335312  0.003168  0.073044  1
  Ga  Ga14  1  0.335364  0.330642  0.564165  1
  Ga  Ga15  1  0.663754  0.663516  0.442777  1
  Ga  Ga16  1  0.663754  0.663516  0.057223  1
  Ga  Ga17  1  0.335364  0.330642  0.935835  1
  Ga  Ga18  1  0.343204  0.543469  0.250000  1
  Ga  Ga19  1  0.655278  0.450244  0.750000  1
  Ga  Ga20  1  0.543414  0.339108  0.250000  1
  Ga  Ga21  1  0.454491  0.661830  0.750000  1
  Ir  Ir22  1  0.675608  0.329796  0.000134  1
  Ir  Ir23  1  0.326905  0.670719  0.000208  1
  Ir  Ir24  1  0.326905  0.670719  0.499792  1
  Ir  Ir25  1  0.675608  0.329796  0.499866  1
  Ir  Ir26  1  0.997612  0.000547  0.000327  1
  Ir  Ir27  1  0.997612  0.000547  0.499673  1
