# generated using pymatgen
data_AcPr3(ZnPb)4
_symmetry_space_group_name_H-M   'P 1'
_cell_length_a   4.72456900
_cell_length_b   4.72457031
_cell_length_c   17.08968100
_cell_angle_alpha   90.00000000
_cell_angle_beta   90.00000000
_cell_angle_gamma   119.99999783
_symmetry_Int_Tables_number   1
_chemical_formula_structural   AcPr3(ZnPb)4
_chemical_formula_sum   'Ac1 Pr3 Zn4 Pb4'
_cell_volume   330.36125695
_cell_formula_units_Z   1
loop_
 _symmetry_equiv_pos_site_id
 _symmetry_equiv_pos_as_xyz
  1  'x, y, z'
loop_
 _atom_site_type_symbol
 _atom_site_label
 _atom_site_symmetry_multiplicity
 _atom_site_fract_x
 _atom_site_fract_y
 _atom_site_fract_z
 _atom_site_occupancy
  Ac  Ac0  1  0.000000  0.000000  0.000000  1
  Pr  Pr1  1  0.000000  0.000000  0.254034  1
  Pr  Pr2  1  0.000000  0.000000  0.500000  1
  Pr  Pr3  1  0.000000  0.000000  0.745966  1
  Zn  Zn4  1  0.666666  0.333334  0.168341  1
  Zn  Zn5  1  0.666666  0.333334  0.337908  1
  Zn  Zn6  1  0.333333  0.666666  0.662092  1
  Zn  Zn7  1  0.333333  0.666666  0.831659  1
  Pb  Pb8  1  0.333333  0.666666  0.121313  1
  Pb  Pb9  1  0.333333  0.666666  0.388323  1
  Pb  Pb10  1  0.666666  0.333334  0.611677  1
  Pb  Pb11  1  0.666666  0.333334  0.878687  1
