# generated using pymatgen
data_HoTaFeB6
_symmetry_space_group_name_H-M   'P 1'
_cell_length_a   3.34612800
_cell_length_b   8.88463500
_cell_length_c   11.18394000
_cell_angle_alpha   90.00000000
_cell_angle_beta   90.00000000
_cell_angle_gamma   90.00000000
_symmetry_Int_Tables_number   1
_chemical_formula_structural   HoTaFeB6
_chemical_formula_sum   'Ho4 Ta4 Fe4 B24'
_cell_volume   332.48876080
_cell_formula_units_Z   4
loop_
 _symmetry_equiv_pos_site_id
 _symmetry_equiv_pos_as_xyz
  1  'x, y, z'
loop_
 _atom_site_type_symbol
 _atom_site_label
 _atom_site_symmetry_multiplicity
 _atom_site_fract_x
 _atom_site_fract_y
 _atom_site_fract_z
 _atom_site_occupancy
  Ho  Ho0  1  0.000000  0.823287  0.086367  1
  Ho  Ho1  1  0.000000  0.176713  0.913633  1
  Ho  Ho2  1  0.000000  0.323287  0.413633  1
  Ho  Ho3  1  0.000000  0.676713  0.586367  1
  Ta  Ta4  1  0.000000  0.444982  0.127865  1
  Ta  Ta5  1  0.000000  0.555018  0.872135  1
  Ta  Ta6  1  0.000000  0.944982  0.372135  1
  Ta  Ta7  1  0.000000  0.055018  0.627865  1
  Fe  Fe8  1  0.000000  0.144050  0.183424  1
  Fe  Fe9  1  0.000000  0.855950  0.816576  1
  Fe  Fe10  1  0.000000  0.644050  0.316576  1
  Fe  Fe11  1  0.000000  0.355950  0.683424  1
  B  B12  1  0.500000  0.054767  0.067713  1
  B  B13  1  0.500000  0.945233  0.932287  1
  B  B14  1  0.500000  0.554767  0.432287  1
  B  B15  1  0.500000  0.445233  0.567713  1
  B  B16  1  0.500000  0.251882  0.082962  1
  B  B17  1  0.500000  0.748118  0.917038  1
  B  B18  1  0.500000  0.751882  0.417038  1
  B  B19  1  0.500000  0.248118  0.582962  1
  B  B20  1  0.500000  0.296720  0.236298  1
  B  B21  1  0.500000  0.703280  0.763702  1
  B  B22  1  0.500000  0.796720  0.263702  1
  B  B23  1  0.500000  0.203280  0.736298  1
  B  B24  1  0.500000  0.130140  0.316609  1
  B  B25  1  0.500000  0.869860  0.683391  1
  B  B26  1  0.500000  0.630140  0.183391  1
  B  B27  1  0.500000  0.369860  0.816609  1
  B  B28  1  0.500000  0.482378  0.286885  1
  B  B29  1  0.500000  0.517622  0.713115  1
  B  B30  1  0.500000  0.982378  0.213115  1
  B  B31  1  0.500000  0.017622  0.786885  1
  B  B32  1  0.500000  0.100176  0.473548  1
  B  B33  1  0.500000  0.899824  0.526452  1
  B  B34  1  0.500000  0.600176  0.026452  1
  B  B35  1  0.500000  0.399824  0.973548  1
