# generated using pymatgen
data_TlCl37
_symmetry_space_group_name_H-M   'P 1'
_cell_length_a   12.78763379
_cell_length_b   13.76759013
_cell_length_c   12.98174600
_cell_angle_alpha   103.00376751
_cell_angle_beta   48.80056927
_cell_angle_gamma   81.50743368
_symmetry_Int_Tables_number   1
_chemical_formula_structural   TlCl37
_chemical_formula_sum   'Tl1 Cl37'
_cell_volume   1533.02354663
_cell_formula_units_Z   1
loop_
 _symmetry_equiv_pos_site_id
 _symmetry_equiv_pos_as_xyz
  1  'x, y, z'
loop_
 _atom_site_type_symbol
 _atom_site_label
 _atom_site_symmetry_multiplicity
 _atom_site_fract_x
 _atom_site_fract_y
 _atom_site_fract_z
 _atom_site_occupancy
  Tl  Tl0  1  0.500000  0.000000  0.000000  1
  Cl  Cl1  1  0.776980  0.307354  0.161503  1
  Cl  Cl2  1  0.223020  0.692646  0.838497  1
  Cl  Cl3  1  0.722289  0.080003  0.366690  1
  Cl  Cl4  1  0.277711  0.919997  0.633310  1
  Cl  Cl5  1  0.106079  0.336831  0.157521  1
  Cl  Cl6  1  0.893921  0.663169  0.842479  1
  Cl  Cl7  1  0.865368  0.536632  0.248428  1
  Cl  Cl8  1  0.134632  0.463368  0.751572  1
  Cl  Cl9  1  0.680740  0.287865  0.535966  1
  Cl  Cl10  1  0.319260  0.712135  0.464034  1
  Cl  Cl11  1  0.029475  0.138046  0.516201  1
  Cl  Cl12  1  0.970525  0.861954  0.483799  1
  Cl  Cl13  1  0.989066  0.009129  0.278437  1
  Cl  Cl14  1  0.010934  0.990871  0.721563  1
  Cl  Cl15  1  0.945458  0.345848  0.622066  1
  Cl  Cl16  1  0.054542  0.654152  0.377934  1
  Cl  Cl17  1  0.586629  0.416728  0.240430  1
  Cl  Cl18  1  0.413371  0.583272  0.759570  1
  Cl  Cl19  1  0.158254  0.483937  0.283210  1
  Cl  Cl20  1  0.841746  0.516063  0.716790  1
  Cl  Cl21  1  0.000000  0.500000  0.000000  1
  Cl  Cl22  1  0.549918  0.954871  0.161262  1
  Cl  Cl23  1  0.450082  0.045129  0.838738  1
  Cl  Cl24  1  0.276958  0.049500  0.349491  1
  Cl  Cl25  1  0.723042  0.950500  0.650509  1
  Cl  Cl26  1  0.528640  0.121496  0.414657  1
  Cl  Cl27  1  0.471360  0.878504  0.585343  1
  Cl  Cl28  1  0.087126  0.209508  0.064182  1
  Cl  Cl29  1  0.912874  0.790492  0.935818  1
  Cl  Cl30  1  0.677417  0.687500  0.391325  1
  Cl  Cl31  1  0.322583  0.312500  0.608675  1
  Cl  Cl32  1  0.905592  0.129008  0.907874  1
  Cl  Cl33  1  0.094408  0.870992  0.092126  1
  Cl  Cl34  1  0.455145  0.185952  0.101014  1
  Cl  Cl35  1  0.544855  0.814048  0.898986  1
  Cl  Cl36  1  0.666282  0.426403  0.646453  1
  Cl  Cl37  1  0.333718  0.573597  0.353547  1
