# generated using pymatgen
data_Ho4Tm2Al16Os7
_symmetry_space_group_name_H-M   'P 1'
_cell_length_a   8.92434347
_cell_length_b   8.93356062
_cell_length_c   8.93355975
_cell_angle_alpha   59.93175289
_cell_angle_beta   60.03412339
_cell_angle_gamma   60.03412553
_symmetry_Int_Tables_number   1
_chemical_formula_structural   Ho4Tm2Al16Os7
_chemical_formula_sum   'Ho4 Tm2 Al16 Os7'
_cell_volume   503.62756923
_cell_formula_units_Z   1
loop_
 _symmetry_equiv_pos_site_id
 _symmetry_equiv_pos_as_xyz
  1  'x, y, z'
loop_
 _atom_site_type_symbol
 _atom_site_label
 _atom_site_symmetry_multiplicity
 _atom_site_fract_x
 _atom_site_fract_y
 _atom_site_fract_z
 _atom_site_occupancy
  Ho  Ho0  1  0.788590  0.211410  0.788590  1
  Ho  Ho1  1  0.788590  0.788590  0.211410  1
  Ho  Ho2  1  0.211410  0.788590  0.211410  1
  Ho  Ho3  1  0.211410  0.211410  0.788590  1
  Tm  Tm4  1  0.211959  0.788041  0.788041  1
  Tm  Tm5  1  0.788041  0.211959  0.211959  1
  Al  Al6  1  0.832686  0.832396  0.832396  1
  Al  Al7  1  0.832396  0.832686  0.502522  1
  Al  Al8  1  0.502522  0.832396  0.832396  1
  Al  Al9  1  0.832396  0.502522  0.832686  1
  Al  Al10  1  0.167314  0.167604  0.167604  1
  Al  Al11  1  0.167604  0.167314  0.497478  1
  Al  Al12  1  0.167604  0.497478  0.167314  1
  Al  Al13  1  0.497478  0.167604  0.167604  1
  Al  Al14  1  0.620596  0.621009  0.621009  1
  Al  Al15  1  0.621009  0.620596  0.137386  1
  Al  Al16  1  0.137386  0.621009  0.621009  1
  Al  Al17  1  0.621009  0.137386  0.620596  1
  Al  Al18  1  0.379404  0.378991  0.378991  1
  Al  Al19  1  0.378991  0.379404  0.862614  1
  Al  Al20  1  0.378991  0.862614  0.379404  1
  Al  Al21  1  0.862614  0.378991  0.378991  1
  Os  Os22  1  0.500000  0.500000  0.500000  1
  Os  Os23  1  0.000000  0.500000  0.500000  1
  Os  Os24  1  0.500000  0.000000  0.000000  1
  Os  Os25  1  0.500000  0.000000  0.500000  1
  Os  Os26  1  0.500000  0.500000  0.000000  1
  Os  Os27  1  0.000000  0.500000  0.000000  1
  Os  Os28  1  0.000000  0.000000  0.500000  1
