# generated using pymatgen
data_Li4Ac3CePd4
_symmetry_space_group_name_H-M   'P 1'
_cell_length_a   4.18109300
_cell_length_b   7.50275819
_cell_length_c   8.99588700
_cell_angle_alpha   88.75429897
_cell_angle_beta   90.00000000
_cell_angle_gamma   90.00000000
_symmetry_Int_Tables_number   1
_chemical_formula_structural   Li4Ac3CePd4
_chemical_formula_sum   'Li4 Ac3 Ce1 Pd4'
_cell_volume   282.13184968
_cell_formula_units_Z   1
loop_
 _symmetry_equiv_pos_site_id
 _symmetry_equiv_pos_as_xyz
  1  'x, y, z'
loop_
 _atom_site_type_symbol
 _atom_site_label
 _atom_site_symmetry_multiplicity
 _atom_site_fract_x
 _atom_site_fract_y
 _atom_site_fract_z
 _atom_site_occupancy
  Li  Li0  1  0.250000  0.627891  0.547855  1
  Li  Li1  1  0.750000  0.371501  0.443979  1
  Li  Li2  1  0.750000  0.880889  0.057532  1
  Li  Li3  1  0.250000  0.112110  0.958684  1
  Ac  Ac4  1  0.250000  0.547888  0.189564  1
  Ac  Ac5  1  0.750000  0.448224  0.814409  1
  Ac  Ac6  1  0.750000  0.956677  0.682261  1
  Ce  Ce7  1  0.250000  0.047807  0.313892  1
  Pd  Pd8  1  0.250000  0.746728  0.882114  1
  Pd  Pd9  1  0.750000  0.238775  0.130911  1
  Pd  Pd10  1  0.750000  0.769512  0.375733  1
  Pd  Pd11  1  0.250000  0.251998  0.603065  1
