# generated using pymatgen
data_Hf2SiMoAsRu
_symmetry_space_group_name_H-M   'P 1'
_cell_length_a   7.78373549
_cell_length_b   7.74892428
_cell_length_c   7.79103565
_cell_angle_alpha   126.53504199
_cell_angle_beta   126.11017477
_cell_angle_gamma   79.50087421
_symmetry_Int_Tables_number   1
_chemical_formula_structural   Hf2SiMoAsRu
_chemical_formula_sum   'Hf6 Si3 Mo3 As3 Ru3'
_cell_volume   294.56820005
_cell_formula_units_Z   3
loop_
 _symmetry_equiv_pos_site_id
 _symmetry_equiv_pos_as_xyz
  1  'x, y, z'
loop_
 _atom_site_type_symbol
 _atom_site_label
 _atom_site_symmetry_multiplicity
 _atom_site_fract_x
 _atom_site_fract_y
 _atom_site_fract_z
 _atom_site_occupancy
  Hf  Hf0  1  0.445865  0.654203  0.698125  1
  Hf  Hf1  1  0.547394  0.264831  0.211282  1
  Hf  Hf2  1  0.748770  0.848588  0.597331  1
  Hf  Hf3  1  0.251862  0.850530  0.100016  1
  Hf  Hf4  1  0.056040  0.266305  0.716314  1
  Hf  Hf5  1  0.951145  0.646974  0.203291  1
  Si  Si6  1  0.249777  0.248525  0.499457  1
  Si  Si7  1  0.742271  0.237733  0.996459  1
  Si  Si8  1  0.333574  0.591897  0.256200  1
  Mo  Mo9  1  0.499874  0.500107  0.001834  1
  Mo  Mo10  1  0.998379  0.501207  0.502172  1
  Mo  Mo11  1  0.123037  0.255757  0.126267  1
  As  As12  1  0.670211  0.924285  0.254791  1
  As  As13  1  0.168544  0.923541  0.752321  1
  As  As14  1  0.833087  0.591038  0.759036  1
  Ru  Ru15  1  0.881642  0.002744  0.134964  1
  Ru  Ru16  1  0.370660  0.999284  0.614919  1
  Ru  Ru17  1  0.627866  0.252050  0.634824  1
