# generated using pymatgen
data_ErZr(Ga2Pd)2
_symmetry_space_group_name_H-M   'P 1'
_cell_length_a   5.47621192
_cell_length_b   5.47621239
_cell_length_c   6.48366300
_cell_angle_alpha   90.00000000
_cell_angle_beta   90.00000000
_cell_angle_gamma   133.06186331
_symmetry_Int_Tables_number   1
_chemical_formula_structural   ErZr(Ga2Pd)2
_chemical_formula_sum   'Er1 Zr1 Ga4 Pd2'
_cell_volume   142.05963110
_cell_formula_units_Z   1
loop_
 _symmetry_equiv_pos_site_id
 _symmetry_equiv_pos_as_xyz
  1  'x, y, z'
loop_
 _atom_site_type_symbol
 _atom_site_label
 _atom_site_symmetry_multiplicity
 _atom_site_fract_x
 _atom_site_fract_y
 _atom_site_fract_z
 _atom_site_occupancy
  Er  Er0  1  0.415582  0.584418  0.750000  1
  Zr  Zr1  1  0.586658  0.413342  0.250000  1
  Ga  Ga2  1  0.873136  0.126864  0.447029  1
  Ga  Ga3  1  0.124680  0.875320  0.543860  1
  Ga  Ga4  1  0.873136  0.126864  0.052971  1
  Ga  Ga5  1  0.124680  0.875320  0.956140  1
  Pd  Pd6  1  0.299564  0.700436  0.250000  1
  Pd  Pd7  1  0.702565  0.297435  0.750000  1
