# generated using pymatgen
data_Er2Cd3In2Pb
_symmetry_space_group_name_H-M   'P 1'
_cell_length_a   4.61935600
_cell_length_b   4.52472400
_cell_length_c   9.56226900
_cell_angle_alpha   90.00000000
_cell_angle_beta   90.00000000
_cell_angle_gamma   90.00000000
_symmetry_Int_Tables_number   1
_chemical_formula_structural   Er2Cd3In2Pb
_chemical_formula_sum   'Er2 Cd3 In2 Pb1'
_cell_volume   199.86395783
_cell_formula_units_Z   1
loop_
 _symmetry_equiv_pos_site_id
 _symmetry_equiv_pos_as_xyz
  1  'x, y, z'
loop_
 _atom_site_type_symbol
 _atom_site_label
 _atom_site_symmetry_multiplicity
 _atom_site_fract_x
 _atom_site_fract_y
 _atom_site_fract_z
 _atom_site_occupancy
  Er  Er0  1  0.000000  0.000000  0.256979  1
  Er  Er1  1  0.000000  0.000000  0.744821  1
  Cd  Cd2  1  0.000000  0.500000  0.992379  1
  Cd  Cd3  1  0.500000  0.000000  0.508896  1
  Cd  Cd4  1  0.500000  0.000000  0.989537  1
  In  In5  1  0.500000  0.500000  0.756795  1
  In  In6  1  0.000000  0.500000  0.506903  1
  Pb  Pb7  1  0.500000  0.500000  0.243690  1
