# generated using pymatgen
data_Er16MgCo4Hg3
_symmetry_space_group_name_H-M   'P 1'
_cell_length_a   9.40089711
_cell_length_b   9.38180673
_cell_length_c   9.38180800
_cell_angle_alpha   60.00000257
_cell_angle_beta   60.06715479
_cell_angle_gamma   60.06715023
_symmetry_Int_Tables_number   1
_chemical_formula_structural   Er16MgCo4Hg3
_chemical_formula_sum   'Er16 Mg1 Co4 Hg3'
_cell_volume   585.68944971
_cell_formula_units_Z   1
loop_
 _symmetry_equiv_pos_site_id
 _symmetry_equiv_pos_as_xyz
  1  'x, y, z'
loop_
 _atom_site_type_symbol
 _atom_site_label
 _atom_site_symmetry_multiplicity
 _atom_site_fract_x
 _atom_site_fract_y
 _atom_site_fract_z
 _atom_site_occupancy
  Er  Er0  1  0.597431  0.595553  0.595553  1
  Er  Er1  1  0.597431  0.595553  0.211463  1
  Er  Er2  1  0.597431  0.211463  0.595553  1
  Er  Er3  1  0.199780  0.600073  0.600073  1
  Er  Er4  1  0.059798  0.439467  0.439467  1
  Er  Er5  1  0.434981  0.063884  0.063884  1
  Er  Er6  1  0.434981  0.063884  0.437251  1
  Er  Er7  1  0.059798  0.439467  0.061268  1
  Er  Er8  1  0.434981  0.437251  0.063884  1
  Er  Er9  1  0.059798  0.061268  0.439467  1
  Er  Er10  1  0.187895  0.812055  0.812055  1
  Er  Er11  1  0.811896  0.187632  0.187632  1
  Er  Er12  1  0.811896  0.187632  0.812841  1
  Er  Er13  1  0.187895  0.812055  0.187996  1
  Er  Er14  1  0.811896  0.812841  0.187632  1
  Er  Er15  1  0.187895  0.187996  0.812055  1
  Mg  Mg16  1  0.536595  0.821135  0.821135  1
  Co  Co17  1  0.387752  0.393299  0.393299  1
  Co  Co18  1  0.387752  0.393299  0.825650  1
  Co  Co19  1  0.387752  0.825650  0.393299  1
  Co  Co20  1  0.825416  0.391528  0.391528  1
  Hg  Hg21  1  0.832983  0.835703  0.835703  1
  Hg  Hg22  1  0.832983  0.835703  0.495608  1
  Hg  Hg23  1  0.832983  0.495608  0.835703  1
