# generated using pymatgen
data_TbHo3(AlGa2)2
_symmetry_space_group_name_H-M   'P 1'
_cell_length_a   6.97749000
_cell_length_b   6.97749011
_cell_length_c   4.45658700
_cell_angle_alpha   90.00000000
_cell_angle_beta   90.00000000
_cell_angle_gamma   89.90740689
_symmetry_Int_Tables_number   1
_chemical_formula_structural   TbHo3(AlGa2)2
_chemical_formula_sum   'Tb1 Ho3 Al2 Ga4'
_cell_volume   216.97029246
_cell_formula_units_Z   1
loop_
 _symmetry_equiv_pos_site_id
 _symmetry_equiv_pos_as_xyz
  1  'x, y, z'
loop_
 _atom_site_type_symbol
 _atom_site_label
 _atom_site_symmetry_multiplicity
 _atom_site_fract_x
 _atom_site_fract_y
 _atom_site_fract_z
 _atom_site_occupancy
  Tb  Tb0  1  0.673329  0.173329  0.500000  1
  Ho  Ho1  1  0.326378  0.826378  0.500000  1
  Ho  Ho2  1  0.826922  0.673358  0.500000  1
  Ho  Ho3  1  0.173358  0.326922  0.500000  1
  Al  Al4  1  0.499871  0.500158  0.000000  1
  Al  Al5  1  0.000158  0.999871  0.000000  1
  Ga  Ga6  1  0.869488  0.369488  0.000000  1
  Ga  Ga7  1  0.368368  0.130942  0.000000  1
  Ga  Ga8  1  0.131185  0.631185  0.000000  1
  Ga  Ga9  1  0.630942  0.868368  0.000000  1
