# generated using pymatgen
data_YbHoEr6(B6Os)4
_symmetry_space_group_name_H-M   'P 1'
_cell_length_a   3.63237100
_cell_length_b   9.11223841
_cell_length_c   11.49486870
_cell_angle_alpha   89.92771363
_cell_angle_beta   90.00000000
_cell_angle_gamma   90.00000000
_symmetry_Int_Tables_number   1
_chemical_formula_structural   YbHoEr6(B6Os)4
_chemical_formula_sum   'Yb1 Ho1 Er6 B24 Os4'
_cell_volume   380.46870720
_cell_formula_units_Z   1
loop_
 _symmetry_equiv_pos_site_id
 _symmetry_equiv_pos_as_xyz
  1  'x, y, z'
loop_
 _atom_site_type_symbol
 _atom_site_label
 _atom_site_symmetry_multiplicity
 _atom_site_fract_x
 _atom_site_fract_y
 _atom_site_fract_z
 _atom_site_occupancy
  Yb  Yb0  1  0.000000  0.677448  0.586416  1
  Ho  Ho1  1  0.000000  0.323263  0.414954  1
  Er  Er2  1  0.000000  0.821076  0.085295  1
  Er  Er3  1  0.000000  0.178246  0.913648  1
  Er  Er4  1  0.000000  0.942241  0.372364  1
  Er  Er5  1  0.000000  0.055930  0.628381  1
  Er  Er6  1  0.000000  0.443800  0.127240  1
  Er  Er7  1  0.000000  0.556983  0.871419  1
  B  B8  1  0.500000  0.553986  0.432784  1
  B  B9  1  0.500000  0.446408  0.567468  1
  B  B10  1  0.500000  0.053762  0.066892  1
  B  B11  1  0.500000  0.946923  0.933759  1
  B  B12  1  0.500000  0.748241  0.418867  1
  B  B13  1  0.500000  0.251420  0.581035  1
  B  B14  1  0.500000  0.248472  0.080220  1
  B  B15  1  0.500000  0.752142  0.919549  1
  B  B16  1  0.500000  0.790637  0.265326  1
  B  B17  1  0.500000  0.208397  0.734440  1
  B  B18  1  0.500000  0.290740  0.233701  1
  B  B19  1  0.500000  0.709910  0.766266  1
  B  B20  1  0.500000  0.631107  0.184464  1
  B  B21  1  0.500000  0.368552  0.814593  1
  B  B22  1  0.500000  0.130860  0.314799  1
  B  B23  1  0.500000  0.869215  0.685920  1
  B  B24  1  0.500000  0.982353  0.212573  1
  B  B25  1  0.500000  0.017563  0.788162  1
  B  B26  1  0.500000  0.482918  0.287037  1
  B  B27  1  0.500000  0.516991  0.712610  1
  B  B28  1  0.500000  0.606578  0.029147  1
  B  B29  1  0.500000  0.393253  0.970270  1
  B  B30  1  0.500000  0.104338  0.471128  1
  B  B31  1  0.500000  0.896839  0.528703  1
  Os  Os32  1  0.000000  0.637836  0.319753  1
  Os  Os33  1  0.000000  0.360795  0.679718  1
  Os  Os34  1  0.000000  0.137230  0.178450  1
  Os  Os35  1  0.000000  0.863547  0.822648  1
