# generated using pymatgen
data_Lu12Tl2Os3
_symmetry_space_group_name_H-M   'P 1'
_cell_length_a   8.30131217
_cell_length_b   8.30131386
_cell_length_c   8.30131311
_cell_angle_alpha   109.32730363
_cell_angle_beta   109.32730992
_cell_angle_gamma   109.75943471
_symmetry_Int_Tables_number   1
_chemical_formula_structural   Lu12Tl2Os3
_chemical_formula_sum   'Lu12 Tl2 Os3'
_cell_volume   440.36240038
_cell_formula_units_Z   1
loop_
 _symmetry_equiv_pos_site_id
 _symmetry_equiv_pos_as_xyz
  1  'x, y, z'
loop_
 _atom_site_type_symbol
 _atom_site_label
 _atom_site_symmetry_multiplicity
 _atom_site_fract_x
 _atom_site_fract_y
 _atom_site_fract_z
 _atom_site_occupancy
  Lu  Lu0  1  0.319086  0.319086  0.638080  1
  Lu  Lu1  1  0.681005  0.681005  0.361920  1
  Lu  Lu2  1  0.681005  0.319086  0.000000  1
  Lu  Lu3  1  0.319086  0.681005  0.000000  1
  Lu  Lu4  1  0.183877  0.424932  0.241056  1
  Lu  Lu5  1  0.816270  0.575415  0.759145  1
  Lu  Lu6  1  0.183877  0.942819  0.758944  1
  Lu  Lu7  1  0.942819  0.183877  0.758944  1
  Lu  Lu8  1  0.816270  0.057126  0.240855  1
  Lu  Lu9  1  0.057126  0.816270  0.240855  1
  Lu  Lu10  1  0.424932  0.183877  0.241056  1
  Lu  Lu11  1  0.575415  0.816270  0.759145  1
  Tl  Tl12  1  0.999270  0.499270  0.500000  1
  Tl  Tl13  1  0.499270  0.999270  0.500000  1
  Os  Os14  1  0.655054  0.655054  0.000000  1
  Os  Os15  1  0.345116  0.345116  0.000000  1
  Os  Os16  1  0.000524  0.000524  0.000000  1
