# generated using pymatgen
data_Hf2Ni2Hg
_symmetry_space_group_name_H-M   'P 1'
_cell_length_a   7.12802500
_cell_length_b   7.12802500
_cell_length_c   6.59832700
_cell_angle_alpha   90.00000000
_cell_angle_beta   90.00000000
_cell_angle_gamma   90.00000000
_symmetry_Int_Tables_number   1
_chemical_formula_structural   Hf2Ni2Hg
_chemical_formula_sum   'Hf8 Ni8 Hg4'
_cell_volume   335.25268362
_cell_formula_units_Z   4
loop_
 _symmetry_equiv_pos_site_id
 _symmetry_equiv_pos_as_xyz
  1  'x, y, z'
loop_
 _atom_site_type_symbol
 _atom_site_label
 _atom_site_symmetry_multiplicity
 _atom_site_fract_x
 _atom_site_fract_y
 _atom_site_fract_z
 _atom_site_occupancy
  Hf  Hf0  1  0.177617  0.177556  0.999979  1
  Hf  Hf1  1  0.677556  0.322383  0.500021  1
  Hf  Hf2  1  0.322444  0.677617  0.500021  1
  Hf  Hf3  1  0.822383  0.822444  0.999979  1
  Hf  Hf4  1  0.657505  0.342511  0.000016  1
  Hf  Hf5  1  0.842511  0.842495  0.499984  1
  Hf  Hf6  1  0.157489  0.157505  0.499984  1
  Hf  Hf7  1  0.342495  0.657489  0.000016  1
  Ni  Ni8  1  0.375836  0.375610  0.274692  1
  Ni  Ni9  1  0.875710  0.124039  0.774685  1
  Ni  Ni10  1  0.124290  0.875961  0.774685  1
  Ni  Ni11  1  0.624164  0.624390  0.274692  1
  Ni  Ni12  1  0.124390  0.875836  0.225308  1
  Ni  Ni13  1  0.875610  0.124164  0.225308  1
  Ni  Ni14  1  0.375961  0.375710  0.725315  1
  Ni  Ni15  1  0.624039  0.624290  0.725315  1
  Hg  Hg16  1  0.000000  0.500000  0.750000  1
  Hg  Hg17  1  0.500000  0.000000  0.250000  1
  Hg  Hg18  1  0.500000  0.000000  0.750000  1
  Hg  Hg19  1  0.000000  0.500000  0.250000  1
