# generated using pymatgen
data_Na2BeBr4
_symmetry_space_group_name_H-M   'P 1'
_cell_length_a   6.53993400
_cell_length_b   8.66887500
_cell_length_c   14.56353700
_cell_angle_alpha   90.00000000
_cell_angle_beta   90.00000000
_cell_angle_gamma   90.00000000
_symmetry_Int_Tables_number   1
_chemical_formula_structural   Na2BeBr4
_chemical_formula_sum   'Na8 Be4 Br16'
_cell_volume   825.66327858
_cell_formula_units_Z   4
loop_
 _symmetry_equiv_pos_site_id
 _symmetry_equiv_pos_as_xyz
  1  'x, y, z'
loop_
 _atom_site_type_symbol
 _atom_site_label
 _atom_site_symmetry_multiplicity
 _atom_site_fract_x
 _atom_site_fract_y
 _atom_site_fract_z
 _atom_site_occupancy
  Na  Na0  1  0.007328  0.750000  0.726057  1
  Na  Na1  1  0.992672  0.250000  0.273943  1
  Na  Na2  1  0.507328  0.250000  0.773943  1
  Na  Na3  1  0.492672  0.750000  0.226057  1
  Na  Na4  1  0.500000  0.500000  0.500000  1
  Na  Na5  1  0.000000  0.500000  0.000000  1
  Na  Na6  1  0.500000  0.000000  0.500000  1
  Na  Na7  1  0.000000  0.000000  0.000000  1
  Be  Be8  1  0.588829  0.750000  0.907352  1
  Be  Be9  1  0.411171  0.250000  0.092648  1
  Be  Be10  1  0.088829  0.250000  0.592648  1
  Be  Be11  1  0.911171  0.750000  0.407352  1
  Br  Br12  1  0.254601  0.750000  0.906444  1
  Br  Br13  1  0.745399  0.250000  0.093556  1
  Br  Br14  1  0.754601  0.250000  0.593556  1
  Br  Br15  1  0.245399  0.750000  0.406444  1
  Br  Br16  1  0.785855  0.750000  0.549304  1
  Br  Br17  1  0.214145  0.250000  0.450696  1
  Br  Br18  1  0.285855  0.250000  0.950696  1
  Br  Br19  1  0.714145  0.750000  0.049304  1
  Br  Br20  1  0.716001  0.544712  0.836882  1
  Br  Br21  1  0.283999  0.455288  0.163118  1
  Br  Br22  1  0.216001  0.455288  0.663118  1
  Br  Br23  1  0.283999  0.044712  0.163118  1
  Br  Br24  1  0.783999  0.544712  0.336882  1
  Br  Br25  1  0.716001  0.955288  0.836882  1
  Br  Br26  1  0.783999  0.955288  0.336882  1
  Br  Br27  1  0.216001  0.044712  0.663118  1
