# generated using pymatgen
data_Tm3MgAl2Si2Rh
_symmetry_space_group_name_H-M   'P 1'
_cell_length_a   6.95347700
_cell_length_b   6.87205312
_cell_length_c   4.24272500
_cell_angle_alpha   90.00000000
_cell_angle_beta   90.00000000
_cell_angle_gamma   120.39271262
_symmetry_Int_Tables_number   1
_chemical_formula_structural   Tm3MgAl2Si2Rh
_chemical_formula_sum   'Tm3 Mg1 Al2 Si2 Rh1'
_cell_volume   174.87664096
_cell_formula_units_Z   1
loop_
 _symmetry_equiv_pos_site_id
 _symmetry_equiv_pos_as_xyz
  1  'x, y, z'
loop_
 _atom_site_type_symbol
 _atom_site_label
 _atom_site_symmetry_multiplicity
 _atom_site_fract_x
 _atom_site_fract_y
 _atom_site_fract_z
 _atom_site_occupancy
  Tm  Tm0  1  0.415575  0.000000  0.000000  1
  Tm  Tm1  1  0.998159  0.417398  0.000000  1
  Tm  Tm2  1  0.580761  0.582602  0.000000  1
  Mg  Mg3  1  0.762244  0.000000  0.500000  1
  Al  Al4  1  0.236772  0.236528  0.500000  1
  Al  Al5  1  0.000245  0.763473  0.500000  1
  Si  Si6  1  0.663701  0.340248  0.500000  1
  Si  Si7  1  0.323454  0.659752  0.500000  1
  Rh  Rh8  1  0.019089  0.000000  0.000000  1
