# generated using pymatgen
data_LaLu(BrO3)6
_symmetry_space_group_name_H-M   'P 1'
_cell_length_a   9.95023100
_cell_length_b   9.95022991
_cell_length_c   5.91783900
_cell_angle_alpha   90.00000000
_cell_angle_beta   90.00000000
_cell_angle_gamma   119.99998701
_symmetry_Int_Tables_number   1
_chemical_formula_structural   LaLu(BrO3)6
_chemical_formula_sum   'La1 Lu1 Br6 O18'
_cell_volume   507.41127455
_cell_formula_units_Z   1
loop_
 _symmetry_equiv_pos_site_id
 _symmetry_equiv_pos_as_xyz
  1  'x, y, z'
loop_
 _atom_site_type_symbol
 _atom_site_label
 _atom_site_symmetry_multiplicity
 _atom_site_fract_x
 _atom_site_fract_y
 _atom_site_fract_z
 _atom_site_occupancy
  La  La0  1  0.666667  0.333333  0.696943  1
  Lu  Lu1  1  0.333333  0.666667  0.198527  1
  Br  Br2  1  0.679952  0.008616  0.361196  1
  Br  Br3  1  0.302564  0.965732  0.876500  1
  Br  Br4  1  0.034268  0.336831  0.876500  1
  Br  Br5  1  0.328664  0.320048  0.361196  1
  Br  Br6  1  0.991384  0.671336  0.361196  1
  Br  Br7  1  0.663169  0.697436  0.876500  1
  O  O8  1  0.770853  0.833291  0.058309  1
  O  O9  1  0.963827  0.775182  0.550604  1
  O  O10  1  0.811355  0.036173  0.550604  1
  O  O11  1  0.166709  0.937562  0.058309  1
  O  O12  1  0.062438  0.229147  0.058309  1
  O  O13  1  0.224818  0.188645  0.550604  1
  O  O14  1  0.704797  0.552160  0.919802  1
  O  O15  1  0.176644  0.707331  0.412268  1
  O  O16  1  0.517821  0.400814  0.448298  1
  O  O17  1  0.134105  0.524477  0.973667  1
  O  O18  1  0.390373  0.865895  0.973667  1
  O  O19  1  0.599186  0.117007  0.448298  1
  O  O20  1  0.882993  0.482179  0.448298  1
  O  O21  1  0.475523  0.609627  0.973667  1
  O  O22  1  0.292669  0.469313  0.412268  1
  O  O23  1  0.847363  0.295203  0.919802  1
  O  O24  1  0.447840  0.152637  0.919802  1
  O  O25  1  0.530687  0.823356  0.412268  1
