# generated using pymatgen
data_DyNbReB6
_symmetry_space_group_name_H-M   'P 1'
_cell_length_a   3.55867000
_cell_length_b   8.95557100
_cell_length_c   11.32480400
_cell_angle_alpha   90.00000000
_cell_angle_beta   90.00000000
_cell_angle_gamma   90.00000000
_symmetry_Int_Tables_number   1
_chemical_formula_structural   DyNbReB6
_chemical_formula_sum   'Dy4 Nb4 Re4 B24'
_cell_volume   360.92061845
_cell_formula_units_Z   4
loop_
 _symmetry_equiv_pos_site_id
 _symmetry_equiv_pos_as_xyz
  1  'x, y, z'
loop_
 _atom_site_type_symbol
 _atom_site_label
 _atom_site_symmetry_multiplicity
 _atom_site_fract_x
 _atom_site_fract_y
 _atom_site_fract_z
 _atom_site_occupancy
  Dy  Dy0  1  0.000000  0.322246  0.413317  1
  Dy  Dy1  1  0.000000  0.677754  0.586683  1
  Dy  Dy2  1  0.000000  0.822246  0.086683  1
  Dy  Dy3  1  0.000000  0.177754  0.913317  1
  Nb  Nb4  1  0.000000  0.945280  0.374526  1
  Nb  Nb5  1  0.000000  0.054720  0.625474  1
  Nb  Nb6  1  0.000000  0.445280  0.125474  1
  Nb  Nb7  1  0.000000  0.554720  0.874526  1
  Re  Re8  1  0.000000  0.642792  0.317945  1
  Re  Re9  1  0.000000  0.357208  0.682055  1
  Re  Re10  1  0.000000  0.142792  0.182055  1
  Re  Re11  1  0.000000  0.857208  0.817945  1
  B  B12  1  0.500000  0.554277  0.433823  1
  B  B13  1  0.500000  0.445723  0.566177  1
  B  B14  1  0.500000  0.054277  0.066177  1
  B  B15  1  0.500000  0.945723  0.933823  1
  B  B16  1  0.500000  0.754122  0.418570  1
  B  B17  1  0.500000  0.245878  0.581430  1
  B  B18  1  0.500000  0.254122  0.081430  1
  B  B19  1  0.500000  0.745878  0.918570  1
  B  B20  1  0.500000  0.796735  0.263478  1
  B  B21  1  0.500000  0.203265  0.736522  1
  B  B22  1  0.500000  0.296735  0.236522  1
  B  B23  1  0.500000  0.703265  0.763478  1
  B  B24  1  0.500000  0.629150  0.181761  1
  B  B25  1  0.500000  0.370850  0.818239  1
  B  B26  1  0.500000  0.129150  0.318239  1
  B  B27  1  0.500000  0.870850  0.681761  1
  B  B28  1  0.500000  0.981081  0.213687  1
  B  B29  1  0.500000  0.018919  0.786313  1
  B  B30  1  0.500000  0.481081  0.286313  1
  B  B31  1  0.500000  0.518919  0.713687  1
  B  B32  1  0.500000  0.598937  0.026748  1
  B  B33  1  0.500000  0.401063  0.973252  1
  B  B34  1  0.500000  0.098937  0.473252  1
  B  B35  1  0.500000  0.901063  0.526748  1
