# generated using pymatgen
data_EuY2Zn11
_symmetry_space_group_name_H-M   'P 1'
_cell_length_a   8.22049209
_cell_length_b   8.22049238
_cell_length_c   8.22049139
_cell_angle_alpha   148.49224159
_cell_angle_beta   116.37698563
_cell_angle_gamma   72.73180253
_symmetry_Int_Tables_number   1
_chemical_formula_structural   EuY2Zn11
_chemical_formula_sum   'Eu1 Y2 Zn11'
_cell_volume   256.08024492
_cell_formula_units_Z   1
loop_
 _symmetry_equiv_pos_site_id
 _symmetry_equiv_pos_as_xyz
  1  'x, y, z'
loop_
 _atom_site_type_symbol
 _atom_site_label
 _atom_site_symmetry_multiplicity
 _atom_site_fract_x
 _atom_site_fract_y
 _atom_site_fract_z
 _atom_site_occupancy
  Eu  Eu0  1  0.000000  0.000000  0.000000  1
  Y  Y1  1  0.298224  0.298224  0.000000  1
  Y  Y2  1  0.701776  0.701776  0.000000  1
  Zn  Zn3  1  0.500000  0.000000  0.500000  1
  Zn  Zn4  1  0.680742  0.500000  0.180742  1
  Zn  Zn5  1  0.319258  0.500000  0.819258  1
  Zn  Zn6  1  0.693836  0.337442  0.356395  1
  Zn  Zn7  1  0.306164  0.662558  0.643605  1
  Zn  Zn8  1  0.981046  0.337442  0.643605  1
  Zn  Zn9  1  0.018954  0.662558  0.356395  1
  Zn  Zn10  1  0.425153  0.139431  0.285722  1
  Zn  Zn11  1  0.574847  0.860569  0.714278  1
  Zn  Zn12  1  0.853711  0.139431  0.714278  1
  Zn  Zn13  1  0.146289  0.860569  0.285722  1
