# generated using pymatgen
data_Lu2U(SnIr)3
_symmetry_space_group_name_H-M   'P 1'
_cell_length_a   7.38686489
_cell_length_b   7.52382784
_cell_length_c   3.92368700
_cell_angle_alpha   90.00000000
_cell_angle_beta   90.00000000
_cell_angle_gamma   120.61526115
_symmetry_Int_Tables_number   1
_chemical_formula_structural   Lu2U(SnIr)3
_chemical_formula_sum   'Lu2 U1 Sn3 Ir3'
_cell_volume   187.67133232
_cell_formula_units_Z   1
loop_
 _symmetry_equiv_pos_site_id
 _symmetry_equiv_pos_as_xyz
  1  'x, y, z'
loop_
 _atom_site_type_symbol
 _atom_site_label
 _atom_site_symmetry_multiplicity
 _atom_site_fract_x
 _atom_site_fract_y
 _atom_site_fract_z
 _atom_site_occupancy
  Lu  Lu0  1  0.594984  0.597040  0.500000  1
  Lu  Lu1  1  0.405016  0.002056  0.500000  1
  U  U2  1  0.000000  0.415043  0.500000  1
  Sn  Sn3  1  0.000000  0.754652  0.000000  1
  Sn  Sn4  1  0.272983  0.258344  0.000000  1
  Sn  Sn5  1  0.727017  0.985361  0.000000  1
  Ir  Ir6  1  0.304979  0.639796  0.000000  1
  Ir  Ir7  1  0.695021  0.334816  0.000000  1
  Ir  Ir8  1  0.000000  0.012892  0.500000  1
