# generated using pymatgen
data_SmEuMo(SeO4)3
_symmetry_space_group_name_H-M   'P 1'
_cell_length_a   6.69362983
_cell_length_b   7.25632021
_cell_length_c   11.06739498
_cell_angle_alpha   85.20667111
_cell_angle_beta   73.17599855
_cell_angle_gamma   86.30508128
_symmetry_Int_Tables_number   1
_chemical_formula_structural   SmEuMo(SeO4)3
_chemical_formula_sum   'Sm2 Eu2 Mo2 Se6 O24'
_cell_volume   512.29102710
_cell_formula_units_Z   2
loop_
 _symmetry_equiv_pos_site_id
 _symmetry_equiv_pos_as_xyz
  1  'x, y, z'
loop_
 _atom_site_type_symbol
 _atom_site_label
 _atom_site_symmetry_multiplicity
 _atom_site_fract_x
 _atom_site_fract_y
 _atom_site_fract_z
 _atom_site_occupancy
  Sm  Sm0  1  0.204527  0.179665  0.166038  1
  Sm  Sm1  1  0.795473  0.820335  0.833962  1
  Eu  Eu2  1  0.730556  0.639527  0.508253  1
  Eu  Eu3  1  0.269444  0.360473  0.491747  1
  Mo  Mo4  1  0.719787  0.893298  0.207491  1
  Mo  Mo5  1  0.280213  0.106702  0.792509  1
  Se  Se6  1  0.197025  0.661566  0.217134  1
  Se  Se7  1  0.802975  0.338434  0.782866  1
  Se  Se8  1  0.657326  0.359240  0.140180  1
  Se  Se9  1  0.342674  0.640760  0.859820  1
  Se  Se10  1  0.789239  0.138241  0.488042  1
  Se  Se11  1  0.210761  0.861759  0.511958  1
  O  O12  1  0.695133  0.673691  0.295403  1
  O  O13  1  0.304867  0.326309  0.704597  1
  O  O14  1  0.717935  0.963425  0.411470  1
  O  O15  1  0.282065  0.036575  0.588530  1
  O  O16  1  0.450727  0.971504  0.235032  1
  O  O17  1  0.549273  0.028496  0.764968  1
  O  O18  1  0.820216  0.169116  0.177951  1
  O  O19  1  0.179784  0.830884  0.822049  1
  O  O20  1  0.782221  0.835872  0.047815  1
  O  O21  1  0.217779  0.164128  0.952185  1
  O  O22  1  0.055154  0.870899  0.195066  1
  O  O23  1  0.944846  0.129101  0.804934  1
  O  O24  1  0.096321  0.499633  0.151653  1
  O  O25  1  0.903679  0.500367  0.848347  1
  O  O26  1  0.086274  0.609517  0.380875  1
  O  O27  1  0.913726  0.390483  0.619125  1
  O  O28  1  0.554260  0.268828  0.035541  1
  O  O29  1  0.445740  0.731172  0.964459  1
  O  O30  1  0.427760  0.348112  0.264997  1
  O  O31  1  0.572240  0.651888  0.735003  1
  O  O32  1  0.039261  0.187964  0.390984  1
  O  O33  1  0.960739  0.812036  0.609016  1
  O  O34  1  0.642646  0.333545  0.456950  1
  O  O35  1  0.357354  0.666455  0.543050  1
