# generated using pymatgen
data_YbDyTm8(In2Pt)4
_symmetry_space_group_name_H-M   'P 1'
_cell_length_a   3.62072700
_cell_length_b   8.07349059
_cell_length_c   18.11003557
_cell_angle_alpha   89.92808843
_cell_angle_beta   90.00000000
_cell_angle_gamma   90.00000000
_symmetry_Int_Tables_number   1
_chemical_formula_structural   YbDyTm8(In2Pt)4
_chemical_formula_sum   'Yb1 Dy1 Tm8 In8 Pt4'
_cell_volume   529.39042881
_cell_formula_units_Z   1
loop_
 _symmetry_equiv_pos_site_id
 _symmetry_equiv_pos_as_xyz
  1  'x, y, z'
loop_
 _atom_site_type_symbol
 _atom_site_label
 _atom_site_symmetry_multiplicity
 _atom_site_fract_x
 _atom_site_fract_y
 _atom_site_fract_z
 _atom_site_occupancy
  Yb  Yb0  1  0.000000  0.000000  0.000000  1
  Dy  Dy1  1  0.000000  0.500000  0.500000  1
  Tm  Tm2  1  0.000000  0.117475  0.413616  1
  Tm  Tm3  1  0.000000  0.882525  0.586384  1
  Tm  Tm4  1  0.000000  0.381796  0.914038  1
  Tm  Tm5  1  0.000000  0.618204  0.085962  1
  Tm  Tm6  1  0.000000  0.243556  0.220764  1
  Tm  Tm7  1  0.000000  0.756444  0.779236  1
  Tm  Tm8  1  0.000000  0.256602  0.721098  1
  Tm  Tm9  1  0.000000  0.743398  0.278902  1
  In  In10  1  0.500000  0.423849  0.351281  1
  In  In11  1  0.500000  0.576151  0.648719  1
  In  In12  1  0.500000  0.074636  0.851362  1
  In  In13  1  0.500000  0.925364  0.148638  1
  In  In14  1  0.500000  0.294388  0.067134  1
  In  In15  1  0.500000  0.705612  0.932866  1
  In  In16  1  0.500000  0.206324  0.566794  1
  In  In17  1  0.500000  0.793676  0.433206  1
  Pt  Pt18  1  0.500000  0.024487  0.304209  1
  Pt  Pt19  1  0.500000  0.975513  0.695791  1
  Pt  Pt20  1  0.500000  0.476986  0.803223  1
  Pt  Pt21  1  0.500000  0.523014  0.196777  1
