# generated using pymatgen
data_NdDyAl6Si4Pt
_symmetry_space_group_name_H-M   'P 1'
_cell_length_a   4.18641390
_cell_length_b   4.18599046
_cell_length_c   17.27530309
_cell_angle_alpha   96.75264186
_cell_angle_beta   83.25155895
_cell_angle_gamma   120.05309358
_symmetry_Int_Tables_number   1
_chemical_formula_structural   NdDyAl6Si4Pt
_chemical_formula_sum   'Nd1 Dy1 Al6 Si4 Pt1'
_cell_volume   259.61421762
_cell_formula_units_Z   1
loop_
 _symmetry_equiv_pos_site_id
 _symmetry_equiv_pos_as_xyz
  1  'x, y, z'
loop_
 _atom_site_type_symbol
 _atom_site_label
 _atom_site_symmetry_multiplicity
 _atom_site_fract_x
 _atom_site_fract_y
 _atom_site_fract_z
 _atom_site_occupancy
  Nd  Nd0  1  0.566045  0.433838  0.302522  1
  Dy  Dy1  1  0.433615  0.566436  0.698819  1
  Al  Al2  1  0.319238  0.680766  0.043663  1
  Al  Al3  1  0.949422  0.050576  0.146958  1
  Al  Al4  1  0.184478  0.815444  0.448904  1
  Al  Al5  1  0.812860  0.187206  0.559506  1
  Al  Al6  1  0.051958  0.948066  0.848155  1
  Al  Al7  1  0.682621  0.317422  0.951136  1
  Si  Si8  1  0.266649  0.733280  0.196817  1
  Si  Si9  1  0.863300  0.136726  0.411339  1
  Si  Si10  1  0.133810  0.866137  0.597650  1
  Si  Si11  1  0.735027  0.265040  0.797318  1
  Pt  Pt12  1  0.000973  0.999064  0.997213  1
