# generated using pymatgen
data_AlVCo20B6W
_symmetry_space_group_name_H-M   'P 1'
_cell_length_a   7.37983338
_cell_length_b   7.37983283
_cell_length_c   7.37983300
_cell_angle_alpha   59.99999476
_cell_angle_beta   59.99999721
_cell_angle_gamma   59.99999828
_symmetry_Int_Tables_number   1
_chemical_formula_structural   AlVCo20B6W
_chemical_formula_sum   'Al1 V1 Co20 B6 W1'
_cell_volume   284.20033462
_cell_formula_units_Z   1
loop_
 _symmetry_equiv_pos_site_id
 _symmetry_equiv_pos_as_xyz
  1  'x, y, z'
loop_
 _atom_site_type_symbol
 _atom_site_label
 _atom_site_symmetry_multiplicity
 _atom_site_fract_x
 _atom_site_fract_y
 _atom_site_fract_z
 _atom_site_occupancy
  Al  Al0  1  0.000000  0.000000  0.000000  1
  V  V1  1  0.750000  0.750000  0.750000  1
  Co  Co2  1  0.850836  0.383055  0.383055  1
  Co  Co3  1  0.383055  0.850836  0.383055  1
  Co  Co4  1  0.383055  0.383055  0.850836  1
  Co  Co5  1  0.383055  0.383055  0.383055  1
  Co  Co6  1  0.137709  0.620763  0.620763  1
  Co  Co7  1  0.620763  0.137709  0.620763  1
  Co  Co8  1  0.620763  0.620763  0.137709  1
  Co  Co9  1  0.620763  0.620763  0.620763  1
  Co  Co10  1  0.658186  0.000027  0.000027  1
  Co  Co11  1  0.658186  0.000027  0.341760  1
  Co  Co12  1  0.658186  0.341760  0.000027  1
  Co  Co13  1  0.000027  0.658186  0.341760  1
  Co  Co14  1  0.000027  0.658186  0.000027  1
  Co  Co15  1  0.341760  0.658186  0.000027  1
  Co  Co16  1  0.000027  0.341760  0.658186  1
  Co  Co17  1  0.341760  0.000027  0.658186  1
  Co  Co18  1  0.000027  0.000027  0.658186  1
  Co  Co19  1  0.341760  0.000027  0.000027  1
  Co  Co20  1  0.000027  0.341760  0.000027  1
  Co  Co21  1  0.000027  0.000027  0.341760  1
  B  B22  1  0.724441  0.275559  0.275559  1
  B  B23  1  0.724441  0.275559  0.724441  1
  B  B24  1  0.724441  0.724441  0.275559  1
  B  B25  1  0.275559  0.724441  0.724441  1
  B  B26  1  0.275559  0.724441  0.275559  1
  B  B27  1  0.275559  0.275559  0.724441  1
  W  W28  1  0.250000  0.250000  0.250000  1
