# generated using pymatgen
data_Ta2FeB3Mo
_symmetry_space_group_name_H-M   'P 1'
_cell_length_a   4.59761633
_cell_length_b   4.59761720
_cell_length_c   11.06755400
_cell_angle_alpha   90.00000000
_cell_angle_beta   90.00000000
_cell_angle_gamma   139.08363273
_symmetry_Int_Tables_number   1
_chemical_formula_structural   Ta2FeB3Mo
_chemical_formula_sum   'Ta4 Fe2 B6 Mo2'
_cell_volume   153.22505260
_cell_formula_units_Z   2
loop_
 _symmetry_equiv_pos_site_id
 _symmetry_equiv_pos_as_xyz
  1  'x, y, z'
loop_
 _atom_site_type_symbol
 _atom_site_label
 _atom_site_symmetry_multiplicity
 _atom_site_fract_x
 _atom_site_fract_y
 _atom_site_fract_z
 _atom_site_occupancy
  Ta  Ta0  1  0.794194  0.205806  0.605743  1
  Ta  Ta1  1  0.205806  0.794194  0.394257  1
  Ta  Ta2  1  0.205806  0.794194  0.105743  1
  Ta  Ta3  1  0.794194  0.205806  0.894257  1
  Fe  Fe4  1  0.500000  0.500000  0.000000  1
  Fe  Fe5  1  0.500000  0.500000  0.500000  1
  B  B6  1  0.794740  0.205260  0.250000  1
  B  B7  1  0.205260  0.794740  0.750000  1
  B  B8  1  0.088159  0.911841  0.607177  1
  B  B9  1  0.911841  0.088159  0.392823  1
  B  B10  1  0.911841  0.088159  0.107177  1
  B  B11  1  0.088159  0.911841  0.892823  1
  Mo  Mo12  1  0.497280  0.502720  0.250000  1
  Mo  Mo13  1  0.502720  0.497280  0.750000  1
