# generated using pymatgen
data_Lu3Mg(B4Ru5)2
_symmetry_space_group_name_H-M   'P 1'
_cell_length_a   3.03116300
_cell_length_b   8.61909505
_cell_length_c   10.14426333
_cell_angle_alpha   90.66752270
_cell_angle_beta   90.00000000
_cell_angle_gamma   90.00000000
_symmetry_Int_Tables_number   1
_chemical_formula_structural   Lu3Mg(B4Ru5)2
_chemical_formula_sum   'Lu3 Mg1 B8 Ru10'
_cell_volume   265.00984057
_cell_formula_units_Z   1
loop_
 _symmetry_equiv_pos_site_id
 _symmetry_equiv_pos_as_xyz
  1  'x, y, z'
loop_
 _atom_site_type_symbol
 _atom_site_label
 _atom_site_symmetry_multiplicity
 _atom_site_fract_x
 _atom_site_fract_y
 _atom_site_fract_z
 _atom_site_occupancy
  Lu  Lu0  1  0.500000  0.659365  0.821154  1
  Lu  Lu1  1  0.500000  0.344120  0.186868  1
  Lu  Lu2  1  0.500000  0.156651  0.676102  1
  Mg  Mg3  1  0.500000  0.846732  0.312813  1
  B  B4  1  0.500000  0.850403  0.597977  1
  B  B5  1  0.500000  0.140406  0.397584  1
  B  B6  1  0.500000  0.353185  0.901303  1
  B  B7  1  0.500000  0.651240  0.106335  1
  B  B8  1  0.500000  0.966412  0.910214  1
  B  B9  1  0.500000  0.034699  0.087965  1
  B  B10  1  0.500000  0.465119  0.589123  1
  B  B11  1  0.500000  0.536937  0.412112  1
  Ru  Ru12  1  0.000000  0.405003  0.740163  1
  Ru  Ru13  1  0.000000  0.605957  0.265578  1
  Ru  Ru14  1  0.000000  0.905674  0.759406  1
  Ru  Ru15  1  0.000000  0.090964  0.237605  1
  Ru  Ru16  1  0.000000  0.990567  0.494531  1
  Ru  Ru17  1  0.000000  0.501170  0.003093  1
  Ru  Ru18  1  0.000000  0.654360  0.549408  1
  Ru  Ru19  1  0.000000  0.338471  0.453726  1
  Ru  Ru20  1  0.000000  0.160132  0.953021  1
  Ru  Ru21  1  0.000000  0.842437  0.043920  1
