# generated using pymatgen
data_ErLu2GaSn3Rh2
_symmetry_space_group_name_H-M   'P 1'
_cell_length_a   7.40078320
_cell_length_b   7.42211751
_cell_length_c   4.02091000
_cell_angle_alpha   90.00000000
_cell_angle_beta   90.00000000
_cell_angle_gamma   120.13683789
_symmetry_Int_Tables_number   1
_chemical_formula_structural   ErLu2GaSn3Rh2
_chemical_formula_sum   'Er1 Lu2 Ga1 Sn3 Rh2'
_cell_volume   191.01171494
_cell_formula_units_Z   1
loop_
 _symmetry_equiv_pos_site_id
 _symmetry_equiv_pos_as_xyz
  1  'x, y, z'
loop_
 _atom_site_type_symbol
 _atom_site_label
 _atom_site_symmetry_multiplicity
 _atom_site_fract_x
 _atom_site_fract_y
 _atom_site_fract_z
 _atom_site_occupancy
  Er  Er0  1  0.396978  0.410500  0.500000  1
  Lu  Lu1  1  0.589709  0.984802  0.500000  1
  Lu  Lu2  1  0.015660  0.605188  0.500000  1
  Ga  Ga3  1  0.667521  0.333091  0.000000  1
  Sn  Sn4  1  0.742255  0.745804  0.000000  1
  Sn  Sn5  1  0.254633  0.996065  0.000000  1
  Sn  Sn6  1  0.002547  0.257791  0.000000  1
  Rh  Rh7  1  0.332501  0.668368  0.000000  1
  Rh  Rh8  1  0.998196  0.998391  0.500000  1
