# generated using pymatgen
data_Pr4Tm4Tc(B8Ru)3
_symmetry_space_group_name_H-M   'P 1'
_cell_length_a   3.71510700
_cell_length_b   9.20761335
_cell_length_c   11.65783200
_cell_angle_alpha   89.91063146
_cell_angle_beta   90.00000000
_cell_angle_gamma   90.00000000
_symmetry_Int_Tables_number   1
_chemical_formula_structural   Pr4Tm4Tc(B8Ru)3
_chemical_formula_sum   'Pr4 Tm4 Tc1 B24 Ru3'
_cell_volume   398.78210773
_cell_formula_units_Z   1
loop_
 _symmetry_equiv_pos_site_id
 _symmetry_equiv_pos_as_xyz
  1  'x, y, z'
loop_
 _atom_site_type_symbol
 _atom_site_label
 _atom_site_symmetry_multiplicity
 _atom_site_fract_x
 _atom_site_fract_y
 _atom_site_fract_z
 _atom_site_occupancy
  Pr  Pr0  1  0.000000  0.323784  0.413784  1
  Pr  Pr1  1  0.000000  0.677155  0.583573  1
  Pr  Pr2  1  0.000000  0.821392  0.086712  1
  Pr  Pr3  1  0.000000  0.176595  0.915575  1
  Tm  Tm4  1  0.000000  0.943382  0.371717  1
  Tm  Tm5  1  0.000000  0.056863  0.628895  1
  Tm  Tm6  1  0.000000  0.444856  0.128975  1
  Tm  Tm7  1  0.000000  0.556354  0.870534  1
  Tc  Tc8  1  0.000000  0.640042  0.318549  1
  B  B9  1  0.500000  0.555987  0.429398  1
  B  B10  1  0.500000  0.443161  0.570811  1
  B  B11  1  0.500000  0.057045  0.070780  1
  B  B12  1  0.500000  0.942650  0.929641  1
  B  B13  1  0.500000  0.750655  0.416046  1
  B  B14  1  0.500000  0.249372  0.583966  1
  B  B15  1  0.500000  0.250520  0.083573  1
  B  B16  1  0.500000  0.749263  0.916256  1
  B  B17  1  0.500000  0.791272  0.266480  1
  B  B18  1  0.500000  0.209320  0.733740  1
  B  B19  1  0.500000  0.290891  0.232939  1
  B  B20  1  0.500000  0.709707  0.766229  1
  B  B21  1  0.500000  0.629856  0.185525  1
  B  B22  1  0.500000  0.369907  0.815084  1
  B  B23  1  0.500000  0.129855  0.314494  1
  B  B24  1  0.500000  0.870618  0.685043  1
  B  B25  1  0.500000  0.985567  0.214444  1
  B  B26  1  0.500000  0.014248  0.786156  1
  B  B27  1  0.500000  0.484674  0.285551  1
  B  B28  1  0.500000  0.514156  0.714289  1
  B  B29  1  0.500000  0.599750  0.026297  1
  B  B30  1  0.500000  0.399956  0.972385  1
  B  B31  1  0.500000  0.100531  0.473243  1
  B  B32  1  0.500000  0.900904  0.527668  1
  Ru  Ru33  1  0.000000  0.359703  0.682110  1
  Ru  Ru34  1  0.000000  0.140324  0.181216  1
  Ru  Ru35  1  0.000000  0.859685  0.818321  1
