# generated using pymatgen
data_Tb3UFeCo3B16
_symmetry_space_group_name_H-M   'P 1'
_cell_length_a   3.39321000
_cell_length_b   5.89870694
_cell_length_c   11.42171609
_cell_angle_alpha   89.96053407
_cell_angle_beta   90.00000000
_cell_angle_gamma   90.00000000
_symmetry_Int_Tables_number   1
_chemical_formula_structural   Tb3UFeCo3B16
_chemical_formula_sum   'Tb3 U1 Fe1 Co3 B16'
_cell_volume   228.61189107
_cell_formula_units_Z   1
loop_
 _symmetry_equiv_pos_site_id
 _symmetry_equiv_pos_as_xyz
  1  'x, y, z'
loop_
 _atom_site_type_symbol
 _atom_site_label
 _atom_site_symmetry_multiplicity
 _atom_site_fract_x
 _atom_site_fract_y
 _atom_site_fract_z
 _atom_site_occupancy
  Tb  Tb0  1  0.000000  0.627556  0.349649  1
  Tb  Tb1  1  0.000000  0.372262  0.649296  1
  Tb  Tb2  1  0.000000  0.127506  0.150590  1
  U  U3  1  0.000000  0.872289  0.850877  1
  Fe  Fe4  1  0.000000  0.635115  0.085775  1
  Co  Co5  1  0.000000  0.363127  0.909111  1
  Co  Co6  1  0.000000  0.133611  0.411478  1
  Co  Co7  1  0.000000  0.865396  0.591534  1
  B  B8  1  0.500000  0.782127  0.184077  1
  B  B9  1  0.500000  0.216554  0.815264  1
  B  B10  1  0.500000  0.282112  0.315672  1
  B  B11  1  0.500000  0.718576  0.686308  1
  B  B12  1  0.500000  0.861290  0.032973  1
  B  B13  1  0.500000  0.137129  0.966253  1
  B  B14  1  0.500000  0.360801  0.467501  1
  B  B15  1  0.500000  0.639955  0.532960  1
  B  B16  1  0.500000  0.888963  0.454286  1
  B  B17  1  0.500000  0.111516  0.545822  1
  B  B18  1  0.500000  0.390032  0.045925  1
  B  B19  1  0.500000  0.613751  0.954310  1
  B  B20  1  0.500000  0.977231  0.309933  1
  B  B21  1  0.500000  0.022663  0.691484  1
  B  B22  1  0.500000  0.476339  0.189647  1
  B  B23  1  0.500000  0.524098  0.809274  1
