# generated using pymatgen
data_Eu8TmPt6
_symmetry_space_group_name_H-M   'P 1'
_cell_length_a   7.82294599
_cell_length_b   7.82294571
_cell_length_c   7.82294559
_cell_angle_alpha   70.30061797
_cell_angle_beta   70.30062090
_cell_angle_gamma   70.30061226
_symmetry_Int_Tables_number   1
_chemical_formula_structural   Eu8TmPt6
_chemical_formula_sum   'Eu8 Tm1 Pt6'
_cell_volume   410.64688690
_cell_formula_units_Z   1
loop_
 _symmetry_equiv_pos_site_id
 _symmetry_equiv_pos_as_xyz
  1  'x, y, z'
loop_
 _atom_site_type_symbol
 _atom_site_label
 _atom_site_symmetry_multiplicity
 _atom_site_fract_x
 _atom_site_fract_y
 _atom_site_fract_z
 _atom_site_occupancy
  Eu  Eu0  1  0.151547  0.400889  0.670348  1
  Eu  Eu1  1  0.670348  0.151547  0.400889  1
  Eu  Eu2  1  0.400888  0.670348  0.151548  1
  Eu  Eu3  1  0.848452  0.599111  0.329652  1
  Eu  Eu4  1  0.329651  0.848453  0.599111  1
  Eu  Eu5  1  0.599111  0.329652  0.848452  1
  Eu  Eu6  1  0.198061  0.198061  0.198062  1
  Eu  Eu7  1  0.801938  0.801938  0.801938  1
  Tm  Tm8  1  0.000000  0.000000  0.000000  1
  Pt  Pt9  1  0.393808  0.043008  0.842346  1
  Pt  Pt10  1  0.842346  0.393808  0.043009  1
  Pt  Pt11  1  0.043009  0.842346  0.393808  1
  Pt  Pt12  1  0.606192  0.956992  0.157654  1
  Pt  Pt13  1  0.157654  0.606193  0.956991  1
  Pt  Pt14  1  0.956991  0.157654  0.606192  1
