# generated using pymatgen
data_Nb6Co15Si7Os
_symmetry_space_group_name_H-M   'P 1'
_cell_length_a   7.96877523
_cell_length_b   7.96827280
_cell_length_c   7.97041404
_cell_angle_alpha   59.72459629
_cell_angle_beta   59.72401587
_cell_angle_gamma   59.73261839
_symmetry_Int_Tables_number   1
_chemical_formula_structural   Nb6Co15Si7Os
_chemical_formula_sum   'Nb6 Co15 Si7 Os1'
_cell_volume   355.64879958
_cell_formula_units_Z   1
loop_
 _symmetry_equiv_pos_site_id
 _symmetry_equiv_pos_as_xyz
  1  'x, y, z'
loop_
 _atom_site_type_symbol
 _atom_site_label
 _atom_site_symmetry_multiplicity
 _atom_site_fract_x
 _atom_site_fract_y
 _atom_site_fract_z
 _atom_site_occupancy
  Nb  Nb0  1  0.201209  0.796915  0.796839  1
  Nb  Nb1  1  0.201276  0.800136  0.201244  1
  Nb  Nb2  1  0.800132  0.201259  0.201238  1
  Nb  Nb3  1  0.796919  0.201187  0.796871  1
  Nb  Nb4  1  0.796829  0.796857  0.201226  1
  Nb  Nb5  1  0.201227  0.201216  0.800131  1
  Co  Co6  1  0.499622  0.833878  0.833843  1
  Co  Co7  1  0.621533  0.621549  0.142795  1
  Co  Co8  1  0.163623  0.163612  0.503189  1
  Co  Co9  1  0.833855  0.833874  0.499596  1
  Co  Co10  1  0.168070  0.168072  0.168065  1
  Co  Co11  1  0.833640  0.833648  0.833663  1
  Co  Co12  1  0.380599  0.380587  0.857348  1
  Co  Co13  1  0.833865  0.499635  0.833847  1
  Co  Co14  1  0.619907  0.619916  0.619904  1
  Co  Co15  1  0.380598  0.857330  0.380589  1
  Co  Co16  1  0.142741  0.621574  0.621548  1
  Co  Co17  1  0.621565  0.142740  0.621557  1
  Co  Co18  1  0.163579  0.503261  0.163609  1
  Co  Co19  1  0.857333  0.380592  0.380595  1
  Co  Co20  1  0.503233  0.163581  0.163622  1
  Si  Si21  1  0.999427  0.999366  0.498393  1
  Si  Si22  1  0.501060  0.992819  0.501188  1
  Si  Si23  1  0.504749  0.504824  0.504547  1
  Si  Si24  1  0.999232  0.498397  0.999377  1
  Si  Si25  1  0.501243  0.501186  0.992809  1
  Si  Si26  1  0.498402  0.999224  0.999425  1
  Si  Si27  1  0.992822  0.501057  0.501240  1
  Os  Os28  1  0.381707  0.381703  0.381696  1
