# generated using pymatgen
data_Tm5Lu5(Si3O)2
_symmetry_space_group_name_H-M   'P 1'
_cell_length_a   8.23306800
_cell_length_b   8.23228559
_cell_length_c   6.05774100
_cell_angle_alpha   90.00000000
_cell_angle_beta   90.00000000
_cell_angle_gamma   120.00315203
_symmetry_Int_Tables_number   1
_chemical_formula_structural   Tm5Lu5(Si3O)2
_chemical_formula_sum   'Tm5 Lu5 Si6 O2'
_cell_volume   355.55735651
_cell_formula_units_Z   1
loop_
 _symmetry_equiv_pos_site_id
 _symmetry_equiv_pos_as_xyz
  1  'x, y, z'
loop_
 _atom_site_type_symbol
 _atom_site_label
 _atom_site_symmetry_multiplicity
 _atom_site_fract_x
 _atom_site_fract_y
 _atom_site_fract_z
 _atom_site_occupancy
  Tm  Tm0  1  0.767505  0.767476  0.250000  1
  Tm  Tm1  1  0.767428  0.000000  0.750000  1
  Tm  Tm2  1  0.000029  0.232524  0.250000  1
  Tm  Tm3  1  0.000138  0.767541  0.750000  1
  Tm  Tm4  1  0.232596  0.232459  0.750000  1
  Lu  Lu5  1  0.232122  0.000000  0.250000  1
  Lu  Lu6  1  0.666527  0.333237  0.000022  1
  Lu  Lu7  1  0.333289  0.666763  0.499978  1
  Lu  Lu8  1  0.333289  0.666763  0.000022  1
  Lu  Lu9  1  0.666527  0.333237  0.499978  1
  Si  Si10  1  0.398689  0.000000  0.750000  1
  Si  Si11  1  0.398489  0.398198  0.250000  1
  Si  Si12  1  0.000291  0.601802  0.250000  1
  Si  Si13  1  0.999990  0.398735  0.750000  1
  Si  Si14  1  0.601255  0.601265  0.750000  1
  Si  Si15  1  0.601033  0.000000  0.250000  1
  O  O16  1  0.000401  0.000000  0.499491  1
  O  O17  1  0.000401  0.000000  0.000509  1
