# generated using pymatgen
data_La2Th(InPt)3
_symmetry_space_group_name_H-M   'P 1'
_cell_length_a   7.80042151
_cell_length_b   7.80042095
_cell_length_c   4.10322000
_cell_angle_alpha   90.00000000
_cell_angle_beta   90.00000000
_cell_angle_gamma   119.73090154
_symmetry_Int_Tables_number   1
_chemical_formula_structural   La2Th(InPt)3
_chemical_formula_sum   'La2 Th1 In3 Pt3'
_cell_volume   216.80176320
_cell_formula_units_Z   1
loop_
 _symmetry_equiv_pos_site_id
 _symmetry_equiv_pos_as_xyz
  1  'x, y, z'
loop_
 _atom_site_type_symbol
 _atom_site_label
 _atom_site_symmetry_multiplicity
 _atom_site_fract_x
 _atom_site_fract_y
 _atom_site_fract_z
 _atom_site_occupancy
  La  La0  1  0.000509  0.589478  0.500000  1
  La  La1  1  0.589478  0.000509  0.500000  1
  Th  Th2  1  0.412338  0.412338  0.500000  1
  In  In3  1  0.754710  0.754710  0.000000  1
  In  In4  1  0.250135  0.995575  0.000000  1
  In  In5  1  0.995575  0.250135  0.000000  1
  Pt  Pt6  1  0.651065  0.335674  0.000000  1
  Pt  Pt7  1  0.335674  0.651065  0.000000  1
  Pt  Pt8  1  0.010516  0.010516  0.500000  1
