# generated using pymatgen
data_La3GdB24
_symmetry_space_group_name_H-M   'P 1'
_cell_length_a   7.19354387
_cell_length_b   7.19357766
_cell_length_c   5.82159600
_cell_angle_alpha   89.99961367
_cell_angle_beta   90.00005324
_cell_angle_gamma   109.79150989
_symmetry_Int_Tables_number   1
_chemical_formula_structural   La3GdB24
_chemical_formula_sum   'La3 Gd1 B24'
_cell_volume   283.45730390
_cell_formula_units_Z   1
loop_
 _symmetry_equiv_pos_site_id
 _symmetry_equiv_pos_as_xyz
  1  'x, y, z'
loop_
 _atom_site_type_symbol
 _atom_site_label
 _atom_site_symmetry_multiplicity
 _atom_site_fract_x
 _atom_site_fract_y
 _atom_site_fract_z
 _atom_site_occupancy
  La  La0  1  0.749928  0.250150  0.499999  1
  La  La1  1  0.500000  0.500000  0.000000  1
  La  La2  1  0.250072  0.749850  0.500001  1
  Gd  Gd3  1  0.000000  0.000000  0.000000  1
  B  B4  1  0.174577  0.323951  0.651312  1
  B  B5  1  0.925748  0.575260  0.151156  1
  B  B6  1  0.676048  0.825421  0.651290  1
  B  B7  1  0.424750  0.074242  0.151145  1
  B  B8  1  0.174575  0.323956  0.348675  1
  B  B9  1  0.925744  0.575268  0.848836  1
  B  B10  1  0.676042  0.825427  0.348689  1
  B  B11  1  0.424736  0.074251  0.848842  1
  B  B12  1  0.399848  0.399839  0.499998  1
  B  B13  1  0.150403  0.649916  0.000000  1
  B  B14  1  0.900761  0.900769  0.500000  1
  B  B15  1  0.649918  0.150404  0.999996  1
  B  B16  1  0.323958  0.174573  0.651311  1
  B  B17  1  0.074256  0.424732  0.151164  1
  B  B18  1  0.825425  0.676044  0.651325  1
  B  B19  1  0.575264  0.925749  0.151158  1
  B  B20  1  0.099239  0.099231  0.500000  1
  B  B21  1  0.849597  0.350084  0.000000  1
  B  B22  1  0.600152  0.600161  0.500002  1
  B  B23  1  0.350082  0.849596  0.000004  1
  B  B24  1  0.323952  0.174579  0.348710  1
  B  B25  1  0.074252  0.424740  0.848844  1
  B  B26  1  0.825423  0.676049  0.348688  1
  B  B27  1  0.575250  0.925758  0.848855  1
