# generated using pymatgen
data_Sr7CaTa3SbO18
_symmetry_space_group_name_H-M   'P 1'
_cell_length_a   5.93337538
_cell_length_b   5.93305330
_cell_length_c   15.43964111
_cell_angle_alpha   89.98081123
_cell_angle_beta   89.98321973
_cell_angle_gamma   60.00708670
_symmetry_Int_Tables_number   1
_chemical_formula_structural   Sr7CaTa3SbO18
_chemical_formula_sum   'Sr7 Ca1 Ta3 Sb1 O18'
_cell_volume   470.73759852
_cell_formula_units_Z   1
loop_
 _symmetry_equiv_pos_site_id
 _symmetry_equiv_pos_as_xyz
  1  'x, y, z'
loop_
 _atom_site_type_symbol
 _atom_site_label
 _atom_site_symmetry_multiplicity
 _atom_site_fract_x
 _atom_site_fract_y
 _atom_site_fract_z
 _atom_site_occupancy
  Sr  Sr0  1  0.999882  0.000144  0.244246  1
  Sr  Sr1  1  0.999947  0.000107  0.499829  1
  Sr  Sr2  1  0.666616  0.667306  0.353273  1
  Sr  Sr3  1  0.666979  0.665280  0.114776  1
  Sr  Sr4  1  0.332999  0.334817  0.895725  1
  Sr  Sr5  1  0.333220  0.333041  0.650200  1
  Sr  Sr6  1  0.999867  0.000582  0.772110  1
  Ca  Ca7  1  0.000027  0.999924  0.000856  1
  Ta  Ta8  1  0.666873  0.666270  0.654534  1
  Ta  Ta9  1  0.333064  0.333912  0.340528  1
  Ta  Ta10  1  0.333900  0.332239  0.146813  1
  Sb  Sb11  1  0.666227  0.667559  0.848241  1
  O  O12  1  0.593184  0.957496  0.757327  1
  O  O13  1  0.925280  0.717074  0.601946  1
  O  O14  1  0.910710  0.746977  0.908077  1
  O  O15  1  0.356493  0.924598  0.602429  1
  O  O16  1  0.342740  0.912780  0.908170  1
  O  O17  1  0.957293  0.449754  0.757719  1
  O  O18  1  0.449130  0.593000  0.757925  1
  O  O19  1  0.263148  0.646235  0.089057  1
  O  O20  1  0.269509  0.651017  0.392507  1
  O  O21  1  0.718591  0.355401  0.602860  1
  O  O22  1  0.745106  0.345000  0.908958  1
  O  O23  1  0.552320  0.408095  0.241342  1
  O  O24  1  0.040109  0.552302  0.241562  1
  O  O25  1  0.649494  0.087186  0.090249  1
  O  O26  1  0.649986  0.081155  0.392820  1
  O  O27  1  0.089227  0.260152  0.090671  1
  O  O28  1  0.080152  0.270934  0.393221  1
  O  O29  1  0.407926  0.039663  0.242030  1
