# generated using pymatgen
data_Ca4AlInPd4
_symmetry_space_group_name_H-M   'P 1'
_cell_length_a   5.81242096
_cell_length_b   5.81242101
_cell_length_c   8.04976457
_cell_angle_alpha   78.00754642
_cell_angle_beta   78.00754745
_cell_angle_gamma   59.85097149
_symmetry_Int_Tables_number   1
_chemical_formula_structural   Ca4AlInPd4
_chemical_formula_sum   'Ca4 Al1 In1 Pd4'
_cell_volume   228.30707839
_cell_formula_units_Z   1
loop_
 _symmetry_equiv_pos_site_id
 _symmetry_equiv_pos_as_xyz
  1  'x, y, z'
loop_
 _atom_site_type_symbol
 _atom_site_label
 _atom_site_symmetry_multiplicity
 _atom_site_fract_x
 _atom_site_fract_y
 _atom_site_fract_z
 _atom_site_occupancy
  Ca  Ca0  1  0.510744  0.787275  0.350775  1
  Ca  Ca1  1  0.212725  0.489256  0.149225  1
  Ca  Ca2  1  0.490422  0.210180  0.648978  1
  Ca  Ca3  1  0.789820  0.509578  0.851022  1
  Al  Al4  1  0.873976  0.126024  0.250000  1
  In  In5  1  0.149818  0.850182  0.750000  1
  Pd  Pd6  1  0.733479  0.012872  0.015156  1
  Pd  Pd7  1  0.987128  0.266521  0.484844  1
  Pd  Pd8  1  0.259784  0.007895  0.010082  1
  Pd  Pd9  1  0.992105  0.740216  0.489918  1
