# generated using pymatgen
data_Dy3YHf3O12
_symmetry_space_group_name_H-M   'P 1'
_cell_length_a   6.32206590
_cell_length_b   6.37642672
_cell_length_c   6.58128729
_cell_angle_alpha   99.92835178
_cell_angle_beta   98.13772043
_cell_angle_gamma   99.80823097
_symmetry_Int_Tables_number   1
_chemical_formula_structural   Dy3YHf3O12
_chemical_formula_sum   'Dy3 Y1 Hf3 O12'
_cell_volume   253.48892401
_cell_formula_units_Z   1
loop_
 _symmetry_equiv_pos_site_id
 _symmetry_equiv_pos_as_xyz
  1  'x, y, z'
loop_
 _atom_site_type_symbol
 _atom_site_label
 _atom_site_symmetry_multiplicity
 _atom_site_fract_x
 _atom_site_fract_y
 _atom_site_fract_z
 _atom_site_occupancy
  Dy  Dy0  1  0.696898  0.865226  0.389357  1
  Dy  Dy1  1  0.385045  0.699535  0.866311  1
  Dy  Dy2  1  0.302867  0.134831  0.610463  1
  Y  Y3  1  0.614457  0.300579  0.133364  1
  Hf  Hf4  1  0.999883  0.999822  0.999942  1
  Hf  Hf5  1  0.848668  0.397964  0.667817  1
  Hf  Hf6  1  0.151568  0.602364  0.332434  1
  O  O7  1  0.587384  0.416935  0.819119  1
  O  O8  1  0.831092  0.571403  0.427230  1
  O  O9  1  0.408110  0.809667  0.563683  1
  O  O10  1  0.412284  0.583912  0.180674  1
  O  O11  1  0.169158  0.429122  0.573306  1
  O  O12  1  0.591919  0.190349  0.436574  1
  O  O13  1  0.018725  0.679160  0.878659  1
  O  O14  1  0.920541  0.089804  0.699922  1
  O  O15  1  0.686749  0.933096  0.058393  1
  O  O16  1  0.982181  0.320502  0.121857  1
  O  O17  1  0.079439  0.910426  0.300206  1
  O  O18  1  0.313032  0.065299  0.940690  1
