# generated using pymatgen
data_Nd12Ga8Ir3Rh5
_symmetry_space_group_name_H-M   'P 1'
_cell_length_a   5.73001431
_cell_length_b   8.18393537
_cell_length_c   13.65963166
_cell_angle_alpha   90.04956159
_cell_angle_beta   89.97235174
_cell_angle_gamma   90.12072818
_symmetry_Int_Tables_number   1
_chemical_formula_structural   Nd12Ga8Ir3Rh5
_chemical_formula_sum   'Nd12 Ga8 Ir3 Rh5'
_cell_volume   640.55394338
_cell_formula_units_Z   1
loop_
 _symmetry_equiv_pos_site_id
 _symmetry_equiv_pos_as_xyz
  1  'x, y, z'
loop_
 _atom_site_type_symbol
 _atom_site_label
 _atom_site_symmetry_multiplicity
 _atom_site_fract_x
 _atom_site_fract_y
 _atom_site_fract_z
 _atom_site_occupancy
  Nd  Nd0  1  0.631549  0.256700  0.249457  1
  Nd  Nd1  1  0.368931  0.743899  0.749945  1
  Nd  Nd2  1  0.366761  0.758760  0.249256  1
  Nd  Nd3  1  0.632018  0.240655  0.749947  1
  Nd  Nd4  1  0.148979  0.395763  0.097585  1
  Nd  Nd5  1  0.851082  0.604158  0.902073  1
  Nd  Nd6  1  0.851896  0.604261  0.597652  1
  Nd  Nd7  1  0.852848  0.897723  0.401704  1
  Nd  Nd8  1  0.148007  0.397720  0.402325  1
  Nd  Nd9  1  0.146056  0.100899  0.598092  1
  Nd  Nd10  1  0.145616  0.101371  0.901070  1
  Nd  Nd11  1  0.855046  0.898455  0.098765  1
  Ga  Ga12  1  0.134664  0.109059  0.250553  1
  Ga  Ga13  1  0.865549  0.891940  0.749907  1
  Ga  Ga14  1  0.863969  0.607366  0.249995  1
  Ga  Ga15  1  0.135646  0.392741  0.749905  1
  Ga  Ga16  1  0.629257  0.250354  0.999300  1
  Ga  Ga17  1  0.370821  0.749859  0.000359  1
  Ga  Ga18  1  0.369201  0.749612  0.500164  1
  Ga  Ga19  1  0.630989  0.249947  0.500754  1
  Ir  Ir20  1  0.358046  0.033447  0.092723  1
  Ir  Ir21  1  0.642147  0.966516  0.907882  1
  Ir  Ir22  1  0.642037  0.966544  0.592268  1
  Rh  Rh23  1  0.641715  0.531994  0.408124  1
  Rh  Rh24  1  0.358830  0.033328  0.408329  1
  Rh  Rh25  1  0.358204  0.466965  0.591633  1
  Rh  Rh26  1  0.357597  0.468159  0.908278  1
  Rh  Rh27  1  0.642539  0.531806  0.091955  1
