# generated using pymatgen
data_La9Ho(TcBi2)2
_symmetry_space_group_name_H-M   'P 1'
_cell_length_a   8.59376153
_cell_length_b   9.24273500
_cell_length_c   12.92302200
_cell_angle_alpha   90.00000000
_cell_angle_beta   89.58952758
_cell_angle_gamma   90.00000000
_symmetry_Int_Tables_number   1
_chemical_formula_structural   La9Ho(TcBi2)2
_chemical_formula_sum   'La18 Ho2 Tc4 Bi8'
_cell_volume   1026.44749337
_cell_formula_units_Z   2
loop_
 _symmetry_equiv_pos_site_id
 _symmetry_equiv_pos_as_xyz
  1  'x, y, z'
loop_
 _atom_site_type_symbol
 _atom_site_label
 _atom_site_symmetry_multiplicity
 _atom_site_fract_x
 _atom_site_fract_y
 _atom_site_fract_z
 _atom_site_occupancy
  La  La0  1  0.842299  0.750000  0.801990  1
  La  La1  1  0.157701  0.250000  0.198010  1
  La  La2  1  0.344642  0.250000  0.708645  1
  La  La3  1  0.655358  0.750000  0.291355  1
  La  La4  1  0.375948  0.750000  0.700543  1
  La  La5  1  0.624052  0.250000  0.299457  1
  La  La6  1  0.875450  0.250000  0.805993  1
  La  La7  1  0.124550  0.750000  0.194007  1
  La  La8  1  0.952133  0.750000  0.503145  1
  La  La9  1  0.047867  0.250000  0.496855  1
  La  La10  1  0.675548  0.029613  0.563267  1
  La  La11  1  0.324452  0.970387  0.436733  1
  La  La12  1  0.180923  0.968525  0.937509  1
  La  La13  1  0.324452  0.529613  0.436733  1
  La  La14  1  0.819077  0.031475  0.062491  1
  La  La15  1  0.675548  0.470387  0.563267  1
  La  La16  1  0.819077  0.468525  0.062491  1
  La  La17  1  0.180923  0.531475  0.937509  1
  Ho  Ho18  1  0.454044  0.250000  0.997455  1
  Ho  Ho19  1  0.545956  0.750000  0.002545  1
  Tc  Tc20  1  0.584929  0.750000  0.519613  1
  Tc  Tc21  1  0.415071  0.250000  0.480387  1
  Tc  Tc22  1  0.093740  0.250000  0.980509  1
  Tc  Tc23  1  0.906260  0.750000  0.019491  1
  Bi  Bi24  1  0.570248  0.492327  0.834995  1
  Bi  Bi25  1  0.429752  0.507673  0.165005  1
  Bi  Bi26  1  0.073316  0.506697  0.674771  1
  Bi  Bi27  1  0.429752  0.992327  0.165005  1
  Bi  Bi28  1  0.926684  0.493303  0.325229  1
  Bi  Bi29  1  0.570248  0.007673  0.834995  1
  Bi  Bi30  1  0.926684  0.006697  0.325229  1
  Bi  Bi31  1  0.073316  0.993303  0.674771  1
