# generated using pymatgen
data_LuPa3(InPt2)2
_symmetry_space_group_name_H-M   'P 1'
_cell_length_a   7.82409414
_cell_length_b   7.82409446
_cell_length_c   3.63781700
_cell_angle_alpha   90.00000000
_cell_angle_beta   90.00000000
_cell_angle_gamma   90.50867592
_symmetry_Int_Tables_number   1
_chemical_formula_structural   LuPa3(InPt2)2
_chemical_formula_sum   'Lu1 Pa3 In2 Pt4'
_cell_volume   222.68547195
_cell_formula_units_Z   1
loop_
 _symmetry_equiv_pos_site_id
 _symmetry_equiv_pos_as_xyz
  1  'x, y, z'
loop_
 _atom_site_type_symbol
 _atom_site_label
 _atom_site_symmetry_multiplicity
 _atom_site_fract_x
 _atom_site_fract_y
 _atom_site_fract_z
 _atom_site_occupancy
  Lu  Lu0  1  0.173560  0.326440  0.000000  1
  Pa  Pa1  1  0.832003  0.667997  0.000000  1
  Pa  Pa2  1  0.672138  0.173352  0.000000  1
  Pa  Pa3  1  0.326648  0.827862  0.000000  1
  In  In4  1  0.003574  0.008673  0.500000  1
  In  In5  1  0.491327  0.496426  0.500000  1
  Pt  Pt6  1  0.377391  0.122609  0.500000  1
  Pt  Pt7  1  0.634574  0.865426  0.500000  1
  Pt  Pt8  1  0.862569  0.373784  0.500000  1
  Pt  Pt9  1  0.126216  0.637431  0.500000  1
