# generated using pymatgen
data_Ta6BeFe6
_symmetry_space_group_name_H-M   'P 1'
_cell_length_a   4.85806548
_cell_length_b   4.85806524
_cell_length_c   9.26607862
_cell_angle_alpha   74.80277581
_cell_angle_beta   74.80277857
_cell_angle_gamma   60.00000481
_symmetry_Int_Tables_number   1
_chemical_formula_structural   Ta6BeFe6
_chemical_formula_sum   'Ta6 Be1 Fe6'
_cell_volume   180.50363878
_cell_formula_units_Z   1
loop_
 _symmetry_equiv_pos_site_id
 _symmetry_equiv_pos_as_xyz
  1  'x, y, z'
loop_
 _atom_site_type_symbol
 _atom_site_label
 _atom_site_symmetry_multiplicity
 _atom_site_fract_x
 _atom_site_fract_y
 _atom_site_fract_z
 _atom_site_occupancy
  Ta  Ta0  1  0.833026  0.833026  0.500924  1
  Ta  Ta1  1  0.166974  0.166974  0.499076  1
  Ta  Ta2  1  0.652110  0.652110  0.043668  1
  Ta  Ta3  1  0.347890  0.347890  0.956332  1
  Ta  Ta4  1  0.549662  0.549662  0.351015  1
  Ta  Ta5  1  0.450338  0.450338  0.648985  1
  Be  Be6  1  0.000000  0.000000  0.000000  1
  Fe  Fe7  1  0.906630  0.906630  0.780615  1
  Fe  Fe8  1  0.406126  0.906630  0.780615  1
  Fe  Fe9  1  0.906630  0.406126  0.780615  1
  Fe  Fe10  1  0.093370  0.093370  0.219385  1
  Fe  Fe11  1  0.593874  0.093370  0.219385  1
  Fe  Fe12  1  0.093370  0.593874  0.219385  1
