# generated using pymatgen
data_SmTh3(CdPt2)2
_symmetry_space_group_name_H-M   'P 1'
_cell_length_a   7.97140027
_cell_length_b   7.97139971
_cell_length_c   3.80019200
_cell_angle_alpha   90.00000000
_cell_angle_beta   90.00000000
_cell_angle_gamma   89.12859640
_symmetry_Int_Tables_number   1
_chemical_formula_structural   SmTh3(CdPt2)2
_chemical_formula_sum   'Sm1 Th3 Cd2 Pt4'
_cell_volume   241.44850053
_cell_formula_units_Z   1
loop_
 _symmetry_equiv_pos_site_id
 _symmetry_equiv_pos_as_xyz
  1  'x, y, z'
loop_
 _atom_site_type_symbol
 _atom_site_label
 _atom_site_symmetry_multiplicity
 _atom_site_fract_x
 _atom_site_fract_y
 _atom_site_fract_z
 _atom_site_occupancy
  Sm  Sm0  1  0.673776  0.173776  0.500000  1
  Th  Th1  1  0.329304  0.829304  0.500000  1
  Th  Th2  1  0.825872  0.671560  0.500000  1
  Th  Th3  1  0.171560  0.325872  0.500000  1
  Cd  Cd4  1  0.995456  0.001379  0.000000  1
  Cd  Cd5  1  0.501379  0.495456  0.000000  1
  Pt  Pt6  1  0.366367  0.126910  0.000000  1
  Pt  Pt7  1  0.876887  0.376887  0.000000  1
  Pt  Pt8  1  0.132488  0.632488  0.000000  1
  Pt  Pt9  1  0.626910  0.866367  0.000000  1
