# generated using pymatgen
data_Ho2ThSn3Ir2Rh
_symmetry_space_group_name_H-M   'P 1'
_cell_length_a   7.57050030
_cell_length_b   7.59904950
_cell_length_c   3.93890500
_cell_angle_alpha   90.00000000
_cell_angle_beta   90.00000000
_cell_angle_gamma   120.12483558
_symmetry_Int_Tables_number   1
_chemical_formula_structural   Ho2ThSn3Ir2Rh
_chemical_formula_sum   'Ho2 Th1 Sn3 Ir2 Rh1'
_cell_volume   195.99378804
_cell_formula_units_Z   1
loop_
 _symmetry_equiv_pos_site_id
 _symmetry_equiv_pos_as_xyz
  1  'x, y, z'
loop_
 _atom_site_type_symbol
 _atom_site_label
 _atom_site_symmetry_multiplicity
 _atom_site_fract_x
 _atom_site_fract_y
 _atom_site_fract_z
 _atom_site_occupancy
  Ho  Ho0  1  0.592910  0.592169  0.000000  1
  Ho  Ho1  1  0.407090  0.999258  0.000000  1
  Th  Th2  1  0.000000  0.413252  0.000000  1
  Sn  Sn3  1  0.269499  0.257461  0.500000  1
  Sn  Sn4  1  0.000000  0.754254  0.500000  1
  Sn  Sn5  1  0.730501  0.987962  0.500000  1
  Ir  Ir6  1  0.677935  0.333264  0.500000  1
  Ir  Ir7  1  0.322065  0.655330  0.500000  1
  Rh  Rh8  1  0.000000  0.007051  0.000000  1
