# generated using pymatgen
data_Li3Nd4ZnAs8
_symmetry_space_group_name_H-M   'P 1'
_cell_length_a   4.01042200
_cell_length_b   4.01597122
_cell_length_c   21.06436773
_cell_angle_alpha   90.05731334
_cell_angle_beta   90.00000000
_cell_angle_gamma   90.00000000
_symmetry_Int_Tables_number   1
_chemical_formula_structural   Li3Nd4ZnAs8
_chemical_formula_sum   'Li3 Nd4 Zn1 As8'
_cell_volume   339.25704605
_cell_formula_units_Z   1
loop_
 _symmetry_equiv_pos_site_id
 _symmetry_equiv_pos_as_xyz
  1  'x, y, z'
loop_
 _atom_site_type_symbol
 _atom_site_label
 _atom_site_symmetry_multiplicity
 _atom_site_fract_x
 _atom_site_fract_y
 _atom_site_fract_z
 _atom_site_occupancy
  Li  Li0  1  0.750000  0.231118  0.250204  1
  Li  Li1  1  0.250000  0.731059  0.250128  1
  Li  Li2  1  0.750000  0.269228  0.749850  1
  Nd  Nd3  1  0.250000  0.236248  0.115230  1
  Nd  Nd4  1  0.750000  0.736113  0.384906  1
  Nd  Nd5  1  0.250000  0.264216  0.613246  1
  Nd  Nd6  1  0.750000  0.764663  0.886684  1
  Zn  Zn7  1  0.250000  0.769199  0.749764  1
  As  As8  1  0.250000  0.735761  0.998707  1
  As  As9  1  0.750000  0.732623  0.170170  1
  As  As10  1  0.250000  0.232758  0.330101  1
  As  As11  1  0.750000  0.239114  0.501274  1
  As  As12  1  0.250000  0.760013  0.501534  1
  As  As13  1  0.750000  0.766484  0.672198  1
  As  As14  1  0.250000  0.266921  0.827553  1
  As  As15  1  0.750000  0.264481  0.998454  1
