# generated using pymatgen
data_SrPtCl6
_symmetry_space_group_name_H-M   'P 1'
_cell_length_a   6.63093188
_cell_length_b   6.63093213
_cell_length_c   10.49049654
_cell_angle_alpha   88.77359127
_cell_angle_beta   88.77359064
_cell_angle_gamma   69.65217249
_symmetry_Int_Tables_number   1
_chemical_formula_structural   SrPtCl6
_chemical_formula_sum   'Sr2 Pt2 Cl12'
_cell_volume   432.32929204
_cell_formula_units_Z   2
loop_
 _symmetry_equiv_pos_site_id
 _symmetry_equiv_pos_as_xyz
  1  'x, y, z'
loop_
 _atom_site_type_symbol
 _atom_site_label
 _atom_site_symmetry_multiplicity
 _atom_site_fract_x
 _atom_site_fract_y
 _atom_site_fract_z
 _atom_site_occupancy
  Sr  Sr0  1  0.994908  0.005092  0.250000  1
  Sr  Sr1  1  0.005092  0.994908  0.750000  1
  Pt  Pt2  1  0.000000  0.500000  0.000000  1
  Pt  Pt3  1  0.500000  0.000000  0.500000  1
  Cl  Cl4  1  0.148865  0.524684  0.197499  1
  Cl  Cl5  1  0.475316  0.851135  0.302501  1
  Cl  Cl6  1  0.851135  0.475316  0.802501  1
  Cl  Cl7  1  0.524684  0.148865  0.697499  1
  Cl  Cl8  1  0.797102  0.870791  0.007192  1
  Cl  Cl9  1  0.129209  0.202898  0.492808  1
  Cl  Cl10  1  0.202898  0.129209  0.992808  1
  Cl  Cl11  1  0.870791  0.797102  0.507192  1
  Cl  Cl12  1  0.731232  0.406931  0.108487  1
  Cl  Cl13  1  0.593069  0.268768  0.391513  1
  Cl  Cl14  1  0.268768  0.593069  0.891513  1
  Cl  Cl15  1  0.406931  0.731232  0.608487  1
