# generated using pymatgen
data_Y8CoCu2Si12Rh
_symmetry_space_group_name_H-M   'P 1'
_cell_length_a   8.05543600
_cell_length_b   8.05543575
_cell_length_c   8.13136800
_cell_angle_alpha   89.99995732
_cell_angle_beta   90.00004268
_cell_angle_gamma   120.00009957
_symmetry_Int_Tables_number   1
_chemical_formula_structural   Y8CoCu2Si12Rh
_chemical_formula_sum   'Y8 Co1 Cu2 Si12 Rh1'
_cell_volume   456.95338832
_cell_formula_units_Z   1
loop_
 _symmetry_equiv_pos_site_id
 _symmetry_equiv_pos_as_xyz
  1  'x, y, z'
loop_
 _atom_site_type_symbol
 _atom_site_label
 _atom_site_symmetry_multiplicity
 _atom_site_fract_x
 _atom_site_fract_y
 _atom_site_fract_z
 _atom_site_occupancy
  Y  Y0  1  0.000000  0.000000  0.249932  1
  Y  Y1  1  0.000000  0.000000  0.749839  1
  Y  Y2  1  0.003003  0.501501  0.256149  1
  Y  Y3  1  0.498498  0.501502  0.256149  1
  Y  Y4  1  0.498918  0.997834  0.743905  1
  Y  Y5  1  0.498499  0.996997  0.256149  1
  Y  Y6  1  0.498917  0.501083  0.743906  1
  Y  Y7  1  0.002166  0.501082  0.743905  1
  Co  Co8  1  0.333333  0.666667  0.500285  1
  Cu  Cu9  1  0.333332  0.666668  0.998723  1
  Cu  Cu10  1  0.666667  0.333333  0.001338  1
  Si  Si11  1  0.168285  0.336570  0.000090  1
  Si  Si12  1  0.663430  0.831715  0.000090  1
  Si  Si13  1  0.172691  0.345381  0.500480  1
  Si  Si14  1  0.337069  0.168535  0.999892  1
  Si  Si15  1  0.168285  0.831715  0.000090  1
  Si  Si16  1  0.654619  0.827309  0.500480  1
  Si  Si17  1  0.831465  0.662931  0.999892  1
  Si  Si18  1  0.332579  0.166289  0.499385  1
  Si  Si19  1  0.172691  0.827309  0.500480  1
  Si  Si20  1  0.833711  0.667421  0.499385  1
  Si  Si21  1  0.831466  0.168534  0.999893  1
  Si  Si22  1  0.833711  0.166289  0.499385  1
  Rh  Rh23  1  0.666667  0.333333  0.500173  1
