# generated using pymatgen
data_TmLu9Si5Te
_symmetry_space_group_name_H-M   'P 1'
_cell_length_a   8.32195500
_cell_length_b   8.34799419
_cell_length_c   6.17442900
_cell_angle_alpha   90.00000000
_cell_angle_beta   90.00000000
_cell_angle_gamma   119.89687469
_symmetry_Int_Tables_number   1
_chemical_formula_structural   TmLu9Si5Te
_chemical_formula_sum   'Tm1 Lu9 Si5 Te1'
_cell_volume   371.86499406
_cell_formula_units_Z   1
loop_
 _symmetry_equiv_pos_site_id
 _symmetry_equiv_pos_as_xyz
  1  'x, y, z'
loop_
 _atom_site_type_symbol
 _atom_site_label
 _atom_site_symmetry_multiplicity
 _atom_site_fract_x
 _atom_site_fract_y
 _atom_site_fract_z
 _atom_site_occupancy
  Tm  Tm0  1  0.765756  0.000000  0.750000  1
  Lu  Lu1  1  0.675486  0.344413  0.003256  1
  Lu  Lu2  1  0.331074  0.655587  0.496744  1
  Lu  Lu3  1  0.331074  0.655587  0.003256  1
  Lu  Lu4  1  0.675486  0.344413  0.496744  1
  Lu  Lu5  1  0.755750  0.755841  0.250000  1
  Lu  Lu6  1  0.999909  0.244159  0.250000  1
  Lu  Lu7  1  0.985819  0.745943  0.750000  1
  Lu  Lu8  1  0.239878  0.254057  0.750000  1
  Lu  Lu9  1  0.240559  0.000000  0.250000  1
  Si  Si10  1  0.394295  0.391027  0.250000  1
  Si  Si11  1  0.003269  0.608973  0.250000  1
  Si  Si12  1  0.999560  0.396020  0.750000  1
  Si  Si13  1  0.603541  0.603980  0.750000  1
  Si  Si14  1  0.606515  0.000000  0.250000  1
  Te  Te15  1  0.392032  0.000000  0.750000  1
