# generated using pymatgen
data_TbFeCoSiP
_symmetry_space_group_name_H-M   'P 1'
_cell_length_a   5.53718218
_cell_length_b   5.53718144
_cell_length_c   5.53718147
_cell_angle_alpha   139.23361683
_cell_angle_beta   139.30010892
_cell_angle_gamma   58.96819408
_symmetry_Int_Tables_number   1
_chemical_formula_structural   TbFeCoSiP
_chemical_formula_sum   'Tb1 Fe1 Co1 Si1 P1'
_cell_volume   71.59984591
_cell_formula_units_Z   1
loop_
 _symmetry_equiv_pos_site_id
 _symmetry_equiv_pos_as_xyz
  1  'x, y, z'
loop_
 _atom_site_type_symbol
 _atom_site_label
 _atom_site_symmetry_multiplicity
 _atom_site_fract_x
 _atom_site_fract_y
 _atom_site_fract_z
 _atom_site_occupancy
  Tb  Tb0  1  0.002322  0.002322  0.000000  1
  Fe  Fe1  1  0.246817  0.746817  0.500000  1
  Co  Co2  1  0.747876  0.247876  0.500000  1
  Si  Si3  1  0.371774  0.371774  0.000000  1
  P  P4  1  0.631211  0.631211  0.000000  1
