# generated using pymatgen
data_Tb2Nd2Ho2RuBr10
_symmetry_space_group_name_H-M   'P 1'
_cell_length_a   7.48884197
_cell_length_b   9.38609380
_cell_length_c   9.36546618
_cell_angle_alpha   106.37902555
_cell_angle_beta   94.79866995
_cell_angle_gamma   106.32051066
_symmetry_Int_Tables_number   1
_chemical_formula_structural   Tb2Nd2Ho2RuBr10
_chemical_formula_sum   'Tb2 Nd2 Ho2 Ru1 Br10'
_cell_volume   596.58033472
_cell_formula_units_Z   1
loop_
 _symmetry_equiv_pos_site_id
 _symmetry_equiv_pos_as_xyz
  1  'x, y, z'
loop_
 _atom_site_type_symbol
 _atom_site_label
 _atom_site_symmetry_multiplicity
 _atom_site_fract_x
 _atom_site_fract_y
 _atom_site_fract_z
 _atom_site_occupancy
  Tb  Tb0  1  0.360209  0.136597  0.175684  1
  Tb  Tb1  1  0.639791  0.863403  0.824316  1
  Nd  Nd2  1  0.128958  0.051858  0.764275  1
  Nd  Nd3  1  0.871042  0.948142  0.235725  1
  Ho  Ho4  1  0.971373  0.299482  0.092032  1
  Ho  Ho5  1  0.028627  0.700518  0.907968  1
  Ru  Ru6  1  0.000000  0.000000  0.000000  1
  Br  Br7  1  0.553620  0.177364  0.917071  1
  Br  Br8  1  0.446380  0.822636  0.082929  1
  Br  Br9  1  0.338360  0.445015  0.264722  1
  Br  Br10  1  0.661640  0.554985  0.735278  1
  Br  Br11  1  0.249519  0.079205  0.444961  1
  Br  Br12  1  0.750481  0.920795  0.555039  1
  Br  Br13  1  0.775748  0.253634  0.334828  1
  Br  Br14  1  0.224252  0.746366  0.665172  1
  Br  Br15  1  0.087350  0.379903  0.833183  1
  Br  Br16  1  0.912650  0.620097  0.166817  1
