# generated using pymatgen
data_Li2Tb3Sm(AgAs4)2
_symmetry_space_group_name_H-M   'P 1'
_cell_length_a   3.94426800
_cell_length_b   3.94685600
_cell_length_c   21.00916701
_cell_angle_alpha   90.00405961
_cell_angle_beta   90.00000000
_cell_angle_gamma   90.00000000
_symmetry_Int_Tables_number   1
_chemical_formula_structural   Li2Tb3Sm(AgAs4)2
_chemical_formula_sum   'Li2 Tb3 Sm1 Ag2 As8'
_cell_volume   327.05932073
_cell_formula_units_Z   1
loop_
 _symmetry_equiv_pos_site_id
 _symmetry_equiv_pos_as_xyz
  1  'x, y, z'
loop_
 _atom_site_type_symbol
 _atom_site_label
 _atom_site_symmetry_multiplicity
 _atom_site_fract_x
 _atom_site_fract_y
 _atom_site_fract_z
 _atom_site_occupancy
  Li  Li0  1  0.250000  0.762030  0.749346  1
  Li  Li1  1  0.250000  0.737997  0.250133  1
  Tb  Tb2  1  0.250000  0.260982  0.613133  1
  Tb  Tb3  1  0.250000  0.238754  0.114420  1
  Tb  Tb4  1  0.750000  0.739880  0.386664  1
  Sm  Sm5  1  0.750000  0.760365  0.886648  1
  Ag  Ag6  1  0.750000  0.237999  0.250057  1
  Ag  Ag7  1  0.750000  0.262303  0.748738  1
  As  As8  1  0.250000  0.261329  0.836009  1
  As  As9  1  0.250000  0.238932  0.338155  1
  As  As10  1  0.750000  0.738224  0.162243  1
  As  As11  1  0.750000  0.761580  0.661489  1
  As  As12  1  0.250000  0.763476  0.500148  1
  As  As13  1  0.250000  0.735560  0.001619  1
  As  As14  1  0.750000  0.236545  0.499895  1
  As  As15  1  0.750000  0.264043  0.001304  1
