# generated using pymatgen
data_Ti3Zn3IrPt5
_symmetry_space_group_name_H-M   'P 1'
_cell_length_a   4.69029602
_cell_length_b   5.65108201
_cell_length_c   14.04990967
_cell_angle_alpha   89.99379050
_cell_angle_beta   74.35449005
_cell_angle_gamma   90.00451811
_symmetry_Int_Tables_number   1
_chemical_formula_structural   Ti3Zn3IrPt5
_chemical_formula_sum   'Ti6 Zn6 Ir2 Pt10'
_cell_volume   358.59854534
_cell_formula_units_Z   2
loop_
 _symmetry_equiv_pos_site_id
 _symmetry_equiv_pos_as_xyz
  1  'x, y, z'
loop_
 _atom_site_type_symbol
 _atom_site_label
 _atom_site_symmetry_multiplicity
 _atom_site_fract_x
 _atom_site_fract_y
 _atom_site_fract_z
 _atom_site_occupancy
  Ti  Ti0  1  0.002659  0.000000  0.992089  1
  Ti  Ti1  1  0.504568  0.499971  0.165953  1
  Ti  Ti2  1  0.998900  0.999992  0.333327  1
  Ti  Ti3  1  0.494845  0.500030  0.500769  1
  Ti  Ti4  1  0.998139  0.000006  0.674581  1
  Ti  Ti5  1  0.500774  0.500002  0.833343  1
  Zn  Zn6  1  0.003756  0.499960  0.997715  1
  Zn  Zn7  1  0.505656  0.999967  0.166289  1
  Zn  Zn8  1  0.998889  0.499993  0.333279  1
  Zn  Zn9  1  0.493827  0.000036  0.500455  1
  Zn  Zn10  1  0.997184  0.500044  0.668929  1
  Zn  Zn11  1  0.500665  0.000002  0.833349  1
  Ir  Ir12  1  0.000598  0.249846  0.833336  1
  Ir  Ir13  1  0.000630  0.750162  0.833350  1
  Pt  Pt14  1  0.501990  0.249731  0.001109  1
  Pt  Pt15  1  0.501996  0.750234  0.001091  1
  Pt  Pt16  1  0.003158  0.249706  0.166508  1
  Pt  Pt17  1  0.003227  0.750234  0.166510  1
  Pt  Pt18  1  0.499068  0.249794  0.333304  1
  Pt  Pt19  1  0.499050  0.750195  0.333298  1
  Pt  Pt20  1  0.996335  0.249782  0.500080  1
  Pt  Pt21  1  0.996411  0.750266  0.500088  1
  Pt  Pt22  1  0.498838  0.249799  0.665635  1
  Pt  Pt23  1  0.498844  0.750249  0.665614  1
