# generated using pymatgen
data_Hf2Zr2H15
_symmetry_space_group_name_H-M   'P 1'
_cell_length_a   6.96601955
_cell_length_b   6.96601945
_cell_length_c   6.96602122
_cell_angle_alpha   109.47982561
_cell_angle_beta   109.47982337
_cell_angle_gamma   109.47982760
_symmetry_Int_Tables_number   1
_chemical_formula_structural   Hf2Zr2H15
_chemical_formula_sum   'Hf4 Zr4 H30'
_cell_volume   260.13203357
_cell_formula_units_Z   2
loop_
 _symmetry_equiv_pos_site_id
 _symmetry_equiv_pos_as_xyz
  1  'x, y, z'
loop_
 _atom_site_type_symbol
 _atom_site_label
 _atom_site_symmetry_multiplicity
 _atom_site_fract_x
 _atom_site_fract_y
 _atom_site_fract_z
 _atom_site_occupancy
  Hf  Hf0  1  0.999687  0.594948  0.499934  1
  Hf  Hf1  1  0.594948  0.499934  0.999687  1
  Hf  Hf2  1  0.499934  0.999687  0.594948  1
  Hf  Hf3  1  0.404450  0.404450  0.404450  1
  Zr  Zr4  1  0.907237  0.907237  0.907237  1
  Zr  Zr5  1  0.500477  0.000393  0.094197  1
  Zr  Zr6  1  0.000393  0.094197  0.500477  1
  Zr  Zr7  1  0.094197  0.500477  0.000393  1
  H  H8  1  0.654331  0.967758  0.390086  1
  H  H9  1  0.235850  0.312839  0.846193  1
  H  H10  1  0.189377  0.422455  0.531634  1
  H  H11  1  0.083270  0.269936  0.118041  1
  H  H12  1  0.269936  0.118041  0.083270  1
  H  H13  1  0.118041  0.083270  0.269936  1
  H  H14  1  0.467719  0.156416  0.884682  1
  H  H15  1  0.728169  0.343621  0.812011  1
  H  H16  1  0.624091  0.375594  0.250187  1
  H  H17  1  0.250187  0.624091  0.375594  1
  H  H18  1  0.749971  0.873485  0.125543  1
  H  H19  1  0.125543  0.749971  0.873485  1
  H  H20  1  0.375594  0.250187  0.624091  1
  H  H21  1  0.873485  0.125543  0.749971  1
  H  H22  1  0.766276  0.578177  0.607576  1
  H  H23  1  0.312839  0.846193  0.235850  1
  H  H24  1  0.390086  0.654331  0.967758  1
  H  H25  1  0.967758  0.390086  0.654331  1
  H  H26  1  0.531634  0.189377  0.422455  1
  H  H27  1  0.422455  0.531634  0.189377  1
  H  H28  1  0.846193  0.235850  0.312839  1
  H  H29  1  0.915868  0.685206  0.032316  1
  H  H30  1  0.812011  0.728169  0.343621  1
  H  H31  1  0.156416  0.884682  0.467719  1
  H  H32  1  0.685206  0.032316  0.915868  1
  H  H33  1  0.343621  0.812011  0.728169  1
  H  H34  1  0.884682  0.467719  0.156416  1
  H  H35  1  0.607576  0.766276  0.578177  1
  H  H36  1  0.578177  0.607576  0.766276  1
  H  H37  1  0.032316  0.915868  0.685206  1
