# generated using pymatgen
data_AgPCl8
_symmetry_space_group_name_H-M   'P 1'
_cell_length_a   12.01445549
_cell_length_b   12.01445561
_cell_length_c   12.01445500
_cell_angle_alpha   119.21453181
_cell_angle_beta   114.03798635
_cell_angle_gamma   96.00277956
_symmetry_Int_Tables_number   1
_chemical_formula_structural   AgPCl8
_chemical_formula_sum   'Ag4 P4 Cl32'
_cell_volume   1278.33316819
_cell_formula_units_Z   4
loop_
 _symmetry_equiv_pos_site_id
 _symmetry_equiv_pos_as_xyz
  1  'x, y, z'
loop_
 _atom_site_type_symbol
 _atom_site_label
 _atom_site_symmetry_multiplicity
 _atom_site_fract_x
 _atom_site_fract_y
 _atom_site_fract_z
 _atom_site_occupancy
  Ag  Ag0  1  0.750000  0.825786  0.075786  1
  Ag  Ag1  1  0.250000  0.174214  0.924214  1
  Ag  Ag2  1  0.750000  0.309697  0.559697  1
  Ag  Ag3  1  0.250000  0.690303  0.440303  1
  P  P4  1  0.252506  0.252506  0.500000  1
  P  P5  1  0.247494  0.747494  0.000000  1
  P  P6  1  0.747494  0.747494  0.500000  1
  P  P7  1  0.752506  0.252506  0.000000  1
  Cl  Cl8  1  0.917924  0.240818  0.011540  1
  Cl  Cl9  1  0.582076  0.593615  0.322894  1
  Cl  Cl10  1  0.770721  0.759182  0.677106  1
  Cl  Cl11  1  0.729279  0.406385  0.988460  1
  Cl  Cl12  1  0.082076  0.759182  0.988460  1
  Cl  Cl13  1  0.417924  0.406385  0.677106  1
  Cl  Cl14  1  0.229279  0.240818  0.322894  1
  Cl  Cl15  1  0.270721  0.593615  0.011540  1
  Cl  Cl16  1  0.604960  0.079259  0.820712  1
  Cl  Cl17  1  0.895040  0.715752  0.474300  1
  Cl  Cl18  1  0.741452  0.920741  0.525700  1
  Cl  Cl19  1  0.758548  0.284248  0.179288  1
  Cl  Cl20  1  0.395040  0.920741  0.179288  1
  Cl  Cl21  1  0.104960  0.284248  0.525700  1
  Cl  Cl22  1  0.258548  0.079259  0.474300  1
  Cl  Cl23  1  0.241452  0.715752  0.820712  1
  Cl  Cl24  1  0.394979  0.836452  0.441473  1
  Cl  Cl25  1  0.105021  0.546494  0.441473  1
  Cl  Cl26  1  0.605021  0.163548  0.558527  1
  Cl  Cl27  1  0.894979  0.453506  0.558527  1
  Cl  Cl28  1  0.071771  0.690131  0.261901  1
  Cl  Cl29  1  0.428229  0.690131  0.618361  1
  Cl  Cl30  1  0.571771  0.309869  0.381639  1
  Cl  Cl31  1  0.928229  0.309869  0.738099  1
  Cl  Cl32  1  0.394834  0.320058  0.925224  1
  Cl  Cl33  1  0.105166  0.030390  0.925224  1
  Cl  Cl34  1  0.605166  0.679942  0.074776  1
  Cl  Cl35  1  0.894834  0.969610  0.074776  1
  Cl  Cl36  1  0.250000  0.366617  0.116617  1
  Cl  Cl37  1  0.750000  0.633383  0.883383  1
  Cl  Cl38  1  0.250000  0.982828  0.732828  1
  Cl  Cl39  1  0.750000  0.017172  0.267172  1
