# generated using pymatgen
data_Li8DyHo7(Sn3Sb)2
_symmetry_space_group_name_H-M   'P 1'
_cell_length_a   9.37157988
_cell_length_b   9.37621015
_cell_length_c   7.19486925
_cell_angle_alpha   89.99747187
_cell_angle_beta   90.07227736
_cell_angle_gamma   120.01744561
_symmetry_Int_Tables_number   1
_chemical_formula_structural   Li8DyHo7(Sn3Sb)2
_chemical_formula_sum   'Li8 Dy1 Ho7 Sn6 Sb2'
_cell_volume   547.41521442
_cell_formula_units_Z   1
loop_
 _symmetry_equiv_pos_site_id
 _symmetry_equiv_pos_as_xyz
  1  'x, y, z'
loop_
 _atom_site_type_symbol
 _atom_site_label
 _atom_site_symmetry_multiplicity
 _atom_site_fract_x
 _atom_site_fract_y
 _atom_site_fract_z
 _atom_site_occupancy
  Li  Li0  1  0.167246  0.333912  0.285247  1
  Li  Li1  1  0.167042  0.833207  0.285180  1
  Li  Li2  1  0.666271  0.832987  0.285357  1
  Li  Li3  1  0.832133  0.665961  0.785894  1
  Li  Li4  1  0.832191  0.166181  0.785937  1
  Li  Li5  1  0.334359  0.167235  0.787244  1
  Li  Li6  1  0.334183  0.666972  0.674169  1
  Li  Li7  1  0.666611  0.333403  0.176244  1
  Dy  Dy8  1  0.513765  0.023630  0.492096  1
  Ho  Ho9  1  0.513825  0.490229  0.492072  1
  Ho  Ho10  1  0.975634  0.487814  0.490684  1
  Ho  Ho11  1  0.490366  0.978502  0.995204  1
  Ho  Ho12  1  0.490381  0.511818  0.995286  1
  Ho  Ho13  1  0.019906  0.509945  0.996320  1
  Ho  Ho14  1  0.998073  0.999063  0.497155  1
  Ho  Ho15  1  0.998196  0.999100  0.002570  1
  Sn  Sn16  1  0.666768  0.833302  0.731837  1
  Sn  Sn17  1  0.833848  0.666664  0.232763  1
  Sn  Sn18  1  0.834298  0.167359  0.232237  1
  Sn  Sn19  1  0.333014  0.166631  0.231571  1
  Sn  Sn20  1  0.332386  0.666000  0.259462  1
  Sn  Sn21  1  0.667337  0.334011  0.760442  1
  Sb  Sb22  1  0.166173  0.333379  0.733359  1
  Sb  Sb23  1  0.165990  0.832695  0.733639  1
