# generated using pymatgen
data_Yb15Lu5Pt16
_symmetry_space_group_name_H-M   'P 1'
_cell_length_a   7.45441342
_cell_length_b   7.52844152
_cell_length_c   14.47388837
_cell_angle_alpha   90.02192237
_cell_angle_beta   90.01356808
_cell_angle_gamma   89.96387003
_symmetry_Int_Tables_number   1
_chemical_formula_structural   Yb15Lu5Pt16
_chemical_formula_sum   'Yb15 Lu5 Pt16'
_cell_volume   812.27604257
_cell_formula_units_Z   1
loop_
 _symmetry_equiv_pos_site_id
 _symmetry_equiv_pos_as_xyz
  1  'x, y, z'
loop_
 _atom_site_type_symbol
 _atom_site_label
 _atom_site_symmetry_multiplicity
 _atom_site_fract_x
 _atom_site_fract_y
 _atom_site_fract_z
 _atom_site_occupancy
  Yb  Yb0  1  0.851447  0.665852  0.122024  1
  Yb  Yb1  1  0.647476  0.166139  0.878129  1
  Yb  Yb2  1  0.147488  0.333625  0.621127  1
  Yb  Yb3  1  0.490807  0.675295  0.594822  1
  Yb  Yb4  1  0.990571  0.823368  0.905725  1
  Yb  Yb5  1  0.509541  0.322337  0.093632  1
  Yb  Yb6  1  0.007772  0.177917  0.405748  1
  Yb  Yb7  1  0.509149  0.322826  0.405070  1
  Yb  Yb8  1  0.007726  0.179913  0.093940  1
  Yb  Yb9  1  0.490836  0.678794  0.904849  1
  Yb  Yb10  1  0.991002  0.820488  0.595644  1
  Yb  Yb11  1  0.808868  0.506012  0.750131  1
  Yb  Yb12  1  0.308175  0.992607  0.750072  1
  Yb  Yb13  1  0.189638  0.490105  0.249114  1
  Yb  Yb14  1  0.694941  0.008278  0.249471  1
  Lu  Lu15  1  0.648094  0.162356  0.623194  1
  Lu  Lu16  1  0.148764  0.335956  0.876125  1
  Lu  Lu17  1  0.352477  0.835779  0.124057  1
  Lu  Lu18  1  0.852778  0.664757  0.376969  1
  Lu  Lu19  1  0.352617  0.834163  0.376802  1
  Pt  Pt20  1  0.683489  0.957453  0.459210  1
  Pt  Pt21  1  0.190340  0.540817  0.038982  1
  Pt  Pt22  1  0.309159  0.041127  0.961577  1
  Pt  Pt23  1  0.811700  0.457325  0.538413  1
  Pt  Pt24  1  0.324703  0.031051  0.540314  1
  Pt  Pt25  1  0.828569  0.465761  0.956706  1
  Pt  Pt26  1  0.672083  0.965605  0.043970  1
  Pt  Pt27  1  0.177372  0.544706  0.456371  1
  Pt  Pt28  1  0.442709  0.377409  0.747179  1
  Pt  Pt29  1  0.942494  0.120736  0.751324  1
  Pt  Pt30  1  0.553762  0.624878  0.252571  1
  Pt  Pt31  1  0.061281  0.877258  0.253931  1
  Pt  Pt32  1  0.679227  0.864057  0.746185  1
  Pt  Pt33  1  0.179793  0.635148  0.753903  1
  Pt  Pt34  1  0.325715  0.132914  0.249396  1
  Pt  Pt35  1  0.817435  0.367189  0.253322  1
