# generated using pymatgen
data_TmLu7ZnIn3
_symmetry_space_group_name_H-M   'P 1'
_cell_length_a   10.43096200
_cell_length_b   10.43096207
_cell_length_c   6.67347500
_cell_angle_alpha   90.00000000
_cell_angle_beta   90.00000000
_cell_angle_gamma   120.00001247
_symmetry_Int_Tables_number   1
_chemical_formula_structural   TmLu7ZnIn3
_chemical_formula_sum   'Tm2 Lu14 Zn2 In6'
_cell_volume   628.82723675
_cell_formula_units_Z   2
loop_
 _symmetry_equiv_pos_site_id
 _symmetry_equiv_pos_as_xyz
  1  'x, y, z'
loop_
 _atom_site_type_symbol
 _atom_site_label
 _atom_site_symmetry_multiplicity
 _atom_site_fract_x
 _atom_site_fract_y
 _atom_site_fract_z
 _atom_site_occupancy
  Tm  Tm0  1  0.000000  0.000000  0.271666  1
  Tm  Tm1  1  0.000000  0.000000  0.771666  1
  Lu  Lu2  1  0.173653  0.826347  0.007031  1
  Lu  Lu3  1  0.347306  0.173653  0.507031  1
  Lu  Lu4  1  0.826347  0.652694  0.507031  1
  Lu  Lu5  1  0.173653  0.347306  0.007031  1
  Lu  Lu6  1  0.652694  0.826347  0.007031  1
  Lu  Lu7  1  0.826347  0.173653  0.507031  1
  Lu  Lu8  1  0.333333  0.666667  0.642353  1
  Lu  Lu9  1  0.666667  0.333333  0.142353  1
  Lu  Lu10  1  0.480247  0.519753  0.292027  1
  Lu  Lu11  1  0.960492  0.480247  0.792027  1
  Lu  Lu12  1  0.519753  0.039508  0.792027  1
  Lu  Lu13  1  0.480247  0.960492  0.292027  1
  Lu  Lu14  1  0.039508  0.519753  0.292027  1
  Lu  Lu15  1  0.519753  0.480247  0.792027  1
  Zn  Zn16  1  0.333333  0.666667  0.079883  1
  Zn  Zn17  1  0.666667  0.333333  0.579883  1
  In  In18  1  0.164822  0.835178  0.523643  1
  In  In19  1  0.329643  0.164822  0.023643  1
  In  In20  1  0.835178  0.670357  0.023643  1
  In  In21  1  0.164822  0.329643  0.523643  1
  In  In22  1  0.670357  0.835178  0.523643  1
  In  In23  1  0.835178  0.164822  0.023643  1
