# generated using pymatgen
data_Ta4Nb4AlGaC6
_symmetry_space_group_name_H-M   'P 1'
_cell_length_a   3.15877100
_cell_length_b   3.15877218
_cell_length_c   24.18654300
_cell_angle_alpha   90.00000000
_cell_angle_beta   90.00000000
_cell_angle_gamma   119.99999816
_symmetry_Int_Tables_number   1
_chemical_formula_structural   Ta4Nb4AlGaC6
_chemical_formula_sum   'Ta4 Nb4 Al1 Ga1 C6'
_cell_volume   208.99740060
_cell_formula_units_Z   1
loop_
 _symmetry_equiv_pos_site_id
 _symmetry_equiv_pos_as_xyz
  1  'x, y, z'
loop_
 _atom_site_type_symbol
 _atom_site_label
 _atom_site_symmetry_multiplicity
 _atom_site_fract_x
 _atom_site_fract_y
 _atom_site_fract_z
 _atom_site_occupancy
  Ta  Ta0  1  0.333333  0.666667  0.444711  1
  Ta  Ta1  1  0.666667  0.333333  0.944561  1
  Ta  Ta2  1  0.666667  0.333333  0.555439  1
  Ta  Ta3  1  0.333333  0.666667  0.055289  1
  Nb  Nb4  1  0.000000  0.000000  0.342752  1
  Nb  Nb5  1  0.000000  0.000000  0.842615  1
  Nb  Nb6  1  0.000000  0.000000  0.657385  1
  Nb  Nb7  1  0.000000  0.000000  0.157248  1
  Al  Al8  1  0.333333  0.666667  0.250000  1
  Ga  Ga9  1  0.666667  0.333333  0.750000  1
  C  C10  1  0.666667  0.333333  0.392514  1
  C  C11  1  0.333333  0.666667  0.892402  1
  C  C12  1  0.333333  0.666667  0.607598  1
  C  C13  1  0.000000  0.000000  0.000027  1
  C  C14  1  0.666667  0.333333  0.107486  1
  C  C15  1  0.000000  0.000000  0.499973  1
