# generated using pymatgen
data_Tb(Lu3Tl2)3
_symmetry_space_group_name_H-M   'P 1'
_cell_length_a   8.89722160
_cell_length_b   8.90659915
_cell_length_c   6.49168300
_cell_angle_alpha   90.00000000
_cell_angle_beta   90.00000000
_cell_angle_gamma   120.03487074
_symmetry_Int_Tables_number   1
_chemical_formula_structural   Tb(Lu3Tl2)3
_chemical_formula_sum   'Tb1 Lu9 Tl6'
_cell_volume   445.35008615
_cell_formula_units_Z   1
loop_
 _symmetry_equiv_pos_site_id
 _symmetry_equiv_pos_as_xyz
  1  'x, y, z'
loop_
 _atom_site_type_symbol
 _atom_site_label
 _atom_site_symmetry_multiplicity
 _atom_site_fract_x
 _atom_site_fract_y
 _atom_site_fract_z
 _atom_site_occupancy
  Tb  Tb0  1  0.000000  0.763833  0.250000  1
  Lu  Lu1  1  0.667150  0.333528  0.999812  1
  Lu  Lu2  1  0.332850  0.666379  0.999812  1
  Lu  Lu3  1  0.332850  0.666379  0.500188  1
  Lu  Lu4  1  0.667150  0.333528  0.500188  1
  Lu  Lu5  1  0.763206  0.763782  0.750000  1
  Lu  Lu6  1  0.236794  0.000576  0.750000  1
  Lu  Lu7  1  0.000000  0.234565  0.750000  1
  Lu  Lu8  1  0.236112  0.236243  0.250000  1
  Lu  Lu9  1  0.763888  0.000132  0.250000  1
  Tl  Tl10  1  0.398503  0.398971  0.750000  1
  Tl  Tl11  1  0.601497  0.000468  0.750000  1
  Tl  Tl12  1  0.000000  0.602276  0.750000  1
  Tl  Tl13  1  0.598197  0.600198  0.250000  1
  Tl  Tl14  1  0.401803  0.002000  0.250000  1
  Tl  Tl15  1  0.000000  0.397144  0.250000  1
