# generated using pymatgen
data_Ac8CdInRu2
_symmetry_space_group_name_H-M   'P 1'
_cell_length_a   10.56738710
_cell_length_b   10.51738244
_cell_length_c   10.51738281
_cell_angle_alpha   59.71180115
_cell_angle_beta   59.84260621
_cell_angle_gamma   59.84259993
_symmetry_Int_Tables_number   1
_chemical_formula_structural   Ac8CdInRu2
_chemical_formula_sum   'Ac16 Cd2 In2 Ru4'
_cell_volume   822.77350229
_cell_formula_units_Z   2
loop_
 _symmetry_equiv_pos_site_id
 _symmetry_equiv_pos_as_xyz
  1  'x, y, z'
loop_
 _atom_site_type_symbol
 _atom_site_label
 _atom_site_symmetry_multiplicity
 _atom_site_fract_x
 _atom_site_fract_y
 _atom_site_fract_z
 _atom_site_occupancy
  Ac  Ac0  1  0.559948  0.559121  0.939790  1
  Ac  Ac1  1  0.941142  0.559121  0.939790  1
  Ac  Ac2  1  0.558332  0.941668  0.941668  1
  Ac  Ac3  1  0.941142  0.939790  0.559121  1
  Ac  Ac4  1  0.559948  0.939790  0.559121  1
  Ac  Ac5  1  0.938834  0.561166  0.561166  1
  Ac  Ac6  1  0.190328  0.189574  0.810426  1
  Ac  Ac7  1  0.809672  0.189574  0.810426  1
  Ac  Ac8  1  0.187429  0.812571  0.812570  1
  Ac  Ac9  1  0.809672  0.810427  0.189574  1
  Ac  Ac10  1  0.190327  0.810426  0.189573  1
  Ac  Ac11  1  0.807876  0.192124  0.192124  1
  Ac  Ac12  1  0.346209  0.345431  0.962151  1
  Ac  Ac13  1  0.346209  0.962151  0.345431  1
  Ac  Ac14  1  0.963238  0.345329  0.345329  1
  Ac  Ac15  1  0.346103  0.345329  0.345329  1
  Cd  Cd16  1  0.265696  0.577888  0.577888  1
  Cd  Cd17  1  0.578529  0.577888  0.577888  1
  In  In18  1  0.578688  0.578387  0.264236  1
  In  In19  1  0.578688  0.264236  0.578387  1
  Ru  Ru20  1  0.138360  0.136306  0.586974  1
  Ru  Ru21  1  0.138360  0.586974  0.136306  1
  Ru  Ru22  1  0.586285  0.137366  0.137366  1
  Ru  Ru23  1  0.138982  0.137366  0.137366  1
