# generated using pymatgen
data_Ti18Re2Si15As
_symmetry_space_group_name_H-M   'P 1'
_cell_length_a   6.64618091
_cell_length_b   6.65023535
_cell_length_c   12.14230600
_cell_angle_alpha   89.91978011
_cell_angle_beta   90.24122955
_cell_angle_gamma   90.04287260
_symmetry_Int_Tables_number   1
_chemical_formula_structural   Ti18Re2Si15As
_chemical_formula_sum   'Ti18 Re2 Si15 As1'
_cell_volume   536.66831153
_cell_formula_units_Z   1
loop_
 _symmetry_equiv_pos_site_id
 _symmetry_equiv_pos_as_xyz
  1  'x, y, z'
loop_
 _atom_site_type_symbol
 _atom_site_label
 _atom_site_symmetry_multiplicity
 _atom_site_fract_x
 _atom_site_fract_y
 _atom_site_fract_z
 _atom_site_occupancy
  Ti  Ti0  1  0.998429  0.148504  0.622598  1
  Ti  Ti1  1  0.351483  0.497336  0.871925  1
  Ti  Ti2  1  0.651077  0.505299  0.371123  1
  Ti  Ti3  1  0.495767  0.350063  0.129691  1
  Ti  Ti4  1  0.504476  0.650715  0.626849  1
  Ti  Ti5  1  0.004383  0.849594  0.121026  1
  Ti  Ti6  1  0.148267  0.997958  0.377038  1
  Ti  Ti7  1  0.847902  0.003810  0.880044  1
  Ti  Ti8  1  0.999536  0.339638  0.223094  1
  Ti  Ti9  1  0.155878  0.502020  0.470837  1
  Ti  Ti10  1  0.832902  0.503455  0.975445  1
  Ti  Ti11  1  0.502500  0.155081  0.527589  1
  Ti  Ti12  1  0.500545  0.838083  0.027478  1
  Ti  Ti13  1  0.999251  0.661839  0.720920  1
  Ti  Ti14  1  0.345914  0.001013  0.778385  1
  Ti  Ti15  1  0.662373  0.000461  0.277929  1
  Ti  Ti16  1  0.667082  0.328293  0.751206  1
  Ti  Ti17  1  0.830275  0.828597  0.498768  1
  Re  Re18  1  0.172347  0.169570  0.003578  1
  Re  Re19  1  0.327307  0.670295  0.247844  1
  Si  Si20  1  0.196556  0.541287  0.064280  1
  Si  Si21  1  0.802305  0.455692  0.564909  1
  Si  Si22  1  0.539919  0.196955  0.936372  1
  Si  Si23  1  0.455006  0.801508  0.433773  1
  Si  Si24  1  0.959509  0.697489  0.314662  1
  Si  Si25  1  0.303813  0.041074  0.186155  1
  Si  Si26  1  0.698868  0.956339  0.684876  1
  Si  Si27  1  0.299899  0.358203  0.668099  1
  Si  Si28  1  0.141721  0.795577  0.922077  1
  Si  Si29  1  0.857941  0.206220  0.424707  1
  Si  Si30  1  0.793178  0.140627  0.078319  1
  Si  Si31  1  0.207105  0.858775  0.575451  1
  Si  Si32  1  0.705600  0.641754  0.173263  1
  Si  Si33  1  0.359487  0.294806  0.328591  1
  Si  Si34  1  0.641662  0.706495  0.825484  1
  As  As35  1  0.039734  0.305575  0.815616  1
