# generated using pymatgen
data_Tb16Sc4Ir7Ru5
_symmetry_space_group_name_H-M   'P 1'
_cell_length_a   10.76281505
_cell_length_b   10.76281505
_cell_length_c   6.33511600
_cell_angle_alpha   89.99754148
_cell_angle_beta   89.99754148
_cell_angle_gamma   90.01122190
_symmetry_Int_Tables_number   1
_chemical_formula_structural   Tb16Sc4Ir7Ru5
_chemical_formula_sum   'Tb16 Sc4 Ir7 Ru5'
_cell_volume   733.84834241
_cell_formula_units_Z   1
loop_
 _symmetry_equiv_pos_site_id
 _symmetry_equiv_pos_as_xyz
  1  'x, y, z'
loop_
 _atom_site_type_symbol
 _atom_site_label
 _atom_site_symmetry_multiplicity
 _atom_site_fract_x
 _atom_site_fract_y
 _atom_site_fract_z
 _atom_site_occupancy
  Tb  Tb0  1  0.289649  0.085094  0.377563  1
  Tb  Tb1  1  0.289377  0.914881  0.877740  1
  Tb  Tb2  1  0.711153  0.085319  0.878180  1
  Tb  Tb3  1  0.710779  0.915111  0.376859  1
  Tb  Tb4  1  0.585090  0.789825  0.877605  1
  Tb  Tb5  1  0.585786  0.210305  0.377664  1
  Tb  Tb6  1  0.414805  0.789958  0.377804  1
  Tb  Tb7  1  0.414697  0.210084  0.877202  1
  Tb  Tb8  1  0.210175  0.414910  0.622395  1
  Tb  Tb9  1  0.210042  0.585195  0.122196  1
  Tb  Tb10  1  0.789695  0.414214  0.122336  1
  Tb  Tb11  1  0.789916  0.585303  0.622798  1
  Tb  Tb12  1  0.914906  0.710351  0.122437  1
  Tb  Tb13  1  0.914681  0.288847  0.621820  1
  Tb  Tb14  1  0.085119  0.710623  0.622260  1
  Tb  Tb15  1  0.084889  0.289221  0.123141  1
  Sc  Sc16  1  0.999403  0.000885  0.498518  1
  Sc  Sc17  1  0.999115  0.000597  0.001482  1
  Sc  Sc18  1  0.500036  0.500015  0.999960  1
  Sc  Sc19  1  0.499985  0.499964  0.500040  1
  Ir  Ir20  1  0.853651  0.853348  0.749826  1
  Ir  Ir21  1  0.146652  0.146349  0.750174  1
  Ir  Ir22  1  0.146597  0.853403  0.250000  1
  Ir  Ir23  1  0.645498  0.354502  0.750000  1
  Ir  Ir24  1  0.646190  0.645968  0.249780  1
  Ir  Ir25  1  0.354032  0.353810  0.250220  1
  Ir  Ir26  1  0.354101  0.645899  0.750000  1
  Ru  Ru27  1  0.854233  0.145767  0.250000  1
  Ru  Ru28  1  0.500086  0.000037  0.122764  1
  Ru  Ru29  1  0.499754  0.000054  0.622954  1
  Ru  Ru30  1  0.999946  0.500246  0.877046  1
  Ru  Ru31  1  0.999963  0.499914  0.377236  1
