# generated using pymatgen
data_Rb3GdI6
_symmetry_space_group_name_H-M   'P 1'
_cell_length_a   10.32612241
_cell_length_b   10.32612241
_cell_length_c   8.61062700
_cell_angle_alpha   90.00000000
_cell_angle_beta   90.00000000
_cell_angle_gamma   90.00000000
_symmetry_Int_Tables_number   1
_chemical_formula_structural   Rb3GdI6
_chemical_formula_sum   'Rb6 Gd2 I12'
_cell_volume   918.14085843
_cell_formula_units_Z   2
loop_
 _symmetry_equiv_pos_site_id
 _symmetry_equiv_pos_as_xyz
  1  'x, y, z'
loop_
 _atom_site_type_symbol
 _atom_site_label
 _atom_site_symmetry_multiplicity
 _atom_site_fract_x
 _atom_site_fract_y
 _atom_site_fract_z
 _atom_site_occupancy
  Rb  Rb0  1  0.000000  0.000000  0.500000  1
  Rb  Rb1  1  0.000000  0.000000  0.000000  1
  Rb  Rb2  1  0.233430  0.588245  0.500000  1
  Rb  Rb3  1  0.766570  0.411755  0.500000  1
  Rb  Rb4  1  0.411755  0.233430  0.000000  1
  Rb  Rb5  1  0.588245  0.766570  0.000000  1
  Gd  Gd6  1  0.500000  0.000000  0.500000  1
  Gd  Gd7  1  0.000000  0.500000  0.000000  1
  I  I8  1  0.702011  0.060430  0.751940  1
  I  I9  1  0.297989  0.939570  0.751940  1
  I  I10  1  0.939570  0.702011  0.251940  1
  I  I11  1  0.060430  0.297989  0.251940  1
  I  I12  1  0.297989  0.939570  0.248060  1
  I  I13  1  0.702011  0.060430  0.248060  1
  I  I14  1  0.060430  0.297989  0.748060  1
  I  I15  1  0.939570  0.702011  0.748060  1
  I  I16  1  0.570006  0.712983  0.500000  1
  I  I17  1  0.429994  0.287017  0.500000  1
  I  I18  1  0.287017  0.570006  0.000000  1
  I  I19  1  0.712983  0.429994  0.000000  1
