# generated using pymatgen
data_Tb6Fe9Co7(P6W)2
_symmetry_space_group_name_H-M   'P 1'
_cell_length_a   3.75042200
_cell_length_b   10.60687660
_cell_length_c   12.21942183
_cell_angle_alpha   90.12877207
_cell_angle_beta   90.00000000
_cell_angle_gamma   90.00000000
_symmetry_Int_Tables_number   1
_chemical_formula_structural   Tb6Fe9Co7(P6W)2
_chemical_formula_sum   'Tb6 Fe9 Co7 P12 W2'
_cell_volume   486.09059065
_cell_formula_units_Z   1
loop_
 _symmetry_equiv_pos_site_id
 _symmetry_equiv_pos_as_xyz
  1  'x, y, z'
loop_
 _atom_site_type_symbol
 _atom_site_label
 _atom_site_symmetry_multiplicity
 _atom_site_fract_x
 _atom_site_fract_y
 _atom_site_fract_z
 _atom_site_occupancy
  Tb  Tb0  1  0.000000  0.499903  0.525392  1
  Tb  Tb1  1  0.500000  0.998794  0.474453  1
  Tb  Tb2  1  0.500000  0.821719  0.205037  1
  Tb  Tb3  1  0.500000  0.178914  0.205610  1
  Tb  Tb4  1  0.000000  0.678345  0.794967  1
  Tb  Tb5  1  0.000000  0.320956  0.794440  1
  Fe  Fe6  1  0.000000  0.499563  0.987936  1
  Fe  Fe7  1  0.500000  0.000171  0.012096  1
  Fe  Fe8  1  0.500000  0.329423  0.995757  1
  Fe  Fe9  1  0.500000  0.670173  0.995718  1
  Fe  Fe10  1  0.000000  0.170284  0.004046  1
  Fe  Fe11  1  0.000000  0.829512  0.004040  1
  Fe  Fe12  1  0.500000  0.297708  0.430066  1
  Fe  Fe13  1  0.500000  0.703182  0.430851  1
  Fe  Fe14  1  0.000000  0.202833  0.569964  1
  Co  Co15  1  0.500000  0.500029  0.699953  1
  Co  Co16  1  0.000000  0.000451  0.300291  1
  Co  Co17  1  0.000000  0.797619  0.570130  1
  Co  Co18  1  0.500000  0.878575  0.707591  1
  Co  Co19  1  0.500000  0.119108  0.707683  1
  Co  Co20  1  0.000000  0.620903  0.292235  1
  Co  Co21  1  0.000000  0.380589  0.292263  1
  P  P22  1  0.500000  0.499699  0.886224  1
  P  P23  1  0.000000  0.000253  0.113848  1
  P  P24  1  0.500000  0.499983  0.349983  1
  P  P25  1  0.000000  0.002692  0.650247  1
  P  P26  1  0.500000  0.305685  0.613463  1
  P  P27  1  0.500000  0.692327  0.614252  1
  P  P28  1  0.000000  0.194587  0.386558  1
  P  P29  1  0.000000  0.806495  0.385170  1
  P  P30  1  0.500000  0.843828  0.894236  1
  P  P31  1  0.500000  0.155592  0.893639  1
  P  P32  1  0.000000  0.655979  0.105763  1
  P  P33  1  0.000000  0.344218  0.106352  1
  W  W34  1  0.500000  0.500020  0.151943  1
  W  W35  1  0.000000  0.999887  0.847801  1
