# generated using pymatgen
data_Er8Ta11Si16Tc
_symmetry_space_group_name_H-M   'P 1'
_cell_length_a   6.99964752
_cell_length_b   6.99009993
_cell_length_c   12.94375316
_cell_angle_alpha   90.02432910
_cell_angle_beta   89.78327301
_cell_angle_gamma   89.94338192
_symmetry_Int_Tables_number   1
_chemical_formula_structural   Er8Ta11Si16Tc
_chemical_formula_sum   'Er8 Ta11 Si16 Tc1'
_cell_volume   633.31010690
_cell_formula_units_Z   1
loop_
 _symmetry_equiv_pos_site_id
 _symmetry_equiv_pos_as_xyz
  1  'x, y, z'
loop_
 _atom_site_type_symbol
 _atom_site_label
 _atom_site_symmetry_multiplicity
 _atom_site_fract_x
 _atom_site_fract_y
 _atom_site_fract_z
 _atom_site_occupancy
  Er  Er0  1  0.341926  0.002110  0.469726  1
  Er  Er1  1  0.499674  0.840887  0.717872  1
  Er  Er2  1  0.501831  0.158567  0.218143  1
  Er  Er3  1  0.841800  0.498699  0.282673  1
  Er  Er4  1  0.157852  0.502289  0.780815  1
  Er  Er5  1  0.659087  0.997946  0.967287  1
  Er  Er6  1  0.002158  0.341929  0.532187  1
  Er  Er7  1  0.998618  0.658701  0.031203  1
  Ta  Ta8  1  0.328655  0.329434  0.000441  1
  Ta  Ta9  1  0.171760  0.828408  0.250637  1
  Ta  Ta10  1  0.828871  0.173517  0.750213  1
  Ta  Ta11  1  0.669733  0.672153  0.499492  1
  Ta  Ta12  1  0.152664  0.005210  0.873332  1
  Ta  Ta13  1  0.493501  0.653179  0.123344  1
  Ta  Ta14  1  0.506924  0.346550  0.624046  1
  Ta  Ta15  1  0.654653  0.494251  0.875088  1
  Ta  Ta16  1  0.344772  0.509116  0.377172  1
  Ta  Ta17  1  0.846858  0.993243  0.373611  1
  Ta  Ta18  1  0.006839  0.153446  0.125570  1
  Si  Si19  1  0.199054  0.128605  0.681406  1
  Si  Si20  1  0.364644  0.703142  0.931186  1
  Si  Si21  1  0.633583  0.295494  0.432515  1
  Si  Si22  1  0.705388  0.365720  0.068502  1
  Si  Si23  1  0.293275  0.635512  0.569379  1
  Si  Si24  1  0.796492  0.864790  0.181833  1
  Si  Si25  1  0.135073  0.203482  0.318760  1
  Si  Si26  1  0.866101  0.798085  0.816265  1
  Si  Si27  1  0.295282  0.955000  0.063497  1
  Si  Si28  1  0.545072  0.794877  0.313315  1
  Si  Si29  1  0.453873  0.205683  0.813425  1
  Si  Si30  1  0.795816  0.548048  0.684931  1
  Si  Si31  1  0.204177  0.455768  0.186524  1
  Si  Si32  1  0.712214  0.041500  0.563593  1
  Si  Si33  1  0.954893  0.294552  0.936709  1
  Si  Si34  1  0.042277  0.706880  0.438909  1
  Tc  Tc35  1  0.994609  0.843232  0.626401  1
