# generated using pymatgen
data_Y2V3Co9SiAs6
_symmetry_space_group_name_H-M   'P 1'
_cell_length_a   3.75992000
_cell_length_b   9.37210114
_cell_length_c   9.37210200
_cell_angle_alpha   119.99999599
_cell_angle_beta   90.00000000
_cell_angle_gamma   90.00000000
_symmetry_Int_Tables_number   1
_chemical_formula_structural   Y2V3Co9SiAs6
_chemical_formula_sum   'Y2 V3 Co9 Si1 As6'
_cell_volume   286.01132298
_cell_formula_units_Z   1
loop_
 _symmetry_equiv_pos_site_id
 _symmetry_equiv_pos_as_xyz
  1  'x, y, z'
loop_
 _atom_site_type_symbol
 _atom_site_label
 _atom_site_symmetry_multiplicity
 _atom_site_fract_x
 _atom_site_fract_y
 _atom_site_fract_z
 _atom_site_occupancy
  Y  Y0  1  0.000000  0.666667  0.333333  1
  Y  Y1  1  0.500000  0.333333  0.666667  1
  V  V2  1  0.500000  0.787628  0.900624  1
  V  V3  1  0.500000  0.112996  0.212372  1
  V  V4  1  0.500000  0.099376  0.887004  1
  Co  Co5  1  0.000000  0.570182  0.941957  1
  Co  Co6  1  0.000000  0.371774  0.429818  1
  Co  Co7  1  0.000000  0.058043  0.628226  1
  Co  Co8  1  0.000000  0.880425  0.155168  1
  Co  Co9  1  0.000000  0.274743  0.119575  1
  Co  Co10  1  0.000000  0.844832  0.725257  1
  Co  Co11  1  0.500000  0.950302  0.382679  1
  Co  Co12  1  0.500000  0.432376  0.049698  1
  Co  Co13  1  0.500000  0.617321  0.567624  1
  Si  Si14  1  0.000000  0.000000  0.000000  1
  As  As15  1  0.500000  0.708904  0.117453  1
  As  As16  1  0.500000  0.408549  0.291096  1
  As  As17  1  0.500000  0.882547  0.591451  1
  As  As18  1  0.000000  0.588495  0.702895  1
  As  As19  1  0.000000  0.114400  0.411505  1
  As  As20  1  0.000000  0.297105  0.885600  1
