# generated using pymatgen
data_DyHoAlZn16
_symmetry_space_group_name_H-M   'P 1'
_cell_length_a   6.79115599
_cell_length_b   6.79115514
_cell_length_c   6.79115503
_cell_angle_alpha   82.80797795
_cell_angle_beta   82.80798438
_cell_angle_gamma   82.80797574
_symmetry_Int_Tables_number   1
_chemical_formula_structural   DyHoAlZn16
_chemical_formula_sum   'Dy1 Ho1 Al1 Zn16'
_cell_volume   306.38323335
_cell_formula_units_Z   1
loop_
 _symmetry_equiv_pos_site_id
 _symmetry_equiv_pos_as_xyz
  1  'x, y, z'
loop_
 _atom_site_type_symbol
 _atom_site_label
 _atom_site_symmetry_multiplicity
 _atom_site_fract_x
 _atom_site_fract_y
 _atom_site_fract_z
 _atom_site_occupancy
  Dy  Dy0  1  0.334175  0.334175  0.334175  1
  Ho  Ho1  1  0.665967  0.665967  0.665967  1
  Al  Al2  1  0.098541  0.098541  0.098541  1
  Zn  Zn3  1  0.352498  0.838858  0.352498  1
  Zn  Zn4  1  0.352498  0.352498  0.838858  1
  Zn  Zn5  1  0.838858  0.352498  0.352498  1
  Zn  Zn6  1  0.648532  0.161171  0.648532  1
  Zn  Zn7  1  0.648532  0.648532  0.161171  1
  Zn  Zn8  1  0.161171  0.648532  0.648532  1
  Zn  Zn9  1  0.299704  0.700692  0.999802  1
  Zn  Zn10  1  0.999802  0.299704  0.700692  1
  Zn  Zn11  1  0.700692  0.999802  0.299704  1
  Zn  Zn12  1  0.999802  0.700692  0.299704  1
  Zn  Zn13  1  0.299704  0.999802  0.700692  1
  Zn  Zn14  1  0.700692  0.299704  0.999802  1
  Zn  Zn15  1  0.999344  0.999344  0.502291  1
  Zn  Zn16  1  0.502291  0.999344  0.999344  1
  Zn  Zn17  1  0.999344  0.502291  0.999344  1
  Zn  Zn18  1  0.897851  0.897851  0.897851  1
