# generated using pymatgen
data_Ca10HoReN10
_symmetry_space_group_name_H-M   'P 1'
_cell_length_a   7.09233270
_cell_length_b   7.09233183
_cell_length_c   8.95698093
_cell_angle_alpha   80.40912494
_cell_angle_beta   80.40912834
_cell_angle_gamma   59.83510875
_symmetry_Int_Tables_number   1
_chemical_formula_structural   Ca10HoReN10
_chemical_formula_sum   'Ca10 Ho1 Re1 N10'
_cell_volume   382.27030024
_cell_formula_units_Z   1
loop_
 _symmetry_equiv_pos_site_id
 _symmetry_equiv_pos_as_xyz
  1  'x, y, z'
loop_
 _atom_site_type_symbol
 _atom_site_label
 _atom_site_symmetry_multiplicity
 _atom_site_fract_x
 _atom_site_fract_y
 _atom_site_fract_z
 _atom_site_occupancy
  Ca  Ca0  1  0.873742  0.361944  0.823970  1
  Ca  Ca1  1  0.872794  0.872794  0.812494  1
  Ca  Ca2  1  0.736833  0.736833  0.531919  1
  Ca  Ca3  1  0.745271  0.258408  0.515437  1
  Ca  Ca4  1  0.622924  0.140578  0.149998  1
  Ca  Ca5  1  0.361944  0.873742  0.823970  1
  Ca  Ca6  1  0.258408  0.745271  0.515437  1
  Ca  Ca7  1  0.240656  0.240656  0.503978  1
  Ca  Ca8  1  0.141623  0.141623  0.160106  1
  Ca  Ca9  1  0.140578  0.622924  0.149998  1
  Ho  Ho10  1  0.369395  0.369395  0.783791  1
  Re  Re11  1  0.632055  0.632055  0.227333  1
  N  N12  1  0.898439  0.475474  0.313939  1
  N  N13  1  0.992126  0.992126  0.026463  1
  N  N14  1  0.674068  0.674068  0.021363  1
  N  N15  1  0.552869  0.552869  0.681964  1
  N  N16  1  0.475474  0.898439  0.313939  1
  N  N17  1  0.554004  0.064464  0.659983  1
  N  N18  1  0.478622  0.478622  0.296070  1
  N  N19  1  0.315336  0.315336  0.030193  1
  N  N20  1  0.060659  0.060659  0.643478  1
  N  N21  1  0.064464  0.554004  0.659983  1
