# generated using pymatgen
data_Er3Cd3IrAu2
_symmetry_space_group_name_H-M   'P 1'
_cell_length_a   7.82618300
_cell_length_b   7.82618300
_cell_length_c   3.76644800
_cell_angle_alpha   90.00000000
_cell_angle_beta   90.00000000
_cell_angle_gamma   120.00000424
_symmetry_Int_Tables_number   1
_chemical_formula_structural   Er3Cd3IrAu2
_chemical_formula_sum   'Er3 Cd3 Ir1 Au2'
_cell_volume   199.78486590
_cell_formula_units_Z   1
loop_
 _symmetry_equiv_pos_site_id
 _symmetry_equiv_pos_as_xyz
  1  'x, y, z'
loop_
 _atom_site_type_symbol
 _atom_site_label
 _atom_site_symmetry_multiplicity
 _atom_site_fract_x
 _atom_site_fract_y
 _atom_site_fract_z
 _atom_site_occupancy
  Er  Er0  1  0.582226  0.973261  0.000000  1
  Er  Er1  1  0.026739  0.608965  0.000000  1
  Er  Er2  1  0.391035  0.417774  0.000000  1
  Cd  Cd3  1  0.270371  0.002949  0.500000  1
  Cd  Cd4  1  0.997051  0.267422  0.500000  1
  Cd  Cd5  1  0.732578  0.729629  0.500000  1
  Ir  Ir6  1  0.333333  0.666667  0.500000  1
  Au  Au7  1  0.666667  0.333333  0.500000  1
  Au  Au8  1  0.000000  0.000000  0.000000  1
