# generated using pymatgen
data_Dy3MgPaInRh3
_symmetry_space_group_name_H-M   'P 1'
_cell_length_a   7.55229722
_cell_length_b   7.43264557
_cell_length_c   4.10461300
_cell_angle_alpha   90.00000000
_cell_angle_beta   90.00000000
_cell_angle_gamma   119.73121610
_symmetry_Int_Tables_number   1
_chemical_formula_structural   Dy3MgPaInRh3
_chemical_formula_sum   'Dy3 Mg1 Pa1 In1 Rh3'
_cell_volume   200.07611582
_cell_formula_units_Z   1
loop_
 _symmetry_equiv_pos_site_id
 _symmetry_equiv_pos_as_xyz
  1  'x, y, z'
loop_
 _atom_site_type_symbol
 _atom_site_label
 _atom_site_symmetry_multiplicity
 _atom_site_fract_x
 _atom_site_fract_y
 _atom_site_fract_z
 _atom_site_occupancy
  Dy  Dy0  1  0.000009  0.627096  0.500000  1
  Dy  Dy1  1  0.561508  0.968016  0.500000  1
  Dy  Dy2  1  0.437232  0.408301  0.500000  1
  Mg  Mg3  1  0.253278  0.003569  0.000000  1
  Pa  Pa4  1  0.995660  0.264970  0.000000  1
  In  In5  1  0.744878  0.748164  0.000000  1
  Rh  Rh6  1  0.009729  0.028678  0.500000  1
  Rh  Rh7  1  0.689695  0.321931  0.000000  1
  Rh  Rh8  1  0.308012  0.629274  0.000000  1
