# generated using pymatgen
data_Yb2NiH4
_symmetry_space_group_name_H-M   'P 1'
_cell_length_a   4.97592500
_cell_length_b   6.87898500
_cell_length_c   8.75718600
_cell_angle_alpha   90.00000000
_cell_angle_beta   90.00000000
_cell_angle_gamma   90.00000000
_symmetry_Int_Tables_number   1
_chemical_formula_structural   Yb2NiH4
_chemical_formula_sum   'Yb8 Ni4 H16'
_cell_volume   299.75246441
_cell_formula_units_Z   4
loop_
 _symmetry_equiv_pos_site_id
 _symmetry_equiv_pos_as_xyz
  1  'x, y, z'
loop_
 _atom_site_type_symbol
 _atom_site_label
 _atom_site_symmetry_multiplicity
 _atom_site_fract_x
 _atom_site_fract_y
 _atom_site_fract_z
 _atom_site_occupancy
  Yb  Yb0  1  0.250000  0.145100  0.595806  1
  Yb  Yb1  1  0.250000  0.645100  0.904194  1
  Yb  Yb2  1  0.750000  0.854900  0.404194  1
  Yb  Yb3  1  0.750000  0.354900  0.095806  1
  Yb  Yb4  1  0.250000  0.489093  0.337089  1
  Yb  Yb5  1  0.250000  0.989093  0.162911  1
  Yb  Yb6  1  0.750000  0.510907  0.662911  1
  Yb  Yb7  1  0.750000  0.010907  0.837089  1
  Ni  Ni8  1  0.250000  0.240504  0.918813  1
  Ni  Ni9  1  0.250000  0.740504  0.581187  1
  Ni  Ni10  1  0.750000  0.759496  0.081187  1
  Ni  Ni11  1  0.750000  0.259496  0.418813  1
  H  H12  1  0.515636  0.324609  0.840978  1
  H  H13  1  0.984364  0.824609  0.659022  1
  H  H14  1  0.015636  0.675391  0.159022  1
  H  H15  1  0.484364  0.175391  0.340978  1
  H  H16  1  0.484364  0.675391  0.159022  1
  H  H17  1  0.015636  0.175391  0.340978  1
  H  H18  1  0.984364  0.324609  0.840978  1
  H  H19  1  0.515636  0.824609  0.659022  1
  H  H20  1  0.250000  0.009960  0.890763  1
  H  H21  1  0.250000  0.509960  0.609237  1
  H  H22  1  0.750000  0.990040  0.109237  1
  H  H23  1  0.750000  0.490040  0.390763  1
  H  H24  1  0.250000  0.328845  0.088904  1
  H  H25  1  0.250000  0.828845  0.411096  1
  H  H26  1  0.750000  0.671155  0.911096  1
  H  H27  1  0.750000  0.171155  0.588904  1
