# generated using pymatgen
data_Dy6CuSi4Ni
_symmetry_space_group_name_H-M   'P 1'
_cell_length_a   4.15043700
_cell_length_b   11.25881200
_cell_length_c   11.27804300
_cell_angle_alpha   90.00000000
_cell_angle_beta   90.00000000
_cell_angle_gamma   90.00000000
_symmetry_Int_Tables_number   1
_chemical_formula_structural   Dy6CuSi4Ni
_chemical_formula_sum   'Dy12 Cu2 Si8 Ni2'
_cell_volume   527.01155745
_cell_formula_units_Z   2
loop_
 _symmetry_equiv_pos_site_id
 _symmetry_equiv_pos_as_xyz
  1  'x, y, z'
loop_
 _atom_site_type_symbol
 _atom_site_label
 _atom_site_symmetry_multiplicity
 _atom_site_fract_x
 _atom_site_fract_y
 _atom_site_fract_z
 _atom_site_occupancy
  Dy  Dy0  1  0.250000  0.058771  0.877844  1
  Dy  Dy1  1  0.250000  0.441229  0.377844  1
  Dy  Dy2  1  0.750000  0.936400  0.117177  1
  Dy  Dy3  1  0.750000  0.563600  0.617177  1
  Dy  Dy4  1  0.250000  0.119578  0.558059  1
  Dy  Dy5  1  0.250000  0.380422  0.058059  1
  Dy  Dy6  1  0.750000  0.873988  0.440576  1
  Dy  Dy7  1  0.750000  0.626012  0.940576  1
  Dy  Dy8  1  0.250000  0.804418  0.714121  1
  Dy  Dy9  1  0.250000  0.695582  0.214121  1
  Dy  Dy10  1  0.750000  0.196459  0.290168  1
  Dy  Dy11  1  0.750000  0.303541  0.790168  1
  Cu  Cu12  1  0.250000  0.364884  0.630436  1
  Cu  Cu13  1  0.250000  0.135116  0.130436  1
  Si  Si14  1  0.250000  0.814841  0.975312  1
  Si  Si15  1  0.250000  0.685159  0.475312  1
  Si  Si16  1  0.750000  0.188216  0.024412  1
  Si  Si17  1  0.750000  0.311784  0.524412  1
  Si  Si18  1  0.250000  0.496157  0.805771  1
  Si  Si19  1  0.250000  0.003843  0.305771  1
  Si  Si20  1  0.750000  0.506875  0.195575  1
  Si  Si21  1  0.750000  0.993125  0.695575  1
  Ni  Ni22  1  0.750000  0.633704  0.370547  1
  Ni  Ni23  1  0.750000  0.866296  0.870547  1
