# generated using pymatgen
data_Ce11Tm(CoSi)8
_symmetry_space_group_name_H-M   'P 1'
_cell_length_a   5.47466900
_cell_length_b   7.86460400
_cell_length_c   12.31652000
_cell_angle_alpha   90.00000000
_cell_angle_beta   90.00000000
_cell_angle_gamma   89.99687828
_symmetry_Int_Tables_number   1
_chemical_formula_structural   Ce11Tm(CoSi)8
_chemical_formula_sum   'Ce11 Tm1 Co8 Si8'
_cell_volume   530.30136215
_cell_formula_units_Z   1
loop_
 _symmetry_equiv_pos_site_id
 _symmetry_equiv_pos_as_xyz
  1  'x, y, z'
loop_
 _atom_site_type_symbol
 _atom_site_label
 _atom_site_symmetry_multiplicity
 _atom_site_fract_x
 _atom_site_fract_y
 _atom_site_fract_z
 _atom_site_occupancy
  Ce  Ce0  1  0.346173  0.752053  0.250000  1
  Ce  Ce1  1  0.656602  0.246005  0.750000  1
  Ce  Ce2  1  0.653450  0.253212  0.250000  1
  Ce  Ce3  1  0.158616  0.399746  0.407850  1
  Ce  Ce4  1  0.158709  0.101719  0.592747  1
  Ce  Ce5  1  0.839398  0.900560  0.091968  1
  Ce  Ce6  1  0.838876  0.598218  0.907397  1
  Ce  Ce7  1  0.838876  0.598218  0.592603  1
  Ce  Ce8  1  0.839398  0.900560  0.408032  1
  Ce  Ce9  1  0.158709  0.101719  0.907253  1
  Ce  Ce10  1  0.158616  0.399746  0.092150  1
  Tm  Tm11  1  0.349260  0.746711  0.750000  1
  Co  Co12  1  0.379037  0.039715  0.412685  1
  Co  Co13  1  0.382442  0.458362  0.588185  1
  Co  Co14  1  0.617163  0.541586  0.088445  1
  Co  Co15  1  0.620973  0.960554  0.911060  1
  Co  Co16  1  0.379037  0.039715  0.087315  1
  Co  Co17  1  0.382442  0.458362  0.911815  1
  Co  Co18  1  0.617163  0.541586  0.411555  1
  Co  Co19  1  0.620973  0.960554  0.588940  1
  Si  Si20  1  0.647501  0.249531  0.499711  1
  Si  Si21  1  0.351626  0.750289  0.996433  1
  Si  Si22  1  0.351626  0.750289  0.503567  1
  Si  Si23  1  0.647501  0.249531  0.000289  1
  Si  Si24  1  0.842613  0.891008  0.750000  1
  Si  Si25  1  0.841397  0.604298  0.250000  1
  Si  Si26  1  0.162912  0.402336  0.750000  1
  Si  Si27  1  0.158911  0.103814  0.250000  1
