# generated using pymatgen
data_CePr2Th(Al3Ir)6
_symmetry_space_group_name_H-M   'P 1'
_cell_length_a   7.62483479
_cell_length_b   7.63292179
_cell_length_c   9.54255800
_cell_angle_alpha   90.00000000
_cell_angle_beta   90.00000000
_cell_angle_gamma   119.47902667
_symmetry_Int_Tables_number   1
_chemical_formula_structural   CePr2Th(Al3Ir)6
_chemical_formula_sum   'Ce1 Pr2 Th1 Al18 Ir6'
_cell_volume   483.47357275
_cell_formula_units_Z   1
loop_
 _symmetry_equiv_pos_site_id
 _symmetry_equiv_pos_as_xyz
  1  'x, y, z'
loop_
 _atom_site_type_symbol
 _atom_site_label
 _atom_site_symmetry_multiplicity
 _atom_site_fract_x
 _atom_site_fract_y
 _atom_site_fract_z
 _atom_site_occupancy
  Ce  Ce0  1  0.671489  0.995316  0.250000  1
  Pr  Pr1  1  0.004370  0.329417  0.750000  1
  Pr  Pr2  1  0.329929  0.005183  0.750000  1
  Th  Th3  1  0.995149  0.671205  0.250000  1
  Al  Al4  1  0.132250  0.133393  0.250000  1
  Al  Al5  1  0.870099  0.871003  0.750000  1
  Al  Al6  1  0.002503  0.332847  0.074367  1
  Al  Al7  1  0.997230  0.664777  0.923749  1
  Al  Al8  1  0.997230  0.664777  0.576251  1
  Al  Al9  1  0.338249  0.004921  0.425696  1
  Al  Al10  1  0.002503  0.332847  0.425633  1
  Al  Al11  1  0.665025  0.997748  0.572822  1
  Al  Al12  1  0.665025  0.997748  0.927178  1
  Al  Al13  1  0.338249  0.004921  0.074304  1
  Al  Al14  1  0.333854  0.333838  0.548350  1
  Al  Al15  1  0.663184  0.665011  0.452671  1
  Al  Al16  1  0.663184  0.665011  0.047329  1
  Al  Al17  1  0.333854  0.333838  0.951650  1
  Al  Al18  1  0.342906  0.546780  0.250000  1
  Al  Al19  1  0.658863  0.452632  0.750000  1
  Al  Al20  1  0.544288  0.339244  0.250000  1
  Al  Al21  1  0.452375  0.660063  0.750000  1
  Ir  Ir22  1  0.672811  0.329993  0.003028  1
  Ir  Ir23  1  0.328122  0.671761  0.003001  1
  Ir  Ir24  1  0.328122  0.671761  0.496999  1
  Ir  Ir25  1  0.672811  0.329993  0.496972  1
  Ir  Ir26  1  0.998164  0.996987  0.003933  1
  Ir  Ir27  1  0.998164  0.996987  0.496067  1
