# generated using pymatgen
data_Ca20TlCd3Ag8
_symmetry_space_group_name_H-M   'P 1'
_cell_length_a   8.15777900
_cell_length_b   8.15777900
_cell_length_c   14.81165300
_cell_angle_alpha   90.00000000
_cell_angle_beta   90.00000000
_cell_angle_gamma   90.00000000
_symmetry_Int_Tables_number   1
_chemical_formula_structural   Ca20TlCd3Ag8
_chemical_formula_sum   'Ca20 Tl1 Cd3 Ag8'
_cell_volume   985.70600122
_cell_formula_units_Z   1
loop_
 _symmetry_equiv_pos_site_id
 _symmetry_equiv_pos_as_xyz
  1  'x, y, z'
loop_
 _atom_site_type_symbol
 _atom_site_label
 _atom_site_symmetry_multiplicity
 _atom_site_fract_x
 _atom_site_fract_y
 _atom_site_fract_z
 _atom_site_occupancy
  Ca  Ca0  1  0.670075  0.164239  0.105787  1
  Ca  Ca1  1  0.167962  0.667030  0.608158  1
  Ca  Ca2  1  0.329925  0.835761  0.105787  1
  Ca  Ca3  1  0.832038  0.332970  0.608158  1
  Ca  Ca4  1  0.835761  0.670075  0.105787  1
  Ca  Ca5  1  0.332970  0.167962  0.608158  1
  Ca  Ca6  1  0.164239  0.329925  0.105787  1
  Ca  Ca7  1  0.667030  0.832038  0.608158  1
  Ca  Ca8  1  0.835761  0.329925  0.894213  1
  Ca  Ca9  1  0.332970  0.832038  0.391842  1
  Ca  Ca10  1  0.164239  0.670075  0.894213  1
  Ca  Ca11  1  0.667030  0.167962  0.391842  1
  Ca  Ca12  1  0.670075  0.835761  0.894213  1
  Ca  Ca13  1  0.167962  0.332970  0.391842  1
  Ca  Ca14  1  0.329925  0.164239  0.894213  1
  Ca  Ca15  1  0.832038  0.667030  0.391842  1
  Ca  Ca16  1  0.500000  0.500000  0.754244  1
  Ca  Ca17  1  0.000000  0.000000  0.250170  1
  Ca  Ca18  1  0.000000  0.000000  0.749830  1
  Ca  Ca19  1  0.500000  0.500000  0.245756  1
  Tl  Tl20  1  0.000000  0.000000  0.000000  1
  Cd  Cd21  1  0.500000  0.500000  0.500000  1
  Cd  Cd22  1  0.500000  0.500000  0.000000  1
  Cd  Cd23  1  0.000000  0.000000  0.500000  1
  Ag  Ag24  1  0.625545  0.126679  0.751221  1
  Ag  Ag25  1  0.126679  0.625545  0.248779  1
  Ag  Ag26  1  0.873321  0.374455  0.248779  1
  Ag  Ag27  1  0.374455  0.873321  0.751221  1
  Ag  Ag28  1  0.873321  0.625545  0.751221  1
  Ag  Ag29  1  0.374455  0.126679  0.248779  1
  Ag  Ag30  1  0.126679  0.374455  0.751221  1
  Ag  Ag31  1  0.625545  0.873321  0.248779  1
