# generated using pymatgen
data_Be6AsRu12W5
_symmetry_space_group_name_H-M   'P 1'
_cell_length_a   4.21892400
_cell_length_b   5.96974300
_cell_length_c   12.64354600
_cell_angle_alpha   90.00109993
_cell_angle_beta   90.00004076
_cell_angle_gamma   89.99996722
_symmetry_Int_Tables_number   1
_chemical_formula_structural   Be6AsRu12W5
_chemical_formula_sum   'Be6 As1 Ru12 W5'
_cell_volume   318.43898423
_cell_formula_units_Z   1
loop_
 _symmetry_equiv_pos_site_id
 _symmetry_equiv_pos_as_xyz
  1  'x, y, z'
loop_
 _atom_site_type_symbol
 _atom_site_label
 _atom_site_symmetry_multiplicity
 _atom_site_fract_x
 _atom_site_fract_y
 _atom_site_fract_z
 _atom_site_occupancy
  Be  Be0  1  0.000000  0.499999  0.000000  1
  Be  Be1  1  0.499668  0.999990  0.176481  1
  Be  Be2  1  0.999674  0.500006  0.329347  1
  Be  Be3  1  0.500001  0.000000  0.500000  1
  Be  Be4  1  0.000325  0.499992  0.670653  1
  Be  Be5  1  0.500331  0.000010  0.823519  1
  As  As6  1  0.000000  0.000000  0.000000  1
  Ru  Ru7  1  0.500002  0.238643  0.000000  1
  Ru  Ru8  1  0.500000  0.761356  0.000000  1
  Ru  Ru9  1  0.999816  0.245077  0.162370  1
  Ru  Ru10  1  0.999814  0.754924  0.162369  1
  Ru  Ru11  1  0.499825  0.251980  0.332576  1
  Ru  Ru12  1  0.499825  0.748021  0.332575  1
  Ru  Ru13  1  0.000000  0.249281  0.499999  1
  Ru  Ru14  1  0.000000  0.750720  0.500001  1
  Ru  Ru15  1  0.500176  0.251980  0.667425  1
  Ru  Ru16  1  0.500176  0.748021  0.667424  1
  Ru  Ru17  1  0.000185  0.245075  0.837632  1
  Ru  Ru18  1  0.000183  0.754922  0.837631  1
  W  W19  1  0.499794  0.499986  0.161305  1
  W  W20  1  0.999782  0.000011  0.331774  1
  W  W21  1  0.500001  0.499999  0.500000  1
  W  W22  1  0.000219  0.999989  0.668226  1
  W  W23  1  0.500205  0.500012  0.838695  1
