# generated using pymatgen
data_Dy2Er3Mn(Co3P2)6
_symmetry_space_group_name_H-M   'P 1'
_cell_length_a   12.00488318
_cell_length_b   12.00488296
_cell_length_c   3.67274500
_cell_angle_alpha   90.00000000
_cell_angle_beta   90.00000000
_cell_angle_gamma   119.87884374
_symmetry_Int_Tables_number   1
_chemical_formula_structural   Dy2Er3Mn(Co3P2)6
_chemical_formula_sum   'Dy2 Er3 Mn1 Co18 P12'
_cell_volume   458.95086408
_cell_formula_units_Z   1
loop_
 _symmetry_equiv_pos_site_id
 _symmetry_equiv_pos_as_xyz
  1  'x, y, z'
loop_
 _atom_site_type_symbol
 _atom_site_label
 _atom_site_symmetry_multiplicity
 _atom_site_fract_x
 _atom_site_fract_y
 _atom_site_fract_z
 _atom_site_occupancy
  Dy  Dy0  1  0.666062  0.333311  0.000000  1
  Dy  Dy1  1  0.333311  0.666062  0.000000  1
  Er  Er2  1  0.186363  0.186363  0.500000  1
  Er  Er3  1  0.812000  0.999255  0.500000  1
  Er  Er4  1  0.999255  0.812000  0.500000  1
  Mn  Mn5  1  0.558033  0.558033  0.000000  1
  Co  Co6  1  0.447772  0.000329  0.000000  1
  Co  Co7  1  0.000329  0.447772  0.000000  1
  Co  Co8  1  0.822273  0.200112  0.000000  1
  Co  Co9  1  0.802989  0.623350  0.000000  1
  Co  Co10  1  0.375999  0.176387  0.000000  1
  Co  Co11  1  0.200112  0.822273  0.000000  1
  Co  Co12  1  0.623350  0.802989  0.000000  1
  Co  Co13  1  0.176387  0.375999  0.000000  1
  Co  Co14  1  0.641635  0.125144  0.500000  1
  Co  Co15  1  0.875378  0.516118  0.500000  1
  Co  Co16  1  0.482470  0.356604  0.500000  1
  Co  Co17  1  0.125144  0.641635  0.500000  1
  Co  Co18  1  0.516118  0.875378  0.500000  1
  Co  Co19  1  0.356604  0.482470  0.500000  1
  Co  Co20  1  0.717402  0.717402  0.500000  1
  Co  Co21  1  0.283816  0.999241  0.500000  1
  Co  Co22  1  0.999241  0.283816  0.500000  1
  Co  Co23  1  0.000702  0.000702  0.000000  1
  P  P24  1  0.364729  0.364729  0.000000  1
  P  P25  1  0.632976  0.001088  0.000000  1
  P  P26  1  0.001088  0.632976  0.000000  1
  P  P27  1  0.834006  0.314007  0.500000  1
  P  P28  1  0.686720  0.520560  0.500000  1
  P  P29  1  0.478902  0.164810  0.500000  1
  P  P30  1  0.314007  0.834006  0.500000  1
  P  P31  1  0.520560  0.686720  0.500000  1
  P  P32  1  0.164810  0.478902  0.500000  1
  P  P33  1  0.820554  0.820554  0.000000  1
  P  P34  1  0.179701  0.999205  0.000000  1
  P  P35  1  0.999205  0.179701  0.000000  1
