# generated using pymatgen
data_Hf12Th8Si15Bi
_symmetry_space_group_name_H-M   'P 1'
_cell_length_a   7.45374806
_cell_length_b   7.43016245
_cell_length_c   13.70102425
_cell_angle_alpha   89.99365495
_cell_angle_beta   89.50173879
_cell_angle_gamma   90.03926649
_symmetry_Int_Tables_number   1
_chemical_formula_structural   Hf12Th8Si15Bi
_chemical_formula_sum   'Hf12 Th8 Si15 Bi1'
_cell_volume   758.76890735
_cell_formula_units_Z   1
loop_
 _symmetry_equiv_pos_site_id
 _symmetry_equiv_pos_as_xyz
  1  'x, y, z'
loop_
 _atom_site_type_symbol
 _atom_site_label
 _atom_site_symmetry_multiplicity
 _atom_site_fract_x
 _atom_site_fract_y
 _atom_site_fract_z
 _atom_site_occupancy
  Hf  Hf0  1  0.673401  0.326986  0.748744  1
  Hf  Hf1  1  0.329206  0.672141  0.251217  1
  Hf  Hf2  1  0.827231  0.826969  0.500693  1
  Hf  Hf3  1  0.183555  0.173080  0.997778  1
  Hf  Hf4  1  0.488146  0.351589  0.125505  1
  Hf  Hf5  1  0.502076  0.654149  0.625033  1
  Hf  Hf6  1  0.843708  0.002075  0.867114  1
  Hf  Hf7  1  0.157100  0.996832  0.376306  1
  Hf  Hf8  1  0.656255  0.504101  0.375996  1
  Hf  Hf9  1  0.341092  0.499755  0.871970  1
  Hf  Hf10  1  0.017934  0.827433  0.130348  1
  Hf  Hf11  1  0.996049  0.155645  0.624839  1
  Th  Th12  1  0.497000  0.158609  0.534064  1
  Th  Th13  1  0.494052  0.835271  0.030898  1
  Th  Th14  1  0.655898  0.998554  0.289299  1
  Th  Th15  1  0.339074  0.995318  0.780887  1
  Th  Th16  1  0.840825  0.511482  0.963397  1
  Th  Th17  1  0.158729  0.497446  0.468211  1
  Th  Th18  1  0.001370  0.658336  0.714906  1
  Th  Th19  1  0.009882  0.351771  0.224695  1
  Si  Si20  1  0.202029  0.869652  0.566303  1
  Si  Si21  1  0.629174  0.702688  0.814273  1
  Si  Si22  1  0.373098  0.298668  0.318333  1
  Si  Si23  1  0.869496  0.202502  0.434422  1
  Si  Si24  1  0.128503  0.801498  0.932471  1
  Si  Si25  1  0.702187  0.630995  0.183300  1
  Si  Si26  1  0.296352  0.368686  0.682630  1
  Si  Si27  1  0.532584  0.212158  0.927005  1
  Si  Si28  1  0.453291  0.789271  0.437246  1
  Si  Si29  1  0.706990  0.955456  0.682677  1
  Si  Si30  1  0.293531  0.044942  0.185859  1
  Si  Si31  1  0.790685  0.455448  0.564887  1
  Si  Si32  1  0.206801  0.539690  0.063292  1
  Si  Si33  1  0.956434  0.711286  0.318995  1
  Si  Si34  1  0.043522  0.292680  0.814421  1
  Bi  Bi35  1  0.802742  0.126840  0.071988  1
