# generated using pymatgen
data_TaNb(SiIr)2
_symmetry_space_group_name_H-M   'P 1'
_cell_length_a   3.81313000
_cell_length_b   6.45446800
_cell_length_c   7.33345400
_cell_angle_alpha   90.00000000
_cell_angle_beta   90.00000000
_cell_angle_gamma   90.00000000
_symmetry_Int_Tables_number   1
_chemical_formula_structural   TaNb(SiIr)2
_chemical_formula_sum   'Ta2 Nb2 Si4 Ir4'
_cell_volume   180.48895729
_cell_formula_units_Z   2
loop_
 _symmetry_equiv_pos_site_id
 _symmetry_equiv_pos_as_xyz
  1  'x, y, z'
loop_
 _atom_site_type_symbol
 _atom_site_label
 _atom_site_symmetry_multiplicity
 _atom_site_fract_x
 _atom_site_fract_y
 _atom_site_fract_z
 _atom_site_occupancy
  Ta  Ta0  1  0.750000  0.524126  0.827875  1
  Ta  Ta1  1  0.250000  0.975874  0.327875  1
  Nb  Nb2  1  0.750000  0.024414  0.671036  1
  Nb  Nb3  1  0.250000  0.475586  0.171036  1
  Si  Si4  1  0.250000  0.231137  0.874920  1
  Si  Si5  1  0.250000  0.731575  0.625033  1
  Si  Si6  1  0.750000  0.768425  0.125033  1
  Si  Si7  1  0.750000  0.268863  0.374920  1
  Ir  Ir8  1  0.250000  0.853351  0.936751  1
  Ir  Ir9  1  0.250000  0.355270  0.564385  1
  Ir  Ir10  1  0.750000  0.646649  0.436751  1
  Ir  Ir11  1  0.750000  0.144730  0.064385  1
