# generated using pymatgen
data_GePd(SeO3)4
_symmetry_space_group_name_H-M   'P 1'
_cell_length_a   6.99079991
_cell_length_b   5.18235716
_cell_length_c   9.08191552
_cell_angle_alpha   55.90941303
_cell_angle_beta   89.78430341
_cell_angle_gamma   89.94232746
_symmetry_Int_Tables_number   1
_chemical_formula_structural   GePd(SeO3)4
_chemical_formula_sum   'Ge1 Pd1 Se4 O12'
_cell_volume   272.48241971
_cell_formula_units_Z   1
loop_
 _symmetry_equiv_pos_site_id
 _symmetry_equiv_pos_as_xyz
  1  'x, y, z'
loop_
 _atom_site_type_symbol
 _atom_site_label
 _atom_site_symmetry_multiplicity
 _atom_site_fract_x
 _atom_site_fract_y
 _atom_site_fract_z
 _atom_site_occupancy
  Ge  Ge0  1  0.500000  0.000000  0.500000  1
  Pd  Pd1  1  0.000000  0.000000  0.000000  1
  Se  Se2  1  0.823783  0.314632  0.198191  1
  Se  Se3  1  0.675068  0.313128  0.698551  1
  Se  Se4  1  0.176217  0.685368  0.801809  1
  Se  Se5  1  0.324932  0.686872  0.301449  1
  O  O6  1  0.829801  0.310231  0.005848  1
  O  O7  1  0.659862  0.287058  0.513874  1
  O  O8  1  0.170199  0.689769  0.994152  1
  O  O9  1  0.340138  0.712942  0.486126  1
  O  O10  1  0.587405  0.189772  0.259586  1
  O  O11  1  0.915760  0.202896  0.744348  1
  O  O12  1  0.412595  0.810228  0.740414  1
  O  O13  1  0.084240  0.797104  0.255652  1
  O  O14  1  0.770373  0.710782  0.088545  1
  O  O15  1  0.712755  0.713838  0.583821  1
  O  O16  1  0.229627  0.289218  0.911455  1
  O  O17  1  0.287245  0.286162  0.416179  1
