# generated using pymatgen
data_YbYU6(ReB6)4
_symmetry_space_group_name_H-M   'P 1'
_cell_length_a   3.64110200
_cell_length_b   9.29171329
_cell_length_c   11.39252912
_cell_angle_alpha   89.93221820
_cell_angle_beta   90.00000000
_cell_angle_gamma   90.00000000
_symmetry_Int_Tables_number   1
_chemical_formula_structural   YbYU6(ReB6)4
_chemical_formula_sum   'Yb1 Y1 U6 Re4 B24'
_cell_volume   385.43263940
_cell_formula_units_Z   1
loop_
 _symmetry_equiv_pos_site_id
 _symmetry_equiv_pos_as_xyz
  1  'x, y, z'
loop_
 _atom_site_type_symbol
 _atom_site_label
 _atom_site_symmetry_multiplicity
 _atom_site_fract_x
 _atom_site_fract_y
 _atom_site_fract_z
 _atom_site_occupancy
  Yb  Yb0  1  0.000000  0.663022  0.591664  1
  Y  Y1  1  0.000000  0.336805  0.408469  1
  U  U2  1  0.000000  0.836049  0.092601  1
  U  U3  1  0.000000  0.164015  0.907080  1
  U  U4  1  0.000000  0.955302  0.396897  1
  U  U5  1  0.000000  0.042561  0.603715  1
  U  U6  1  0.000000  0.457646  0.103352  1
  U  U7  1  0.000000  0.542969  0.895555  1
  Re  Re8  1  0.000000  0.647860  0.315431  1
  Re  Re9  1  0.000000  0.351714  0.684238  1
  Re  Re10  1  0.000000  0.143280  0.177812  1
  Re  Re11  1  0.000000  0.856926  0.822751  1
  B  B12  1  0.500000  0.552790  0.431007  1
  B  B13  1  0.500000  0.448299  0.569706  1
  B  B14  1  0.500000  0.049817  0.067522  1
  B  B15  1  0.500000  0.950237  0.932550  1
  B  B16  1  0.500000  0.742730  0.423035  1
  B  B17  1  0.500000  0.257142  0.577074  1
  B  B18  1  0.500000  0.243016  0.076409  1
  B  B19  1  0.500000  0.757225  0.923440  1
  B  B20  1  0.500000  0.803556  0.273472  1
  B  B21  1  0.500000  0.196138  0.726548  1
  B  B22  1  0.500000  0.302192  0.225376  1
  B  B23  1  0.500000  0.698463  0.774643  1
  B  B24  1  0.500000  0.645132  0.187637  1
  B  B25  1  0.500000  0.354845  0.812131  1
  B  B26  1  0.500000  0.144298  0.311627  1
  B  B27  1  0.500000  0.855649  0.688704  1
  B  B28  1  0.500000  0.986970  0.219095  1
  B  B29  1  0.500000  0.012606  0.781078  1
  B  B30  1  0.500000  0.488541  0.280898  1
  B  B31  1  0.500000  0.511286  0.718838  1
  B  B32  1  0.500000  0.643264  0.039038  1
  B  B33  1  0.500000  0.356879  0.960703  1
  B  B34  1  0.500000  0.139623  0.461159  1
  B  B35  1  0.500000  0.861155  0.538745  1
