# generated using pymatgen
data_Li3Sm3MgPb4
_symmetry_space_group_name_H-M   'P 1'
_cell_length_a   4.79040165
_cell_length_b   7.37770381
_cell_length_c   8.99224900
_cell_angle_alpha   114.93380275
_cell_angle_beta   105.44794887
_cell_angle_gamma   89.99999505
_symmetry_Int_Tables_number   1
_chemical_formula_structural   Li3Sm3MgPb4
_chemical_formula_sum   'Li3 Sm3 Mg1 Pb4'
_cell_volume   275.47139169
_cell_formula_units_Z   1
loop_
 _symmetry_equiv_pos_site_id
 _symmetry_equiv_pos_as_xyz
  1  'x, y, z'
loop_
 _atom_site_type_symbol
 _atom_site_label
 _atom_site_symmetry_multiplicity
 _atom_site_fract_x
 _atom_site_fract_y
 _atom_site_fract_z
 _atom_site_occupancy
  Li  Li0  1  0.326098  0.015789  0.652260  1
  Li  Li1  1  0.325842  0.640707  0.652114  1
  Li  Li2  1  0.673410  0.367747  0.346489  1
  Sm  Sm3  1  0.000469  0.002914  0.002670  1
  Sm  Sm4  1  0.125942  0.617693  0.249738  1
  Sm  Sm5  1  0.876579  0.370847  0.751792  1
  Mg  Mg6  1  0.673413  0.979201  0.346723  1
  Pb  Pb7  1  0.493626  0.698468  0.986917  1
  Pb  Pb8  1  0.499851  0.293888  0.000809  1
  Pb  Pb9  1  0.788332  0.782796  0.576695  1
  Pb  Pb10  1  0.216436  0.229950  0.433793  1
