# generated using pymatgen
data_Ta6ReSi6Mo5
_symmetry_space_group_name_H-M   'P 1'
_cell_length_a   7.68441117
_cell_length_b   7.69174580
_cell_length_c   7.68376636
_cell_angle_alpha   126.45515463
_cell_angle_beta   128.48699818
_cell_angle_gamma   77.47862342
_symmetry_Int_Tables_number   1
_chemical_formula_structural   Ta6ReSi6Mo5
_chemical_formula_sum   'Ta6 Re1 Si6 Mo5'
_cell_volume   277.36180305
_cell_formula_units_Z   1
loop_
 _symmetry_equiv_pos_site_id
 _symmetry_equiv_pos_as_xyz
  1  'x, y, z'
loop_
 _atom_site_type_symbol
 _atom_site_label
 _atom_site_symmetry_multiplicity
 _atom_site_fract_x
 _atom_site_fract_y
 _atom_site_fract_z
 _atom_site_occupancy
  Ta  Ta0  1  0.549644  0.092081  0.043089  1
  Ta  Ta1  1  0.449979  0.497003  0.548069  1
  Ta  Ta2  1  0.949264  0.496700  0.046242  1
  Ta  Ta3  1  0.048723  0.091663  0.542416  1
  Ta  Ta4  1  0.752628  0.902516  0.651014  1
  Ta  Ta5  1  0.251027  0.901809  0.150182  1
  Re  Re6  1  0.370753  0.496649  0.126242  1
  Si  Si7  1  0.749130  0.497031  0.248189  1
  Si  Si8  1  0.248386  0.496854  0.748316  1
  Si  Si9  1  0.334241  0.827446  0.494340  1
  Si  Si10  1  0.666510  0.164131  0.496007  1
  Si  Si11  1  0.833014  0.829386  0.995374  1
  Si  Si12  1  0.169318  0.165933  0.997894  1
  Mo  Mo13  1  0.499157  0.237910  0.738423  1
  Mo  Mo14  1  0.000684  0.238894  0.238255  1
  Mo  Mo15  1  0.129700  0.755280  0.626158  1
  Mo  Mo16  1  0.869474  0.496498  0.626508  1
  Mo  Mo17  1  0.628368  0.754413  0.125480  1
