# generated using pymatgen
data_Ho6Nb3Al13Os7
_symmetry_space_group_name_H-M   'P 1'
_cell_length_a   9.03478347
_cell_length_b   9.03478454
_cell_length_c   9.03478296
_cell_angle_alpha   59.69514025
_cell_angle_beta   59.69513402
_cell_angle_gamma   59.69513970
_symmetry_Int_Tables_number   1
_chemical_formula_structural   Ho6Nb3Al13Os7
_chemical_formula_sum   'Ho6 Nb3 Al13 Os7'
_cell_volume   517.86942722
_cell_formula_units_Z   1
loop_
 _symmetry_equiv_pos_site_id
 _symmetry_equiv_pos_as_xyz
  1  'x, y, z'
loop_
 _atom_site_type_symbol
 _atom_site_label
 _atom_site_symmetry_multiplicity
 _atom_site_fract_x
 _atom_site_fract_y
 _atom_site_fract_z
 _atom_site_occupancy
  Ho  Ho0  1  0.710953  0.710953  0.281642  1
  Ho  Ho1  1  0.292637  0.709373  0.292637  1
  Ho  Ho2  1  0.709373  0.292637  0.292637  1
  Ho  Ho3  1  0.292637  0.292637  0.709373  1
  Ho  Ho4  1  0.710953  0.281642  0.710953  1
  Ho  Ho5  1  0.281642  0.710953  0.710953  1
  Nb  Nb6  1  0.877366  0.877366  0.361973  1
  Nb  Nb7  1  0.877366  0.361973  0.877366  1
  Nb  Nb8  1  0.361973  0.877366  0.877366  1
  Al  Al9  1  0.880950  0.880950  0.880950  1
  Al  Al10  1  0.121258  0.121258  0.638990  1
  Al  Al11  1  0.121258  0.638990  0.121258  1
  Al  Al12  1  0.638990  0.121258  0.121258  1
  Al  Al13  1  0.120850  0.120850  0.120850  1
  Al  Al14  1  0.670131  0.670131  0.994484  1
  Al  Al15  1  0.670131  0.994484  0.670131  1
  Al  Al16  1  0.994484  0.670131  0.670131  1
  Al  Al17  1  0.665108  0.665108  0.665108  1
  Al  Al18  1  0.331863  0.331863  0.006814  1
  Al  Al19  1  0.331863  0.006814  0.331863  1
  Al  Al20  1  0.006814  0.331863  0.331863  1
  Al  Al21  1  0.332076  0.332076  0.332076  1
  Os  Os22  1  0.001981  0.001981  0.001981  1
  Os  Os23  1  0.998802  0.998802  0.498321  1
  Os  Os24  1  0.502299  0.996818  0.502299  1
  Os  Os25  1  0.996818  0.502299  0.502299  1
  Os  Os26  1  0.502299  0.502299  0.996818  1
  Os  Os27  1  0.998802  0.498321  0.998802  1
  Os  Os28  1  0.498321  0.998802  0.998802  1
