# generated using pymatgen
data_TbY4In4CoPt
_symmetry_space_group_name_H-M   'P 1'
_cell_length_a   3.60022900
_cell_length_b   8.11311008
_cell_length_c   18.17752279
_cell_angle_alpha   90.03329537
_cell_angle_beta   90.00000000
_cell_angle_gamma   90.00000000
_symmetry_Int_Tables_number   1
_chemical_formula_structural   TbY4In4CoPt
_chemical_formula_sum   'Tb2 Y8 In8 Co2 Pt2'
_cell_volume   530.94815840
_cell_formula_units_Z   2
loop_
 _symmetry_equiv_pos_site_id
 _symmetry_equiv_pos_as_xyz
  1  'x, y, z'
loop_
 _atom_site_type_symbol
 _atom_site_label
 _atom_site_symmetry_multiplicity
 _atom_site_fract_x
 _atom_site_fract_y
 _atom_site_fract_z
 _atom_site_occupancy
  Tb  Tb0  1  0.000000  0.244517  0.719803  1
  Tb  Tb1  1  0.000000  0.755483  0.280197  1
  Y  Y2  1  0.000000  0.113497  0.410621  1
  Y  Y3  1  0.000000  0.886503  0.589379  1
  Y  Y4  1  0.000000  0.381611  0.914020  1
  Y  Y5  1  0.000000  0.618389  0.085980  1
  Y  Y6  1  0.000000  0.233406  0.223579  1
  Y  Y7  1  0.000000  0.766594  0.776421  1
  Y  Y8  1  0.000000  0.000000  0.000000  1
  Y  Y9  1  0.000000  0.500000  0.500000  1
  In  In10  1  0.500000  0.423914  0.351198  1
  In  In11  1  0.500000  0.576086  0.648802  1
  In  In12  1  0.500000  0.069757  0.847949  1
  In  In13  1  0.500000  0.930243  0.152051  1
  In  In14  1  0.500000  0.291540  0.067888  1
  In  In15  1  0.500000  0.708460  0.932112  1
  In  In16  1  0.500000  0.204542  0.568796  1
  In  In17  1  0.500000  0.795458  0.431204  1
  Co  Co18  1  0.500000  0.016478  0.305268  1
  Co  Co19  1  0.500000  0.983522  0.694732  1
  Pt  Pt20  1  0.500000  0.478619  0.802028  1
  Pt  Pt21  1  0.500000  0.521381  0.197972  1
