# generated using pymatgen
data_Mn5OsCl18
_symmetry_space_group_name_H-M   'P 1'
_cell_length_a   6.24149330
_cell_length_b   6.08727333
_cell_length_c   19.79310367
_cell_angle_alpha   88.32248571
_cell_angle_beta   90.81794389
_cell_angle_gamma   119.18596837
_symmetry_Int_Tables_number   1
_chemical_formula_structural   Mn5OsCl18
_chemical_formula_sum   'Mn5 Os1 Cl18'
_cell_volume   656.25699447
_cell_formula_units_Z   1
loop_
 _symmetry_equiv_pos_site_id
 _symmetry_equiv_pos_as_xyz
  1  'x, y, z'
loop_
 _atom_site_type_symbol
 _atom_site_label
 _atom_site_symmetry_multiplicity
 _atom_site_fract_x
 _atom_site_fract_y
 _atom_site_fract_z
 _atom_site_occupancy
  Mn  Mn0  1  0.884810  0.442405  0.000000  1
  Mn  Mn1  1  0.554448  0.113257  0.333741  1
  Mn  Mn2  1  0.891679  0.779690  0.332886  1
  Mn  Mn3  1  0.891680  0.111990  0.667115  1
  Mn  Mn4  1  0.554448  0.441192  0.666260  1
  Os  Os5  1  0.221920  0.110960  0.000000  1
  Cl  Cl6  1  0.538025  0.408359  0.067442  1
  Cl  Cl7  1  0.204517  0.779124  0.067949  1
  Cl  Cl8  1  0.918421  0.118859  0.067758  1
  Cl  Cl9  1  0.888242  0.077693  0.262480  1
  Cl  Cl10  1  0.268948  0.828933  0.263590  1
  Cl  Cl11  1  0.603867  0.456278  0.265068  1
  Cl  Cl12  1  0.842719  0.436786  0.401412  1
  Cl  Cl13  1  0.558064  0.815175  0.403865  1
  Cl  Cl14  1  0.177708  0.064120  0.402762  1
  Cl  Cl15  1  0.177709  0.113588  0.597239  1
  Cl  Cl16  1  0.558063  0.742889  0.596135  1
  Cl  Cl17  1  0.842720  0.405934  0.598588  1
  Cl  Cl18  1  0.603867  0.147589  0.734932  1
  Cl  Cl19  1  0.268946  0.440013  0.736410  1
  Cl  Cl20  1  0.888243  0.810550  0.737521  1
  Cl  Cl21  1  0.918420  0.799561  0.932242  1
  Cl  Cl22  1  0.204517  0.425392  0.932052  1
  Cl  Cl23  1  0.538026  0.129667  0.932558  1
