# generated using pymatgen
data_TmPa2Ga5
_symmetry_space_group_name_H-M   'P 1'
_cell_length_a   6.05741000
_cell_length_b   9.47632400
_cell_length_c   11.63924400
_cell_angle_alpha   90.00000000
_cell_angle_beta   90.00000000
_cell_angle_gamma   90.00000000
_symmetry_Int_Tables_number   1
_chemical_formula_structural   TmPa2Ga5
_chemical_formula_sum   'Tm4 Pa8 Ga20'
_cell_volume   668.11564852
_cell_formula_units_Z   4
loop_
 _symmetry_equiv_pos_site_id
 _symmetry_equiv_pos_as_xyz
  1  'x, y, z'
loop_
 _atom_site_type_symbol
 _atom_site_label
 _atom_site_symmetry_multiplicity
 _atom_site_fract_x
 _atom_site_fract_y
 _atom_site_fract_z
 _atom_site_occupancy
  Tm  Tm0  1  0.856532  0.750000  0.072324  1
  Tm  Tm1  1  0.643468  0.750000  0.572324  1
  Tm  Tm2  1  0.143468  0.250000  0.927676  1
  Tm  Tm3  1  0.356532  0.250000  0.427676  1
  Pa  Pa4  1  0.881405  0.502716  0.352225  1
  Pa  Pa5  1  0.618595  0.997284  0.852225  1
  Pa  Pa6  1  0.118595  0.002716  0.647775  1
  Pa  Pa7  1  0.381405  0.497284  0.147775  1
  Pa  Pa8  1  0.118595  0.497284  0.647775  1
  Pa  Pa9  1  0.381405  0.002716  0.147775  1
  Pa  Pa10  1  0.881405  0.997284  0.352225  1
  Pa  Pa11  1  0.618595  0.502716  0.852225  1
  Ga  Ga12  1  0.873983  0.051546  0.090401  1
  Ga  Ga13  1  0.626017  0.448454  0.590401  1
  Ga  Ga14  1  0.126017  0.551546  0.909599  1
  Ga  Ga15  1  0.373983  0.948454  0.409599  1
  Ga  Ga16  1  0.126017  0.948454  0.909599  1
  Ga  Ga17  1  0.373983  0.551546  0.409599  1
  Ga  Ga18  1  0.873983  0.448454  0.090401  1
  Ga  Ga19  1  0.626017  0.051546  0.590401  1
  Ga  Ga20  1  0.154782  0.750000  0.263434  1
  Ga  Ga21  1  0.345218  0.750000  0.763434  1
  Ga  Ga22  1  0.845218  0.250000  0.736566  1
  Ga  Ga23  1  0.654782  0.250000  0.236566  1
  Ga  Ga24  1  0.391079  0.750000  0.993742  1
  Ga  Ga25  1  0.108921  0.750000  0.493742  1
  Ga  Ga26  1  0.608921  0.250000  0.006258  1
  Ga  Ga27  1  0.891079  0.250000  0.506258  1
  Ga  Ga28  1  0.596097  0.750000  0.291248  1
  Ga  Ga29  1  0.903903  0.750000  0.791248  1
  Ga  Ga30  1  0.403903  0.250000  0.708752  1
  Ga  Ga31  1  0.096097  0.250000  0.208752  1
