# generated using pymatgen
data_Lu4As6Ru2Rh5
_symmetry_space_group_name_H-M   'P 1'
_cell_length_a   7.18738433
_cell_length_b   7.18782050
_cell_length_c   7.18738402
_cell_angle_alpha   109.47830623
_cell_angle_beta   109.44892958
_cell_angle_gamma   109.47831657
_symmetry_Int_Tables_number   1
_chemical_formula_structural   Lu4As6Ru2Rh5
_chemical_formula_sum   'Lu4 As6 Ru2 Rh5'
_cell_volume   285.86466657
_cell_formula_units_Z   1
loop_
 _symmetry_equiv_pos_site_id
 _symmetry_equiv_pos_as_xyz
  1  'x, y, z'
loop_
 _atom_site_type_symbol
 _atom_site_label
 _atom_site_symmetry_multiplicity
 _atom_site_fract_x
 _atom_site_fract_y
 _atom_site_fract_z
 _atom_site_occupancy
  Lu  Lu0  1  0.000172  0.000262  0.500130  1
  Lu  Lu1  1  0.499870  0.999738  0.999828  1
  Lu  Lu2  1  0.000126  0.500000  0.999874  1
  Lu  Lu3  1  0.499851  0.500000  0.500149  1
  As  As4  1  0.682473  0.684956  0.997464  1
  As  As5  1  0.312535  0.315001  0.997565  1
  As  As6  1  0.002435  0.684999  0.687465  1
  As  As7  1  0.002536  0.315044  0.317527  1
  As  As8  1  0.686649  0.999984  0.686679  1
  As  As9  1  0.313321  0.000016  0.313351  1
  Ru  Ru10  1  0.999984  0.000000  0.000016  1
  Ru  Ru11  1  0.250036  0.500000  0.749964  1
  Rh  Rh12  1  0.749410  0.249021  0.500403  1
  Rh  Rh13  1  0.499645  0.249049  0.748603  1
  Rh  Rh14  1  0.499597  0.750979  0.250590  1
  Rh  Rh15  1  0.749962  0.500000  0.250038  1
  Rh  Rh16  1  0.251397  0.750951  0.500355  1
