# generated using pymatgen
data_Cs13K3(HfAs4)2
_symmetry_space_group_name_H-M   'P 1'
_cell_length_a   11.82669174
_cell_length_b   11.82669243
_cell_length_c   11.82669200
_cell_angle_alpha   59.29396026
_cell_angle_beta   59.29395826
_cell_angle_gamma   59.29395268
_symmetry_Int_Tables_number   1
_chemical_formula_structural   Cs13K3(HfAs4)2
_chemical_formula_sum   'Cs13 K3 Hf2 As8'
_cell_volume   1150.89545750
_cell_formula_units_Z   1
loop_
 _symmetry_equiv_pos_site_id
 _symmetry_equiv_pos_as_xyz
  1  'x, y, z'
loop_
 _atom_site_type_symbol
 _atom_site_label
 _atom_site_symmetry_multiplicity
 _atom_site_fract_x
 _atom_site_fract_y
 _atom_site_fract_z
 _atom_site_occupancy
  Cs  Cs0  1  0.625000  0.625000  0.625000  1
  Cs  Cs1  1  0.029822  0.473646  0.473646  1
  Cs  Cs2  1  0.778212  0.222846  0.222846  1
  Cs  Cs3  1  0.473646  0.029822  0.473646  1
  Cs  Cs4  1  0.473646  0.473646  0.029822  1
  Cs  Cs5  1  0.027154  0.027154  0.471788  1
  Cs  Cs6  1  0.027154  0.471788  0.027154  1
  Cs  Cs7  1  0.471788  0.027154  0.027154  1
  Cs  Cs8  1  0.776354  0.220178  0.776354  1
  Cs  Cs9  1  0.222846  0.778212  0.222846  1
  Cs  Cs10  1  0.222846  0.222846  0.778212  1
  Cs  Cs11  1  0.776354  0.776354  0.220178  1
  Cs  Cs12  1  0.220178  0.776354  0.776354  1
  K  K13  1  0.625000  0.625000  0.125000  1
  K  K14  1  0.625000  0.125000  0.625000  1
  K  K15  1  0.125000  0.625000  0.625000  1
  Hf  Hf16  1  0.751674  0.751674  0.751674  1
  Hf  Hf17  1  0.498326  0.498326  0.498326  1
  As  As18  1  0.846036  0.846036  0.472649  1
  As  As19  1  0.846036  0.472649  0.846036  1
  As  As20  1  0.403964  0.403964  0.777351  1
  As  As21  1  0.403964  0.777351  0.403964  1
  As  As22  1  0.777351  0.403964  0.403964  1
  As  As23  1  0.842969  0.842969  0.842969  1
  As  As24  1  0.472649  0.846036  0.846036  1
  As  As25  1  0.407031  0.407031  0.407031  1
