# generated using pymatgen
data_LuZr4(Re7Tc)3
_symmetry_space_group_name_H-M   'P 1'
_cell_length_a   8.49826662
_cell_length_b   8.49109792
_cell_length_c   8.49109703
_cell_angle_alpha   109.45411373
_cell_angle_beta   109.48832123
_cell_angle_gamma   109.48832835
_symmetry_Int_Tables_number   1
_chemical_formula_structural   LuZr4(Re7Tc)3
_chemical_formula_sum   'Lu1 Zr4 Re21 Tc3'
_cell_volume   471.56806034
_cell_formula_units_Z   1
loop_
 _symmetry_equiv_pos_site_id
 _symmetry_equiv_pos_as_xyz
  1  'x, y, z'
loop_
 _atom_site_type_symbol
 _atom_site_label
 _atom_site_symmetry_multiplicity
 _atom_site_fract_x
 _atom_site_fract_y
 _atom_site_fract_z
 _atom_site_occupancy
  Lu  Lu0  1  0.999378  0.000000  0.000000  1
  Zr  Zr1  1  0.626181  0.000000  0.000000  1
  Zr  Zr2  1  0.999765  0.628115  0.000000  1
  Zr  Zr3  1  0.999765  0.000000  0.628115  1
  Zr  Zr4  1  0.371650  0.371885  0.371885  1
  Re  Re5  1  0.675247  0.395436  0.000000  1
  Re  Re6  1  0.001173  0.396568  0.676180  1
  Re  Re7  1  0.324992  0.720388  0.323820  1
  Re  Re8  1  0.324992  0.323820  0.720388  1
  Re  Re9  1  0.001173  0.676180  0.396568  1
  Re  Re10  1  0.675247  0.000000  0.395436  1
  Re  Re11  1  0.604604  0.603432  0.279612  1
  Re  Re12  1  0.279810  0.604564  0.604564  1
  Re  Re13  1  0.604604  0.279612  0.603432  1
  Re  Re14  1  0.376053  0.195413  0.000000  1
  Re  Re15  1  0.180640  0.804587  0.804587  1
  Re  Re16  1  0.376053  0.000000  0.195413  1
  Re  Re17  1  0.194798  0.378332  0.000000  1
  Re  Re18  1  0.000546  0.377316  0.194443  1
  Re  Re19  1  0.806104  0.182873  0.805557  1
  Re  Re20  1  0.806104  0.805557  0.182873  1
  Re  Re21  1  0.000546  0.194443  0.377316  1
  Re  Re22  1  0.194798  0.000000  0.378332  1
  Re  Re23  1  0.623231  0.622684  0.817127  1
  Re  Re24  1  0.816466  0.621668  0.621668  1
  Re  Re25  1  0.623231  0.817127  0.622684  1
  Tc  Tc26  1  0.396702  0.677261  0.000000  1
  Tc  Tc27  1  0.719442  0.322739  0.322739  1
  Tc  Tc28  1  0.396702  0.000000  0.677261  1
