# generated using pymatgen
data_LaGd(SO4)3
_symmetry_space_group_name_H-M   'P 1'
_cell_length_a   8.82104179
_cell_length_b   8.82104139
_cell_length_c   9.44827641
_cell_angle_alpha   65.27660745
_cell_angle_beta   65.27660892
_cell_angle_gamma   65.53676486
_symmetry_Int_Tables_number   1
_chemical_formula_structural   LaGd(SO4)3
_chemical_formula_sum   'La2 Gd2 S6 O24'
_cell_volume   580.53069508
_cell_formula_units_Z   2
loop_
 _symmetry_equiv_pos_site_id
 _symmetry_equiv_pos_as_xyz
  1  'x, y, z'
loop_
 _atom_site_type_symbol
 _atom_site_label
 _atom_site_symmetry_multiplicity
 _atom_site_fract_x
 _atom_site_fract_y
 _atom_site_fract_z
 _atom_site_occupancy
  La  La0  1  0.109518  0.621767  0.072731  1
  La  La1  1  0.621767  0.109518  0.572731  1
  Gd  Gd2  1  0.375474  0.888366  0.435693  1
  Gd  Gd3  1  0.888366  0.375474  0.935693  1
  S  S4  1  0.749485  0.531652  0.292284  1
  S  S5  1  0.531652  0.749485  0.792284  1
  S  S6  1  0.038185  0.974839  0.248678  1
  S  S7  1  0.974839  0.038185  0.748678  1
  S  S8  1  0.481545  0.226336  0.205924  1
  S  S9  1  0.226336  0.481545  0.705924  1
  O  O10  1  0.870579  0.980359  0.381046  1
  O  O11  1  0.980359  0.870579  0.881046  1
  O  O12  1  0.890993  0.533530  0.336908  1
  O  O13  1  0.596430  0.685161  0.314724  1
  O  O14  1  0.823652  0.543485  0.112326  1
  O  O15  1  0.533530  0.890993  0.836908  1
  O  O16  1  0.178589  0.941235  0.314405  1
  O  O17  1  0.698527  0.370160  0.385310  1
  O  O18  1  0.685161  0.596430  0.814724  1
  O  O19  1  0.543485  0.823652  0.612326  1
  O  O20  1  0.941235  0.178589  0.814405  1
  O  O21  1  0.644717  0.275250  0.115302  1
  O  O22  1  0.370160  0.698527  0.885310  1
  O  O23  1  0.081551  0.831958  0.182134  1
  O  O24  1  0.462813  0.153881  0.387999  1
  O  O25  1  0.329800  0.380694  0.180959  1
  O  O26  1  0.275250  0.644717  0.615302  1
  O  O27  1  0.831958  0.081551  0.682134  1
  O  O28  1  0.479578  0.081714  0.166177  1
  O  O29  1  0.153881  0.462813  0.887999  1
  O  O30  1  0.380694  0.329800  0.680959  1
  O  O31  1  0.081714  0.479578  0.666177  1
  O  O32  1  0.024287  0.143890  0.117398  1
  O  O33  1  0.143890  0.024287  0.617398  1
