# generated using pymatgen
data_Y12Ni4AgSn
_symmetry_space_group_name_H-M   'P 1'
_cell_length_a   8.41051053
_cell_length_b   8.40947317
_cell_length_c   8.40774491
_cell_angle_alpha   106.83226079
_cell_angle_beta   109.24398869
_cell_angle_gamma   112.39823522
_symmetry_Int_Tables_number   1
_chemical_formula_structural   Y12Ni4AgSn
_chemical_formula_sum   'Y12 Ni4 Ag1 Sn1'
_cell_volume   456.61105071
_cell_formula_units_Z   1
loop_
 _symmetry_equiv_pos_site_id
 _symmetry_equiv_pos_as_xyz
  1  'x, y, z'
loop_
 _atom_site_type_symbol
 _atom_site_label
 _atom_site_symmetry_multiplicity
 _atom_site_fract_x
 _atom_site_fract_y
 _atom_site_fract_z
 _atom_site_occupancy
  Y  Y0  1  0.699430  0.275466  0.974862  1
  Y  Y1  1  0.300558  0.724831  0.025426  1
  Y  Y2  1  0.699444  0.724486  0.423953  1
  Y  Y3  1  0.300533  0.275215  0.575721  1
  Y  Y4  1  0.806214  0.130088  0.323939  1
  Y  Y5  1  0.806166  0.482347  0.676176  1
  Y  Y6  1  0.193784  0.869905  0.676058  1
  Y  Y7  1  0.193830  0.517650  0.323820  1
  Y  Y8  1  0.612335  0.793370  0.819002  1
  Y  Y9  1  0.974168  0.793271  0.180962  1
  Y  Y10  1  0.025701  0.206651  0.818988  1
  Y  Y11  1  0.387704  0.206722  0.180946  1
  Ni  Ni12  1  0.857611  0.499997  0.357681  1
  Ni  Ni13  1  0.142651  0.499979  0.642591  1
  Ni  Ni14  1  0.000085  0.125460  0.125585  1
  Ni  Ni15  1  0.999998  0.874547  0.874503  1
  Ag  Ag16  1  0.499741  0.500012  0.999735  1
  Sn  Sn17  1  0.500045  0.000002  0.500053  1
