# generated using pymatgen
data_SmY3(Co2Br)2
_symmetry_space_group_name_H-M   'P 1'
_cell_length_a   3.92495900
_cell_length_b   3.92495944
_cell_length_c   16.54293800
_cell_angle_alpha   90.00000000
_cell_angle_beta   90.00000000
_cell_angle_gamma   119.99998786
_symmetry_Int_Tables_number   1
_chemical_formula_structural   SmY3(Co2Br)2
_chemical_formula_sum   'Sm1 Y3 Co4 Br2'
_cell_volume   220.70573816
_cell_formula_units_Z   1
loop_
 _symmetry_equiv_pos_site_id
 _symmetry_equiv_pos_as_xyz
  1  'x, y, z'
loop_
 _atom_site_type_symbol
 _atom_site_label
 _atom_site_symmetry_multiplicity
 _atom_site_fract_x
 _atom_site_fract_y
 _atom_site_fract_z
 _atom_site_occupancy
  Sm  Sm0  1  0.000000  0.000000  0.108773  1
  Y  Y1  1  0.000000  0.000000  0.890752  1
  Y  Y2  1  0.000000  0.000000  0.607519  1
  Y  Y3  1  0.000000  0.000000  0.393032  1
  Co  Co4  1  0.333333  0.666667  0.503129  1
  Co  Co5  1  0.666667  0.333333  0.497801  1
  Co  Co6  1  0.666667  0.333333  0.999752  1
  Co  Co7  1  0.333333  0.666667  0.995754  1
  Br  Br8  1  0.333333  0.666667  0.254244  1
  Br  Br9  1  0.666667  0.333333  0.749243  1
