# generated using pymatgen
data_Th3In3Pd2Rh
_symmetry_space_group_name_H-M   'P 1'
_cell_length_a   7.70983700
_cell_length_b   7.70983564
_cell_length_c   4.10911600
_cell_angle_alpha   90.00000000
_cell_angle_beta   90.00000000
_cell_angle_gamma   119.99999295
_symmetry_Int_Tables_number   1
_chemical_formula_structural   Th3In3Pd2Rh
_chemical_formula_sum   'Th3 In3 Pd2 Rh1'
_cell_volume   211.52873898
_cell_formula_units_Z   1
loop_
 _symmetry_equiv_pos_site_id
 _symmetry_equiv_pos_as_xyz
  1  'x, y, z'
loop_
 _atom_site_type_symbol
 _atom_site_label
 _atom_site_symmetry_multiplicity
 _atom_site_fract_x
 _atom_site_fract_y
 _atom_site_fract_z
 _atom_site_occupancy
  Th  Th0  1  0.419742  0.411205  0.000000  1
  Th  Th1  1  0.588795  0.008537  0.000000  1
  Th  Th2  1  0.991463  0.580258  0.000000  1
  In  In3  1  0.749598  0.750568  0.500000  1
  In  In4  1  0.249432  0.999031  0.500000  1
  In  In5  1  0.000969  0.250402  0.500000  1
  Pd  Pd6  1  0.000000  0.000000  0.000000  1
  Pd  Pd7  1  0.333333  0.666667  0.500000  1
  Rh  Rh8  1  0.666667  0.333333  0.500000  1
