# generated using pymatgen
data_MnNb2(FeO4)2
_symmetry_space_group_name_H-M   'P 1'
_cell_length_a   10.25685893
_cell_length_b   10.25685881
_cell_length_c   5.29160643
_cell_angle_alpha   89.54475252
_cell_angle_beta   89.54475491
_cell_angle_gamma   34.66288719
_symmetry_Int_Tables_number   1
_chemical_formula_structural   MnNb2(FeO4)2
_chemical_formula_sum   'Mn2 Nb4 Fe4 O16'
_cell_volume   316.60682215
_cell_formula_units_Z   2
loop_
 _symmetry_equiv_pos_site_id
 _symmetry_equiv_pos_as_xyz
  1  'x, y, z'
loop_
 _atom_site_type_symbol
 _atom_site_label
 _atom_site_symmetry_multiplicity
 _atom_site_fract_x
 _atom_site_fract_y
 _atom_site_fract_z
 _atom_site_occupancy
  Mn  Mn0  1  0.341355  0.658645  0.250000  1
  Mn  Mn1  1  0.658645  0.341355  0.750000  1
  Nb  Nb2  1  0.721817  0.046430  0.263884  1
  Nb  Nb3  1  0.953570  0.278183  0.236116  1
  Nb  Nb4  1  0.278183  0.953570  0.736116  1
  Nb  Nb5  1  0.046430  0.721817  0.763884  1
  Fe  Fe6  1  0.598336  0.862422  0.248458  1
  Fe  Fe7  1  0.137578  0.401664  0.251542  1
  Fe  Fe8  1  0.401664  0.137578  0.751542  1
  Fe  Fe9  1  0.862422  0.598336  0.748458  1
  O  O10  1  0.820100  0.036743  0.927818  1
  O  O11  1  0.963257  0.179901  0.572182  1
  O  O12  1  0.179901  0.963257  0.072182  1
  O  O13  1  0.036743  0.820099  0.427818  1
  O  O14  1  0.569481  0.311089  0.407081  1
  O  O15  1  0.688911  0.430519  0.092919  1
  O  O16  1  0.430519  0.688911  0.592919  1
  O  O17  1  0.311089  0.569481  0.907081  1
  O  O18  1  0.710270  0.920990  0.551475  1
  O  O19  1  0.079010  0.289730  0.948525  1
  O  O20  1  0.157169  0.460835  0.623761  1
  O  O21  1  0.539165  0.842831  0.876239  1
  O  O22  1  0.842831  0.539165  0.376239  1
  O  O23  1  0.460835  0.157169  0.123761  1
  O  O24  1  0.920990  0.710270  0.051475  1
  O  O25  1  0.289730  0.079010  0.448525  1
