# generated using pymatgen
data_Al11Zn(Co2Si)4
_symmetry_space_group_name_H-M   'P 1'
_cell_length_a   7.58549172
_cell_length_b   7.58549182
_cell_length_c   7.58549172
_cell_angle_alpha   120.17521479
_cell_angle_beta   90.01540360
_cell_angle_gamma   119.80733945
_symmetry_Int_Tables_number   1
_chemical_formula_structural   Al11Zn(Co2Si)4
_chemical_formula_sum   'Al11 Zn1 Co8 Si4'
_cell_volume   308.66534542
_cell_formula_units_Z   1
loop_
 _symmetry_equiv_pos_site_id
 _symmetry_equiv_pos_as_xyz
  1  'x, y, z'
loop_
 _atom_site_type_symbol
 _atom_site_label
 _atom_site_symmetry_multiplicity
 _atom_site_fract_x
 _atom_site_fract_y
 _atom_site_fract_z
 _atom_site_occupancy
  Al  Al0  1  0.550896  0.500001  0.050895  1
  Al  Al1  1  0.551323  0.100037  0.048329  1
  Al  Al2  1  0.948293  0.497009  0.048330  1
  Al  Al3  1  0.199766  0.000000  0.199766  1
  Al  Al4  1  0.799863  0.998418  0.197183  1
  Al  Al5  1  0.198764  0.397320  0.197183  1
  Al  Al6  1  0.950835  0.500001  0.450834  1
  Al  Al7  1  0.948293  0.899962  0.451284  1
  Al  Al8  1  0.551323  0.502993  0.451285  1
  Al  Al9  1  0.198764  0.001582  0.801445  1
  Al  Al10  1  0.799863  0.602680  0.801445  1
  Zn  Zn11  1  0.809221  0.000000  0.809221  1
  Co  Co12  1  0.592822  0.185384  0.407438  1
  Co  Co13  1  0.222055  0.814616  0.407438  1
  Co  Co14  1  0.590541  0.814407  0.404947  1
  Co  Co15  1  0.156257  0.315322  0.471580  1
  Co  Co16  1  0.590541  0.185593  0.776133  1
  Co  Co17  1  0.163564  0.322205  0.841358  1
  Co  Co18  1  0.156257  0.684677  0.840934  1
  Co  Co19  1  0.519153  0.677794  0.841358  1
  Si  Si20  1  0.374943  0.750520  0.125463  1
  Si  Si21  1  0.374943  0.249479  0.624422  1
  Si  Si22  1  0.873541  0.247677  0.625863  1
  Si  Si23  1  0.378186  0.752322  0.625863  1
