# generated using pymatgen
data_K16TaNb(SnAs5)2
_symmetry_space_group_name_H-M   'P 1'
_cell_length_a   16.60823958
_cell_length_b   16.60823922
_cell_length_c   13.58336083
_cell_angle_alpha   85.12152665
_cell_angle_beta   85.12152637
_cell_angle_gamma   33.26676925
_symmetry_Int_Tables_number   1
_chemical_formula_structural   K16TaNb(SnAs5)2
_chemical_formula_sum   'K32 Ta2 Nb2 Sn4 As20'
_cell_volume   2047.12200197
_cell_formula_units_Z   2
loop_
 _symmetry_equiv_pos_site_id
 _symmetry_equiv_pos_as_xyz
  1  'x, y, z'
loop_
 _atom_site_type_symbol
 _atom_site_label
 _atom_site_symmetry_multiplicity
 _atom_site_fract_x
 _atom_site_fract_y
 _atom_site_fract_z
 _atom_site_occupancy
  K  K0  1  0.478113  0.816373  0.042257  1
  K  K1  1  0.183627  0.521887  0.457743  1
  K  K2  1  0.521502  0.183942  0.957565  1
  K  K3  1  0.816058  0.478498  0.542435  1
  K  K4  1  0.279460  0.189140  0.945024  1
  K  K5  1  0.810860  0.720540  0.554976  1
  K  K6  1  0.720925  0.810721  0.054803  1
  K  K7  1  0.189279  0.279075  0.445197  1
  K  K8  1  0.394388  0.733099  0.793229  1
  K  K9  1  0.266901  0.605612  0.706771  1
  K  K10  1  0.605332  0.267385  0.206863  1
  K  K11  1  0.732615  0.394668  0.293137  1
  K  K12  1  0.637435  0.715775  0.781617  1
  K  K13  1  0.284225  0.362565  0.718383  1
  K  K14  1  0.361923  0.284725  0.218382  1
  K  K15  1  0.715275  0.638077  0.281618  1
  K  K16  1  0.013586  0.065068  0.880843  1
  K  K17  1  0.934932  0.986414  0.619157  1
  K  K18  1  0.986542  0.934874  0.119152  1
  K  K19  1  0.065126  0.013458  0.380848  1
  K  K20  1  0.075036  0.154801  0.102214  1
  K  K21  1  0.845199  0.924964  0.397786  1
  K  K22  1  0.925029  0.845089  0.897668  1
  K  K23  1  0.154911  0.074971  0.602332  1
  K  K24  1  0.593091  0.366260  0.895391  1
  K  K25  1  0.633740  0.406909  0.604609  1
  K  K26  1  0.406829  0.633650  0.104682  1
  K  K27  1  0.366350  0.593171  0.395318  1
  K  K28  1  0.930850  0.621296  0.830864  1
  K  K29  1  0.378704  0.069150  0.669136  1
  K  K30  1  0.069145  0.378802  0.168874  1
  K  K31  1  0.621198  0.930855  0.331126  1
  Ta  Ta32  1  0.995401  0.317108  0.819546  1
  Ta  Ta33  1  0.682892  0.004599  0.680454  1
  Nb  Nb34  1  0.004488  0.683059  0.180224  1
  Nb  Nb35  1  0.316941  0.995512  0.319776  1
  Sn  Sn36  1  0.713517  0.466775  0.963750  1
  Sn  Sn37  1  0.533225  0.286483  0.536250  1
  Sn  Sn38  1  0.285321  0.534064  0.036514  1
  Sn  Sn39  1  0.465936  0.714679  0.463486  1
  As  As40  1  0.788635  0.271693  0.076436  1
  As  As41  1  0.728307  0.211365  0.423564  1
  As  As42  1  0.211542  0.728084  0.923459  1
  As  As43  1  0.271916  0.788458  0.576541  1
  As  As44  1  0.880123  0.469603  0.974114  1
  As  As45  1  0.530397  0.119877  0.525886  1
  As  As46  1  0.121257  0.529066  0.025312  1
  As  As47  1  0.470934  0.878743  0.474688  1
  As  As48  1  0.027582  0.401168  0.686643  1
  As  As49  1  0.598832  0.972418  0.813357  1
  As  As50  1  0.972667  0.598566  0.313392  1
  As  As51  1  0.401434  0.027333  0.186608  1
  As  As52  1  0.235125  0.047276  0.851260  1
  As  As53  1  0.952724  0.764875  0.648740  1
  As  As54  1  0.764226  0.953534  0.148643  1
  As  As55  1  0.046466  0.235774  0.351357  1
  As  As56  1  0.799676  0.384642  0.766787  1
  As  As57  1  0.615358  0.200324  0.733213  1
  As  As58  1  0.201420  0.614530  0.233155  1
  As  As59  1  0.385470  0.798580  0.266845  1
