# generated using pymatgen
data_Y9Er(ThRh2)2
_symmetry_space_group_name_H-M   'P 1'
_cell_length_a   6.39669403
_cell_length_b   7.14559250
_cell_length_c   9.71262530
_cell_angle_alpha   89.94311626
_cell_angle_beta   90.10402009
_cell_angle_gamma   88.90629950
_symmetry_Int_Tables_number   1
_chemical_formula_structural   Y9Er(ThRh2)2
_chemical_formula_sum   'Y9 Er1 Th2 Rh4'
_cell_volume   443.86447236
_cell_formula_units_Z   1
loop_
 _symmetry_equiv_pos_site_id
 _symmetry_equiv_pos_as_xyz
  1  'x, y, z'
loop_
 _atom_site_type_symbol
 _atom_site_label
 _atom_site_symmetry_multiplicity
 _atom_site_fract_x
 _atom_site_fract_y
 _atom_site_fract_z
 _atom_site_occupancy
  Y  Y0  1  0.139714  0.465288  0.750389  1
  Y  Y1  1  0.860849  0.534210  0.249801  1
  Y  Y2  1  0.830600  0.823212  0.936526  1
  Y  Y3  1  0.669734  0.323173  0.934520  1
  Y  Y4  1  0.830383  0.823010  0.563630  1
  Y  Y5  1  0.330045  0.676554  0.065916  1
  Y  Y6  1  0.169675  0.177005  0.435941  1
  Y  Y7  1  0.330395  0.676531  0.434066  1
  Y  Y8  1  0.669638  0.323546  0.565872  1
  Er  Er9  1  0.169839  0.176579  0.065224  1
  Th  Th10  1  0.653900  0.041999  0.249544  1
  Th  Th11  1  0.345720  0.958199  0.750550  1
  Rh  Rh12  1  0.449593  0.368570  0.248808  1
  Rh  Rh13  1  0.548955  0.630375  0.750030  1
  Rh  Rh14  1  0.952571  0.116353  0.750564  1
  Rh  Rh15  1  0.048387  0.885395  0.248619  1
