# generated using pymatgen
data_Zr2CuPd3
_symmetry_space_group_name_H-M   'P 1'
_cell_length_a   4.96800913
_cell_length_b   4.95829034
_cell_length_c   4.89284700
_cell_angle_alpha   90.00000000
_cell_angle_beta   90.00000000
_cell_angle_gamma   120.59097838
_symmetry_Int_Tables_number   1
_chemical_formula_structural   Zr2CuPd3
_chemical_formula_sum   'Zr2 Cu1 Pd3'
_cell_volume   103.75031351
_cell_formula_units_Z   1
loop_
 _symmetry_equiv_pos_site_id
 _symmetry_equiv_pos_as_xyz
  1  'x, y, z'
loop_
 _atom_site_type_symbol
 _atom_site_label
 _atom_site_symmetry_multiplicity
 _atom_site_fract_x
 _atom_site_fract_y
 _atom_site_fract_z
 _atom_site_occupancy
  Zr  Zr0  1  0.242243  0.247486  0.750000  1
  Zr  Zr1  1  0.757087  0.753017  0.250000  1
  Cu  Cu2  1  0.432022  0.088681  0.250000  1
  Pd  Pd3  1  0.567117  0.911305  0.750000  1
  Pd  Pd4  1  0.898775  0.580819  0.750000  1
  Pd  Pd5  1  0.102757  0.418691  0.250000  1
