# generated using pymatgen
data_CaU3(Si5Pt3)2
_symmetry_space_group_name_H-M   'P 1'
_cell_length_a   8.18436974
_cell_length_b   8.14576591
_cell_length_c   8.14576687
_cell_angle_alpha   135.99331972
_cell_angle_beta   104.57724746
_cell_angle_gamma   91.58912506
_symmetry_Int_Tables_number   1
_chemical_formula_structural   CaU3(Si5Pt3)2
_chemical_formula_sum   'Ca1 U3 Si10 Pt6'
_cell_volume   347.09751800
_cell_formula_units_Z   1
loop_
 _symmetry_equiv_pos_site_id
 _symmetry_equiv_pos_as_xyz
  1  'x, y, z'
loop_
 _atom_site_type_symbol
 _atom_site_label
 _atom_site_symmetry_multiplicity
 _atom_site_fract_x
 _atom_site_fract_y
 _atom_site_fract_z
 _atom_site_occupancy
  Ca  Ca0  1  0.894765  0.127469  0.767296  1
  U  U1  1  0.638483  0.369347  0.269136  1
  U  U2  1  0.361691  0.630548  0.731143  1
  U  U3  1  0.100929  0.871257  0.229672  1
  Si  Si4  1  0.462518  0.112235  0.350284  1
  Si  Si5  1  0.535324  0.885535  0.649788  1
  Si  Si6  1  0.763022  0.612771  0.150251  1
  Si  Si7  1  0.239727  0.389922  0.849805  1
  Si  Si8  1  0.272047  0.522970  0.250679  1
  Si  Si9  1  0.729461  0.479454  0.750009  1
  Si  Si10  1  0.729461  0.979452  0.250006  1
  Si  Si11  1  0.272047  0.021368  0.749077  1
  Si  Si12  1  0.999406  0.250135  0.252025  1
  Si  Si13  1  0.999406  0.747381  0.749272  1
  Pt  Pt14  1  0.501122  0.250793  0.750936  1
  Pt  Pt15  1  0.501122  0.750187  0.250330  1
  Pt  Pt16  1  0.248455  0.136909  0.111546  1
  Pt  Pt17  1  0.751629  0.864083  0.887545  1
  Pt  Pt18  1  0.025008  0.636996  0.388010  1
  Pt  Pt19  1  0.974376  0.361189  0.613188  1
