# generated using pymatgen
data_Yb5Zr3(Co4As3)4
_symmetry_space_group_name_H-M   'P 1'
_cell_length_a   12.72307300
_cell_length_b   12.72307288
_cell_length_c   3.85105000
_cell_angle_alpha   90.00000000
_cell_angle_beta   90.00000000
_cell_angle_gamma   120.00000292
_symmetry_Int_Tables_number   1
_chemical_formula_structural   Yb5Zr3(Co4As3)4
_chemical_formula_sum   'Yb5 Zr3 Co16 As12'
_cell_volume   539.87573705
_cell_formula_units_Z   1
loop_
 _symmetry_equiv_pos_site_id
 _symmetry_equiv_pos_as_xyz
  1  'x, y, z'
loop_
 _atom_site_type_symbol
 _atom_site_label
 _atom_site_symmetry_multiplicity
 _atom_site_fract_x
 _atom_site_fract_y
 _atom_site_fract_z
 _atom_site_occupancy
  Yb  Yb0  1  0.181543  0.181543  0.500000  1
  Yb  Yb1  1  0.818457  0.000000  0.500000  1
  Yb  Yb2  1  0.000000  0.818457  0.500000  1
  Yb  Yb3  1  0.333333  0.666667  0.000000  1
  Yb  Yb4  1  0.666667  0.333333  0.000000  1
  Zr  Zr5  1  0.561324  0.561324  0.000000  1
  Zr  Zr6  1  0.438676  0.000000  0.000000  1
  Zr  Zr7  1  0.000000  0.438676  0.000000  1
  Co  Co8  1  0.719582  0.719582  0.500000  1
  Co  Co9  1  0.280418  0.000000  0.500000  1
  Co  Co10  1  0.000000  0.280418  0.500000  1
  Co  Co11  1  0.178951  0.374777  0.000000  1
  Co  Co12  1  0.625223  0.804174  0.000000  1
  Co  Co13  1  0.195826  0.821049  0.000000  1
  Co  Co14  1  0.804174  0.625223  0.000000  1
  Co  Co15  1  0.821049  0.195826  0.000000  1
  Co  Co16  1  0.374777  0.178951  0.000000  1
  Co  Co17  1  0.358424  0.479356  0.500000  1
  Co  Co18  1  0.520644  0.879069  0.500000  1
  Co  Co19  1  0.120931  0.641576  0.500000  1
  Co  Co20  1  0.879069  0.520644  0.500000  1
  Co  Co21  1  0.641576  0.120931  0.500000  1
  Co  Co22  1  0.479356  0.358424  0.500000  1
  Co  Co23  1  0.000000  0.000000  0.000000  1
  As  As24  1  0.821442  0.821442  0.000000  1
  As  As25  1  0.178558  0.000000  0.000000  1
  As  As26  1  0.000000  0.178558  0.000000  1
  As  As27  1  0.174447  0.481319  0.500000  1
  As  As28  1  0.518681  0.693128  0.500000  1
  As  As29  1  0.306872  0.825553  0.500000  1
  As  As30  1  0.693128  0.518681  0.500000  1
  As  As31  1  0.825553  0.306872  0.500000  1
  As  As32  1  0.481319  0.174447  0.500000  1
  As  As33  1  0.352110  0.352110  0.000000  1
  As  As34  1  0.647890  0.000000  0.000000  1
  As  As35  1  0.000000  0.647890  0.000000  1
