# generated using pymatgen
data_CuNi(S2O7)2
_symmetry_space_group_name_H-M   'P 1'
_cell_length_a   5.01303767
_cell_length_b   7.03142161
_cell_length_c   8.35257231
_cell_angle_alpha   94.49808677
_cell_angle_beta   90.36381557
_cell_angle_gamma   106.82402930
_symmetry_Int_Tables_number   1
_chemical_formula_structural   CuNi(S2O7)2
_chemical_formula_sum   'Cu1 Ni1 S4 O14'
_cell_volume   280.81816139
_cell_formula_units_Z   1
loop_
 _symmetry_equiv_pos_site_id
 _symmetry_equiv_pos_as_xyz
  1  'x, y, z'
loop_
 _atom_site_type_symbol
 _atom_site_label
 _atom_site_symmetry_multiplicity
 _atom_site_fract_x
 _atom_site_fract_y
 _atom_site_fract_z
 _atom_site_occupancy
  Cu  Cu0  1  0.000000  0.500000  0.000000  1
  Ni  Ni1  1  0.500000  0.000000  0.500000  1
  S  S2  1  0.484306  0.648443  0.764003  1
  S  S3  1  0.515694  0.351557  0.235997  1
  S  S4  1  0.114838  0.251367  0.686684  1
  S  S5  1  0.885162  0.748633  0.313316  1
  O  O6  1  0.702197  0.564359  0.806205  1
  O  O7  1  0.297803  0.435641  0.193795  1
  O  O8  1  0.311235  0.688496  0.897416  1
  O  O9  1  0.688765  0.311504  0.102584  1
  O  O10  1  0.571082  0.815278  0.665620  1
  O  O11  1  0.428918  0.184722  0.334380  1
  O  O12  1  0.264415  0.478442  0.636955  1
  O  O13  1  0.735585  0.521558  0.363045  1
  O  O14  1  0.892042  0.189318  0.565426  1
  O  O15  1  0.107958  0.810682  0.434574  1
  O  O16  1  0.321746  0.142313  0.676004  1
  O  O17  1  0.678254  0.857687  0.323996  1
  O  O18  1  0.028434  0.269286  0.853627  1
  O  O19  1  0.971566  0.730714  0.146373  1
