# generated using pymatgen
data_Hf4Ti3Re3W2
_symmetry_space_group_name_H-M   'P 1'
_cell_length_a   5.31457800
_cell_length_b   5.32747820
_cell_length_c   8.77096700
_cell_angle_alpha   90.00000000
_cell_angle_beta   90.00000000
_cell_angle_gamma   119.91991906
_symmetry_Int_Tables_number   1
_chemical_formula_structural   Hf4Ti3Re3W2
_chemical_formula_sum   'Hf4 Ti3 Re3 W2'
_cell_volume   215.23776008
_cell_formula_units_Z   1
loop_
 _symmetry_equiv_pos_site_id
 _symmetry_equiv_pos_as_xyz
  1  'x, y, z'
loop_
 _atom_site_type_symbol
 _atom_site_label
 _atom_site_symmetry_multiplicity
 _atom_site_fract_x
 _atom_site_fract_y
 _atom_site_fract_z
 _atom_site_occupancy
  Hf  Hf0  1  0.332248  0.664497  0.061063  1
  Hf  Hf1  1  0.665214  0.330426  0.564530  1
  Hf  Hf2  1  0.665214  0.330426  0.935470  1
  Hf  Hf3  1  0.332248  0.664497  0.438937  1
  Ti  Ti4  1  0.002425  0.004849  0.003080  1
  Ti  Ti5  1  0.002425  0.004849  0.496920  1
  Ti  Ti6  1  0.830464  0.660930  0.250000  1
  Re  Re7  1  0.342107  0.169798  0.250000  1
  Re  Re8  1  0.827691  0.169798  0.250000  1
  Re  Re9  1  0.169177  0.338352  0.750000  1
  W  W10  1  0.169012  0.830789  0.750000  1
  W  W11  1  0.661778  0.830789  0.750000  1
