# generated using pymatgen
data_Sr3HfMn2O9
_symmetry_space_group_name_H-M   'P 1'
_cell_length_a   5.62465500
_cell_length_b   5.62465515
_cell_length_c   14.03086800
_cell_angle_alpha   90.00000000
_cell_angle_beta   90.00000000
_cell_angle_gamma   120.00000501
_symmetry_Int_Tables_number   1
_chemical_formula_structural   Sr3HfMn2O9
_chemical_formula_sum   'Sr6 Hf2 Mn4 O18'
_cell_volume   384.42085347
_cell_formula_units_Z   2
loop_
 _symmetry_equiv_pos_site_id
 _symmetry_equiv_pos_as_xyz
  1  'x, y, z'
loop_
 _atom_site_type_symbol
 _atom_site_label
 _atom_site_symmetry_multiplicity
 _atom_site_fract_x
 _atom_site_fract_y
 _atom_site_fract_z
 _atom_site_occupancy
  Sr  Sr0  1  0.333333  0.666667  0.101511  1
  Sr  Sr1  1  0.666667  0.333333  0.898489  1
  Sr  Sr2  1  0.666667  0.333333  0.601511  1
  Sr  Sr3  1  0.333333  0.666667  0.398489  1
  Sr  Sr4  1  0.000000  0.000000  0.250000  1
  Sr  Sr5  1  0.000000  0.000000  0.750000  1
  Hf  Hf6  1  0.000000  0.000000  0.000000  1
  Hf  Hf7  1  0.000000  0.000000  0.500000  1
  Mn  Mn8  1  0.333333  0.666667  0.658825  1
  Mn  Mn9  1  0.666667  0.333333  0.341175  1
  Mn  Mn10  1  0.666667  0.333333  0.158825  1
  Mn  Mn11  1  0.333333  0.666667  0.841175  1
  O  O12  1  0.514122  0.028242  0.250000  1
  O  O13  1  0.485878  0.971758  0.750000  1
  O  O14  1  0.971758  0.485878  0.250000  1
  O  O15  1  0.028242  0.514122  0.750000  1
  O  O16  1  0.514122  0.485878  0.250000  1
  O  O17  1  0.485878  0.514122  0.750000  1
  O  O18  1  0.170310  0.340619  0.586178  1
  O  O19  1  0.829690  0.659381  0.413822  1
  O  O20  1  0.659381  0.829690  0.586178  1
  O  O21  1  0.829690  0.659381  0.086178  1
  O  O22  1  0.340619  0.170310  0.413822  1
  O  O23  1  0.170310  0.340619  0.913822  1
  O  O24  1  0.170310  0.829690  0.586178  1
  O  O25  1  0.340619  0.170310  0.086178  1
  O  O26  1  0.829690  0.170310  0.413822  1
  O  O27  1  0.659381  0.829690  0.913822  1
  O  O28  1  0.829690  0.170310  0.086178  1
  O  O29  1  0.170310  0.829690  0.913822  1
