# generated using pymatgen
data_Na5(VSe3)2
_symmetry_space_group_name_H-M   'P 1'
_cell_length_a   7.28756563
_cell_length_b   7.28756586
_cell_length_c   7.46893583
_cell_angle_alpha   84.97891673
_cell_angle_beta   84.97891294
_cell_angle_gamma   117.05630097
_symmetry_Int_Tables_number   1
_chemical_formula_structural   Na5(VSe3)2
_chemical_formula_sum   'Na5 V2 Se6'
_cell_volume   348.25457358
_cell_formula_units_Z   1
loop_
 _symmetry_equiv_pos_site_id
 _symmetry_equiv_pos_as_xyz
  1  'x, y, z'
loop_
 _atom_site_type_symbol
 _atom_site_label
 _atom_site_symmetry_multiplicity
 _atom_site_fract_x
 _atom_site_fract_y
 _atom_site_fract_z
 _atom_site_occupancy
  Na  Na0  1  0.494660  0.505340  0.500000  1
  Na  Na1  1  0.373732  0.626268  0.000000  1
  Na  Na2  1  0.696880  0.303120  0.000000  1
  Na  Na3  1  0.014895  0.985105  0.000000  1
  Na  Na4  1  0.902583  0.097417  0.500000  1
  V  V5  1  0.334571  0.944698  0.362537  1
  V  V6  1  0.055302  0.665429  0.637463  1
  Se  Se7  1  0.310596  0.236925  0.228906  1
  Se  Se8  1  0.763075  0.689404  0.771094  1
  Se  Se9  1  0.359725  0.971178  0.675831  1
  Se  Se10  1  0.028822  0.640275  0.324169  1
  Se  Se11  1  0.626629  0.918312  0.232074  1
  Se  Se12  1  0.081688  0.373371  0.767926  1
