# generated using pymatgen
data_Tb2Th2SiI6
_symmetry_space_group_name_H-M   'P 1'
_cell_length_a   4.28471700
_cell_length_b   14.21395300
_cell_length_c   14.99939600
_cell_angle_alpha   90.00000000
_cell_angle_beta   90.00000000
_cell_angle_gamma   90.00000000
_symmetry_Int_Tables_number   1
_chemical_formula_structural   Tb2Th2SiI6
_chemical_formula_sum   'Tb4 Th4 Si2 I12'
_cell_volume   913.50470557
_cell_formula_units_Z   2
loop_
 _symmetry_equiv_pos_site_id
 _symmetry_equiv_pos_as_xyz
  1  'x, y, z'
loop_
 _atom_site_type_symbol
 _atom_site_label
 _atom_site_symmetry_multiplicity
 _atom_site_fract_x
 _atom_site_fract_y
 _atom_site_fract_z
 _atom_site_occupancy
  Tb  Tb0  1  0.500000  0.111457  0.351027  1
  Tb  Tb1  1  0.500000  0.888543  0.648973  1
  Tb  Tb2  1  0.500000  0.611457  0.148973  1
  Tb  Tb3  1  0.500000  0.388543  0.851027  1
  Th  Th4  1  0.000000  0.109486  0.573323  1
  Th  Th5  1  0.000000  0.890514  0.426677  1
  Th  Th6  1  0.000000  0.609486  0.926677  1
  Th  Th7  1  0.000000  0.390514  0.073323  1
  Si  Si8  1  0.500000  0.000000  0.500000  1
  Si  Si9  1  0.500000  0.500000  0.000000  1
  I  I10  1  0.500000  0.242058  0.164685  1
  I  I11  1  0.500000  0.757942  0.835315  1
  I  I12  1  0.500000  0.742058  0.335315  1
  I  I13  1  0.500000  0.257942  0.664685  1
  I  I14  1  0.000000  0.258053  0.410884  1
  I  I15  1  0.000000  0.741947  0.589116  1
  I  I16  1  0.000000  0.758053  0.089116  1
  I  I17  1  0.000000  0.241947  0.910884  1
  I  I18  1  0.000000  0.002916  0.239539  1
  I  I19  1  0.000000  0.997084  0.760461  1
  I  I20  1  0.000000  0.502916  0.260461  1
  I  I21  1  0.000000  0.497084  0.739539  1
