# generated using pymatgen
data_RbY10(C2Br9)2
_symmetry_space_group_name_H-M   'P 1'
_cell_length_a   10.67178097
_cell_length_b   10.76094700
_cell_length_c   10.91900253
_cell_angle_alpha   113.23007966
_cell_angle_beta   87.45881862
_cell_angle_gamma   118.68775766
_symmetry_Int_Tables_number   1
_chemical_formula_structural   RbY10(C2Br9)2
_chemical_formula_sum   'Rb1 Y10 C4 Br18'
_cell_volume   994.33565270
_cell_formula_units_Z   1
loop_
 _symmetry_equiv_pos_site_id
 _symmetry_equiv_pos_as_xyz
  1  'x, y, z'
loop_
 _atom_site_type_symbol
 _atom_site_label
 _atom_site_symmetry_multiplicity
 _atom_site_fract_x
 _atom_site_fract_y
 _atom_site_fract_z
 _atom_site_occupancy
  Rb  Rb0  1  0.500000  0.000000  0.500000  1
  Y  Y1  1  0.662825  0.717837  0.702997  1
  Y  Y2  1  0.282768  0.362800  0.010848  1
  Y  Y3  1  0.092084  0.405767  0.299430  1
  Y  Y4  1  0.959117  0.033614  0.331267  1
  Y  Y5  1  0.907916  0.594233  0.700570  1
  Y  Y6  1  0.112962  0.941265  0.001209  1
  Y  Y7  1  0.040883  0.966386  0.668733  1
  Y  Y8  1  0.337175  0.282163  0.297003  1
  Y  Y9  1  0.717232  0.637200  0.989152  1
  Y  Y10  1  0.887038  0.058735  0.998791  1
  C  C11  1  0.156367  0.226058  0.122397  1
  C  C12  1  0.843633  0.773942  0.877603  1
  C  C13  1  0.922682  0.853150  0.797587  1
  C  C14  1  0.077318  0.146850  0.202413  1
  Br  Br15  1  0.450034  0.530049  0.833037  1
  Br  Br16  1  0.385789  0.040091  0.159872  1
  Br  Br17  1  0.777373  0.857837  0.501202  1
  Br  Br18  1  0.836351  0.312103  0.154301  1
  Br  Br19  1  0.549966  0.469951  0.166963  1
  Br  Br20  1  0.222627  0.142163  0.498798  1
  Br  Br21  1  0.316617  0.097442  0.828213  1
  Br  Br22  1  0.683383  0.902558  0.171787  1
  Br  Br23  1  0.974426  0.757468  0.171228  1
  Br  Br24  1  0.933336  0.300606  0.500972  1
  Br  Br25  1  0.025574  0.242532  0.828772  1
  Br  Br26  1  0.066664  0.699394  0.499028  1
  Br  Br27  1  0.261482  0.622840  0.185992  1
  Br  Br28  1  0.738518  0.377160  0.814008  1
  Br  Br29  1  0.640983  0.434810  0.501130  1
  Br  Br30  1  0.163649  0.687897  0.845699  1
  Br  Br31  1  0.614211  0.959909  0.840128  1
  Br  Br32  1  0.359017  0.565190  0.498870  1
