# generated using pymatgen
data_Rb2SmF5
_symmetry_space_group_name_H-M   'P 1'
_cell_length_a   6.98329400
_cell_length_b   7.62618100
_cell_length_c   11.52384000
_cell_angle_alpha   90.00000000
_cell_angle_beta   90.00000000
_cell_angle_gamma   90.00000000
_symmetry_Int_Tables_number   1
_chemical_formula_structural   Rb2SmF5
_chemical_formula_sum   'Rb8 Sm4 F20'
_cell_volume   613.71205603
_cell_formula_units_Z   4
loop_
 _symmetry_equiv_pos_site_id
 _symmetry_equiv_pos_as_xyz
  1  'x, y, z'
loop_
 _atom_site_type_symbol
 _atom_site_label
 _atom_site_symmetry_multiplicity
 _atom_site_fract_x
 _atom_site_fract_y
 _atom_site_fract_z
 _atom_site_occupancy
  Rb  Rb0  1  0.535443  0.997077  0.829030  1
  Rb  Rb1  1  0.464557  0.497077  0.170970  1
  Rb  Rb2  1  0.964557  0.997077  0.329030  1
  Rb  Rb3  1  0.035443  0.497077  0.670970  1
  Rb  Rb4  1  0.535443  0.502923  0.829030  1
  Rb  Rb5  1  0.464557  0.002923  0.170970  1
  Rb  Rb6  1  0.964557  0.502923  0.329030  1
  Rb  Rb7  1  0.035443  0.002923  0.670970  1
  Sm  Sm8  1  0.562192  0.250000  0.502447  1
  Sm  Sm9  1  0.437808  0.750000  0.497553  1
  Sm  Sm10  1  0.937808  0.250000  0.002447  1
  Sm  Sm11  1  0.062192  0.750000  0.997553  1
  F  F12  1  0.877660  0.750000  0.835459  1
  F  F13  1  0.122340  0.250000  0.164541  1
  F  F14  1  0.622340  0.750000  0.335459  1
  F  F15  1  0.377660  0.250000  0.664541  1
  F  F16  1  0.844434  0.250000  0.812905  1
  F  F17  1  0.155566  0.750000  0.187095  1
  F  F18  1  0.655566  0.250000  0.312905  1
  F  F19  1  0.344434  0.750000  0.687095  1
  F  F20  1  0.643952  0.965776  0.571624  1
  F  F21  1  0.356048  0.465776  0.428376  1
  F  F22  1  0.856048  0.965776  0.071624  1
  F  F23  1  0.143952  0.465776  0.928376  1
  F  F24  1  0.385468  0.750000  0.986323  1
  F  F25  1  0.614532  0.250000  0.013677  1
  F  F26  1  0.114532  0.750000  0.486323  1
  F  F27  1  0.885468  0.250000  0.513677  1
  F  F28  1  0.143952  0.034224  0.928376  1
  F  F29  1  0.856048  0.534224  0.071624  1
  F  F30  1  0.356048  0.034224  0.428376  1
  F  F31  1  0.643952  0.534224  0.571624  1
