# generated using pymatgen
data_Dy3Er9InCo4Pt
_symmetry_space_group_name_H-M   'P 1'
_cell_length_a   8.24795973
_cell_length_b   8.24795941
_cell_length_c   8.24602785
_cell_angle_alpha   110.94041029
_cell_angle_beta   110.64302735
_cell_angle_gamma   106.87143169
_symmetry_Int_Tables_number   1
_chemical_formula_structural   Dy3Er9InCo4Pt
_chemical_formula_sum   'Dy3 Er9 In1 Co4 Pt1'
_cell_volume   431.11145345
_cell_formula_units_Z   1
loop_
 _symmetry_equiv_pos_site_id
 _symmetry_equiv_pos_as_xyz
  1  'x, y, z'
loop_
 _atom_site_type_symbol
 _atom_site_label
 _atom_site_symmetry_multiplicity
 _atom_site_fract_x
 _atom_site_fract_y
 _atom_site_fract_z
 _atom_site_occupancy
  Dy  Dy0  1  0.186017  0.289657  0.475674  1
  Dy  Dy1  1  0.813544  0.710032  0.523576  1
  Dy  Dy2  1  0.186682  0.710472  0.897154  1
  Er  Er3  1  0.813917  0.289484  0.103401  1
  Er  Er4  1  0.315246  0.620588  0.305071  1
  Er  Er5  1  0.684492  0.379119  0.695296  1
  Er  Er6  1  0.316177  0.010805  0.695296  1
  Er  Er7  1  0.684483  0.989823  0.305071  1
  Er  Er8  1  0.415415  0.216974  0.197848  1
  Er  Er9  1  0.585342  0.783906  0.802156  1
  Er  Er10  1  0.018251  0.216814  0.802156  1
  Er  Er11  1  0.980874  0.782432  0.197848  1
  In  In12  1  0.500114  0.499921  0.000035  1
  Co  Co13  1  0.112258  0.612138  0.499272  1
  Co  Co14  1  0.887134  0.387014  0.499272  1
  Co  Co15  1  0.378510  0.000064  0.378574  1
  Co  Co16  1  0.621657  0.000284  0.621941  1
  Pt  Pt17  1  0.999887  0.000475  0.000361  1
