# generated using pymatgen
data_TmZrSi7Rh12
_symmetry_space_group_name_H-M   'P 1'
_cell_length_a   9.71401800
_cell_length_b   9.71401819
_cell_length_c   3.82520300
_cell_angle_alpha   90.00000000
_cell_angle_beta   90.00000000
_cell_angle_gamma   120.00000617
_symmetry_Int_Tables_number   1
_chemical_formula_structural   TmZrSi7Rh12
_chemical_formula_sum   'Tm1 Zr1 Si7 Rh12'
_cell_volume   312.59563441
_cell_formula_units_Z   1
loop_
 _symmetry_equiv_pos_site_id
 _symmetry_equiv_pos_as_xyz
  1  'x, y, z'
loop_
 _atom_site_type_symbol
 _atom_site_label
 _atom_site_symmetry_multiplicity
 _atom_site_fract_x
 _atom_site_fract_y
 _atom_site_fract_z
 _atom_site_occupancy
  Tm  Tm0  1  0.333333  0.666667  0.751584  1
  Zr  Zr1  1  0.666667  0.333333  0.248075  1
  Si  Si2  1  0.000000  0.000000  0.486212  1
  Si  Si3  1  0.404347  0.291878  0.751709  1
  Si  Si4  1  0.708122  0.112468  0.751709  1
  Si  Si5  1  0.887532  0.595653  0.751709  1
  Si  Si6  1  0.597523  0.711150  0.249807  1
  Si  Si7  1  0.288850  0.886374  0.249807  1
  Si  Si8  1  0.113626  0.402477  0.249807  1
  Rh  Rh9  1  0.446842  0.069459  0.752018  1
  Rh  Rh10  1  0.930541  0.377382  0.752018  1
  Rh  Rh11  1  0.622618  0.553158  0.752018  1
  Rh  Rh12  1  0.555154  0.938155  0.249370  1
  Rh  Rh13  1  0.061845  0.617000  0.249370  1
  Rh  Rh14  1  0.383000  0.444846  0.249370  1
  Rh  Rh15  1  0.143373  0.262926  0.747314  1
  Rh  Rh16  1  0.737074  0.880448  0.747314  1
  Rh  Rh17  1  0.119552  0.856627  0.747314  1
  Rh  Rh18  1  0.855236  0.735673  0.254491  1
  Rh  Rh19  1  0.264327  0.119562  0.254491  1
  Rh  Rh20  1  0.880438  0.144764  0.254491  1
