# generated using pymatgen
data_Sr4AlGa3(SiO7)2
_symmetry_space_group_name_H-M   'P 1'
_cell_length_a   8.02819791
_cell_length_b   5.36590415
_cell_length_c   8.04410983
_cell_angle_alpha   90.18058376
_cell_angle_beta   90.08463260
_cell_angle_gamma   89.95143962
_symmetry_Int_Tables_number   1
_chemical_formula_structural   Sr4AlGa3(SiO7)2
_chemical_formula_sum   'Sr4 Al1 Ga3 Si2 O14'
_cell_volume   346.52628900
_cell_formula_units_Z   1
loop_
 _symmetry_equiv_pos_site_id
 _symmetry_equiv_pos_as_xyz
  1  'x, y, z'
loop_
 _atom_site_type_symbol
 _atom_site_label
 _atom_site_symmetry_multiplicity
 _atom_site_fract_x
 _atom_site_fract_y
 _atom_site_fract_z
 _atom_site_occupancy
  Sr  Sr0  1  0.844524  0.516543  0.079041  1
  Sr  Sr1  1  0.341155  0.489192  0.923889  1
  Sr  Sr2  1  0.166349  0.505317  0.402087  1
  Sr  Sr3  1  0.666393  0.497496  0.596155  1
  Al  Al4  1  0.139513  0.034612  0.110347  1
  Ga  Ga5  1  0.498757  0.999486  0.252062  1
  Ga  Ga6  1  0.001157  0.000605  0.748277  1
  Ga  Ga7  1  0.642047  0.971960  0.892550  1
  Si  Si8  1  0.358262  0.954115  0.607676  1
  Si  Si9  1  0.859304  0.044844  0.390950  1
  O  O10  1  0.989504  0.163097  0.252597  1
  O  O11  1  0.485584  0.828134  0.745337  1
  O  O12  1  0.641409  0.306577  0.888086  1
  O  O13  1  0.141577  0.712241  0.113134  1
  O  O14  1  0.358221  0.254924  0.603405  1
  O  O15  1  0.858734  0.743940  0.395751  1
  O  O16  1  0.582052  0.798003  0.085818  1
  O  O17  1  0.083723  0.190067  0.921422  1
  O  O18  1  0.415049  0.812454  0.431082  1
  O  O19  1  0.915360  0.186973  0.568139  1
  O  O20  1  0.677684  0.180229  0.345089  1
  O  O21  1  0.176323  0.819617  0.651116  1
  O  O22  1  0.325171  0.194801  0.175693  1
  O  O23  1  0.832143  0.794774  0.820296  1
