# generated using pymatgen
data_Y4VSi8Tc5
_symmetry_space_group_name_H-M   'P 1'
_cell_length_a   6.82647356
_cell_length_b   6.71948131
_cell_length_c   6.81506992
_cell_angle_alpha   70.35724630
_cell_angle_beta   90.01517788
_cell_angle_gamma   89.83444130
_symmetry_Int_Tables_number   1
_chemical_formula_structural   Y4VSi8Tc5
_chemical_formula_sum   'Y4 V1 Si8 Tc5'
_cell_volume   294.41650280
_cell_formula_units_Z   1
loop_
 _symmetry_equiv_pos_site_id
 _symmetry_equiv_pos_as_xyz
  1  'x, y, z'
loop_
 _atom_site_type_symbol
 _atom_site_label
 _atom_site_symmetry_multiplicity
 _atom_site_fract_x
 _atom_site_fract_y
 _atom_site_fract_z
 _atom_site_occupancy
  Y  Y0  1  0.168412  0.940068  0.192800  1
  Y  Y1  1  0.331448  0.439848  0.192931  1
  Y  Y2  1  0.830766  0.058652  0.809921  1
  Y  Y3  1  0.667374  0.559134  0.810562  1
  V  V4  1  0.657247  0.744500  0.245080  1
  Si  Si5  1  0.550488  0.120745  0.099881  1
  Si  Si6  1  0.362262  0.628674  0.511028  1
  Si  Si7  1  0.862617  0.870527  0.490000  1
  Si  Si8  1  0.050870  0.380998  0.896013  1
  Si  Si9  1  0.138955  0.131654  0.511912  1
  Si  Si10  1  0.639567  0.369768  0.486731  1
  Si  Si11  1  0.950701  0.624259  0.099500  1
  Si  Si12  1  0.450936  0.875178  0.901561  1
  Tc  Tc13  1  0.843802  0.246457  0.236273  1
  Tc  Tc14  1  0.343750  0.253639  0.761337  1
  Tc  Tc15  1  0.153475  0.758228  0.758010  1
  Tc  Tc16  1  0.499962  0.994927  0.497092  1
  Tc  Tc17  1  0.997366  0.502743  0.499368  1
