# generated using pymatgen
data_Eu8Zn3Si12Pt
_symmetry_space_group_name_H-M   'P 1'
_cell_length_a   8.22109100
_cell_length_b   8.22109155
_cell_length_c   8.67775600
_cell_angle_alpha   90.00000000
_cell_angle_beta   90.00000000
_cell_angle_gamma   120.00000181
_symmetry_Int_Tables_number   1
_chemical_formula_structural   Eu8Zn3Si12Pt
_chemical_formula_sum   'Eu8 Zn3 Si12 Pt1'
_cell_volume   507.92196983
_cell_formula_units_Z   1
loop_
 _symmetry_equiv_pos_site_id
 _symmetry_equiv_pos_as_xyz
  1  'x, y, z'
loop_
 _atom_site_type_symbol
 _atom_site_label
 _atom_site_symmetry_multiplicity
 _atom_site_fract_x
 _atom_site_fract_y
 _atom_site_fract_z
 _atom_site_occupancy
  Eu  Eu0  1  0.500285  0.499715  0.748259  1
  Eu  Eu1  1  0.500958  0.499042  0.251733  1
  Eu  Eu2  1  0.999430  0.499715  0.748259  1
  Eu  Eu3  1  0.998083  0.499042  0.251733  1
  Eu  Eu4  1  0.500285  0.000570  0.748259  1
  Eu  Eu5  1  0.500958  0.001917  0.251733  1
  Eu  Eu6  1  0.000000  0.000000  0.749630  1
  Eu  Eu7  1  0.000000  0.000000  0.250490  1
  Zn  Zn8  1  0.666667  0.333333  0.997432  1
  Zn  Zn9  1  0.333333  0.666667  0.002108  1
  Zn  Zn10  1  0.333333  0.666667  0.498854  1
  Si  Si11  1  0.834694  0.165306  0.000529  1
  Si  Si12  1  0.165112  0.834888  0.999340  1
  Si  Si13  1  0.330611  0.165306  0.000529  1
  Si  Si14  1  0.163265  0.836735  0.499925  1
  Si  Si15  1  0.669776  0.834888  0.999340  1
  Si  Si16  1  0.833077  0.166923  0.500569  1
  Si  Si17  1  0.834694  0.669389  0.000529  1
  Si  Si18  1  0.673470  0.836735  0.499925  1
  Si  Si19  1  0.165112  0.330224  0.999340  1
  Si  Si20  1  0.333846  0.166923  0.500569  1
  Si  Si21  1  0.163265  0.326530  0.499925  1
  Si  Si22  1  0.833077  0.666154  0.500569  1
  Pt  Pt23  1  0.666667  0.333333  0.500423  1
