# generated using pymatgen
data_Er5Sc3Ti11Si16Ir
_symmetry_space_group_name_H-M   'P 1'
_cell_length_a   6.93745104
_cell_length_b   6.95265519
_cell_length_c   12.71427575
_cell_angle_alpha   90.08464148
_cell_angle_beta   89.94102006
_cell_angle_gamma   89.78706023
_symmetry_Int_Tables_number   1
_chemical_formula_structural   Er5Sc3Ti11Si16Ir
_chemical_formula_sum   'Er5 Sc3 Ti11 Si16 Ir1'
_cell_volume   613.25139191
_cell_formula_units_Z   1
loop_
 _symmetry_equiv_pos_site_id
 _symmetry_equiv_pos_as_xyz
  1  'x, y, z'
loop_
 _atom_site_type_symbol
 _atom_site_label
 _atom_site_symmetry_multiplicity
 _atom_site_fract_x
 _atom_site_fract_y
 _atom_site_fract_z
 _atom_site_occupancy
  Er  Er0  1  0.840810  0.494992  0.282822  1
  Er  Er1  1  0.159594  0.501526  0.783938  1
  Er  Er2  1  0.657901  0.997615  0.969029  1
  Er  Er3  1  0.006263  0.340398  0.531837  1
  Er  Er4  1  0.997675  0.656482  0.032039  1
  Sc  Sc5  1  0.343784  0.000636  0.467053  1
  Sc  Sc6  1  0.499128  0.844296  0.717149  1
  Sc  Sc7  1  0.498844  0.154830  0.215876  1
  Ti  Ti8  1  0.176783  0.828982  0.248442  1
  Ti  Ti9  1  0.826160  0.173484  0.750983  1
  Ti  Ti10  1  0.671845  0.676190  0.499811  1
  Ti  Ti11  1  0.149352  0.998610  0.873004  1
  Ti  Ti12  1  0.493573  0.657273  0.125092  1
  Ti  Ti13  1  0.503328  0.351323  0.626834  1
  Ti  Ti14  1  0.653820  0.492464  0.875219  1
  Ti  Ti15  1  0.353017  0.508755  0.372562  1
  Ti  Ti16  1  0.850475  0.997580  0.374657  1
  Ti  Ti17  1  0.000933  0.149458  0.126897  1
  Ti  Ti18  1  0.993348  0.851648  0.624333  1
  Si  Si19  1  0.207970  0.129956  0.681952  1
  Si  Si20  1  0.372176  0.707406  0.930481  1
  Si  Si21  1  0.627725  0.290197  0.432338  1
  Si  Si22  1  0.696864  0.367493  0.070182  1
  Si  Si23  1  0.298856  0.641145  0.568220  1
  Si  Si24  1  0.792567  0.869211  0.183897  1
  Si  Si25  1  0.143218  0.199820  0.317600  1
  Si  Si26  1  0.861636  0.795645  0.815262  1
  Si  Si27  1  0.288561  0.956949  0.064596  1
  Si  Si28  1  0.544777  0.800519  0.316563  1
  Si  Si29  1  0.451000  0.203475  0.816217  1
  Si  Si30  1  0.790207  0.549067  0.683776  1
  Si  Si31  1  0.212713  0.445533  0.182968  1
  Si  Si32  1  0.700548  0.045935  0.565986  1
  Si  Si33  1  0.952564  0.285501  0.936065  1
  Si  Si34  1  0.051334  0.711308  0.434682  1
  Ir  Ir35  1  0.330653  0.324298  0.001638  1
