# generated using pymatgen
data_Y2PtPbAu
_symmetry_space_group_name_H-M   'P 1'
_cell_length_a   3.63807300
_cell_length_b   8.09714513
_cell_length_c   8.09714400
_cell_angle_alpha   89.66052466
_cell_angle_beta   90.00000000
_cell_angle_gamma   90.00000000
_symmetry_Int_Tables_number   1
_chemical_formula_structural   Y2PtPbAu
_chemical_formula_sum   'Y4 Pt2 Pb2 Au2'
_cell_volume   238.52152218
_cell_formula_units_Z   2
loop_
 _symmetry_equiv_pos_site_id
 _symmetry_equiv_pos_as_xyz
  1  'x, y, z'
loop_
 _atom_site_type_symbol
 _atom_site_label
 _atom_site_symmetry_multiplicity
 _atom_site_fract_x
 _atom_site_fract_y
 _atom_site_fract_z
 _atom_site_occupancy
  Y  Y0  1  0.500000  0.158737  0.658737  1
  Y  Y1  1  0.500000  0.841263  0.341263  1
  Y  Y2  1  0.500000  0.323186  0.176814  1
  Y  Y3  1  0.500000  0.676814  0.823186  1
  Pt  Pt4  1  0.000000  0.873287  0.626713  1
  Pt  Pt5  1  0.000000  0.126713  0.373287  1
  Pb  Pb6  1  0.000000  0.000000  0.000000  1
  Pb  Pb7  1  0.000000  0.500000  0.500000  1
  Au  Au8  1  0.000000  0.626338  0.126338  1
  Au  Au9  1  0.000000  0.373662  0.873662  1
