# generated using pymatgen
data_Pr16Ag3HgRh4
_symmetry_space_group_name_H-M   'P 1'
_cell_length_a   9.94381627
_cell_length_b   9.94381620
_cell_length_c   9.94381539
_cell_angle_alpha   60.20718388
_cell_angle_beta   60.20718743
_cell_angle_gamma   60.20718150
_symmetry_Int_Tables_number   1
_chemical_formula_structural   Pr16Ag3HgRh4
_chemical_formula_sum   'Pr16 Ag3 Hg1 Rh4'
_cell_volume   698.51677215
_cell_formula_units_Z   1
loop_
 _symmetry_equiv_pos_site_id
 _symmetry_equiv_pos_as_xyz
  1  'x, y, z'
loop_
 _atom_site_type_symbol
 _atom_site_label
 _atom_site_symmetry_multiplicity
 _atom_site_fract_x
 _atom_site_fract_y
 _atom_site_fract_z
 _atom_site_occupancy
  Pr  Pr0  1  0.350129  0.350129  0.350129  1
  Pr  Pr1  1  0.350119  0.350119  0.948570  1
  Pr  Pr2  1  0.350119  0.948570  0.350119  1
  Pr  Pr3  1  0.948570  0.350119  0.350119  1
  Pr  Pr4  1  0.808851  0.189185  0.189185  1
  Pr  Pr5  1  0.191375  0.808238  0.808237  1
  Pr  Pr6  1  0.189185  0.808851  0.189184  1
  Pr  Pr7  1  0.808237  0.191375  0.808237  1
  Pr  Pr8  1  0.189185  0.189185  0.808851  1
  Pr  Pr9  1  0.808238  0.808238  0.191374  1
  Pr  Pr10  1  0.939214  0.563503  0.563503  1
  Pr  Pr11  1  0.562502  0.937999  0.937999  1
  Pr  Pr12  1  0.563503  0.939214  0.563503  1
  Pr  Pr13  1  0.937999  0.562502  0.937999  1
  Pr  Pr14  1  0.563503  0.563503  0.939214  1
  Pr  Pr15  1  0.937999  0.937999  0.562502  1
  Ag  Ag16  1  0.581265  0.581265  0.256815  1
  Ag  Ag17  1  0.581265  0.256815  0.581265  1
  Ag  Ag18  1  0.256815  0.581265  0.581265  1
  Hg  Hg19  1  0.582430  0.582430  0.582430  1
  Rh  Rh20  1  0.141194  0.141194  0.141194  1
  Rh  Rh21  1  0.143076  0.143076  0.572153  1
  Rh  Rh22  1  0.143076  0.572153  0.143076  1
  Rh  Rh23  1  0.572153  0.143076  0.143076  1
