# generated using pymatgen
data_Dy3Ho13(HfIr3)4
_symmetry_space_group_name_H-M   'P 1'
_cell_length_a   10.80712401
_cell_length_b   10.80221200
_cell_length_c   6.23740600
_cell_angle_alpha   89.99872971
_cell_angle_beta   90.00389310
_cell_angle_gamma   89.99892884
_symmetry_Int_Tables_number   1
_chemical_formula_structural   Dy3Ho13(HfIr3)4
_chemical_formula_sum   'Dy3 Ho13 Hf4 Ir12'
_cell_volume   728.16004330
_cell_formula_units_Z   1
loop_
 _symmetry_equiv_pos_site_id
 _symmetry_equiv_pos_as_xyz
  1  'x, y, z'
loop_
 _atom_site_type_symbol
 _atom_site_label
 _atom_site_symmetry_multiplicity
 _atom_site_fract_x
 _atom_site_fract_y
 _atom_site_fract_z
 _atom_site_occupancy
  Dy  Dy0  1  0.289293  0.086209  0.374725  1
  Dy  Dy1  1  0.289270  0.913792  0.874700  1
  Dy  Dy2  1  0.710728  0.086144  0.874741  1
  Ho  Ho3  1  0.710565  0.913887  0.374888  1
  Ho  Ho4  1  0.586107  0.789307  0.874919  1
  Ho  Ho5  1  0.586075  0.210653  0.374890  1
  Ho  Ho6  1  0.414084  0.789288  0.374924  1
  Ho  Ho7  1  0.413987  0.210737  0.874904  1
  Ho  Ho8  1  0.210562  0.414022  0.625124  1
  Ho  Ho9  1  0.210559  0.585989  0.125119  1
  Ho  Ho10  1  0.789449  0.414023  0.125104  1
  Ho  Ho11  1  0.789430  0.586010  0.625059  1
  Ho  Ho12  1  0.913984  0.710549  0.125091  1
  Ho  Ho13  1  0.914065  0.289505  0.625004  1
  Ho  Ho14  1  0.085907  0.710502  0.625035  1
  Ho  Ho15  1  0.085917  0.289505  0.125021  1
  Hf  Hf16  1  0.999854  0.999939  0.500094  1
  Hf  Hf17  1  0.999973  0.999988  0.000171  1
  Hf  Hf18  1  0.500015  0.500001  0.000066  1
  Hf  Hf19  1  0.500004  0.500005  0.500036  1
  Ir  Ir20  1  0.856695  0.143527  0.250280  1
  Ir  Ir21  1  0.856663  0.856394  0.749890  1
  Ir  Ir22  1  0.143192  0.143683  0.750204  1
  Ir  Ir23  1  0.143218  0.856330  0.250190  1
  Ir  Ir24  1  0.643408  0.356723  0.749933  1
  Ir  Ir25  1  0.643445  0.643434  0.249987  1
  Ir  Ir26  1  0.356594  0.356725  0.249918  1
  Ir  Ir27  1  0.356603  0.643289  0.749922  1
  Ir  Ir28  1  0.500167  0.999925  0.122641  1
  Ir  Ir29  1  0.500178  0.999920  0.622307  1
  Ir  Ir30  1  0.000007  0.499990  0.877551  1
  Ir  Ir31  1  0.000003  0.500006  0.377563  1
