# generated using pymatgen
data_CeTh3As4
_symmetry_space_group_name_H-M   'P 1'
_cell_length_a   8.47882001
_cell_length_b   4.23695300
_cell_length_c   6.00247300
_cell_angle_alpha   90.00000000
_cell_angle_beta   90.00469141
_cell_angle_gamma   90.00000000
_symmetry_Int_Tables_number   1
_chemical_formula_structural   CeTh3As4
_chemical_formula_sum   'Ce1 Th3 As4'
_cell_volume   215.63501160
_cell_formula_units_Z   1
loop_
 _symmetry_equiv_pos_site_id
 _symmetry_equiv_pos_as_xyz
  1  'x, y, z'
loop_
 _atom_site_type_symbol
 _atom_site_label
 _atom_site_symmetry_multiplicity
 _atom_site_fract_x
 _atom_site_fract_y
 _atom_site_fract_z
 _atom_site_occupancy
  Ce  Ce0  1  0.625034  0.750001  0.750078  1
  Th  Th1  1  0.375711  0.249999  0.249985  1
  Th  Th2  1  0.874275  0.249999  0.249949  1
  Th  Th3  1  0.124987  0.750001  0.749995  1
  As  As4  1  0.124986  0.750001  0.249989  1
  As  As5  1  0.625005  0.750001  0.250060  1
  As  As6  1  0.377154  0.249999  0.749956  1
  As  As7  1  0.872852  0.249999  0.749992  1
