# generated using pymatgen
data_Th2Sn(AsRh2)6
_symmetry_space_group_name_H-M   'P 1'
_cell_length_a   10.12000400
_cell_length_b   10.12000489
_cell_length_c   4.00282200
_cell_angle_alpha   90.00000000
_cell_angle_beta   90.00000000
_cell_angle_gamma   120.00000363
_symmetry_Int_Tables_number   1
_chemical_formula_structural   Th2Sn(AsRh2)6
_chemical_formula_sum   'Th2 Sn1 As6 Rh12'
_cell_volume   355.02448030
_cell_formula_units_Z   1
loop_
 _symmetry_equiv_pos_site_id
 _symmetry_equiv_pos_as_xyz
  1  'x, y, z'
loop_
 _atom_site_type_symbol
 _atom_site_label
 _atom_site_symmetry_multiplicity
 _atom_site_fract_x
 _atom_site_fract_y
 _atom_site_fract_z
 _atom_site_occupancy
  Th  Th0  1  0.333333  0.666667  0.752110  1
  Th  Th1  1  0.666667  0.333333  0.249052  1
  Sn  Sn2  1  0.000000  0.000000  0.588047  1
  As  As3  1  0.885182  0.597441  0.747966  1
  As  As4  1  0.402559  0.287741  0.747966  1
  As  As5  1  0.712259  0.114818  0.747966  1
  As  As6  1  0.112237  0.400944  0.253798  1
  As  As7  1  0.599056  0.711293  0.253798  1
  As  As8  1  0.288707  0.887763  0.253798  1
  Rh  Rh9  1  0.618311  0.549344  0.748800  1
  Rh  Rh10  1  0.450656  0.068967  0.748800  1
  Rh  Rh11  1  0.931033  0.381689  0.748800  1
  Rh  Rh12  1  0.384084  0.451414  0.252373  1
  Rh  Rh13  1  0.548586  0.932670  0.252373  1
  Rh  Rh14  1  0.067330  0.615916  0.252373  1
  Rh  Rh15  1  0.126842  0.838156  0.758464  1
  Rh  Rh16  1  0.161844  0.288687  0.758464  1
  Rh  Rh17  1  0.711313  0.873158  0.758464  1
  Rh  Rh18  1  0.877209  0.151633  0.243624  1
  Rh  Rh19  1  0.848367  0.725576  0.243624  1
  Rh  Rh20  1  0.274424  0.122791  0.243624  1
