# generated using pymatgen
data_Dy6CoMoP12Ir5Rh11
_symmetry_space_group_name_H-M   'P 1'
_cell_length_a   3.91859900
_cell_length_b   11.15220923
_cell_length_c   12.77953100
_cell_angle_alpha   90.04361323
_cell_angle_beta   90.00000000
_cell_angle_gamma   90.00000000
_symmetry_Int_Tables_number   1
_chemical_formula_structural   Dy6CoMoP12Ir5Rh11
_chemical_formula_sum   'Dy6 Co1 Mo1 P12 Ir5 Rh11'
_cell_volume   558.47858173
_cell_formula_units_Z   1
loop_
 _symmetry_equiv_pos_site_id
 _symmetry_equiv_pos_as_xyz
  1  'x, y, z'
loop_
 _atom_site_type_symbol
 _atom_site_label
 _atom_site_symmetry_multiplicity
 _atom_site_fract_x
 _atom_site_fract_y
 _atom_site_fract_z
 _atom_site_occupancy
  Dy  Dy0  1  0.000000  0.500279  0.520424  1
  Dy  Dy1  1  0.500000  0.000270  0.476820  1
  Dy  Dy2  1  0.500000  0.817747  0.204318  1
  Dy  Dy3  1  0.500000  0.182245  0.204246  1
  Dy  Dy4  1  0.000000  0.684839  0.799287  1
  Dy  Dy5  1  0.000000  0.314668  0.798804  1
  Co  Co6  1  0.500000  0.000078  0.020821  1
  Mo  Mo7  1  0.500000  0.499860  0.159567  1
  P  P8  1  0.500000  0.499884  0.878506  1
  P  P9  1  0.000000  0.000015  0.120201  1
  P  P10  1  0.500000  0.500033  0.346721  1
  P  P11  1  0.000000  0.999193  0.646952  1
  P  P12  1  0.500000  0.315699  0.619313  1
  P  P13  1  0.500000  0.684582  0.619598  1
  P  P14  1  0.000000  0.185882  0.380906  1
  P  P15  1  0.000000  0.814470  0.381473  1
  P  P16  1  0.500000  0.856143  0.894460  1
  P  P17  1  0.500000  0.143681  0.893896  1
  P  P18  1  0.000000  0.657035  0.108466  1
  P  P19  1  0.000000  0.342841  0.108056  1
  Ir  Ir20  1  0.500000  0.500308  0.700685  1
  Ir  Ir21  1  0.000000  0.999677  0.298610  1
  Ir  Ir22  1  0.000000  0.795671  0.570133  1
  Ir  Ir23  1  0.000000  0.626856  0.288362  1
  Ir  Ir24  1  0.000000  0.372700  0.287840  1
  Rh  Rh25  1  0.000000  0.999890  0.829226  1
  Rh  Rh26  1  0.000000  0.499939  0.988379  1
  Rh  Rh27  1  0.500000  0.329532  0.990120  1
  Rh  Rh28  1  0.500000  0.670415  0.990481  1
  Rh  Rh29  1  0.000000  0.160838  0.008422  1
  Rh  Rh30  1  0.000000  0.839100  0.008590  1
  Rh  Rh31  1  0.500000  0.296019  0.432382  1
  Rh  Rh32  1  0.500000  0.705526  0.432335  1
  Rh  Rh33  1  0.000000  0.203787  0.569307  1
  Rh  Rh34  1  0.500000  0.873497  0.711535  1
  Rh  Rh35  1  0.500000  0.126800  0.710763  1
