# generated using pymatgen
data_Lu5HgRh2
_symmetry_space_group_name_H-M   'P 1'
_cell_length_a   8.47892678
_cell_length_b   8.47892579
_cell_length_c   8.47612649
_cell_angle_alpha   126.77331399
_cell_angle_beta   126.77331396
_cell_angle_gamma   78.61420761
_symmetry_Int_Tables_number   1
_chemical_formula_structural   Lu5HgRh2
_chemical_formula_sum   'Lu10 Hg2 Rh4'
_cell_volume   378.47655739
_cell_formula_units_Z   2
loop_
 _symmetry_equiv_pos_site_id
 _symmetry_equiv_pos_as_xyz
  1  'x, y, z'
loop_
 _atom_site_type_symbol
 _atom_site_label
 _atom_site_symmetry_multiplicity
 _atom_site_fract_x
 _atom_site_fract_y
 _atom_site_fract_z
 _atom_site_occupancy
  Lu  Lu0  1  0.000000  0.000000  0.000000  1
  Lu  Lu1  1  0.500000  0.500000  0.000000  1
  Lu  Lu2  1  0.795146  0.295146  0.816329  1
  Lu  Lu3  1  0.204854  0.704854  0.183671  1
  Lu  Lu4  1  0.478759  0.978759  0.183629  1
  Lu  Lu5  1  0.295134  0.478764  0.499965  1
  Lu  Lu6  1  0.021236  0.204866  0.500035  1
  Lu  Lu7  1  0.521241  0.021241  0.816371  1
  Lu  Lu8  1  0.704866  0.521236  0.500035  1
  Lu  Lu9  1  0.978764  0.795134  0.499965  1
  Hg  Hg10  1  0.249999  0.250001  0.000000  1
  Hg  Hg11  1  0.750001  0.749999  0.000000  1
  Rh  Rh12  1  0.141078  0.641078  0.782152  1
  Rh  Rh13  1  0.858922  0.358922  0.217848  1
  Rh  Rh14  1  0.641090  0.858910  0.500000  1
  Rh  Rh15  1  0.358910  0.141090  0.500000  1
