# generated using pymatgen
data_Hf3Mn2NbN
_symmetry_space_group_name_H-M   'P 1'
_cell_length_a   8.45835366
_cell_length_b   8.45842340
_cell_length_c   8.45837605
_cell_angle_alpha   60.00008454
_cell_angle_beta   59.99983579
_cell_angle_gamma   60.00015242
_symmetry_Int_Tables_number   1
_chemical_formula_structural   Hf3Mn2NbN
_chemical_formula_sum   'Hf12 Mn8 Nb4 N4'
_cell_volume   427.90512790
_cell_formula_units_Z   4
loop_
 _symmetry_equiv_pos_site_id
 _symmetry_equiv_pos_as_xyz
  1  'x, y, z'
loop_
 _atom_site_type_symbol
 _atom_site_label
 _atom_site_symmetry_multiplicity
 _atom_site_fract_x
 _atom_site_fract_y
 _atom_site_fract_z
 _atom_site_occupancy
  Hf  Hf0  1  0.812977  0.812994  0.187008  1
  Hf  Hf1  1  0.187032  0.187082  0.812947  1
  Hf  Hf2  1  0.812945  0.187077  0.812957  1
  Hf  Hf3  1  0.187029  0.812987  0.187013  1
  Hf  Hf4  1  0.187025  0.812981  0.812972  1
  Hf  Hf5  1  0.812948  0.187087  0.187013  1
  Hf  Hf6  1  0.437057  0.437026  0.062965  1
  Hf  Hf7  1  0.062930  0.062982  0.437033  1
  Hf  Hf8  1  0.437046  0.062993  0.437039  1
  Hf  Hf9  1  0.062961  0.437025  0.062949  1
  Hf  Hf10  1  0.062973  0.437032  0.437050  1
  Hf  Hf11  1  0.437039  0.062983  0.062928  1
  Mn  Mn12  1  0.741794  0.419366  0.419398  1
  Mn  Mn13  1  0.419414  0.741754  0.419399  1
  Mn  Mn14  1  0.419401  0.419356  0.741810  1
  Mn  Mn15  1  0.419402  0.419359  0.419397  1
  Mn  Mn16  1  0.508206  0.830605  0.830620  1
  Mn  Mn17  1  0.830598  0.508223  0.830612  1
  Mn  Mn18  1  0.830611  0.830612  0.508205  1
  Mn  Mn19  1  0.830607  0.830603  0.830628  1
  Nb  Nb20  1  0.124952  0.624905  0.625077  1
  Nb  Nb21  1  0.624948  0.125087  0.624988  1
  Nb  Nb22  1  0.625062  0.624933  0.124910  1
  Nb  Nb23  1  0.625053  0.624925  0.625094  1
  N  N24  1  0.625002  0.125012  0.124991  1
  N  N25  1  0.125004  0.624990  0.125002  1
  N  N26  1  0.124993  0.125010  0.625003  1
  N  N27  1  0.124992  0.125011  0.124991  1
