# generated using pymatgen
data_Pa8AlCo2Si12Rh
_symmetry_space_group_name_H-M   'P 1'
_cell_length_a   8.07570104
_cell_length_b   8.07575045
_cell_length_c   7.92336185
_cell_angle_alpha   89.99700693
_cell_angle_beta   89.99801001
_cell_angle_gamma   120.00025084
_symmetry_Int_Tables_number   1
_chemical_formula_structural   Pa8AlCo2Si12Rh
_chemical_formula_sum   'Pa8 Al1 Co2 Si12 Rh1'
_cell_volume   447.50938298
_cell_formula_units_Z   1
loop_
 _symmetry_equiv_pos_site_id
 _symmetry_equiv_pos_as_xyz
  1  'x, y, z'
loop_
 _atom_site_type_symbol
 _atom_site_label
 _atom_site_symmetry_multiplicity
 _atom_site_fract_x
 _atom_site_fract_y
 _atom_site_fract_z
 _atom_site_occupancy
  Pa  Pa0  1  0.000001  0.999998  0.249735  1
  Pa  Pa1  1  0.999997  0.999999  0.750111  1
  Pa  Pa2  1  0.504347  0.495664  0.249361  1
  Pa  Pa3  1  0.504310  0.008619  0.249378  1
  Pa  Pa4  1  0.991311  0.495660  0.249360  1
  Pa  Pa5  1  0.503945  0.496053  0.749959  1
  Pa  Pa6  1  0.503958  0.007918  0.749973  1
  Pa  Pa7  1  0.992155  0.496079  0.749970  1
  Al  Al8  1  0.333379  0.666681  0.498306  1
  Co  Co9  1  0.666675  0.333342  0.503907  1
  Co  Co10  1  0.666652  0.333337  0.999524  1
  Si  Si11  1  0.163973  0.836067  0.500343  1
  Si  Si12  1  0.163972  0.327892  0.500391  1
  Si  Si13  1  0.672114  0.836055  0.500300  1
  Si  Si14  1  0.827911  0.172075  0.499667  1
  Si  Si15  1  0.827918  0.655848  0.499693  1
  Si  Si16  1  0.344186  0.172087  0.499637  1
  Si  Si17  1  0.829107  0.170839  0.999763  1
  Si  Si18  1  0.829108  0.658282  0.999736  1
  Si  Si19  1  0.341714  0.170861  0.999766  1
  Si  Si20  1  0.164021  0.836002  0.000110  1
  Si  Si21  1  0.164025  0.328031  0.000119  1
  Si  Si22  1  0.671935  0.835973  0.000100  1
  Rh  Rh23  1  0.333285  0.666643  0.000794  1
