# generated using pymatgen
data_Nd3ErPd4F28
_symmetry_space_group_name_H-M   'P 1'
_cell_length_a   5.61461364
_cell_length_b   9.02298285
_cell_length_c   12.12897818
_cell_angle_alpha   62.30724198
_cell_angle_beta   89.84149252
_cell_angle_gamma   89.99461958
_symmetry_Int_Tables_number   1
_chemical_formula_structural   Nd3ErPd4F28
_chemical_formula_sum   'Nd3 Er1 Pd4 F28'
_cell_volume   544.07325027
_cell_formula_units_Z   1
loop_
 _symmetry_equiv_pos_site_id
 _symmetry_equiv_pos_as_xyz
  1  'x, y, z'
loop_
 _atom_site_type_symbol
 _atom_site_label
 _atom_site_symmetry_multiplicity
 _atom_site_fract_x
 _atom_site_fract_y
 _atom_site_fract_z
 _atom_site_occupancy
  Nd  Nd0  1  0.761510  0.809005  0.765102  1
  Nd  Nd1  1  0.261688  0.190081  0.734796  1
  Nd  Nd2  1  0.238370  0.184175  0.235465  1
  Er  Er3  1  0.736043  0.809804  0.264173  1
  Pd  Pd4  1  0.756770  0.269315  0.959070  1
  Pd  Pd5  1  0.258508  0.728455  0.538886  1
  Pd  Pd6  1  0.239923  0.728299  0.047496  1
  Pd  Pd7  1  0.742192  0.277619  0.454494  1
  F  F8  1  0.428219  0.704637  0.921710  1
  F  F9  1  0.926465  0.298747  0.582051  1
  F  F10  1  0.571841  0.294360  0.085041  1
  F  F11  1  0.067281  0.704958  0.414119  1
  F  F12  1  0.444192  0.281229  0.535817  1
  F  F13  1  0.946771  0.721737  0.964166  1
  F  F14  1  0.557202  0.724907  0.455170  1
  F  F15  1  0.054585  0.275863  0.038704  1
  F  F16  1  0.774735  0.512420  0.862453  1
  F  F17  1  0.277588  0.486297  0.635739  1
  F  F18  1  0.224260  0.484822  0.141639  1
  F  F19  1  0.726007  0.522812  0.358910  1
  F  F20  1  0.752348  0.025805  0.050632  1
  F  F21  1  0.251052  0.971200  0.451058  1
  F  F22  1  0.246094  0.970950  0.955189  1
  F  F23  1  0.747373  0.034900  0.545058  1
  F  F24  1  0.969498  0.723441  0.629135  1
  F  F25  1  0.465291  0.275138  0.871057  1
  F  F26  1  0.033429  0.278100  0.367382  1
  F  F27  1  0.530423  0.726815  0.137020  1
  F  F28  1  0.050026  0.747794  0.176267  1
  F  F29  1  0.562792  0.258964  0.324136  1
  F  F30  1  0.935692  0.253939  0.827180  1
  F  F31  1  0.440525  0.744434  0.670137  1
  F  F32  1  0.421319  0.960520  0.232659  1
  F  F33  1  0.905620  0.019521  0.268283  1
  F  F34  1  0.597206  0.034073  0.769738  1
  F  F35  1  0.097163  0.964864  0.730065  1
