# generated using pymatgen
data_La7Y(SiI6)2
_symmetry_space_group_name_H-M   'P 1'
_cell_length_a   4.42434900
_cell_length_b   14.69326037
_cell_length_c   15.46214827
_cell_angle_alpha   90.54941987
_cell_angle_beta   90.00000000
_cell_angle_gamma   90.00000000
_symmetry_Int_Tables_number   1
_chemical_formula_structural   La7Y(SiI6)2
_chemical_formula_sum   'La7 Y1 Si2 I12'
_cell_volume   1005.11885012
_cell_formula_units_Z   1
loop_
 _symmetry_equiv_pos_site_id
 _symmetry_equiv_pos_as_xyz
  1  'x, y, z'
loop_
 _atom_site_type_symbol
 _atom_site_label
 _atom_site_symmetry_multiplicity
 _atom_site_fract_x
 _atom_site_fract_y
 _atom_site_fract_z
 _atom_site_occupancy
  La  La0  1  0.500000  0.116512  0.345152  1
  La  La1  1  0.500000  0.883927  0.655418  1
  La  La2  1  0.500000  0.615243  0.153659  1
  La  La3  1  0.000000  0.116636  0.579179  1
  La  La4  1  0.000000  0.886006  0.423154  1
  La  La5  1  0.000000  0.612490  0.921795  1
  La  La6  1  0.000000  0.385035  0.074767  1
  Y  Y7  1  0.500000  0.387077  0.848948  1
  Si  Si8  1  0.500000  0.001262  0.500953  1
  Si  Si9  1  0.500000  0.498342  0.997672  1
  I  I10  1  0.500000  0.243147  0.161539  1
  I  I11  1  0.500000  0.755722  0.836941  1
  I  I12  1  0.500000  0.742832  0.336484  1
  I  I13  1  0.500000  0.259448  0.669184  1
  I  I14  1  0.000000  0.260397  0.416145  1
  I  I15  1  0.000000  0.739715  0.584501  1
  I  I16  1  0.000000  0.758925  0.084495  1
  I  I17  1  0.000000  0.249601  0.905351  1
  I  I18  1  0.000000  0.997998  0.239150  1
  I  I19  1  0.000000  0.002044  0.761740  1
  I  I20  1  0.000000  0.498483  0.259561  1
  I  I21  1  0.000000  0.489158  0.744213  1
