# generated using pymatgen
data_Al3Zn7Au20
_symmetry_space_group_name_H-M   'P 1'
_cell_length_a   3.13331500
_cell_length_b   9.33585606
_cell_length_c   17.39960409
_cell_angle_alpha   90.01231595
_cell_angle_beta   90.00000000
_cell_angle_gamma   90.00000000
_symmetry_Int_Tables_number   1
_chemical_formula_structural   Al3Zn7Au20
_chemical_formula_sum   'Al3 Zn7 Au20'
_cell_volume   508.97630127
_cell_formula_units_Z   1
loop_
 _symmetry_equiv_pos_site_id
 _symmetry_equiv_pos_as_xyz
  1  'x, y, z'
loop_
 _atom_site_type_symbol
 _atom_site_label
 _atom_site_symmetry_multiplicity
 _atom_site_fract_x
 _atom_site_fract_y
 _atom_site_fract_z
 _atom_site_occupancy
  Al  Al0  1  0.000000  0.963086  0.599263  1
  Al  Al1  1  0.500000  0.537650  0.101232  1
  Al  Al2  1  0.500000  0.461513  0.898648  1
  Zn  Zn3  1  0.000000  0.999803  0.000691  1
  Zn  Zn4  1  0.500000  0.501016  0.500055  1
  Zn  Zn5  1  0.000000  0.972142  0.200605  1
  Zn  Zn6  1  0.000000  0.030286  0.800356  1
  Zn  Zn7  1  0.500000  0.470405  0.300992  1
  Zn  Zn8  1  0.500000  0.528905  0.699418  1
  Zn  Zn9  1  0.000000  0.036617  0.398472  1
  Au  Au10  1  0.000000  0.350314  0.016146  1
  Au  Au11  1  0.000000  0.650016  0.983528  1
  Au  Au12  1  0.500000  0.846848  0.484816  1
  Au  Au13  1  0.500000  0.150302  0.516931  1
  Au  Au14  1  0.000000  0.362623  0.184382  1
  Au  Au15  1  0.000000  0.636313  0.815706  1
  Au  Au16  1  0.500000  0.860045  0.313534  1
  Au  Au17  1  0.500000  0.136245  0.684281  1
  Au  Au18  1  0.000000  0.325001  0.408011  1
  Au  Au19  1  0.000000  0.676683  0.594856  1
  Au  Au20  1  0.500000  0.823761  0.092775  1
  Au  Au21  1  0.500000  0.176586  0.907357  1
  Au  Au22  1  0.000000  0.367738  0.605833  1
  Au  Au23  1  0.000000  0.634948  0.393605  1
  Au  Au24  1  0.500000  0.868245  0.893959  1
  Au  Au25  1  0.500000  0.132056  0.106188  1
  Au  Au26  1  0.000000  0.332243  0.784201  1
  Au  Au27  1  0.000000  0.666103  0.214176  1
  Au  Au28  1  0.500000  0.833770  0.716225  1
  Au  Au29  1  0.500000  0.168738  0.283760  1
