# generated using pymatgen
data_Ba3Ti2PdO9
_symmetry_space_group_name_H-M   'P 1'
_cell_length_a   5.79421300
_cell_length_b   5.79421218
_cell_length_c   14.32544200
_cell_angle_alpha   90.00000000
_cell_angle_beta   90.00000000
_cell_angle_gamma   119.99999895
_symmetry_Int_Tables_number   1
_chemical_formula_structural   Ba3Ti2PdO9
_chemical_formula_sum   'Ba6 Ti4 Pd2 O18'
_cell_volume   416.51199995
_cell_formula_units_Z   2
loop_
 _symmetry_equiv_pos_site_id
 _symmetry_equiv_pos_as_xyz
  1  'x, y, z'
loop_
 _atom_site_type_symbol
 _atom_site_label
 _atom_site_symmetry_multiplicity
 _atom_site_fract_x
 _atom_site_fract_y
 _atom_site_fract_z
 _atom_site_occupancy
  Ba  Ba0  1  0.333333  0.666667  0.413133  1
  Ba  Ba1  1  0.666667  0.333333  0.913133  1
  Ba  Ba2  1  0.666667  0.333333  0.598462  1
  Ba  Ba3  1  0.333333  0.666667  0.098462  1
  Ba  Ba4  1  0.000000  0.000000  0.752770  1
  Ba  Ba5  1  0.000000  0.000000  0.252770  1
  Ti  Ti6  1  0.666667  0.333333  0.352983  1
  Ti  Ti7  1  0.333333  0.666667  0.852983  1
  Ti  Ti8  1  0.000000  0.000000  0.506288  1
  Ti  Ti9  1  0.000000  0.000000  0.006288  1
  Pd  Pd10  1  0.333333  0.666667  0.658093  1
  Pd  Pd11  1  0.666667  0.333333  0.158093  1
  O  O12  1  0.832877  0.167123  0.416063  1
  O  O13  1  0.832877  0.665752  0.416063  1
  O  O14  1  0.334248  0.167123  0.416063  1
  O  O15  1  0.665752  0.832877  0.916063  1
  O  O16  1  0.162251  0.324503  0.574596  1
  O  O17  1  0.167123  0.832877  0.916063  1
  O  O18  1  0.167123  0.334248  0.916063  1
  O  O19  1  0.837749  0.162251  0.074596  1
  O  O20  1  0.324503  0.162251  0.074596  1
  O  O21  1  0.675497  0.837749  0.574596  1
  O  O22  1  0.162251  0.837749  0.574596  1
  O  O23  1  0.837749  0.675497  0.074596  1
  O  O24  1  0.515948  0.031898  0.248765  1
  O  O25  1  0.484052  0.515948  0.748765  1
  O  O26  1  0.031898  0.515948  0.748765  1
  O  O27  1  0.968102  0.484052  0.248765  1
  O  O28  1  0.515948  0.484052  0.248765  1
  O  O29  1  0.484052  0.968102  0.748765  1
