# generated using pymatgen
data_LaCe2ScSb5
_symmetry_space_group_name_H-M   'P 1'
_cell_length_a   9.50300900
_cell_length_b   9.47273980
_cell_length_c   6.38723100
_cell_angle_alpha   90.00000000
_cell_angle_beta   90.00000000
_cell_angle_gamma   120.10575593
_symmetry_Int_Tables_number   1
_chemical_formula_structural   LaCe2ScSb5
_chemical_formula_sum   'La2 Ce4 Sc2 Sb10'
_cell_volume   497.41193675
_cell_formula_units_Z   2
loop_
 _symmetry_equiv_pos_site_id
 _symmetry_equiv_pos_as_xyz
  1  'x, y, z'
loop_
 _atom_site_type_symbol
 _atom_site_label
 _atom_site_symmetry_multiplicity
 _atom_site_fract_x
 _atom_site_fract_y
 _atom_site_fract_z
 _atom_site_occupancy
  La  La0  1  0.617154  0.000000  0.250000  1
  La  La1  1  0.382846  0.000000  0.750000  1
  Ce  Ce2  1  0.001973  0.616287  0.250000  1
  Ce  Ce3  1  0.998027  0.383713  0.750000  1
  Ce  Ce4  1  0.385685  0.383713  0.250000  1
  Ce  Ce5  1  0.614315  0.616287  0.750000  1
  Sc  Sc6  1  0.000000  0.000000  0.000000  1
  Sc  Sc7  1  0.000000  0.000000  0.500000  1
  Sb  Sb8  1  0.259405  0.000000  0.250000  1
  Sb  Sb9  1  0.740595  0.000000  0.750000  1
  Sb  Sb10  1  0.004521  0.265562  0.250000  1
  Sb  Sb11  1  0.995479  0.734438  0.750000  1
  Sb  Sb12  1  0.738959  0.734438  0.250000  1
  Sb  Sb13  1  0.261041  0.265562  0.750000  1
  Sb  Sb14  1  0.330802  0.661605  0.000000  1
  Sb  Sb15  1  0.669198  0.338395  0.000000  1
  Sb  Sb16  1  0.669198  0.338395  0.500000  1
  Sb  Sb17  1  0.330802  0.661605  0.500000  1
