# generated using pymatgen
data_YbP4Ru5Rh
_symmetry_space_group_name_H-M   'P 1'
_cell_length_a   6.98964716
_cell_length_b   6.94299236
_cell_length_c   3.69231000
_cell_angle_alpha   90.00000000
_cell_angle_beta   90.00000000
_cell_angle_gamma   119.76538421
_symmetry_Int_Tables_number   1
_chemical_formula_structural   YbP4Ru5Rh
_chemical_formula_sum   'Yb1 P4 Ru5 Rh1'
_cell_volume   155.54376827
_cell_formula_units_Z   1
loop_
 _symmetry_equiv_pos_site_id
 _symmetry_equiv_pos_as_xyz
  1  'x, y, z'
loop_
 _atom_site_type_symbol
 _atom_site_label
 _atom_site_symmetry_multiplicity
 _atom_site_fract_x
 _atom_site_fract_y
 _atom_site_fract_z
 _atom_site_occupancy
  Yb  Yb0  1  0.000340  0.000426  0.500000  1
  P  P1  1  0.676350  0.338153  0.500000  1
  P  P2  1  0.186907  0.379696  0.000000  1
  P  P3  1  0.183804  0.805022  0.000000  1
  P  P4  1  0.621361  0.811764  0.000000  1
  Ru  Ru5  1  0.468790  0.930490  0.500000  1
  Ru  Ru6  1  0.462543  0.532071  0.500000  1
  Ru  Ru7  1  0.074108  0.540269  0.500000  1
  Ru  Ru8  1  0.798957  0.600875  0.000000  1
  Ru  Ru9  1  0.802097  0.200831  0.000000  1
  Rh  Rh10  1  0.391413  0.193735  0.000000  1
