# generated using pymatgen
data_TbEr3Pd2Pt2F28
_symmetry_space_group_name_H-M   'P 1'
_cell_length_a   5.51705539
_cell_length_b   8.82422692
_cell_length_c   11.92344344
_cell_angle_alpha   62.55745290
_cell_angle_beta   89.95800506
_cell_angle_gamma   89.98814371
_symmetry_Int_Tables_number   1
_chemical_formula_structural   TbEr3Pd2Pt2F28
_chemical_formula_sum   'Tb1 Er3 Pd2 Pt2 F28'
_cell_volume   515.15857381
_cell_formula_units_Z   1
loop_
 _symmetry_equiv_pos_site_id
 _symmetry_equiv_pos_as_xyz
  1  'x, y, z'
loop_
 _atom_site_type_symbol
 _atom_site_label
 _atom_site_symmetry_multiplicity
 _atom_site_fract_x
 _atom_site_fract_y
 _atom_site_fract_z
 _atom_site_occupancy
  Tb  Tb0  1  0.760963  0.813533  0.763842  1
  Er  Er1  1  0.261772  0.187791  0.736395  1
  Er  Er2  1  0.237456  0.184948  0.235202  1
  Er  Er3  1  0.737689  0.815098  0.265001  1
  Pd  Pd4  1  0.759692  0.271030  0.957488  1
  Pd  Pd5  1  0.258489  0.726975  0.541853  1
  Pt  Pt6  1  0.241264  0.727674  0.044370  1
  Pt  Pt7  1  0.740422  0.273158  0.456261  1
  F  F8  1  0.435120  0.702391  0.915831  1
  F  F9  1  0.936851  0.298299  0.584044  1
  F  F10  1  0.564573  0.297122  0.083556  1
  F  F11  1  0.065260  0.702154  0.414932  1
  F  F12  1  0.438203  0.278247  0.542832  1
  F  F13  1  0.938658  0.721590  0.959207  1
  F  F14  1  0.560538  0.722845  0.457223  1
  F  F15  1  0.060058  0.276045  0.043005  1
  F  F16  1  0.779438  0.518763  0.859045  1
  F  F17  1  0.277937  0.478814  0.641042  1
  F  F18  1  0.226522  0.476725  0.142263  1
  F  F19  1  0.725009  0.523721  0.357957  1
  F  F20  1  0.752337  0.023388  0.050419  1
  F  F21  1  0.251865  0.974785  0.449614  1
  F  F22  1  0.245602  0.977836  0.950423  1
  F  F23  1  0.745544  0.023151  0.549216  1
  F  F24  1  0.965528  0.722733  0.633912  1
  F  F25  1  0.467615  0.276275  0.864119  1
  F  F26  1  0.035231  0.274187  0.362930  1
  F  F27  1  0.536971  0.726121  0.136945  1
  F  F28  1  0.051331  0.747437  0.177107  1
  F  F29  1  0.548868  0.253129  0.323918  1
  F  F30  1  0.948431  0.253067  0.825217  1
  F  F31  1  0.443661  0.744746  0.674772  1
  F  F32  1  0.415045  0.970446  0.232449  1
  F  F33  1  0.914674  0.029898  0.267719  1
  F  F34  1  0.583519  0.033053  0.767450  1
  F  F35  1  0.087866  0.972826  0.732439  1
