# generated using pymatgen
data_Ni(S8Br)3
_symmetry_space_group_name_H-M   'P 1'
_cell_length_a   14.96659642
_cell_length_b   14.96659607
_cell_length_c   14.96659618
_cell_angle_alpha   118.87557673
_cell_angle_beta   118.87557721
_cell_angle_gamma   118.87557674
_symmetry_Int_Tables_number   1
_chemical_formula_structural   Ni(S8Br)3
_chemical_formula_sum   'Ni1 S24 Br3'
_cell_volume   919.13725129
_cell_formula_units_Z   1
loop_
 _symmetry_equiv_pos_site_id
 _symmetry_equiv_pos_as_xyz
  1  'x, y, z'
loop_
 _atom_site_type_symbol
 _atom_site_label
 _atom_site_symmetry_multiplicity
 _atom_site_fract_x
 _atom_site_fract_y
 _atom_site_fract_z
 _atom_site_occupancy
  Ni  Ni0  1  0.075548  0.075548  0.075548  1
  S  S1  1  0.010704  0.608656  0.608656  1
  S  S2  1  0.608656  0.608656  0.010704  1
  S  S3  1  0.608656  0.010704  0.608656  1
  S  S4  1  0.240503  0.853148  0.723143  1
  S  S5  1  0.853148  0.723143  0.240503  1
  S  S6  1  0.723143  0.240503  0.853148  1
  S  S7  1  0.853148  0.240503  0.723143  1
  S  S8  1  0.240503  0.723143  0.853148  1
  S  S9  1  0.723143  0.853148  0.240503  1
  S  S10  1  0.094907  0.624666  0.440786  1
  S  S11  1  0.624666  0.440786  0.094907  1
  S  S12  1  0.440786  0.094907  0.624666  1
  S  S13  1  0.624666  0.094907  0.440786  1
  S  S14  1  0.094907  0.440786  0.624666  1
  S  S15  1  0.440786  0.624666  0.094907  1
  S  S16  1  0.362407  0.749921  0.619351  1
  S  S17  1  0.749921  0.619351  0.362407  1
  S  S18  1  0.619351  0.362407  0.749921  1
  S  S19  1  0.749921  0.362407  0.619351  1
  S  S20  1  0.362407  0.619351  0.749921  1
  S  S21  1  0.619351  0.749921  0.362407  1
  S  S22  1  0.186194  0.463487  0.463487  1
  S  S23  1  0.463487  0.463487  0.186194  1
  S  S24  1  0.463487  0.186194  0.463487  1
  Br  Br25  1  0.171066  0.020820  0.020820  1
  Br  Br26  1  0.020820  0.020820  0.171066  1
  Br  Br27  1  0.020820  0.171066  0.020820  1
