# generated using pymatgen
data_Dy19TmSn9Bi7
_symmetry_space_group_name_H-M   'P 1'
_cell_length_a   8.18485787
_cell_length_b   8.21278029
_cell_length_c   15.62764800
_cell_angle_alpha   90.06742011
_cell_angle_beta   89.60768378
_cell_angle_gamma   89.91753488
_symmetry_Int_Tables_number   1
_chemical_formula_structural   Dy19TmSn9Bi7
_chemical_formula_sum   'Dy19 Tm1 Sn9 Bi7'
_cell_volume   1050.47091159
_cell_formula_units_Z   1
loop_
 _symmetry_equiv_pos_site_id
 _symmetry_equiv_pos_as_xyz
  1  'x, y, z'
loop_
 _atom_site_type_symbol
 _atom_site_label
 _atom_site_symmetry_multiplicity
 _atom_site_fract_x
 _atom_site_fract_y
 _atom_site_fract_z
 _atom_site_occupancy
  Dy  Dy0  1  0.394453  0.837859  0.877661  1
  Dy  Dy1  1  0.897722  0.663867  0.621474  1
  Dy  Dy2  1  0.602327  0.162274  0.377907  1
  Dy  Dy3  1  0.101932  0.338097  0.121474  1
  Dy  Dy4  1  0.607392  0.167195  0.121495  1
  Dy  Dy5  1  0.102567  0.336372  0.377957  1
  Dy  Dy6  1  0.396547  0.838216  0.622623  1
  Dy  Dy7  1  0.891769  0.660523  0.880137  1
  Dy  Dy8  1  0.565543  0.333721  0.890079  1
  Dy  Dy9  1  0.065873  0.169252  0.614044  1
  Dy  Dy10  1  0.434624  0.668306  0.386336  1
  Dy  Dy11  1  0.937087  0.823604  0.111515  1
  Dy  Dy12  1  0.445780  0.665638  0.110294  1
  Dy  Dy13  1  0.934322  0.830791  0.385807  1
  Dy  Dy14  1  0.566090  0.331949  0.613575  1
  Dy  Dy15  1  0.056934  0.173910  0.889600  1
  Dy  Dy16  1  0.228532  0.500271  0.750762  1
  Dy  Dy17  1  0.728517  0.001980  0.750773  1
  Dy  Dy18  1  0.771719  0.499598  0.246132  1
  Tm  Tm19  1  0.271208  0.998229  0.248756  1
  Sn  Sn20  1  0.768388  0.480705  0.044459  1
  Sn  Sn21  1  0.593975  0.629813  0.749683  1
  Sn  Sn22  1  0.092516  0.871819  0.751086  1
  Sn  Sn23  1  0.404915  0.369730  0.250374  1
  Sn  Sn24  1  0.907110  0.126952  0.250113  1
  Sn  Sn25  1  0.366724  0.143603  0.751550  1
  Sn  Sn26  1  0.866927  0.359547  0.750077  1
  Sn  Sn27  1  0.632137  0.858693  0.249455  1
  Sn  Sn28  1  0.135338  0.641350  0.249659  1
  Bi  Bi29  1  0.265286  0.015672  0.044888  1
  Bi  Bi30  1  0.763415  0.486593  0.454137  1
  Bi  Bi31  1  0.736786  0.987428  0.545090  1
  Bi  Bi32  1  0.233465  0.518574  0.955675  1
  Bi  Bi33  1  0.731977  0.982047  0.955798  1
  Bi  Bi34  1  0.237415  0.513446  0.545143  1
  Bi  Bi35  1  0.262684  0.012372  0.454409  1
