# generated using pymatgen
data_La2HoSi4(AsPd10)2
_symmetry_space_group_name_H-M   'P 1'
_cell_length_a   8.76519565
_cell_length_b   8.86594416
_cell_length_c   8.86594303
_cell_angle_alpha   59.24961280
_cell_angle_beta   60.37519255
_cell_angle_gamma   60.37519475
_symmetry_Int_Tables_number   1
_chemical_formula_structural   La2HoSi4(AsPd10)2
_chemical_formula_sum   'La2 Ho1 Si4 As2 Pd20'
_cell_volume   487.06354806
_cell_formula_units_Z   1
loop_
 _symmetry_equiv_pos_site_id
 _symmetry_equiv_pos_as_xyz
  1  'x, y, z'
loop_
 _atom_site_type_symbol
 _atom_site_label
 _atom_site_symmetry_multiplicity
 _atom_site_fract_x
 _atom_site_fract_y
 _atom_site_fract_z
 _atom_site_occupancy
  La  La0  1  0.250000  0.250000  0.250000  1
  La  La1  1  0.750000  0.750000  0.750000  1
  Ho  Ho2  1  0.000000  0.000000  0.000000  1
  Si  Si3  1  0.265631  0.734369  0.265631  1
  Si  Si4  1  0.734369  0.265631  0.734369  1
  Si  Si5  1  0.265631  0.265631  0.734369  1
  Si  Si6  1  0.734369  0.734369  0.265631  1
  As  As7  1  0.736077  0.263923  0.263923  1
  As  As8  1  0.263923  0.736077  0.736077  1
  Pd  Pd9  1  0.379743  0.388096  0.388096  1
  Pd  Pd10  1  0.620257  0.611904  0.611904  1
  Pd  Pd11  1  0.388096  0.379743  0.844066  1
  Pd  Pd12  1  0.388096  0.844066  0.379743  1
  Pd  Pd13  1  0.611904  0.620257  0.155934  1
  Pd  Pd14  1  0.611904  0.155934  0.620257  1
  Pd  Pd15  1  0.844066  0.388096  0.388096  1
  Pd  Pd16  1  0.155934  0.611904  0.611904  1
  Pd  Pd17  1  0.345445  0.000000  0.000000  1
  Pd  Pd18  1  0.654555  0.000000  0.000000  1
  Pd  Pd19  1  0.000000  0.345445  0.654555  1
  Pd  Pd20  1  0.000000  0.654555  0.345445  1
  Pd  Pd21  1  0.008310  0.346380  0.991690  1
  Pd  Pd22  1  0.653620  0.991690  0.346380  1
  Pd  Pd23  1  0.991690  0.653620  0.008310  1
  Pd  Pd24  1  0.346380  0.008310  0.653620  1
  Pd  Pd25  1  0.008310  0.991690  0.346380  1
  Pd  Pd26  1  0.991690  0.008310  0.653620  1
  Pd  Pd27  1  0.653620  0.346380  0.991690  1
  Pd  Pd28  1  0.346380  0.653620  0.008310  1
