# generated using pymatgen
data_Rb8Ba4HfZrSb8
_symmetry_space_group_name_H-M   'P 1'
_cell_length_a   11.48933043
_cell_length_b   11.48829313
_cell_length_c   8.69186127
_cell_angle_alpha   88.34564688
_cell_angle_beta   88.32292706
_cell_angle_gamma   119.55709353
_symmetry_Int_Tables_number   1
_chemical_formula_structural   Rb8Ba4HfZrSb8
_chemical_formula_sum   'Rb8 Ba4 Hf1 Zr1 Sb8'
_cell_volume   996.29795656
_cell_formula_units_Z   1
loop_
 _symmetry_equiv_pos_site_id
 _symmetry_equiv_pos_as_xyz
  1  'x, y, z'
loop_
 _atom_site_type_symbol
 _atom_site_label
 _atom_site_symmetry_multiplicity
 _atom_site_fract_x
 _atom_site_fract_y
 _atom_site_fract_z
 _atom_site_occupancy
  Rb  Rb0  1  0.054199  0.524233  0.620166  1
  Rb  Rb1  1  0.524286  0.054294  0.120224  1
  Rb  Rb2  1  0.279464  0.135391  0.833761  1
  Rb  Rb3  1  0.871798  0.730351  0.773794  1
  Rb  Rb4  1  0.859513  0.145324  0.808509  1
  Rb  Rb5  1  0.730396  0.871817  0.273871  1
  Rb  Rb6  1  0.135369  0.279418  0.333830  1
  Rb  Rb7  1  0.145293  0.859537  0.308595  1
  Ba  Ba8  1  0.468799  0.936383  0.612744  1
  Ba  Ba9  1  0.470969  0.522601  0.626981  1
  Ba  Ba10  1  0.936102  0.468643  0.112966  1
  Ba  Ba11  1  0.522690  0.470868  0.127079  1
  Hf  Hf12  1  0.665363  0.335187  0.514438  1
  Zr  Zr13  1  0.335138  0.665462  0.014608  1
  Sb  Sb14  1  0.599135  0.791277  0.878013  1
  Sb  Sb15  1  0.201589  0.394904  0.927543  1
  Sb  Sb16  1  0.195287  0.793185  0.907421  1
  Sb  Sb17  1  0.396109  0.202183  0.427962  1
  Sb  Sb18  1  0.790755  0.598026  0.378632  1
  Sb  Sb19  1  0.792638  0.195939  0.407956  1
  Sb  Sb20  1  0.669463  0.355024  0.840211  1
  Sb  Sb21  1  0.355204  0.669512  0.341964  1
