# generated using pymatgen
data_Dy5YTm10(CdPt)4
_symmetry_space_group_name_H-M   'P 1'
_cell_length_a   9.59781655
_cell_length_b   9.59781705
_cell_length_c   9.59814100
_cell_angle_alpha   59.99888002
_cell_angle_beta   59.99887830
_cell_angle_gamma   59.99886954
_symmetry_Int_Tables_number   1
_chemical_formula_structural   Dy5YTm10(CdPt)4
_chemical_formula_sum   'Dy5 Y1 Tm10 Cd4 Pt4'
_cell_volume   625.18128887
_cell_formula_units_Z   1
loop_
 _symmetry_equiv_pos_site_id
 _symmetry_equiv_pos_as_xyz
  1  'x, y, z'
loop_
 _atom_site_type_symbol
 _atom_site_label
 _atom_site_symmetry_multiplicity
 _atom_site_fract_x
 _atom_site_fract_y
 _atom_site_fract_z
 _atom_site_occupancy
  Dy  Dy0  1  0.936981  0.562923  0.563030  1
  Dy  Dy1  1  0.562923  0.936981  0.937066  1
  Dy  Dy2  1  0.562923  0.936981  0.563030  1
  Dy  Dy3  1  0.936981  0.562923  0.937066  1
  Dy  Dy4  1  0.563035  0.563035  0.936965  1
  Y  Y5  1  0.936952  0.936952  0.563048  1
  Tm  Tm6  1  0.352059  0.352059  0.352049  1
  Tm  Tm7  1  0.352059  0.352059  0.943833  1
  Tm  Tm8  1  0.352092  0.943872  0.352018  1
  Tm  Tm9  1  0.943872  0.352092  0.352018  1
  Tm  Tm10  1  0.811418  0.188618  0.188543  1
  Tm  Tm11  1  0.188618  0.811418  0.811420  1
  Tm  Tm12  1  0.188618  0.811418  0.188543  1
  Tm  Tm13  1  0.811418  0.188618  0.811420  1
  Tm  Tm14  1  0.188567  0.188567  0.811433  1
  Tm  Tm15  1  0.811415  0.811415  0.188585  1
  Cd  Cd16  1  0.581448  0.581448  0.581453  1
  Cd  Cd17  1  0.581448  0.581448  0.255652  1
  Cd  Cd18  1  0.581424  0.255728  0.581425  1
  Cd  Cd19  1  0.255728  0.581424  0.581425  1
  Pt  Pt20  1  0.143219  0.143219  0.143194  1
  Pt  Pt21  1  0.143219  0.143219  0.570370  1
  Pt  Pt22  1  0.143213  0.570370  0.143209  1
  Pt  Pt23  1  0.570370  0.143213  0.143209  1
