# generated using pymatgen
data_Tm7Lu5Tc3Pt
_symmetry_space_group_name_H-M   'P 1'
_cell_length_a   6.19065461
_cell_length_b   7.32513711
_cell_length_c   8.98129433
_cell_angle_alpha   90.00816350
_cell_angle_beta   89.96996877
_cell_angle_gamma   89.97062734
_symmetry_Int_Tables_number   1
_chemical_formula_structural   Tm7Lu5Tc3Pt
_chemical_formula_sum   'Tm7 Lu5 Tc3 Pt1'
_cell_volume   407.27817712
_cell_formula_units_Z   1
loop_
 _symmetry_equiv_pos_site_id
 _symmetry_equiv_pos_as_xyz
  1  'x, y, z'
loop_
 _atom_site_type_symbol
 _atom_site_label
 _atom_site_symmetry_multiplicity
 _atom_site_fract_x
 _atom_site_fract_y
 _atom_site_fract_z
 _atom_site_occupancy
  Tm  Tm0  1  0.838990  0.828010  0.559034  1
  Tm  Tm1  1  0.331231  0.675752  0.433849  1
  Tm  Tm2  1  0.162983  0.177317  0.063089  1
  Tm  Tm3  1  0.874696  0.541915  0.249859  1
  Tm  Tm4  1  0.620817  0.037396  0.249847  1
  Tm  Tm5  1  0.127140  0.455686  0.750109  1
  Tm  Tm6  1  0.374000  0.965204  0.750099  1
  Lu  Lu7  1  0.331271  0.675786  0.065941  1
  Lu  Lu8  1  0.163078  0.177386  0.436954  1
  Lu  Lu9  1  0.665443  0.318723  0.558438  1
  Lu  Lu10  1  0.838770  0.827972  0.941145  1
  Lu  Lu11  1  0.665362  0.318916  0.941556  1
  Tc  Tc12  1  0.038120  0.885010  0.249713  1
  Tc  Tc13  1  0.464470  0.385960  0.250076  1
  Tc  Tc14  1  0.958157  0.115351  0.749802  1
  Pt  Pt15  1  0.545471  0.613616  0.750488  1
