# generated using pymatgen
data_Ta12Al5Si2Tc4GeC4
_symmetry_space_group_name_H-M   'P 1'
_cell_length_a   8.29802526
_cell_length_b   8.29336225
_cell_length_c   8.29336100
_cell_angle_alpha   60.01222962
_cell_angle_beta   59.98139449
_cell_angle_gamma   59.98139453
_symmetry_Int_Tables_number   1
_chemical_formula_structural   Ta12Al5Si2Tc4GeC4
_chemical_formula_sum   'Ta12 Al5 Si2 Tc4 Ge1 C4'
_cell_volume   403.49566332
_cell_formula_units_Z   1
loop_
 _symmetry_equiv_pos_site_id
 _symmetry_equiv_pos_as_xyz
  1  'x, y, z'
loop_
 _atom_site_type_symbol
 _atom_site_label
 _atom_site_symmetry_multiplicity
 _atom_site_fract_x
 _atom_site_fract_y
 _atom_site_fract_z
 _atom_site_occupancy
  Ta  Ta0  1  0.558223  0.942477  0.557882  1
  Ta  Ta1  1  0.308458  0.691398  0.692436  1
  Ta  Ta2  1  0.695220  0.307246  0.307008  1
  Ta  Ta3  1  0.306386  0.692950  0.306764  1
  Ta  Ta4  1  0.693871  0.687746  0.309810  1
  Ta  Ta5  1  0.306203  0.306830  0.693665  1
  Ta  Ta6  1  0.556214  0.555647  0.943855  1
  Ta  Ta7  1  0.942625  0.557648  0.557893  1
  Ta  Ta8  1  0.561292  0.942130  0.940497  1
  Ta  Ta9  1  0.938858  0.939289  0.563519  1
  Ta  Ta10  1  0.693353  0.309664  0.688742  1
  Ta  Ta11  1  0.941970  0.560854  0.940621  1
  Al  Al12  1  0.336246  0.336163  0.996089  1
  Al  Al13  1  0.918741  0.250703  0.916755  1
  Al  Al14  1  0.917842  0.918281  0.250983  1
  Al  Al15  1  0.249805  0.919209  0.916986  1
  Al  Al16  1  0.335056  0.335107  0.332118  1
  Si  Si17  1  0.916251  0.916810  0.914122  1
  Si  Si18  1  0.991067  0.340603  0.335088  1
  Tc  Tc19  1  0.123599  0.129337  0.133139  1
  Tc  Tc20  1  0.628931  0.119733  0.121531  1
  Tc  Tc21  1  0.117024  0.626405  0.124272  1
  Tc  Tc22  1  0.119009  0.124479  0.620709  1
  Ge  Ge23  1  0.342102  0.987112  0.336346  1
  C  C24  1  0.625541  0.625697  0.625478  1
  C  C25  1  0.125647  0.625233  0.624696  1
  C  C26  1  0.625050  0.125757  0.624747  1
  C  C27  1  0.625418  0.625491  0.124249  1
