# generated using pymatgen
data_Y7HoIn2IrRh
_symmetry_space_group_name_H-M   'P 1'
_cell_length_a   9.69431965
_cell_length_b   9.73311328
_cell_length_c   9.69468450
_cell_angle_alpha   59.86879266
_cell_angle_beta   59.73400905
_cell_angle_gamma   59.86754355
_symmetry_Int_Tables_number   1
_chemical_formula_structural   Y7HoIn2IrRh
_chemical_formula_sum   'Y14 Ho2 In4 Ir2 Rh2'
_cell_volume   644.23210139
_cell_formula_units_Z   2
loop_
 _symmetry_equiv_pos_site_id
 _symmetry_equiv_pos_as_xyz
  1  'x, y, z'
loop_
 _atom_site_type_symbol
 _atom_site_label
 _atom_site_symmetry_multiplicity
 _atom_site_fract_x
 _atom_site_fract_y
 _atom_site_fract_z
 _atom_site_occupancy
  Y  Y0  1  0.189601  0.188846  0.810225  1
  Y  Y1  1  0.600537  0.599823  0.199817  1
  Y  Y2  1  0.440466  0.059538  0.440459  1
  Y  Y3  1  0.439655  0.440826  0.059688  1
  Y  Y4  1  0.811432  0.188567  0.811434  1
  Y  Y5  1  0.189783  0.810218  0.189780  1
  Y  Y6  1  0.439655  0.059832  0.059688  1
  Y  Y7  1  0.189601  0.811329  0.810225  1
  Y  Y8  1  0.060100  0.439898  0.060103  1
  Y  Y9  1  0.810226  0.811329  0.189599  1
  Y  Y10  1  0.199826  0.599818  0.600536  1
  Y  Y11  1  0.059690  0.440826  0.439655  1
  Y  Y12  1  0.059690  0.059830  0.439655  1
  Y  Y13  1  0.810226  0.188846  0.189599  1
  Ho  Ho14  1  0.598915  0.203516  0.598936  1
  Ho  Ho15  1  0.598915  0.598634  0.598936  1
  In  In16  1  0.833147  0.833755  0.833174  1
  In  In17  1  0.832714  0.833304  0.500678  1
  In  In18  1  0.500697  0.833303  0.832696  1
  In  In19  1  0.833147  0.499924  0.833174  1
  Ir  Ir20  1  0.392858  0.823510  0.392855  1
  Ir  Ir21  1  0.392858  0.390777  0.392855  1
  Rh  Rh22  1  0.822152  0.391877  0.394094  1
  Rh  Rh23  1  0.394108  0.391876  0.822140  1
