# generated using pymatgen
data_HoEr11InCo4Pt
_symmetry_space_group_name_H-M   'P 1'
_cell_length_a   8.23928224
_cell_length_b   8.23928146
_cell_length_c   8.23813355
_cell_angle_alpha   111.04631967
_cell_angle_beta   110.68259704
_cell_angle_gamma   106.72545884
_symmetry_Int_Tables_number   1
_chemical_formula_structural   HoEr11InCo4Pt
_chemical_formula_sum   'Ho1 Er11 In1 Co4 Pt1'
_cell_volume   429.73763052
_cell_formula_units_Z   1
loop_
 _symmetry_equiv_pos_site_id
 _symmetry_equiv_pos_as_xyz
  1  'x, y, z'
loop_
 _atom_site_type_symbol
 _atom_site_label
 _atom_site_symmetry_multiplicity
 _atom_site_fract_x
 _atom_site_fract_y
 _atom_site_fract_z
 _atom_site_occupancy
  Ho  Ho0  1  0.186314  0.289883  0.476197  1
  Er  Er1  1  0.814024  0.710322  0.524346  1
  Er  Er2  1  0.185986  0.710542  0.896528  1
  Er  Er3  1  0.813818  0.289654  0.103472  1
  Er  Er4  1  0.315204  0.619635  0.304258  1
  Er  Er5  1  0.685103  0.380475  0.695711  1
  Er  Er6  1  0.315236  0.010609  0.695711  1
  Er  Er7  1  0.684623  0.989053  0.304258  1
  Er  Er8  1  0.416163  0.217390  0.198549  1
  Er  Er9  1  0.584232  0.782895  0.801566  1
  Er  Er10  1  0.018671  0.217334  0.801566  1
  Er  Er11  1  0.981158  0.782386  0.198549  1
  In  In12  1  0.499911  0.499948  0.999859  1
  Co  Co13  1  0.111994  0.612528  0.499975  1
  Co  Co14  1  0.887446  0.387980  0.499975  1
  Co  Co15  1  0.378133  0.999757  0.377890  1
  Co  Co16  1  0.621967  0.999967  0.621933  1
  Pt  Pt17  1  0.000016  0.999642  0.999658  1
