# generated using pymatgen
data_NaSb12PdRu3
_symmetry_space_group_name_H-M   'P 1'
_cell_length_a   8.15421719
_cell_length_b   8.15421689
_cell_length_c   8.15421500
_cell_angle_alpha   109.40345726
_cell_angle_beta   109.40345651
_cell_angle_gamma   109.40345338
_symmetry_Int_Tables_number   1
_chemical_formula_structural   NaSb12PdRu3
_chemical_formula_sum   'Na1 Sb12 Pd1 Ru3'
_cell_volume   418.41731711
_cell_formula_units_Z   1
loop_
 _symmetry_equiv_pos_site_id
 _symmetry_equiv_pos_as_xyz
  1  'x, y, z'
loop_
 _atom_site_type_symbol
 _atom_site_label
 _atom_site_symmetry_multiplicity
 _atom_site_fract_x
 _atom_site_fract_y
 _atom_site_fract_z
 _atom_site_occupancy
  Na  Na0  1  0.000000  0.000000  0.000000  1
  Sb  Sb1  1  0.660457  0.850281  0.501918  1
  Sb  Sb2  1  0.339543  0.149719  0.498082  1
  Sb  Sb3  1  0.841611  0.180312  0.337981  1
  Sb  Sb4  1  0.819688  0.662019  0.158389  1
  Sb  Sb5  1  0.850281  0.501918  0.660457  1
  Sb  Sb6  1  0.180312  0.337981  0.841611  1
  Sb  Sb7  1  0.158389  0.819688  0.662019  1
  Sb  Sb8  1  0.501918  0.660457  0.850281  1
  Sb  Sb9  1  0.498082  0.339543  0.149719  1
  Sb  Sb10  1  0.149719  0.498082  0.339543  1
  Sb  Sb11  1  0.337981  0.841611  0.180312  1
  Sb  Sb12  1  0.662019  0.158389  0.819688  1
  Pd  Pd13  1  0.500000  0.500000  0.500000  1
  Ru  Ru14  1  0.000000  0.000000  0.500000  1
  Ru  Ru15  1  0.500000  0.000000  0.000000  1
  Ru  Ru16  1  0.000000  0.500000  0.000000  1
