# generated using pymatgen
data_Tb2Y5RhI12
_symmetry_space_group_name_H-M   'P 1'
_cell_length_a   9.81799340
_cell_length_b   9.81807546
_cell_length_c   9.81854438
_cell_angle_alpha   106.94565526
_cell_angle_beta   106.93170303
_cell_angle_gamma   106.97328854
_symmetry_Int_Tables_number   1
_chemical_formula_structural   Tb2Y5RhI12
_chemical_formula_sum   'Tb2 Y5 Rh1 I12'
_cell_volume   789.27786485
_cell_formula_units_Z   1
loop_
 _symmetry_equiv_pos_site_id
 _symmetry_equiv_pos_as_xyz
  1  'x, y, z'
loop_
 _atom_site_type_symbol
 _atom_site_label
 _atom_site_symmetry_multiplicity
 _atom_site_fract_x
 _atom_site_fract_y
 _atom_site_fract_z
 _atom_site_occupancy
  Tb  Tb0  1  0.022945  0.296122  0.094937  1
  Tb  Tb1  1  0.296091  0.094954  0.023068  1
  Y  Y2  1  0.499912  0.499877  0.499951  1
  Y  Y3  1  0.904886  0.976638  0.703437  1
  Y  Y4  1  0.976620  0.703883  0.905286  1
  Y  Y5  1  0.703965  0.905009  0.976765  1
  Y  Y6  1  0.094797  0.022843  0.296352  1
  Rh  Rh7  1  0.000298  0.000390  0.000039  1
  I  I8  1  0.536119  0.837570  0.613166  1
  I  I9  1  0.837669  0.613111  0.536248  1
  I  I10  1  0.613092  0.536147  0.837564  1
  I  I11  1  0.463927  0.162454  0.387234  1
  I  I12  1  0.162596  0.386880  0.464348  1
  I  I13  1  0.387379  0.464455  0.163058  1
  I  I14  1  0.676077  0.223788  0.070452  1
  I  I15  1  0.223622  0.070243  0.675118  1
  I  I16  1  0.070547  0.676595  0.223992  1
  I  I17  1  0.324230  0.775387  0.929248  1
  I  I18  1  0.775980  0.929445  0.324287  1
  I  I19  1  0.929248  0.324208  0.775451  1
