# generated using pymatgen
data_Tb5Ho5Cd4(InNi)4
_symmetry_space_group_name_H-M   'P 1'
_cell_length_a   7.96544600
_cell_length_b   18.09117303
_cell_length_c   3.55844800
_cell_angle_alpha   90.00000000
_cell_angle_beta   90.00000000
_cell_angle_gamma   89.99493827
_symmetry_Int_Tables_number   1
_chemical_formula_structural   Tb5Ho5Cd4(InNi)4
_chemical_formula_sum   'Tb5 Ho5 Cd4 In4 Ni4'
_cell_volume   512.78752058
_cell_formula_units_Z   1
loop_
 _symmetry_equiv_pos_site_id
 _symmetry_equiv_pos_as_xyz
  1  'x, y, z'
loop_
 _atom_site_type_symbol
 _atom_site_label
 _atom_site_symmetry_multiplicity
 _atom_site_fract_x
 _atom_site_fract_y
 _atom_site_fract_z
 _atom_site_occupancy
  Tb  Tb0  1  0.499735  0.499663  0.000000  1
  Tb  Tb1  1  0.999565  0.999994  0.000000  1
  Tb  Tb2  1  0.754324  0.279889  0.000000  1
  Tb  Tb3  1  0.246707  0.720266  0.000000  1
  Tb  Tb4  1  0.746117  0.779642  0.000000  1
  Ho  Ho5  1  0.254167  0.220156  0.000000  1
  Ho  Ho6  1  0.615585  0.089277  0.000000  1
  Ho  Ho7  1  0.383478  0.911635  0.000000  1
  Ho  Ho8  1  0.884042  0.588450  0.000000  1
  Ho  Ho9  1  0.115743  0.410976  0.000000  1
  Cd  Cd10  1  0.703447  0.932137  0.500000  1
  Cd  Cd11  1  0.295232  0.068884  0.500000  1
  Cd  Cd12  1  0.795681  0.431753  0.500000  1
  Cd  Cd13  1  0.203941  0.568004  0.500000  1
  In  In14  1  0.565345  0.650005  0.500000  1
  In  In15  1  0.432942  0.349166  0.500000  1
  In  In16  1  0.935543  0.150569  0.500000  1
  In  In17  1  0.065050  0.849695  0.500000  1
  Ni  Ni18  1  0.530122  0.197823  0.500000  1
  Ni  Ni19  1  0.469474  0.803008  0.500000  1
  Ni  Ni20  1  0.969971  0.696946  0.500000  1
  Ni  Ni21  1  0.033788  0.302063  0.500000  1
