# generated using pymatgen
data_Ho2Mn4Fe6Co2P7
_symmetry_space_group_name_H-M   'P 1'
_cell_length_a   9.06922161
_cell_length_b   9.05575289
_cell_length_c   3.59372700
_cell_angle_alpha   90.00000000
_cell_angle_beta   90.00000000
_cell_angle_gamma   119.45896436
_symmetry_Int_Tables_number   1
_chemical_formula_structural   Ho2Mn4Fe6Co2P7
_chemical_formula_sum   'Ho2 Mn4 Fe6 Co2 P7'
_cell_volume   256.98765979
_cell_formula_units_Z   1
loop_
 _symmetry_equiv_pos_site_id
 _symmetry_equiv_pos_as_xyz
  1  'x, y, z'
loop_
 _atom_site_type_symbol
 _atom_site_label
 _atom_site_symmetry_multiplicity
 _atom_site_fract_x
 _atom_site_fract_y
 _atom_site_fract_z
 _atom_site_occupancy
  Ho  Ho0  1  0.660653  0.329059  0.000000  1
  Ho  Ho1  1  0.337497  0.668998  0.500000  1
  Mn  Mn2  1  0.951257  0.564671  0.500000  1
  Mn  Mn3  1  0.106076  0.230437  0.500000  1
  Mn  Mn4  1  0.775116  0.877428  0.500000  1
  Mn  Mn5  1  0.124054  0.895436  0.500000  1
  Fe  Fe6  1  0.052566  0.430339  0.000000  1
  Fe  Fe7  1  0.570263  0.627987  0.000000  1
  Fe  Fe8  1  0.374216  0.945208  0.000000  1
  Fe  Fe9  1  0.272925  0.155941  0.000000  1
  Fe  Fe10  1  0.845403  0.117708  0.000000  1
  Fe  Fe11  1  0.880074  0.722245  0.000000  1
  Co  Co12  1  0.435469  0.383963  0.500000  1
  Co  Co13  1  0.614555  0.051103  0.500000  1
  P  P14  1  0.298718  0.412780  0.000000  1
  P  P15  1  0.589275  0.888015  0.000000  1
  P  P16  1  0.123702  0.710682  0.000000  1
  P  P17  1  0.403190  0.115316  0.500000  1
  P  P18  1  0.878189  0.282388  0.500000  1
  P  P19  1  0.705998  0.592229  0.500000  1
  P  P20  1  0.000803  0.998069  0.000000  1
