# generated using pymatgen
data_Br(O2F3)2
_symmetry_space_group_name_H-M   'P 1'
_cell_length_a   5.41458001
_cell_length_b   6.40408494
_cell_length_c   6.75194038
_cell_angle_alpha   105.33508642
_cell_angle_beta   94.77607082
_cell_angle_gamma   110.97689673
_symmetry_Int_Tables_number   1
_chemical_formula_structural   Br(O2F3)2
_chemical_formula_sum   'Br1 O4 F6'
_cell_volume   206.66918326
_cell_formula_units_Z   1
loop_
 _symmetry_equiv_pos_site_id
 _symmetry_equiv_pos_as_xyz
  1  'x, y, z'
loop_
 _atom_site_type_symbol
 _atom_site_label
 _atom_site_symmetry_multiplicity
 _atom_site_fract_x
 _atom_site_fract_y
 _atom_site_fract_z
 _atom_site_occupancy
  Br  Br0  1  0.706878  0.273747  0.492088  1
  O  O1  1  0.097142  0.992410  0.896685  1
  O  O2  1  0.293479  0.952540  0.861378  1
  O  O3  1  0.298074  0.551279  0.051501  1
  O  O4  1  0.536329  0.629516  0.052977  1
  F  F5  1  0.652738  0.409760  0.762471  1
  F  F6  1  0.756147  0.145597  0.225251  1
  F  F7  1  0.020952  0.539213  0.532299  1
  F  F8  1  0.392014  0.006458  0.443668  1
  F  F9  1  0.902736  0.128321  0.604634  1
  F  F10  1  0.508722  0.414346  0.381206  1
