# generated using pymatgen
data_Eu4Hf2ScCrO12
_symmetry_space_group_name_H-M   'P 1'
_cell_length_a   5.63766495
_cell_length_b   5.75488583
_cell_length_c   8.05355928
_cell_angle_alpha   89.54675378
_cell_angle_beta   90.07300922
_cell_angle_gamma   90.06471748
_symmetry_Int_Tables_number   1
_chemical_formula_structural   Eu4Hf2ScCrO12
_chemical_formula_sum   'Eu4 Hf2 Sc1 Cr1 O12'
_cell_volume   261.28207745
_cell_formula_units_Z   1
loop_
 _symmetry_equiv_pos_site_id
 _symmetry_equiv_pos_as_xyz
  1  'x, y, z'
loop_
 _atom_site_type_symbol
 _atom_site_label
 _atom_site_symmetry_multiplicity
 _atom_site_fract_x
 _atom_site_fract_y
 _atom_site_fract_z
 _atom_site_occupancy
  Eu  Eu0  1  0.508033  0.545857  0.230766  1
  Eu  Eu1  1  0.990411  0.042605  0.231701  1
  Eu  Eu2  1  0.491967  0.454143  0.769234  1
  Eu  Eu3  1  0.009589  0.957395  0.768299  1
  Hf  Hf4  1  0.500000  0.000000  0.500000  1
  Hf  Hf5  1  0.000000  0.500000  0.500000  1
  Sc  Sc6  1  0.000000  0.500000  0.000000  1
  Cr  Cr7  1  0.500000  0.000000  0.000000  1
  O  O8  1  0.409823  0.971619  0.249041  1
  O  O9  1  0.093559  0.469189  0.253014  1
  O  O10  1  0.590177  0.028381  0.750959  1
  O  O11  1  0.906441  0.530811  0.746986  1
  O  O12  1  0.786923  0.795831  0.043378  1
  O  O13  1  0.699502  0.299222  0.447606  1
  O  O14  1  0.199550  0.200337  0.553071  1
  O  O15  1  0.297918  0.713000  0.957236  1
  O  O16  1  0.213077  0.204169  0.956622  1
  O  O17  1  0.300498  0.700778  0.552394  1
  O  O18  1  0.800450  0.799663  0.446929  1
  O  O19  1  0.702082  0.287000  0.042764  1
