# generated using pymatgen
data_Tb7Co5Sn23Ir
_symmetry_space_group_name_H-M   'P 1'
_cell_length_a   9.75075628
_cell_length_b   9.75075569
_cell_length_c   10.02419013
_cell_angle_alpha   90.17247606
_cell_angle_beta   89.82752021
_cell_angle_gamma   119.99328253
_symmetry_Int_Tables_number   1
_chemical_formula_structural   Tb7Co5Sn23Ir
_chemical_formula_sum   'Tb7 Co5 Sn23 Ir1'
_cell_volume   825.43574743
_cell_formula_units_Z   1
loop_
 _symmetry_equiv_pos_site_id
 _symmetry_equiv_pos_as_xyz
  1  'x, y, z'
loop_
 _atom_site_type_symbol
 _atom_site_label
 _atom_site_symmetry_multiplicity
 _atom_site_fract_x
 _atom_site_fract_y
 _atom_site_fract_z
 _atom_site_occupancy
  Tb  Tb0  1  0.996982  0.003018  0.003291  1
  Tb  Tb1  1  0.478269  0.521731  0.306602  1
  Tb  Tb2  1  0.522072  0.477928  0.693541  1
  Tb  Tb3  1  0.478513  0.956323  0.305818  1
  Tb  Tb4  1  0.521136  0.043855  0.693784  1
  Tb  Tb5  1  0.043677  0.521487  0.305818  1
  Tb  Tb6  1  0.956145  0.478864  0.693784  1
  Co  Co7  1  0.167556  0.832444  0.803966  1
  Co  Co8  1  0.832833  0.664265  0.195806  1
  Co  Co9  1  0.169150  0.334336  0.802106  1
  Co  Co10  1  0.335735  0.167167  0.195806  1
  Co  Co11  1  0.665664  0.830850  0.802106  1
  Sn  Sn12  1  0.343626  0.999241  0.000060  1
  Sn  Sn13  1  0.646608  0.994338  0.994163  1
  Sn  Sn14  1  0.005662  0.353392  0.994163  1
  Sn  Sn15  1  0.000759  0.656374  0.000060  1
  Sn  Sn16  1  0.654405  0.653977  0.999579  1
  Sn  Sn17  1  0.346023  0.345595  0.999579  1
  Sn  Sn18  1  0.333411  0.666589  0.817320  1
  Sn  Sn19  1  0.664498  0.335502  0.179621  1
  Sn  Sn20  1  0.999410  0.000590  0.500839  1
  Sn  Sn21  1  0.779213  0.220787  0.456797  1
  Sn  Sn22  1  0.218716  0.781284  0.549702  1
  Sn  Sn23  1  0.781194  0.562445  0.450421  1
  Sn  Sn24  1  0.218491  0.437544  0.549809  1
  Sn  Sn25  1  0.437555  0.218806  0.450421  1
  Sn  Sn26  1  0.562456  0.781509  0.549809  1
  Sn  Sn27  1  0.333847  0.666153  0.115870  1
  Sn  Sn28  1  0.666404  0.333596  0.883468  1
  Sn  Sn29  1  0.117592  0.882408  0.273843  1
  Sn  Sn30  1  0.882441  0.117559  0.726004  1
  Sn  Sn31  1  0.125337  0.237111  0.279188  1
  Sn  Sn32  1  0.883570  0.764917  0.725777  1
  Sn  Sn33  1  0.762889  0.874663  0.279188  1
  Sn  Sn34  1  0.235083  0.116430  0.725777  1
  Ir  Ir35  1  0.833076  0.166924  0.196110  1
