# generated using pymatgen
data_Y2Ho2Al15Si3(Ir2Os)2
_symmetry_space_group_name_H-M   'P 1'
_cell_length_a   7.53234635
_cell_length_b   7.51381298
_cell_length_c   9.36127000
_cell_angle_alpha   90.02998979
_cell_angle_beta   89.90695417
_cell_angle_gamma   119.48664210
_symmetry_Int_Tables_number   1
_chemical_formula_structural   Y2Ho2Al15Si3(Ir2Os)2
_chemical_formula_sum   'Y2 Ho2 Al15 Si3 Ir4 Os2'
_cell_volume   461.18894131
_cell_formula_units_Z   1
loop_
 _symmetry_equiv_pos_site_id
 _symmetry_equiv_pos_as_xyz
  1  'x, y, z'
loop_
 _atom_site_type_symbol
 _atom_site_label
 _atom_site_symmetry_multiplicity
 _atom_site_fract_x
 _atom_site_fract_y
 _atom_site_fract_z
 _atom_site_occupancy
  Y  Y0  1  0.683007  0.000524  0.247641  1
  Y  Y1  1  0.321709  0.006269  0.749784  1
  Ho  Ho2  1  0.993641  0.671112  0.247492  1
  Ho  Ho3  1  0.005541  0.322255  0.753759  1
  Al  Al4  1  0.996995  0.667707  0.921655  1
  Al  Al5  1  0.998255  0.664034  0.575708  1
  Al  Al6  1  0.335503  0.000110  0.423717  1
  Al  Al7  1  0.002153  0.335859  0.428231  1
  Al  Al8  1  0.663784  0.998878  0.575902  1
  Al  Al9  1  0.658674  0.993531  0.921917  1
  Al  Al10  1  0.334963  0.000649  0.076322  1
  Al  Al11  1  0.334624  0.334231  0.553157  1
  Al  Al12  1  0.666993  0.667353  0.446593  1
  Al  Al13  1  0.666686  0.667638  0.054869  1
  Al  Al14  1  0.337640  0.334384  0.946547  1
  Al  Al15  1  0.336590  0.548380  0.250246  1
  Al  Al16  1  0.663488  0.449801  0.750373  1
  Al  Al17  1  0.547208  0.337694  0.250200  1
  Al  Al18  1  0.448888  0.660758  0.749446  1
  Si  Si19  1  0.131339  0.126250  0.251234  1
  Si  Si20  1  0.871487  0.873826  0.750213  1
  Si  Si21  1  0.002207  0.336581  0.073268  1
  Ir  Ir22  1  0.679487  0.329069  0.001979  1
  Ir  Ir23  1  0.319536  0.663325  0.000281  1
  Ir  Ir24  1  0.327796  0.670926  0.499146  1
  Ir  Ir25  1  0.672119  0.329016  0.498975  1
  Os  Os26  1  0.999572  0.009086  0.001433  1
  Os  Os27  1  0.000119  0.000756  0.499916  1
