# generated using pymatgen
data_Hf8Mo3Ir4Ru
_symmetry_space_group_name_H-M   'P 1'
_cell_length_a   6.51594400
_cell_length_b   4.64347200
_cell_length_c   9.28052300
_cell_angle_alpha   90.00000000
_cell_angle_beta   89.99999738
_cell_angle_gamma   90.00000000
_symmetry_Int_Tables_number   1
_chemical_formula_structural   Hf8Mo3Ir4Ru
_chemical_formula_sum   'Hf8 Mo3 Ir4 Ru1'
_cell_volume   280.79710485
_cell_formula_units_Z   1
loop_
 _symmetry_equiv_pos_site_id
 _symmetry_equiv_pos_as_xyz
  1  'x, y, z'
loop_
 _atom_site_type_symbol
 _atom_site_label
 _atom_site_symmetry_multiplicity
 _atom_site_fract_x
 _atom_site_fract_y
 _atom_site_fract_z
 _atom_site_occupancy
  Hf  Hf0  1  0.001419  0.750000  0.125009  1
  Hf  Hf1  1  0.498560  0.750000  0.125010  1
  Hf  Hf2  1  0.000904  0.250001  0.375703  1
  Hf  Hf3  1  0.499093  0.250001  0.375702  1
  Hf  Hf4  1  0.499522  0.750000  0.625013  1
  Hf  Hf5  1  0.000486  0.750000  0.625016  1
  Hf  Hf6  1  0.499111  0.250001  0.874277  1
  Hf  Hf7  1  0.000908  0.250001  0.874276  1
  Mo  Mo8  1  0.249993  0.750000  0.373236  1
  Mo  Mo9  1  0.750007  0.250001  0.625004  1
  Mo  Mo10  1  0.250008  0.750000  0.876777  1
  Ir  Ir11  1  0.249991  0.250001  0.125003  1
  Ir  Ir12  1  0.749992  0.750000  0.373690  1
  Ir  Ir13  1  0.250009  0.250001  0.625008  1
  Ir  Ir14  1  0.750009  0.750000  0.876321  1
  Ru  Ru15  1  0.749989  0.250001  0.124956  1
