# generated using pymatgen
data_Sm4ReTc3B16
_symmetry_space_group_name_H-M   'P 1'
_cell_length_a   3.64878200
_cell_length_b   6.03200525
_cell_length_c   11.67978649
_cell_angle_alpha   89.96681501
_cell_angle_beta   90.00000000
_cell_angle_gamma   90.00000000
_symmetry_Int_Tables_number   1
_chemical_formula_structural   Sm4ReTc3B16
_chemical_formula_sum   'Sm4 Re1 Tc3 B16'
_cell_volume   257.06589282
_cell_formula_units_Z   1
loop_
 _symmetry_equiv_pos_site_id
 _symmetry_equiv_pos_as_xyz
  1  'x, y, z'
loop_
 _atom_site_type_symbol
 _atom_site_label
 _atom_site_symmetry_multiplicity
 _atom_site_fract_x
 _atom_site_fract_y
 _atom_site_fract_z
 _atom_site_occupancy
  Sm  Sm0  1  0.500000  0.374539  0.150798  1
  Sm  Sm1  1  0.500000  0.625238  0.849271  1
  Sm  Sm2  1  0.500000  0.125114  0.649807  1
  Sm  Sm3  1  0.500000  0.874814  0.350373  1
  Re  Re4  1  0.500000  0.868917  0.086837  1
  Tc  Tc5  1  0.500000  0.368773  0.413034  1
  Tc  Tc6  1  0.500000  0.631639  0.586967  1
  Tc  Tc7  1  0.500000  0.130542  0.913529  1
  B  B8  1  0.000000  0.113011  0.046046  1
  B  B9  1  0.000000  0.887373  0.953404  1
  B  B10  1  0.000000  0.387234  0.546324  1
  B  B11  1  0.000000  0.612552  0.453879  1
  B  B12  1  0.000000  0.138515  0.468036  1
  B  B13  1  0.000000  0.861565  0.532035  1
  B  B14  1  0.000000  0.361561  0.967909  1
  B  B15  1  0.000000  0.638557  0.031717  1
  B  B16  1  0.000000  0.024874  0.190664  1
  B  B17  1  0.000000  0.975366  0.809070  1
  B  B18  1  0.000000  0.474934  0.690721  1
  B  B19  1  0.000000  0.524541  0.309363  1
  B  B20  1  0.000000  0.216684  0.315949  1
  B  B21  1  0.000000  0.783714  0.684081  1
  B  B22  1  0.000000  0.283636  0.815838  1
  B  B23  1  0.000000  0.716308  0.184349  1
