# generated using pymatgen
data_Hf18MnZnCrCoRe6
_symmetry_space_group_name_H-M   'P 1'
_cell_length_a   8.58871100
_cell_length_b   8.58871169
_cell_length_c   8.43230900
_cell_angle_alpha   90.00000000
_cell_angle_beta   90.00000000
_cell_angle_gamma   119.99999348
_symmetry_Int_Tables_number   1
_chemical_formula_structural   Hf18MnZnCrCoRe6
_chemical_formula_sum   'Hf18 Mn1 Zn1 Cr1 Co1 Re6'
_cell_volume   538.68289692
_cell_formula_units_Z   1
loop_
 _symmetry_equiv_pos_site_id
 _symmetry_equiv_pos_as_xyz
  1  'x, y, z'
loop_
 _atom_site_type_symbol
 _atom_site_label
 _atom_site_symmetry_multiplicity
 _atom_site_fract_x
 _atom_site_fract_y
 _atom_site_fract_z
 _atom_site_occupancy
  Hf  Hf0  1  0.189262  0.810738  0.448829  1
  Hf  Hf1  1  0.189262  0.378527  0.448829  1
  Hf  Hf2  1  0.621473  0.810738  0.448829  1
  Hf  Hf3  1  0.800971  0.199029  0.557771  1
  Hf  Hf4  1  0.800971  0.601941  0.557771  1
  Hf  Hf5  1  0.398059  0.199029  0.557771  1
  Hf  Hf6  1  0.800760  0.199240  0.941884  1
  Hf  Hf7  1  0.800760  0.601519  0.941884  1
  Hf  Hf8  1  0.398481  0.199240  0.941884  1
  Hf  Hf9  1  0.191123  0.808877  0.051031  1
  Hf  Hf10  1  0.191123  0.382249  0.051031  1
  Hf  Hf11  1  0.617751  0.808877  0.051031  1
  Hf  Hf12  1  0.541158  0.458842  0.250220  1
  Hf  Hf13  1  0.541158  0.082317  0.250220  1
  Hf  Hf14  1  0.917683  0.458842  0.250220  1
  Hf  Hf15  1  0.458673  0.541327  0.749475  1
  Hf  Hf16  1  0.458673  0.917346  0.749475  1
  Hf  Hf17  1  0.082654  0.541327  0.749475  1
  Mn  Mn18  1  0.000000  0.000000  0.501199  1
  Zn  Zn19  1  0.333333  0.666667  0.252413  1
  Cr  Cr20  1  0.000000  0.000000  0.999528  1
  Co  Co21  1  0.666667  0.333333  0.749227  1
  Re  Re22  1  0.891179  0.108821  0.249376  1
  Re  Re23  1  0.891179  0.782360  0.249376  1
  Re  Re24  1  0.217640  0.108821  0.249376  1
  Re  Re25  1  0.107934  0.892066  0.750625  1
  Re  Re26  1  0.107934  0.215867  0.750625  1
  Re  Re27  1  0.784133  0.892066  0.750625  1
