# generated using pymatgen
data_Ho8V3Si16Mo9
_symmetry_space_group_name_H-M   'P 1'
_cell_length_a   6.86226959
_cell_length_b   6.86227092
_cell_length_c   12.73607208
_cell_angle_alpha   89.97169691
_cell_angle_beta   90.02830354
_cell_angle_gamma   89.77203745
_symmetry_Int_Tables_number   1
_chemical_formula_structural   Ho8V3Si16Mo9
_chemical_formula_sum   'Ho8 V3 Si16 Mo9'
_cell_volume   599.74633080
_cell_formula_units_Z   1
loop_
 _symmetry_equiv_pos_site_id
 _symmetry_equiv_pos_as_xyz
  1  'x, y, z'
loop_
 _atom_site_type_symbol
 _atom_site_label
 _atom_site_symmetry_multiplicity
 _atom_site_fract_x
 _atom_site_fract_y
 _atom_site_fract_z
 _atom_site_occupancy
  Ho  Ho0  1  0.339981  0.000789  0.468521  1
  Ho  Ho1  1  0.498609  0.839571  0.718511  1
  Ho  Ho2  1  0.499420  0.160661  0.218378  1
  Ho  Ho3  1  0.839571  0.498609  0.281489  1
  Ho  Ho4  1  0.160661  0.499420  0.781622  1
  Ho  Ho5  1  0.659682  0.999998  0.968260  1
  Ho  Ho6  1  0.000789  0.339981  0.531479  1
  Ho  Ho7  1  0.999998  0.659682  0.031740  1
  V  V8  1  0.169180  0.831830  0.249075  1
  V  V9  1  0.831830  0.169180  0.750925  1
  V  V10  1  0.669096  0.669096  0.500000  1
  Si  Si11  1  0.198054  0.128682  0.684608  1
  Si  Si12  1  0.372979  0.697636  0.934868  1
  Si  Si13  1  0.629063  0.301682  0.434854  1
  Si  Si14  1  0.697636  0.372979  0.065132  1
  Si  Si15  1  0.301682  0.629063  0.565146  1
  Si  Si16  1  0.799795  0.871011  0.185302  1
  Si  Si17  1  0.128682  0.198054  0.315392  1
  Si  Si18  1  0.871011  0.799795  0.814698  1
  Si  Si19  1  0.286658  0.962164  0.063196  1
  Si  Si20  1  0.538231  0.788794  0.314839  1
  Si  Si21  1  0.462008  0.211821  0.814004  1
  Si  Si22  1  0.788794  0.538231  0.685161  1
  Si  Si23  1  0.211821  0.462008  0.185996  1
  Si  Si24  1  0.711084  0.039731  0.564689  1
  Si  Si25  1  0.962164  0.286658  0.936804  1
  Si  Si26  1  0.039731  0.711084  0.435311  1
  Mo  Mo27  1  0.331266  0.331266  0.000000  1
  Mo  Mo28  1  0.157365  0.999839  0.872339  1
  Mo  Mo29  1  0.498471  0.666414  0.125783  1
  Mo  Mo30  1  0.502549  0.339932  0.624143  1
  Mo  Mo31  1  0.666414  0.498471  0.874217  1
  Mo  Mo32  1  0.339932  0.502549  0.375857  1
  Mo  Mo33  1  0.840117  0.995843  0.374964  1
  Mo  Mo34  1  0.999839  0.157365  0.127661  1
  Mo  Mo35  1  0.995843  0.840117  0.625036  1
