# generated using pymatgen
data_Y3Er17(Hg3Ru)2
_symmetry_space_group_name_H-M   'P 1'
_cell_length_a   9.51681300
_cell_length_b   9.51641217
_cell_length_c   9.65018600
_cell_angle_alpha   90.00000000
_cell_angle_beta   90.00000000
_cell_angle_gamma   119.99786501
_symmetry_Int_Tables_number   1
_chemical_formula_structural   Y3Er17(Hg3Ru)2
_chemical_formula_sum   'Y3 Er17 Hg6 Ru2'
_cell_volume   756.90336891
_cell_formula_units_Z   1
loop_
 _symmetry_equiv_pos_site_id
 _symmetry_equiv_pos_as_xyz
  1  'x, y, z'
loop_
 _atom_site_type_symbol
 _atom_site_label
 _atom_site_symmetry_multiplicity
 _atom_site_fract_x
 _atom_site_fract_y
 _atom_site_fract_z
 _atom_site_occupancy
  Y  Y0  1  0.459192  0.540806  0.750000  1
  Y  Y1  1  0.459211  0.918396  0.750000  1
  Y  Y2  1  0.081608  0.540800  0.750000  1
  Er  Er3  1  0.999987  0.999997  0.500071  1
  Er  Er4  1  0.999987  0.999997  0.999929  1
  Er  Er5  1  0.209337  0.790651  0.439519  1
  Er  Er6  1  0.209345  0.418676  0.439522  1
  Er  Er7  1  0.581331  0.790659  0.439501  1
  Er  Er8  1  0.790478  0.209517  0.559575  1
  Er  Er9  1  0.790479  0.580959  0.559578  1
  Er  Er10  1  0.419048  0.209535  0.559591  1
  Er  Er11  1  0.790478  0.209517  0.940425  1
  Er  Er12  1  0.790479  0.580959  0.940422  1
  Er  Er13  1  0.419048  0.209535  0.940409  1
  Er  Er14  1  0.209337  0.790651  0.060481  1
  Er  Er15  1  0.209345  0.418676  0.060478  1
  Er  Er16  1  0.581331  0.790659  0.060499  1
  Er  Er17  1  0.541102  0.458915  0.250000  1
  Er  Er18  1  0.541109  0.082210  0.250000  1
  Er  Er19  1  0.917801  0.458891  0.250000  1
  Hg  Hg20  1  0.881260  0.118759  0.250000  1
  Hg  Hg21  1  0.881263  0.762512  0.250000  1
  Hg  Hg22  1  0.237507  0.118753  0.250000  1
  Hg  Hg23  1  0.117936  0.882040  0.750000  1
  Hg  Hg24  1  0.117948  0.235904  0.750000  1
  Hg  Hg25  1  0.764094  0.882047  0.750000  1
  Ru  Ru26  1  0.333309  0.666645  0.250000  1
  Ru  Ru27  1  0.666650  0.333337  0.750000  1
