# generated using pymatgen
data_Dy2Er10In2FeTc2
_symmetry_space_group_name_H-M   'P 1'
_cell_length_a   8.37185583
_cell_length_b   8.37185899
_cell_length_c   8.39226614
_cell_angle_alpha   108.74983818
_cell_angle_beta   108.74984233
_cell_angle_gamma   110.82771199
_symmetry_Int_Tables_number   1
_chemical_formula_structural   Dy2Er10In2FeTc2
_chemical_formula_sum   'Dy2 Er10 In2 Fe1 Tc2'
_cell_volume   453.12585078
_cell_formula_units_Z   1
loop_
 _symmetry_equiv_pos_site_id
 _symmetry_equiv_pos_as_xyz
  1  'x, y, z'
loop_
 _atom_site_type_symbol
 _atom_site_label
 _atom_site_symmetry_multiplicity
 _atom_site_fract_x
 _atom_site_fract_y
 _atom_site_fract_z
 _atom_site_occupancy
  Dy  Dy0  1  0.303309  0.303309  0.609640  1
  Dy  Dy1  1  0.693669  0.693669  0.390360  1
  Er  Er2  1  0.693154  0.304079  0.000000  1
  Er  Er3  1  0.304079  0.693154  0.000000  1
  Er  Er4  1  0.189317  0.430292  0.239471  1
  Er  Er5  1  0.807571  0.569617  0.763380  1
  Er  Er6  1  0.190822  0.949845  0.760529  1
  Er  Er7  1  0.949845  0.190822  0.760529  1
  Er  Er8  1  0.806235  0.044191  0.236620  1
  Er  Er9  1  0.044191  0.806235  0.236620  1
  Er  Er10  1  0.430292  0.189317  0.239471  1
  Er  Er11  1  0.569617  0.807571  0.763380  1
  In  In12  1  0.998515  0.498515  0.500000  1
  In  In13  1  0.498515  0.998515  0.500000  1
  Fe  Fe14  1  0.631378  0.631378  0.000000  1
  Tc  Tc15  1  0.388940  0.388940  0.000000  1
  Tc  Tc16  1  0.000552  0.000552  0.000000  1
