# generated using pymatgen
data_Ho3ZnSn3Rh2
_symmetry_space_group_name_H-M   'P 1'
_cell_length_a   7.56986600
_cell_length_b   7.56986578
_cell_length_c   3.88657500
_cell_angle_alpha   90.00000000
_cell_angle_beta   90.00000000
_cell_angle_gamma   120.00000098
_symmetry_Int_Tables_number   1
_chemical_formula_structural   Ho3ZnSn3Rh2
_chemical_formula_sum   'Ho3 Zn1 Sn3 Rh2'
_cell_volume   192.87416144
_cell_formula_units_Z   1
loop_
 _symmetry_equiv_pos_site_id
 _symmetry_equiv_pos_as_xyz
  1  'x, y, z'
loop_
 _atom_site_type_symbol
 _atom_site_label
 _atom_site_symmetry_multiplicity
 _atom_site_fract_x
 _atom_site_fract_y
 _atom_site_fract_z
 _atom_site_occupancy
  Ho  Ho0  1  0.014152  0.407609  0.000000  1
  Ho  Ho1  1  0.592391  0.606543  0.000000  1
  Ho  Ho2  1  0.393457  0.985848  0.000000  1
  Zn  Zn3  1  0.666667  0.333333  0.500000  1
  Sn  Sn4  1  0.260107  0.259649  0.500000  1
  Sn  Sn5  1  0.999542  0.739893  0.500000  1
  Sn  Sn6  1  0.740351  0.000458  0.500000  1
  Rh  Rh7  1  0.333333  0.666667  0.500000  1
  Rh  Rh8  1  0.000000  0.000000  0.000000  1
