# generated using pymatgen
data_Ac12CoNi3
_symmetry_space_group_name_H-M   'P 1'
_cell_length_a   6.82665932
_cell_length_b   7.59823651
_cell_length_c   10.75972200
_cell_angle_alpha   90.00000000
_cell_angle_beta   90.00000000
_cell_angle_gamma   89.90805726
_symmetry_Int_Tables_number   1
_chemical_formula_structural   Ac12CoNi3
_chemical_formula_sum   'Ac12 Co1 Ni3'
_cell_volume   558.11221694
_cell_formula_units_Z   1
loop_
 _symmetry_equiv_pos_site_id
 _symmetry_equiv_pos_as_xyz
  1  'x, y, z'
loop_
 _atom_site_type_symbol
 _atom_site_label
 _atom_site_symmetry_multiplicity
 _atom_site_fract_x
 _atom_site_fract_y
 _atom_site_fract_z
 _atom_site_occupancy
  Ac  Ac0  1  0.342752  0.545566  0.250000  1
  Ac  Ac1  1  0.153298  0.046113  0.250000  1
  Ac  Ac2  1  0.661187  0.454150  0.750000  1
  Ac  Ac3  1  0.849930  0.945433  0.750000  1
  Ac  Ac4  1  0.827336  0.671269  0.070923  1
  Ac  Ac5  1  0.671619  0.171600  0.429128  1
  Ac  Ac6  1  0.172682  0.333042  0.574091  1
  Ac  Ac7  1  0.324795  0.827589  0.926654  1
  Ac  Ac8  1  0.172682  0.333042  0.925909  1
  Ac  Ac9  1  0.324795  0.827589  0.573346  1
  Ac  Ac10  1  0.827336  0.671269  0.429077  1
  Ac  Ac11  1  0.671619  0.171600  0.070872  1
  Co  Co12  1  0.074375  0.618012  0.750000  1
  Ni  Ni13  1  0.571864  0.882864  0.250000  1
  Ni  Ni14  1  0.923149  0.381888  0.250000  1
  Ni  Ni15  1  0.430582  0.118975  0.750000  1
