# generated using pymatgen
data_La8YbDy11Si16
_symmetry_space_group_name_H-M   'P 1'
_cell_length_a   7.84016720
_cell_length_b   7.84016720
_cell_length_c   14.60347866
_cell_angle_alpha   90.03843845
_cell_angle_beta   89.96156155
_cell_angle_gamma   90.05073836
_symmetry_Int_Tables_number   1
_chemical_formula_structural   La8YbDy11Si16
_chemical_formula_sum   'La8 Yb1 Dy11 Si16'
_cell_volume   897.64910963
_cell_formula_units_Z   1
loop_
 _symmetry_equiv_pos_site_id
 _symmetry_equiv_pos_as_xyz
  1  'x, y, z'
loop_
 _atom_site_type_symbol
 _atom_site_label
 _atom_site_symmetry_multiplicity
 _atom_site_fract_x
 _atom_site_fract_y
 _atom_site_fract_z
 _atom_site_occupancy
  La  La0  1  0.989703  0.634522  0.044377  1
  La  La1  1  0.012844  0.364566  0.543421  1
  La  La2  1  0.634522  0.989703  0.955623  1
  La  La3  1  0.134677  0.510049  0.794568  1
  La  La4  1  0.863354  0.488360  0.293238  1
  La  La5  1  0.510049  0.134677  0.205432  1
  La  La6  1  0.488360  0.863354  0.706762  1
  La  La7  1  0.364566  0.012844  0.456579  1
  Yb  Yb8  1  0.314029  0.314029  0.000000  1
  Dy  Dy9  1  0.365463  0.488643  0.375935  1
  Dy  Dy10  1  0.863787  0.010611  0.374668  1
  Dy  Dy11  1  0.991944  0.133726  0.124316  1
  Dy  Dy12  1  0.010611  0.863787  0.625332  1
  Dy  Dy13  1  0.633839  0.508328  0.875235  1
  Dy  Dy14  1  0.488643  0.365463  0.624065  1
  Dy  Dy15  1  0.508328  0.633839  0.124765  1
  Dy  Dy16  1  0.133726  0.991944  0.875684  1
  Dy  Dy17  1  0.686594  0.686594  0.500000  1
  Dy  Dy18  1  0.815025  0.188191  0.748999  1
  Dy  Dy19  1  0.188191  0.815025  0.251001  1
  Si  Si20  1  0.069817  0.714174  0.438387  1
  Si  Si21  1  0.921813  0.285926  0.937362  1
  Si  Si22  1  0.714174  0.069817  0.561613  1
  Si  Si23  1  0.212259  0.431252  0.191632  1
  Si  Si24  1  0.786042  0.569994  0.688921  1
  Si  Si25  1  0.431252  0.212259  0.808368  1
  Si  Si26  1  0.569994  0.786042  0.311079  1
  Si  Si27  1  0.285926  0.921813  0.062638  1
  Si  Si28  1  0.842225  0.799091  0.806119  1
  Si  Si29  1  0.158526  0.200121  0.305702  1
  Si  Si30  1  0.799091  0.842225  0.193881  1
  Si  Si31  1  0.298993  0.658488  0.556340  1
  Si  Si32  1  0.708515  0.344508  0.059119  1
  Si  Si33  1  0.658488  0.298993  0.443660  1
  Si  Si34  1  0.344508  0.708515  0.940881  1
  Si  Si35  1  0.200121  0.158526  0.694298  1
