# generated using pymatgen
data_ZrNb3(NiAs)4
_symmetry_space_group_name_H-M   'P 1'
_cell_length_a   3.77591600
_cell_length_b   6.39709477
_cell_length_c   7.35561259
_cell_angle_alpha   89.45684370
_cell_angle_beta   90.00000000
_cell_angle_gamma   90.00000000
_symmetry_Int_Tables_number   1
_chemical_formula_structural   ZrNb3(NiAs)4
_chemical_formula_sum   'Zr1 Nb3 Ni4 As4'
_cell_volume   177.66604784
_cell_formula_units_Z   1
loop_
 _symmetry_equiv_pos_site_id
 _symmetry_equiv_pos_as_xyz
  1  'x, y, z'
loop_
 _atom_site_type_symbol
 _atom_site_label
 _atom_site_symmetry_multiplicity
 _atom_site_fract_x
 _atom_site_fract_y
 _atom_site_fract_z
 _atom_site_occupancy
  Zr  Zr0  1  0.250000  0.986295  0.326032  1
  Nb  Nb1  1  0.250000  0.483165  0.163572  1
  Nb  Nb2  1  0.750000  0.515437  0.833981  1
  Nb  Nb3  1  0.750000  0.015545  0.670974  1
  Ni  Ni4  1  0.250000  0.833595  0.923451  1
  Ni  Ni5  1  0.750000  0.166137  0.074004  1
  Ni  Ni6  1  0.750000  0.660867  0.426599  1
  Ni  Ni7  1  0.250000  0.340105  0.578890  1
  As  As8  1  0.250000  0.712477  0.618836  1
  As  As9  1  0.750000  0.292335  0.385949  1
  As  As10  1  0.750000  0.784647  0.112888  1
  As  As11  1  0.250000  0.209395  0.884822  1
