# generated using pymatgen
data_Zr6Re5Si6Rh
_symmetry_space_group_name_H-M   'P 1'
_cell_length_a   7.80322002
_cell_length_b   7.80333174
_cell_length_c   7.80333285
_cell_angle_alpha   127.10992219
_cell_angle_beta   126.91127598
_cell_angle_gamma   78.23383489
_symmetry_Int_Tables_number   1
_chemical_formula_structural   Zr6Re5Si6Rh
_chemical_formula_sum   'Zr6 Re5 Si6 Rh1'
_cell_volume   293.47396276
_cell_formula_units_Z   1
loop_
 _symmetry_equiv_pos_site_id
 _symmetry_equiv_pos_as_xyz
  1  'x, y, z'
loop_
 _atom_site_type_symbol
 _atom_site_label
 _atom_site_symmetry_multiplicity
 _atom_site_fract_x
 _atom_site_fract_y
 _atom_site_fract_z
 _atom_site_occupancy
  Zr  Zr0  1  0.547716  0.091874  0.048100  1
  Zr  Zr1  1  0.452284  0.500384  0.544158  1
  Zr  Zr2  1  0.956255  0.500396  0.048113  1
  Zr  Zr3  1  0.043745  0.091857  0.544141  1
  Zr  Zr4  1  0.752203  0.898423  0.650596  1
  Zr  Zr5  1  0.247797  0.898393  0.146219  1
  Re  Re6  1  0.000000  0.244097  0.244097  1
  Re  Re7  1  0.126318  0.751264  0.625010  1
  Re  Re8  1  0.873682  0.498692  0.624946  1
  Re  Re9  1  0.624878  0.746019  0.121074  1
  Re  Re10  1  0.375122  0.496196  0.121141  1
  Si  Si11  1  0.751783  0.491820  0.243569  1
  Si  Si12  1  0.248217  0.491787  0.740037  1
  Si  Si13  1  0.333874  0.832262  0.498419  1
  Si  Si14  1  0.666126  0.164546  0.498389  1
  Si  Si15  1  0.834065  0.832297  0.998195  1
  Si  Si16  1  0.165935  0.164131  0.998232  1
  Rh  Rh17  1  0.500000  0.247764  0.747764  1
