# generated using pymatgen
data_Tb3Nd5Se12
_symmetry_space_group_name_H-M   'P 1'
_cell_length_a   11.42155594
_cell_length_b   4.14266700
_cell_length_c   11.11519684
_cell_angle_alpha   90.00000000
_cell_angle_beta   90.11712400
_cell_angle_gamma   90.00000000
_symmetry_Int_Tables_number   1
_chemical_formula_structural   Tb3Nd5Se12
_chemical_formula_sum   'Tb3 Nd5 Se12'
_cell_volume   525.92225189
_cell_formula_units_Z   1
loop_
 _symmetry_equiv_pos_site_id
 _symmetry_equiv_pos_as_xyz
  1  'x, y, z'
loop_
 _atom_site_type_symbol
 _atom_site_label
 _atom_site_symmetry_multiplicity
 _atom_site_fract_x
 _atom_site_fract_y
 _atom_site_fract_z
 _atom_site_occupancy
  Tb  Tb0  1  0.011189  0.749999  0.687575  1
  Tb  Tb1  1  0.512512  0.749999  0.814159  1
  Tb  Tb2  1  0.807012  0.250000  0.992752  1
  Nd  Nd3  1  0.193978  0.749999  0.997065  1
  Nd  Nd4  1  0.490095  0.250000  0.185478  1
  Nd  Nd5  1  0.987030  0.250000  0.310902  1
  Nd  Nd6  1  0.695020  0.749999  0.502922  1
  Nd  Nd7  1  0.305402  0.250000  0.504287  1
  Se  Se8  1  0.623462  0.749999  0.051819  1
  Se  Se9  1  0.950944  0.749999  0.119533  1
  Se  Se10  1  0.228171  0.250000  0.196561  1
  Se  Se11  1  0.728074  0.250000  0.303700  1
  Se  Se12  1  0.455708  0.749999  0.376268  1
  Se  Se13  1  0.117752  0.749999  0.447748  1
  Se  Se14  1  0.882725  0.250000  0.559874  1
  Se  Se15  1  0.544360  0.250000  0.632821  1
  Se  Se16  1  0.269718  0.749999  0.703697  1
  Se  Se17  1  0.773379  0.749999  0.802006  1
  Se  Se18  1  0.040313  0.250000  0.870654  1
  Se  Se19  1  0.383159  0.250000  0.940176  1
