# generated using pymatgen
data_Yb2Sm6SbPd24
_symmetry_space_group_name_H-M   'P 1'
_cell_length_a   8.44036700
_cell_length_b   8.46299500
_cell_length_c   8.46299500
_cell_angle_alpha   89.99914696
_cell_angle_beta   90.00000000
_cell_angle_gamma   90.00000000
_symmetry_Int_Tables_number   1
_chemical_formula_structural   Yb2Sm6SbPd24
_chemical_formula_sum   'Yb2 Sm6 Sb1 Pd24'
_cell_volume   604.51836543
_cell_formula_units_Z   1
loop_
 _symmetry_equiv_pos_site_id
 _symmetry_equiv_pos_as_xyz
  1  'x, y, z'
loop_
 _atom_site_type_symbol
 _atom_site_label
 _atom_site_symmetry_multiplicity
 _atom_site_fract_x
 _atom_site_fract_y
 _atom_site_fract_z
 _atom_site_occupancy
  Yb  Yb0  1  0.747282  0.746925  0.253075  1
  Yb  Yb1  1  0.747282  0.253075  0.746925  1
  Sm  Sm2  1  0.253985  0.746276  0.746276  1
  Sm  Sm3  1  0.746062  0.746136  0.746136  1
  Sm  Sm4  1  0.746062  0.253864  0.253864  1
  Sm  Sm5  1  0.253152  0.253604  0.746396  1
  Sm  Sm6  1  0.253152  0.746396  0.253604  1
  Sm  Sm7  1  0.253985  0.253724  0.253724  1
  Sb  Sb8  1  0.999222  0.000000  0.000000  1
  Pd  Pd9  1  0.998620  0.998289  0.308459  1
  Pd  Pd10  1  0.734286  0.000000  0.500000  1
  Pd  Pd11  1  0.734286  0.500000  0.000000  1
  Pd  Pd12  1  0.501083  0.002207  0.734354  1
  Pd  Pd13  1  0.998938  0.734473  0.498830  1
  Pd  Pd14  1  0.501083  0.997793  0.265646  1
  Pd  Pd15  1  0.998938  0.265527  0.501170  1
  Pd  Pd16  1  0.501083  0.734354  0.002207  1
  Pd  Pd17  1  0.255193  0.500000  0.500000  1
  Pd  Pd18  1  0.501161  0.497939  0.745073  1
  Pd  Pd19  1  0.501161  0.502061  0.254927  1
  Pd  Pd20  1  0.501161  0.254927  0.502061  1
  Pd  Pd21  1  0.501161  0.745073  0.497939  1
  Pd  Pd22  1  0.745307  0.500000  0.500000  1
  Pd  Pd23  1  0.309266  0.000000  0.000000  1
  Pd  Pd24  1  0.998620  0.001711  0.691541  1
  Pd  Pd25  1  0.998938  0.501170  0.265527  1
  Pd  Pd26  1  0.998620  0.308459  0.998289  1
  Pd  Pd27  1  0.998620  0.691541  0.001711  1
  Pd  Pd28  1  0.691626  0.000000  0.000000  1
  Pd  Pd29  1  0.265323  0.500000  0.000000  1
  Pd  Pd30  1  0.265323  0.000000  0.500000  1
  Pd  Pd31  1  0.998938  0.498830  0.734473  1
  Pd  Pd32  1  0.501083  0.265646  0.997793  1
