# generated using pymatgen
data_Er9Tm(SiHg)4
_symmetry_space_group_name_H-M   'P 1'
_cell_length_a   8.70944627
_cell_length_b   8.70944522
_cell_length_c   7.49674400
_cell_angle_alpha   89.99731013
_cell_angle_beta   89.99731587
_cell_angle_gamma   129.11776093
_symmetry_Int_Tables_number   1
_chemical_formula_structural   Er9Tm(SiHg)4
_chemical_formula_sum   'Er9 Tm1 Si4 Hg4'
_cell_volume   441.19640511
_cell_formula_units_Z   1
loop_
 _symmetry_equiv_pos_site_id
 _symmetry_equiv_pos_as_xyz
  1  'x, y, z'
loop_
 _atom_site_type_symbol
 _atom_site_label
 _atom_site_symmetry_multiplicity
 _atom_site_fract_x
 _atom_site_fract_y
 _atom_site_fract_z
 _atom_site_occupancy
  Er  Er0  1  0.553078  0.807184  0.173529  1
  Er  Er1  1  0.306787  0.052738  0.326203  1
  Er  Er2  1  0.192816  0.446922  0.826471  1
  Er  Er3  1  0.947262  0.693213  0.673797  1
  Er  Er4  1  0.693213  0.947262  0.673797  1
  Er  Er5  1  0.446922  0.192816  0.826471  1
  Er  Er6  1  0.807184  0.553078  0.173529  1
  Er  Er7  1  0.052738  0.306787  0.326203  1
  Er  Er8  1  0.500000  0.500000  0.500000  1
  Tm  Tm9  1  0.000000  0.000000  0.000000  1
  Si  Si10  1  0.621670  0.621670  0.875365  1
  Si  Si11  1  0.121374  0.121374  0.625085  1
  Si  Si12  1  0.878626  0.878626  0.374915  1
  Si  Si13  1  0.378330  0.378330  0.124635  1
  Hg  Hg14  1  0.283326  0.716674  0.500000  1
  Hg  Hg15  1  0.216648  0.783352  0.000000  1
  Hg  Hg16  1  0.716674  0.283326  0.500000  1
  Hg  Hg17  1  0.783352  0.216648  0.000000  1
