# generated using pymatgen
data_Li2Y2Ni15
_symmetry_space_group_name_H-M   'P 1'
_cell_length_a   6.25578070
_cell_length_b   6.25578021
_cell_length_c   6.25578008
_cell_angle_alpha   83.69735765
_cell_angle_beta   83.69736369
_cell_angle_gamma   83.69737057
_symmetry_Int_Tables_number   1
_chemical_formula_structural   Li2Y2Ni15
_chemical_formula_sum   'Li2 Y2 Ni15'
_cell_volume   240.68188186
_cell_formula_units_Z   1
loop_
 _symmetry_equiv_pos_site_id
 _symmetry_equiv_pos_as_xyz
  1  'x, y, z'
loop_
 _atom_site_type_symbol
 _atom_site_label
 _atom_site_symmetry_multiplicity
 _atom_site_fract_x
 _atom_site_fract_y
 _atom_site_fract_z
 _atom_site_occupancy
  Li  Li0  1  0.905745  0.905745  0.905745  1
  Li  Li1  1  0.094255  0.094255  0.094255  1
  Y  Y2  1  0.656072  0.656072  0.656072  1
  Y  Y3  1  0.343928  0.343928  0.343928  1
  Ni  Ni4  1  0.000000  0.000000  0.500000  1
  Ni  Ni5  1  0.500000  0.000000  0.000000  1
  Ni  Ni6  1  0.000000  0.500000  0.000000  1
  Ni  Ni7  1  0.697218  0.302782  0.000000  1
  Ni  Ni8  1  0.000000  0.697218  0.302782  1
  Ni  Ni9  1  0.302782  0.000000  0.697218  1
  Ni  Ni10  1  0.000000  0.302782  0.697218  1
  Ni  Ni11  1  0.697218  0.000000  0.302782  1
  Ni  Ni12  1  0.302782  0.697218  0.000000  1
  Ni  Ni13  1  0.344093  0.344093  0.843133  1
  Ni  Ni14  1  0.843133  0.344093  0.344093  1
  Ni  Ni15  1  0.344093  0.843133  0.344093  1
  Ni  Ni16  1  0.655907  0.655907  0.156867  1
  Ni  Ni17  1  0.156867  0.655907  0.655907  1
  Ni  Ni18  1  0.655907  0.156867  0.655907  1
