# generated using pymatgen
data_Pr3In2HgPt2Rh
_symmetry_space_group_name_H-M   'P 1'
_cell_length_a   7.83079710
_cell_length_b   7.83079815
_cell_length_c   3.98707300
_cell_angle_alpha   90.00000000
_cell_angle_beta   90.00000000
_cell_angle_gamma   119.26464500
_symmetry_Int_Tables_number   1
_chemical_formula_structural   Pr3In2HgPt2Rh
_chemical_formula_sum   'Pr3 In2 Hg1 Pt2 Rh1'
_cell_volume   213.28850540
_cell_formula_units_Z   1
loop_
 _symmetry_equiv_pos_site_id
 _symmetry_equiv_pos_as_xyz
  1  'x, y, z'
loop_
 _atom_site_type_symbol
 _atom_site_label
 _atom_site_symmetry_multiplicity
 _atom_site_fract_x
 _atom_site_fract_y
 _atom_site_fract_z
 _atom_site_occupancy
  Pr  Pr0  1  0.996069  0.594278  0.500000  1
  Pr  Pr1  1  0.410739  0.410739  0.500000  1
  Pr  Pr2  1  0.594278  0.996069  0.500000  1
  In  In3  1  0.001454  0.250649  0.000000  1
  In  In4  1  0.250649  0.001454  0.000000  1
  Hg  Hg5  1  0.746638  0.746638  0.000000  1
  Pt  Pt6  1  0.322431  0.663492  0.000000  1
  Pt  Pt7  1  0.663492  0.322431  0.000000  1
  Rh  Rh8  1  0.014250  0.014250  0.500000  1
