# generated using pymatgen
data_Tm4ScZn2Sb
_symmetry_space_group_name_H-M   'P 1'
_cell_length_a   8.37044870
_cell_length_b   8.37044825
_cell_length_c   8.37047337
_cell_angle_alpha   123.80283137
_cell_angle_beta   123.80284370
_cell_angle_gamma   83.52992839
_symmetry_Int_Tables_number   1
_chemical_formula_structural   Tm4ScZn2Sb
_chemical_formula_sum   'Tm8 Sc2 Zn4 Sb2'
_cell_volume   388.15203857
_cell_formula_units_Z   2
loop_
 _symmetry_equiv_pos_site_id
 _symmetry_equiv_pos_as_xyz
  1  'x, y, z'
loop_
 _atom_site_type_symbol
 _atom_site_label
 _atom_site_symmetry_multiplicity
 _atom_site_fract_x
 _atom_site_fract_y
 _atom_site_fract_z
 _atom_site_occupancy
  Tm  Tm0  1  0.799183  0.299183  0.811437  1
  Tm  Tm1  1  0.200817  0.700817  0.188563  1
  Tm  Tm2  1  0.487745  0.987745  0.188562  1
  Tm  Tm3  1  0.299183  0.487745  0.499999  1
  Tm  Tm4  1  0.012255  0.200817  0.500001  1
  Tm  Tm5  1  0.512255  0.012255  0.811438  1
  Tm  Tm6  1  0.700817  0.512255  0.500001  1
  Tm  Tm7  1  0.987745  0.799183  0.499999  1
  Sc  Sc8  1  0.000000  0.000000  0.000000  1
  Sc  Sc9  1  0.500000  0.500000  0.000000  1
  Zn  Zn10  1  0.137866  0.637866  0.775731  1
  Zn  Zn11  1  0.862134  0.362134  0.224269  1
  Zn  Zn12  1  0.637866  0.862134  0.500000  1
  Zn  Zn13  1  0.362134  0.137866  0.500000  1
  Sb  Sb14  1  0.249999  0.250001  0.000000  1
  Sb  Sb15  1  0.750001  0.749999  0.000000  1
