# generated using pymatgen
data_HoLu11TlCo4Rh
_symmetry_space_group_name_H-M   'P 1'
_cell_length_a   8.11920500
_cell_length_b   8.11201826
_cell_length_c   8.11201895
_cell_angle_alpha   111.04310758
_cell_angle_beta   111.02091809
_cell_angle_gamma   106.35892498
_symmetry_Int_Tables_number   1
_chemical_formula_structural   HoLu11TlCo4Rh
_chemical_formula_sum   'Ho1 Lu11 Tl1 Co4 Rh1'
_cell_volume   410.56892332
_cell_formula_units_Z   1
loop_
 _symmetry_equiv_pos_site_id
 _symmetry_equiv_pos_as_xyz
  1  'x, y, z'
loop_
 _atom_site_type_symbol
 _atom_site_label
 _atom_site_symmetry_multiplicity
 _atom_site_fract_x
 _atom_site_fract_y
 _atom_site_fract_z
 _atom_site_occupancy
  Ho  Ho0  1  0.412629  0.218089  0.194538  1
  Lu  Lu1  1  0.585587  0.781481  0.804108  1
  Lu  Lu2  1  0.022199  0.218324  0.803875  1
  Lu  Lu3  1  0.976662  0.781925  0.194736  1
  Lu  Lu4  1  0.185014  0.287002  0.472895  1
  Lu  Lu5  1  0.815957  0.714947  0.529924  1
  Lu  Lu6  1  0.185014  0.712120  0.898010  1
  Lu  Lu7  1  0.815957  0.286032  0.101011  1
  Lu  Lu8  1  0.314018  0.621035  0.305211  1
  Lu  Lu9  1  0.686364  0.380280  0.695713  1
  Lu  Lu10  1  0.314018  0.008806  0.692983  1
  Lu  Lu11  1  0.686364  0.990651  0.306085  1
  Tl  Tl12  1  0.500507  0.500666  0.999841  1
  Co  Co13  1  0.376156  0.999420  0.376735  1
  Co  Co14  1  0.625547  0.000456  0.625092  1
  Co  Co15  1  0.113583  0.613521  0.500062  1
  Co  Co16  1  0.888559  0.386883  0.501675  1
  Rh  Rh17  1  0.995864  0.998360  0.997504  1
