# generated using pymatgen
data_Ho6Zn(P3Rh5)4
_symmetry_space_group_name_H-M   'P 1'
_cell_length_a   13.41305700
_cell_length_b   13.41305616
_cell_length_c   3.90490800
_cell_angle_alpha   90.00000000
_cell_angle_beta   90.00000000
_cell_angle_gamma   119.99999467
_symmetry_Int_Tables_number   1
_chemical_formula_structural   Ho6Zn(P3Rh5)4
_chemical_formula_sum   'Ho6 Zn1 P12 Rh20'
_cell_volume   608.41088371
_cell_formula_units_Z   1
loop_
 _symmetry_equiv_pos_site_id
 _symmetry_equiv_pos_as_xyz
  1  'x, y, z'
loop_
 _atom_site_type_symbol
 _atom_site_label
 _atom_site_symmetry_multiplicity
 _atom_site_fract_x
 _atom_site_fract_y
 _atom_site_fract_z
 _atom_site_occupancy
  Ho  Ho0  1  0.529820  0.717529  0.250328  1
  Ho  Ho1  1  0.282471  0.812291  0.250328  1
  Ho  Ho2  1  0.187709  0.470180  0.250328  1
  Ho  Ho3  1  0.470180  0.282471  0.749672  1
  Ho  Ho4  1  0.717529  0.187709  0.749672  1
  Ho  Ho5  1  0.812291  0.529820  0.749672  1
  Zn  Zn6  1  0.000000  0.000000  0.000000  1
  P  P7  1  0.527450  0.138765  0.249999  1
  P  P8  1  0.861235  0.388687  0.249999  1
  P  P9  1  0.611313  0.472550  0.249999  1
  P  P10  1  0.947510  0.719126  0.246896  1
  P  P11  1  0.280874  0.228385  0.246896  1
  P  P12  1  0.771615  0.052490  0.246896  1
  P  P13  1  0.388687  0.527450  0.750001  1
  P  P14  1  0.472550  0.861235  0.750001  1
  P  P15  1  0.138765  0.611313  0.750001  1
  P  P16  1  0.719126  0.771615  0.753104  1
  P  P17  1  0.228385  0.947510  0.753104  1
  P  P18  1  0.052490  0.280874  0.753104  1
  Rh  Rh19  1  0.333333  0.666667  0.751534  1
  Rh  Rh20  1  0.920246  0.253145  0.246652  1
  Rh  Rh21  1  0.746855  0.667101  0.246652  1
  Rh  Rh22  1  0.332899  0.079754  0.246652  1
  Rh  Rh23  1  0.439275  0.023132  0.749310  1
  Rh  Rh24  1  0.976868  0.416144  0.749310  1
  Rh  Rh25  1  0.583856  0.560725  0.749310  1
  Rh  Rh26  1  0.666667  0.333333  0.248466  1
  Rh  Rh27  1  0.097050  0.203423  0.256598  1
  Rh  Rh28  1  0.796577  0.893627  0.256598  1
  Rh  Rh29  1  0.106373  0.902950  0.256598  1
  Rh  Rh30  1  0.023132  0.583856  0.250690  1
  Rh  Rh31  1  0.416144  0.439275  0.250690  1
  Rh  Rh32  1  0.560725  0.976868  0.250690  1
  Rh  Rh33  1  0.667101  0.920246  0.753348  1
  Rh  Rh34  1  0.079754  0.746855  0.753348  1
  Rh  Rh35  1  0.253145  0.332899  0.753348  1
  Rh  Rh36  1  0.902950  0.796577  0.743402  1
  Rh  Rh37  1  0.203423  0.106373  0.743402  1
  Rh  Rh38  1  0.893627  0.097050  0.743402  1
