# generated using pymatgen
data_LiHo16In3(RuRh)2
_symmetry_space_group_name_H-M   'P 1'
_cell_length_a   9.64922884
_cell_length_b   9.66048101
_cell_length_c   9.64922822
_cell_angle_alpha   59.40099342
_cell_angle_beta   59.29887973
_cell_angle_gamma   59.40099778
_symmetry_Int_Tables_number   1
_chemical_formula_structural   LiHo16In3(RuRh)2
_chemical_formula_sum   'Li1 Ho16 In3 Ru2 Rh2'
_cell_volume   626.85180159
_cell_formula_units_Z   1
loop_
 _symmetry_equiv_pos_site_id
 _symmetry_equiv_pos_as_xyz
  1  'x, y, z'
loop_
 _atom_site_type_symbol
 _atom_site_label
 _atom_site_symmetry_multiplicity
 _atom_site_fract_x
 _atom_site_fract_y
 _atom_site_fract_z
 _atom_site_occupancy
  Li  Li0  1  0.821103  0.821028  0.821103  1
  Ho  Ho1  1  0.188580  0.188835  0.810581  1
  Ho  Ho2  1  0.596404  0.598312  0.207672  1
  Ho  Ho3  1  0.440646  0.059164  0.440646  1
  Ho  Ho4  1  0.440874  0.441395  0.060661  1
  Ho  Ho5  1  0.812127  0.188255  0.812127  1
  Ho  Ho6  1  0.189866  0.811514  0.189866  1
  Ho  Ho7  1  0.435919  0.060575  0.064143  1
  Ho  Ho8  1  0.188899  0.812770  0.808473  1
  Ho  Ho9  1  0.061842  0.437309  0.061842  1
  Ho  Ho10  1  0.808473  0.812770  0.188899  1
  Ho  Ho11  1  0.207672  0.598312  0.596404  1
  Ho  Ho12  1  0.060661  0.441395  0.440874  1
  Ho  Ho13  1  0.064143  0.060575  0.435919  1
  Ho  Ho14  1  0.810581  0.188835  0.188580  1
  Ho  Ho15  1  0.598044  0.206029  0.598044  1
  Ho  Ho16  1  0.599098  0.600703  0.599098  1
  In  In17  1  0.832124  0.832360  0.503914  1
  In  In18  1  0.503914  0.832360  0.832124  1
  In  In19  1  0.831875  0.504237  0.831875  1
  Ru  Ru20  1  0.394171  0.826996  0.394171  1
  Ru  Ru21  1  0.392771  0.390519  0.392771  1
  Rh  Rh22  1  0.826798  0.392876  0.393417  1
  Rh  Rh23  1  0.393417  0.392876  0.826798  1
