# generated using pymatgen
data_NdY7Cd2NiOs
_symmetry_space_group_name_H-M   'P 1'
_cell_length_a   9.66756262
_cell_length_b   9.66756304
_cell_length_c   9.76027900
_cell_angle_alpha   59.68223776
_cell_angle_beta   59.68223632
_cell_angle_gamma   59.41957007
_symmetry_Int_Tables_number   1
_chemical_formula_structural   NdY7Cd2NiOs
_chemical_formula_sum   'Nd2 Y14 Cd4 Ni2 Os2'
_cell_volume   639.08042226
_cell_formula_units_Z   2
loop_
 _symmetry_equiv_pos_site_id
 _symmetry_equiv_pos_as_xyz
  1  'x, y, z'
loop_
 _atom_site_type_symbol
 _atom_site_label
 _atom_site_symmetry_multiplicity
 _atom_site_fract_x
 _atom_site_fract_y
 _atom_site_fract_z
 _atom_site_occupancy
  Nd  Nd0  1  0.600656  0.600656  0.594926  1
  Nd  Nd1  1  0.600656  0.600656  0.203760  1
  Y  Y2  1  0.601292  0.203458  0.597625  1
  Y  Y3  1  0.203458  0.601292  0.597625  1
  Y  Y4  1  0.062308  0.435835  0.440460  1
  Y  Y5  1  0.435835  0.062308  0.061397  1
  Y  Y6  1  0.435835  0.062308  0.440460  1
  Y  Y7  1  0.062308  0.435835  0.061397  1
  Y  Y8  1  0.437512  0.437512  0.062488  1
  Y  Y9  1  0.059811  0.059811  0.440189  1
  Y  Y10  1  0.188418  0.807117  0.816923  1
  Y  Y11  1  0.807117  0.188418  0.187543  1
  Y  Y12  1  0.807117  0.188418  0.816923  1
  Y  Y13  1  0.188418  0.807117  0.187543  1
  Y  Y14  1  0.815632  0.815632  0.184368  1
  Y  Y15  1  0.191909  0.191909  0.808091  1
  Cd  Cd16  1  0.830536  0.830536  0.830431  1
  Cd  Cd17  1  0.830536  0.830536  0.508497  1
  Cd  Cd18  1  0.830813  0.506326  0.831429  1
  Cd  Cd19  1  0.506326  0.830813  0.831429  1
  Ni  Ni20  1  0.390155  0.829144  0.390351  1
  Ni  Ni21  1  0.829144  0.390155  0.390351  1
  Os  Os22  1  0.392104  0.392104  0.390999  1
  Os  Os23  1  0.392104  0.392104  0.824794  1
