# generated using pymatgen
data_Ce3Cu3Sn4
_symmetry_space_group_name_H-M   'P 1'
_cell_length_a   8.40019109
_cell_length_b   8.40019092
_cell_length_c   8.40019100
_cell_angle_alpha   109.47122325
_cell_angle_beta   109.47122284
_cell_angle_gamma   109.47121884
_symmetry_Int_Tables_number   1
_chemical_formula_structural   Ce3Cu3Sn4
_chemical_formula_sum   'Ce6 Cu6 Sn8'
_cell_volume   456.29485952
_cell_formula_units_Z   2
loop_
 _symmetry_equiv_pos_site_id
 _symmetry_equiv_pos_as_xyz
  1  'x, y, z'
loop_
 _atom_site_type_symbol
 _atom_site_label
 _atom_site_symmetry_multiplicity
 _atom_site_fract_x
 _atom_site_fract_y
 _atom_site_fract_z
 _atom_site_occupancy
  Ce  Ce0  1  0.875000  0.250000  0.125000  1
  Ce  Ce1  1  0.625000  0.750000  0.375000  1
  Ce  Ce2  1  0.250000  0.125000  0.875000  1
  Ce  Ce3  1  0.750000  0.375000  0.625000  1
  Ce  Ce4  1  0.125000  0.875000  0.250000  1
  Ce  Ce5  1  0.375000  0.625000  0.750000  1
  Cu  Cu6  1  0.375000  0.250000  0.625000  1
  Cu  Cu7  1  0.125000  0.750000  0.875000  1
  Cu  Cu8  1  0.250000  0.625000  0.375000  1
  Cu  Cu9  1  0.750000  0.875000  0.125000  1
  Cu  Cu10  1  0.625000  0.375000  0.250000  1
  Cu  Cu11  1  0.875000  0.125000  0.750000  1
  Sn  Sn12  1  0.662243  0.500000  0.000000  1
  Sn  Sn13  1  0.500000  0.000000  0.662243  1
  Sn  Sn14  1  0.000000  0.662243  0.500000  1
  Sn  Sn15  1  0.837757  0.837757  0.837757  1
  Sn  Sn16  1  0.500000  0.000000  0.162243  1
  Sn  Sn17  1  0.162243  0.500000  0.000000  1
  Sn  Sn18  1  0.000000  0.162243  0.500000  1
  Sn  Sn19  1  0.337757  0.337757  0.337757  1
