# generated using pymatgen
data_LiTi(NbPt6)2
_symmetry_space_group_name_H-M   'P 1'
_cell_length_a   5.62498600
_cell_length_b   5.62498533
_cell_length_c   9.10592100
_cell_angle_alpha   90.00000000
_cell_angle_beta   90.00000000
_cell_angle_gamma   120.00000393
_symmetry_Int_Tables_number   1
_chemical_formula_structural   LiTi(NbPt6)2
_chemical_formula_sum   'Li1 Ti1 Nb2 Pt12'
_cell_volume   249.51538709
_cell_formula_units_Z   1
loop_
 _symmetry_equiv_pos_site_id
 _symmetry_equiv_pos_as_xyz
  1  'x, y, z'
loop_
 _atom_site_type_symbol
 _atom_site_label
 _atom_site_symmetry_multiplicity
 _atom_site_fract_x
 _atom_site_fract_y
 _atom_site_fract_z
 _atom_site_occupancy
  Li  Li0  1  0.333333  0.666667  0.249823  1
  Ti  Ti1  1  0.000000  0.000000  0.007939  1
  Nb  Nb2  1  0.000000  0.000000  0.491378  1
  Nb  Nb3  1  0.666667  0.333333  0.751907  1
  Pt  Pt4  1  0.500945  0.499055  0.501215  1
  Pt  Pt5  1  0.500945  0.001889  0.501215  1
  Pt  Pt6  1  0.998111  0.499055  0.501215  1
  Pt  Pt7  1  0.500954  0.499046  0.998793  1
  Pt  Pt8  1  0.500954  0.001908  0.998793  1
  Pt  Pt9  1  0.998092  0.499046  0.998793  1
  Pt  Pt10  1  0.832195  0.664391  0.249058  1
  Pt  Pt11  1  0.335609  0.167805  0.249058  1
  Pt  Pt12  1  0.832195  0.167805  0.249058  1
  Pt  Pt13  1  0.167184  0.334367  0.750585  1
  Pt  Pt14  1  0.665633  0.832816  0.750585  1
  Pt  Pt15  1  0.167184  0.832816  0.750585  1
