# generated using pymatgen
data_FeAs6Pt
_symmetry_space_group_name_H-M   'P 1'
_cell_length_a   7.36169281
_cell_length_b   7.36169196
_cell_length_c   8.48410324
_cell_angle_alpha   54.44830235
_cell_angle_beta   54.44830921
_cell_angle_gamma   70.12566183
_symmetry_Int_Tables_number   1
_chemical_formula_structural   FeAs6Pt
_chemical_formula_sum   'Fe2 As12 Pt2'
_cell_volume   304.34912259
_cell_formula_units_Z   2
loop_
 _symmetry_equiv_pos_site_id
 _symmetry_equiv_pos_as_xyz
  1  'x, y, z'
loop_
 _atom_site_type_symbol
 _atom_site_label
 _atom_site_symmetry_multiplicity
 _atom_site_fract_x
 _atom_site_fract_y
 _atom_site_fract_z
 _atom_site_occupancy
  Fe  Fe0  1  0.000000  0.500000  0.000000  1
  Fe  Fe1  1  0.500000  0.000000  0.000000  1
  As  As2  1  0.665949  0.665949  0.180525  1
  As  As3  1  0.334051  0.334051  0.819475  1
  As  As4  1  0.643246  0.643246  0.499138  1
  As  As5  1  0.356754  0.356754  0.500862  1
  As  As6  1  0.863168  0.160524  0.334252  1
  As  As7  1  0.136832  0.839476  0.665748  1
  As  As8  1  0.160524  0.863168  0.334252  1
  As  As9  1  0.839476  0.136832  0.665748  1
  As  As10  1  0.493064  0.802654  0.864428  1
  As  As11  1  0.506936  0.197346  0.135572  1
  As  As12  1  0.197346  0.506936  0.135572  1
  As  As13  1  0.802654  0.493064  0.864428  1
  Pt  Pt14  1  0.500000  0.000000  0.500000  1
  Pt  Pt15  1  0.000000  0.500000  0.500000  1
