# generated using pymatgen
data_Er10Os3Ru
_symmetry_space_group_name_H-M   'P 1'
_cell_length_a   6.29242159
_cell_length_b   7.30420524
_cell_length_c   8.35377014
_cell_angle_alpha   96.86917125
_cell_angle_beta   112.22947936
_cell_angle_gamma   90.04705981
_symmetry_Int_Tables_number   1
_chemical_formula_structural   Er10Os3Ru
_chemical_formula_sum   'Er10 Os3 Ru1'
_cell_volume   352.41738171
_cell_formula_units_Z   1
loop_
 _symmetry_equiv_pos_site_id
 _symmetry_equiv_pos_as_xyz
  1  'x, y, z'
loop_
 _atom_site_type_symbol
 _atom_site_label
 _atom_site_symmetry_multiplicity
 _atom_site_fract_x
 _atom_site_fract_y
 _atom_site_fract_z
 _atom_site_occupancy
  Er  Er0  1  0.794236  0.584115  0.816643  1
  Er  Er1  1  0.975663  0.916039  0.182999  1
  Er  Er2  1  0.207731  0.416437  0.186049  1
  Er  Er3  1  0.024294  0.085015  0.817476  1
  Er  Er4  1  0.203935  0.683415  0.564851  1
  Er  Er5  1  0.640529  0.816995  0.436005  1
  Er  Er6  1  0.794454  0.315921  0.434385  1
  Er  Er7  1  0.360450  0.182137  0.563531  1
  Er  Er8  1  0.421050  0.749805  0.000106  1
  Er  Er9  1  0.580001  0.250140  0.000587  1
  Os  Os10  1  0.603861  0.922092  0.780280  1
  Os  Os11  1  0.822150  0.578058  0.219934  1
  Os  Os12  1  0.395796  0.077793  0.218714  1
  Ru  Ru13  1  0.175850  0.422037  0.778440  1
