# generated using pymatgen
data_Er2V3Si7Pt9
_symmetry_space_group_name_H-M   'P 1'
_cell_length_a   9.86272200
_cell_length_b   9.86272217
_cell_length_c   3.91243000
_cell_angle_alpha   90.00000000
_cell_angle_beta   90.00000000
_cell_angle_gamma   119.99999943
_symmetry_Int_Tables_number   1
_chemical_formula_structural   Er2V3Si7Pt9
_chemical_formula_sum   'Er2 V3 Si7 Pt9'
_cell_volume   329.58755587
_cell_formula_units_Z   1
loop_
 _symmetry_equiv_pos_site_id
 _symmetry_equiv_pos_as_xyz
  1  'x, y, z'
loop_
 _atom_site_type_symbol
 _atom_site_label
 _atom_site_symmetry_multiplicity
 _atom_site_fract_x
 _atom_site_fract_y
 _atom_site_fract_z
 _atom_site_occupancy
  Er  Er0  1  0.000000  0.000000  0.000000  1
  Er  Er1  1  0.333333  0.666667  0.500000  1
  V  V2  1  0.881134  0.449729  0.500000  1
  V  V3  1  0.568595  0.118866  0.500000  1
  V  V4  1  0.550271  0.431405  0.500000  1
  Si  Si5  1  0.258787  0.213384  0.500000  1
  Si  Si6  1  0.786616  0.045405  0.500000  1
  Si  Si7  1  0.954595  0.741213  0.500000  1
  Si  Si8  1  0.553512  0.633549  0.000000  1
  Si  Si9  1  0.366451  0.919963  0.000000  1
  Si  Si10  1  0.080037  0.446488  0.000000  1
  Si  Si11  1  0.666667  0.333333  0.000000  1
  Pt  Pt12  1  0.222611  0.944487  0.500000  1
  Pt  Pt13  1  0.055513  0.278125  0.500000  1
  Pt  Pt14  1  0.721875  0.777389  0.500000  1
  Pt  Pt15  1  0.305992  0.409638  0.000000  1
  Pt  Pt16  1  0.590362  0.896354  0.000000  1
  Pt  Pt17  1  0.103646  0.694008  0.000000  1
  Pt  Pt18  1  0.390764  0.177001  0.000000  1
  Pt  Pt19  1  0.822999  0.213764  0.000000  1
  Pt  Pt20  1  0.786236  0.609236  0.000000  1
