# generated using pymatgen
data_Ce4H7O3
_symmetry_space_group_name_H-M   'P 1'
_cell_length_a   5.57213126
_cell_length_b   5.53823798
_cell_length_c   6.73946800
_cell_angle_alpha   114.26784362
_cell_angle_beta   115.36224096
_cell_angle_gamma   89.98810806
_symmetry_Int_Tables_number   1
_chemical_formula_structural   Ce4H7O3
_chemical_formula_sum   'Ce4 H7 O3'
_cell_volume   167.37750002
_cell_formula_units_Z   1
loop_
 _symmetry_equiv_pos_site_id
 _symmetry_equiv_pos_as_xyz
  1  'x, y, z'
loop_
 _atom_site_type_symbol
 _atom_site_label
 _atom_site_symmetry_multiplicity
 _atom_site_fract_x
 _atom_site_fract_y
 _atom_site_fract_z
 _atom_site_occupancy
  Ce  Ce0  1  0.007906  0.021158  0.022380  1
  Ce  Ce1  1  0.729857  0.236244  0.452663  1
  Ce  Ce2  1  0.255065  0.746552  0.490975  1
  Ce  Ce3  1  0.482338  0.492817  0.983901  1
  H  H4  1  0.868519  0.859374  0.237309  1
  H  H5  1  0.225207  0.243367  0.539199  1
  H  H6  1  0.084555  0.107839  0.735660  1
  H  H7  1  0.647995  0.128847  0.736777  1
  H  H8  1  0.089265  0.629072  0.737837  1
  H  H9  1  0.652480  0.609210  0.738974  1
  H  H10  1  0.511447  0.942090  0.935206  1
  O  O11  1  0.369085  0.377971  0.237624  1
  O  O12  1  0.868528  0.407235  0.237765  1
  O  O13  1  0.369751  0.860217  0.237731  1
