# generated using pymatgen
data_Th2Mn11VP7
_symmetry_space_group_name_H-M   'P 1'
_cell_length_a   9.34117800
_cell_length_b   9.36424850
_cell_length_c   3.68208900
_cell_angle_alpha   90.00000000
_cell_angle_beta   90.00000000
_cell_angle_gamma   120.04937508
_symmetry_Int_Tables_number   1
_chemical_formula_structural   Th2Mn11VP7
_chemical_formula_sum   'Th2 Mn11 V1 P7'
_cell_volume   278.79385598
_cell_formula_units_Z   1
loop_
 _symmetry_equiv_pos_site_id
 _symmetry_equiv_pos_as_xyz
  1  'x, y, z'
loop_
 _atom_site_type_symbol
 _atom_site_label
 _atom_site_symmetry_multiplicity
 _atom_site_fract_x
 _atom_site_fract_y
 _atom_site_fract_z
 _atom_site_occupancy
  Th  Th0  1  0.333458  0.668803  0.000000  1
  Th  Th1  1  0.665515  0.332305  0.500001  1
  Mn  Mn2  1  0.428933  0.051638  0.000000  1
  Mn  Mn3  1  0.151735  0.275905  0.000000  1
  Mn  Mn4  1  0.949196  0.373909  0.000000  1
  Mn  Mn5  1  0.624902  0.573493  0.000000  1
  Mn  Mn6  1  0.117178  0.842279  0.000000  1
  Mn  Mn7  1  0.727557  0.878140  0.000000  1
  Mn  Mn8  1  0.899249  0.119670  0.500001  1
  Mn  Mn9  1  0.389402  0.436812  0.500001  1
  Mn  Mn10  1  0.046019  0.609239  0.500001  1
  Mn  Mn11  1  0.885333  0.779717  0.500001  1
  Mn  Mn12  1  0.564324  0.953040  0.500001  1
  V  V13  1  0.215220  0.104202  0.500001  1
  P  P14  1  0.000929  0.000282  0.000000  1
  P  P15  1  0.709771  0.110698  0.000000  1
  P  P16  1  0.403274  0.291762  0.000000  1
  P  P17  1  0.887545  0.594348  0.000000  1
  P  P18  1  0.118920  0.402154  0.500001  1
  P  P19  1  0.601339  0.719128  0.500001  1
  P  P20  1  0.280202  0.882475  0.500001  1
