# generated using pymatgen
data_Cs2MgTiTe4
_symmetry_space_group_name_H-M   'P 1'
_cell_length_a   15.63821244
_cell_length_b   13.91524642
_cell_length_c   8.54393879
_cell_angle_alpha   84.67212082
_cell_angle_beta   62.37223625
_cell_angle_gamma   32.95564292
_symmetry_Int_Tables_number   1
_chemical_formula_structural   Cs2MgTiTe4
_chemical_formula_sum   'Cs4 Mg2 Ti2 Te8'
_cell_volume   706.81245531
_cell_formula_units_Z   2
loop_
 _symmetry_equiv_pos_site_id
 _symmetry_equiv_pos_as_xyz
  1  'x, y, z'
loop_
 _atom_site_type_symbol
 _atom_site_label
 _atom_site_symmetry_multiplicity
 _atom_site_fract_x
 _atom_site_fract_y
 _atom_site_fract_z
 _atom_site_occupancy
  Cs  Cs0  1  0.817162  0.817162  0.182838  1
  Cs  Cs1  1  0.182838  0.182838  0.817162  1
  Cs  Cs2  1  0.432838  0.432838  0.067162  1
  Cs  Cs3  1  0.067162  0.067162  0.432838  1
  Mg  Mg4  1  0.750000  0.750000  0.750000  1
  Mg  Mg5  1  0.500000  0.500000  0.500000  1
  Ti  Ti6  1  0.250000  0.250000  0.250000  1
  Ti  Ti7  1  0.000000  0.000000  0.000000  1
  Te  Te8  1  0.382573  0.729979  0.810481  1
  Te  Te9  1  0.076967  0.810481  0.729979  1
  Te  Te10  1  0.810481  0.076967  0.382573  1
  Te  Te11  1  0.729979  0.382573  0.076967  1
  Te  Te12  1  0.867427  0.520021  0.439519  1
  Te  Te13  1  0.173033  0.439519  0.520021  1
  Te  Te14  1  0.439519  0.173033  0.867427  1
  Te  Te15  1  0.520021  0.867427  0.173033  1
