# generated using pymatgen
data_LiNbCr2(CoAs)4
_symmetry_space_group_name_H-M   'P 1'
_cell_length_a   3.72862200
_cell_length_b   6.11981403
_cell_length_c   6.98802780
_cell_angle_alpha   90.29848579
_cell_angle_beta   90.00000000
_cell_angle_gamma   90.00000000
_symmetry_Int_Tables_number   1
_chemical_formula_structural   LiNbCr2(CoAs)4
_chemical_formula_sum   'Li1 Nb1 Cr2 Co4 As4'
_cell_volume   159.45396147
_cell_formula_units_Z   1
loop_
 _symmetry_equiv_pos_site_id
 _symmetry_equiv_pos_as_xyz
  1  'x, y, z'
loop_
 _atom_site_type_symbol
 _atom_site_label
 _atom_site_symmetry_multiplicity
 _atom_site_fract_x
 _atom_site_fract_y
 _atom_site_fract_z
 _atom_site_occupancy
  Li  Li0  1  0.250000  0.019867  0.316413  1
  Nb  Nb1  1  0.750000  0.472266  0.821279  1
  Cr  Cr2  1  0.250000  0.527127  0.179845  1
  Cr  Cr3  1  0.750000  0.970664  0.680062  1
  Co  Co4  1  0.250000  0.148858  0.938218  1
  Co  Co5  1  0.250000  0.638582  0.560601  1
  Co  Co6  1  0.750000  0.852692  0.060944  1
  Co  Co7  1  0.750000  0.369467  0.442129  1
  As  As8  1  0.250000  0.248247  0.612341  1
  As  As9  1  0.250000  0.775724  0.875844  1
  As  As10  1  0.750000  0.744442  0.379225  1
  As  As11  1  0.750000  0.232064  0.133099  1
