# generated using pymatgen
data_Zr8Tc4Os3Rh
_symmetry_space_group_name_H-M   'P 1'
_cell_length_a   6.55928400
_cell_length_b   4.66747400
_cell_length_c   9.31544700
_cell_angle_alpha   90.00000000
_cell_angle_beta   89.99968544
_cell_angle_gamma   90.00000000
_symmetry_Int_Tables_number   1
_chemical_formula_structural   Zr8Tc4Os3Rh
_chemical_formula_sum   'Zr8 Tc4 Os3 Rh1'
_cell_volume   285.19508836
_cell_formula_units_Z   1
loop_
 _symmetry_equiv_pos_site_id
 _symmetry_equiv_pos_as_xyz
  1  'x, y, z'
loop_
 _atom_site_type_symbol
 _atom_site_label
 _atom_site_symmetry_multiplicity
 _atom_site_fract_x
 _atom_site_fract_y
 _atom_site_fract_z
 _atom_site_occupancy
  Zr  Zr0  1  0.997227  0.749999  0.125007  1
  Zr  Zr1  1  0.502870  0.749999  0.125016  1
  Zr  Zr2  1  0.998651  0.249999  0.376756  1
  Zr  Zr3  1  0.501484  0.249999  0.376762  1
  Zr  Zr4  1  0.499919  0.749999  0.625011  1
  Zr  Zr5  1  0.999951  0.749999  0.625019  1
  Zr  Zr6  1  0.501360  0.249999  0.873216  1
  Zr  Zr7  1  0.998542  0.249999  0.873221  1
  Tc  Tc8  1  0.750044  0.249999  0.124999  1
  Tc  Tc9  1  0.250053  0.749999  0.373987  1
  Tc  Tc10  1  0.749954  0.249999  0.625001  1
  Tc  Tc11  1  0.249948  0.749999  0.876011  1
  Os  Os12  1  0.750053  0.749999  0.374243  1
  Os  Os13  1  0.249947  0.249999  0.624994  1
  Os  Os14  1  0.749940  0.749999  0.875760  1
  Rh  Rh15  1  0.250059  0.249999  0.124996  1
