# generated using pymatgen
data_Dy2Er3Nb2P12Ir17
_symmetry_space_group_name_H-M   'P 1'
_cell_length_a   12.58307311
_cell_length_b   12.78500625
_cell_length_c   3.99651900
_cell_angle_alpha   90.00000000
_cell_angle_beta   90.00000000
_cell_angle_gamma   119.46355615
_symmetry_Int_Tables_number   1
_chemical_formula_structural   Dy2Er3Nb2P12Ir17
_chemical_formula_sum   'Dy2 Er3 Nb2 P12 Ir17'
_cell_volume   559.78659660
_cell_formula_units_Z   1
loop_
 _symmetry_equiv_pos_site_id
 _symmetry_equiv_pos_as_xyz
  1  'x, y, z'
loop_
 _atom_site_type_symbol
 _atom_site_label
 _atom_site_symmetry_multiplicity
 _atom_site_fract_x
 _atom_site_fract_y
 _atom_site_fract_z
 _atom_site_occupancy
  Dy  Dy0  1  0.185815  0.186677  0.000000  1
  Dy  Dy1  1  0.814943  0.999981  0.000000  1
  Er  Er2  1  0.330397  0.661440  0.500000  1
  Er  Er3  1  0.668923  0.338562  0.500000  1
  Er  Er4  1  0.998891  0.813177  0.000000  1
  Nb  Nb5  1  0.997561  0.451102  0.500000  1
  Nb  Nb6  1  0.546697  0.549078  0.500000  1
  P  P7  1  0.003007  0.642701  0.500000  1
  P  P8  1  0.360736  0.357759  0.500000  1
  P  P9  1  0.645712  0.000004  0.500000  1
  P  P10  1  0.514243  0.683205  0.000000  1
  P  P11  1  0.309009  0.823745  0.000000  1
  P  P12  1  0.163694  0.481190  0.000000  1
  P  P13  1  0.485180  0.176235  0.000000  1
  P  P14  1  0.682500  0.518774  0.000000  1
  P  P15  1  0.830976  0.316841  0.000000  1
  P  P16  1  0.000150  0.175593  0.500000  1
  P  P17  1  0.824656  0.824160  0.500000  1
  P  P18  1  0.180683  0.999722  0.500000  1
  Ir  Ir19  1  0.505153  0.863460  0.000000  1
  Ir  Ir20  1  0.128402  0.641221  0.000000  1
  Ir  Ir21  1  0.354609  0.493887  0.000000  1
  Ir  Ir22  1  0.487234  0.358868  0.000000  1
  Ir  Ir23  1  0.860708  0.506168  0.000000  1
  Ir  Ir24  1  0.641656  0.136541  0.000000  1
  Ir  Ir25  1  0.464454  0.999973  0.500000  1
  Ir  Ir26  1  0.997401  0.282309  0.000000  1
  Ir  Ir27  1  0.715361  0.717789  0.000000  1
  Ir  Ir28  1  0.291177  0.999848  0.000000  1
  Ir  Ir29  1  0.624235  0.806888  0.500000  1
  Ir  Ir30  1  0.200939  0.823630  0.500000  1
  Ir  Ir31  1  0.177563  0.368645  0.500000  1
  Ir  Ir32  1  0.377799  0.176235  0.500000  1
  Ir  Ir33  1  0.809637  0.631975  0.500000  1
  Ir  Ir34  1  0.817313  0.193081  0.500000  1
  Ir  Ir35  1  0.002587  0.999532  0.500000  1
