# generated using pymatgen
data_Sm2Ho4Co9(P4Ru3)3
_symmetry_space_group_name_H-M   'P 1'
_cell_length_a   3.84318700
_cell_length_b   10.68161860
_cell_length_c   12.51735900
_cell_angle_alpha   89.76576392
_cell_angle_beta   90.00000000
_cell_angle_gamma   90.00000000
_symmetry_Int_Tables_number   1
_chemical_formula_structural   Sm2Ho4Co9(P4Ru3)3
_chemical_formula_sum   'Sm2 Ho4 Co9 P12 Ru9'
_cell_volume   513.85154017
_cell_formula_units_Z   1
loop_
 _symmetry_equiv_pos_site_id
 _symmetry_equiv_pos_as_xyz
  1  'x, y, z'
loop_
 _atom_site_type_symbol
 _atom_site_label
 _atom_site_symmetry_multiplicity
 _atom_site_fract_x
 _atom_site_fract_y
 _atom_site_fract_z
 _atom_site_occupancy
  Sm  Sm0  1  0.000000  0.500524  0.524917  1
  Sm  Sm1  1  0.500000  0.000789  0.472222  1
  Ho  Ho2  1  0.500000  0.820273  0.200500  1
  Ho  Ho3  1  0.500000  0.181283  0.200557  1
  Ho  Ho4  1  0.000000  0.678562  0.800252  1
  Ho  Ho5  1  0.000000  0.321317  0.799376  1
  Co  Co6  1  0.000000  0.498497  0.985903  1
  Co  Co7  1  0.500000  0.000225  0.016722  1
  Co  Co8  1  0.000000  0.374889  0.278670  1
  Co  Co9  1  0.500000  0.331146  0.989585  1
  Co  Co10  1  0.500000  0.665846  0.991521  1
  Co  Co11  1  0.000000  0.168355  0.012724  1
  Co  Co12  1  0.000000  0.832495  0.011248  1
  Co  Co13  1  0.500000  0.500427  0.705013  1
  Co  Co14  1  0.000000  0.000997  0.295142  1
  P  P15  1  0.500000  0.314728  0.617595  1
  P  P16  1  0.500000  0.687498  0.619754  1
  P  P17  1  0.000000  0.190688  0.376697  1
  P  P18  1  0.000000  0.812018  0.379285  1
  P  P19  1  0.500000  0.499262  0.882731  1
  P  P20  1  0.000000  0.000057  0.118695  1
  P  P21  1  0.500000  0.845071  0.902519  1
  P  P22  1  0.500000  0.154256  0.900975  1
  P  P23  1  0.000000  0.653613  0.099613  1
  P  P24  1  0.000000  0.345543  0.103263  1
  P  P25  1  0.500000  0.499565  0.336743  1
  P  P26  1  0.000000  0.000965  0.663811  1
  Ru  Ru27  1  0.500000  0.300301  0.421339  1
  Ru  Ru28  1  0.500000  0.703466  0.426570  1
  Ru  Ru29  1  0.000000  0.205396  0.569723  1
  Ru  Ru30  1  0.000000  0.797934  0.573019  1
  Ru  Ru31  1  0.500000  0.875672  0.720895  1
  Ru  Ru32  1  0.500000  0.126038  0.718624  1
  Ru  Ru33  1  0.000000  0.618748  0.280442  1
  Ru  Ru34  1  0.500000  0.491757  0.148650  1
  Ru  Ru35  1  0.000000  0.001796  0.854701  1
