# generated using pymatgen
data_Ta4V4GaSi2P
_symmetry_space_group_name_H-M   'P 1'
_cell_length_a   3.39506300
_cell_length_b   6.58467809
_cell_length_c   7.90950460
_cell_angle_alpha   89.71246606
_cell_angle_beta   90.00000000
_cell_angle_gamma   90.00000000
_symmetry_Int_Tables_number   1
_chemical_formula_structural   Ta4V4GaSi2P
_chemical_formula_sum   'Ta4 V4 Ga1 Si2 P1'
_cell_volume   176.81788867
_cell_formula_units_Z   1
loop_
 _symmetry_equiv_pos_site_id
 _symmetry_equiv_pos_as_xyz
  1  'x, y, z'
loop_
 _atom_site_type_symbol
 _atom_site_label
 _atom_site_symmetry_multiplicity
 _atom_site_fract_x
 _atom_site_fract_y
 _atom_site_fract_z
 _atom_site_occupancy
  Ta  Ta0  1  0.250000  0.546815  0.173115  1
  Ta  Ta1  1  0.750000  0.443620  0.834740  1
  Ta  Ta2  1  0.750000  0.961391  0.658812  1
  Ta  Ta3  1  0.250000  0.037104  0.332660  1
  V  V4  1  0.250000  0.632271  0.553074  1
  V  V5  1  0.750000  0.373577  0.437597  1
  V  V6  1  0.750000  0.872048  0.068951  1
  V  V7  1  0.250000  0.133306  0.941205  1
  Ga  Ga8  1  0.250000  0.752436  0.859846  1
  Si  Si9  1  0.750000  0.246362  0.140526  1
  Si  Si10  1  0.250000  0.256840  0.636930  1
  P  P11  1  0.750000  0.744232  0.362544  1
