# generated using pymatgen
data_Tb4Pr16Si15Au
_symmetry_space_group_name_H-M   'P 1'
_cell_length_a   7.87743112
_cell_length_b   7.85049584
_cell_length_c   15.39969400
_cell_angle_alpha   90.00266390
_cell_angle_beta   89.67449864
_cell_angle_gamma   90.04869444
_symmetry_Int_Tables_number   1
_chemical_formula_structural   Tb4Pr16Si15Au
_chemical_formula_sum   'Tb4 Pr16 Si15 Au1'
_cell_volume   952.32816337
_cell_formula_units_Z   1
loop_
 _symmetry_equiv_pos_site_id
 _symmetry_equiv_pos_as_xyz
  1  'x, y, z'
loop_
 _atom_site_type_symbol
 _atom_site_label
 _atom_site_symmetry_multiplicity
 _atom_site_fract_x
 _atom_site_fract_y
 _atom_site_fract_z
 _atom_site_occupancy
  Tb  Tb0  1  0.308053  0.308028  0.999420  1
  Tb  Tb1  1  0.191769  0.809121  0.249990  1
  Tb  Tb2  1  0.805333  0.188993  0.751319  1
  Tb  Tb3  1  0.691718  0.689401  0.499413  1
  Pr  Pr4  1  0.376963  0.013861  0.446437  1
  Pr  Pr5  1  0.489285  0.875571  0.696197  1
  Pr  Pr6  1  0.512464  0.120115  0.194998  1
  Pr  Pr7  1  0.880166  0.486998  0.303819  1
  Pr  Pr8  1  0.117781  0.517938  0.804735  1
  Pr  Pr9  1  0.622895  0.986096  0.946947  1
  Pr  Pr10  1  0.006647  0.380582  0.551691  1
  Pr  Pr11  1  0.987636  0.622959  0.055215  1
  Pr  Pr12  1  0.129273  0.977926  0.879864  1
  Pr  Pr13  1  0.523775  0.627199  0.128301  1
  Pr  Pr14  1  0.475948  0.373454  0.628643  1
  Pr  Pr15  1  0.625327  0.524589  0.872848  1
  Pr  Pr16  1  0.374815  0.476757  0.370722  1
  Pr  Pr17  1  0.875263  0.024871  0.377886  1
  Pr  Pr18  1  0.976912  0.125473  0.122006  1
  Pr  Pr19  1  0.020878  0.870714  0.620070  1
  Si  Si20  1  0.328260  0.688054  0.958173  1
  Si  Si21  1  0.668308  0.311113  0.457807  1
  Si  Si22  1  0.690363  0.329717  0.042505  1
  Si  Si23  1  0.312617  0.671858  0.540892  1
  Si  Si24  1  0.813043  0.828142  0.209214  1
  Si  Si25  1  0.173046  0.188456  0.291819  1
  Si  Si26  1  0.830351  0.812222  0.791870  1
  Si  Si27  1  0.285218  0.920410  0.063555  1
  Si  Si28  1  0.580949  0.785093  0.313714  1
  Si  Si29  1  0.432262  0.210380  0.817262  1
  Si  Si30  1  0.783765  0.580333  0.687157  1
  Si  Si31  1  0.214252  0.421366  0.186537  1
  Si  Si32  1  0.710811  0.078098  0.562013  1
  Si  Si33  1  0.920741  0.287061  0.937355  1
  Si  Si34  1  0.080619  0.715127  0.436416  1
  Au  Au35  1  0.182494  0.171926  0.703193  1
