# generated using pymatgen
data_Cs3K(SiP)12
_symmetry_space_group_name_H-M   'P 1'
_cell_length_a   3.57453100
_cell_length_b   9.92543473
_cell_length_c   20.31463807
_cell_angle_alpha   88.73366188
_cell_angle_beta   90.00000000
_cell_angle_gamma   90.00000000
_symmetry_Int_Tables_number   1
_chemical_formula_structural   Cs3K(SiP)12
_chemical_formula_sum   'Cs3 K1 Si12 P12'
_cell_volume   720.56242700
_cell_formula_units_Z   1
loop_
 _symmetry_equiv_pos_site_id
 _symmetry_equiv_pos_as_xyz
  1  'x, y, z'
loop_
 _atom_site_type_symbol
 _atom_site_label
 _atom_site_symmetry_multiplicity
 _atom_site_fract_x
 _atom_site_fract_y
 _atom_site_fract_z
 _atom_site_occupancy
  Cs  Cs0  1  0.000000  0.299490  0.301730  1
  Cs  Cs1  1  0.000000  0.713574  0.693047  1
  Cs  Cs2  1  0.000000  0.213311  0.807659  1
  K  K3  1  0.000000  0.797329  0.193815  1
  Si  Si4  1  0.500000  0.397458  0.039431  1
  Si  Si5  1  0.500000  0.593130  0.971421  1
  Si  Si6  1  0.500000  0.095835  0.532527  1
  Si  Si7  1  0.500000  0.907486  0.463427  1
  Si  Si8  1  0.000000  0.109651  0.016632  1
  Si  Si9  1  0.000000  0.881641  0.989770  1
  Si  Si10  1  0.000000  0.386663  0.509748  1
  Si  Si11  1  0.000000  0.616357  0.480200  1
  Si  Si12  1  0.000000  0.163429  0.128112  1
  Si  Si13  1  0.000000  0.821240  0.878673  1
  Si  Si14  1  0.000000  0.323099  0.621669  1
  Si  Si15  1  0.000000  0.690056  0.369109  1
  P  P16  1  0.500000  0.091275  0.185443  1
  P  P17  1  0.500000  0.890744  0.820837  1
  P  P18  1  0.500000  0.391616  0.678222  1
  P  P19  1  0.500000  0.627209  0.310490  1
  P  P20  1  0.500000  0.282297  0.462109  1
  P  P21  1  0.500000  0.716165  0.530412  1
  P  P22  1  0.500000  0.217650  0.968670  1
  P  P23  1  0.500000  0.776821  0.040023  1
  P  P24  1  0.000000  0.396439  0.109684  1
  P  P25  1  0.000000  0.589989  0.901036  1
  P  P26  1  0.000000  0.091574  0.602967  1
  P  P27  1  0.000000  0.918471  0.393136  1
