# generated using pymatgen
data_PrEu5Cd4Pd13
_symmetry_space_group_name_H-M   'P 1'
_cell_length_a   8.61286356
_cell_length_b   8.61286320
_cell_length_c   8.61271382
_cell_angle_alpha   109.39372162
_cell_angle_beta   109.39372448
_cell_angle_gamma   109.62750173
_symmetry_Int_Tables_number   1
_chemical_formula_structural   PrEu5Cd4Pd13
_chemical_formula_sum   'Pr1 Eu5 Cd4 Pd13'
_cell_volume   491.81813812
_cell_formula_units_Z   1
loop_
 _symmetry_equiv_pos_site_id
 _symmetry_equiv_pos_as_xyz
  1  'x, y, z'
loop_
 _atom_site_type_symbol
 _atom_site_label
 _atom_site_symmetry_multiplicity
 _atom_site_fract_x
 _atom_site_fract_y
 _atom_site_fract_z
 _atom_site_occupancy
  Pr  Pr0  1  0.305499  0.305499  0.000014  1
  Eu  Eu1  1  0.999572  0.301200  0.301637  1
  Eu  Eu2  1  0.999578  0.697926  0.698367  1
  Eu  Eu3  1  0.301200  0.999572  0.301637  1
  Eu  Eu4  1  0.702742  0.702742  0.000019  1
  Eu  Eu5  1  0.697926  0.999578  0.698367  1
  Cd  Cd6  1  0.999050  0.999050  0.499581  1
  Cd  Cd7  1  0.499471  0.999052  0.999986  1
  Cd  Cd8  1  0.999052  0.499471  0.999986  1
  Cd  Cd9  1  0.499486  0.499486  0.500420  1
  Pd  Pd10  1  0.340666  0.658005  0.000005  1
  Pd  Pd11  1  0.999985  0.337491  0.662480  1
  Pd  Pd12  1  0.660718  0.999971  0.339238  1
  Pd  Pd13  1  0.321480  0.660717  0.660748  1
  Pd  Pd14  1  0.660717  0.321480  0.660748  1
  Pd  Pd15  1  0.675010  0.337491  0.337508  1
  Pd  Pd16  1  0.337491  0.675010  0.337508  1
  Pd  Pd17  1  0.340661  0.340661  0.682655  1
  Pd  Pd18  1  0.999971  0.660718  0.339238  1
  Pd  Pd19  1  0.658003  0.658003  0.317340  1
  Pd  Pd20  1  0.337491  0.999985  0.662480  1
  Pd  Pd21  1  0.006226  0.006226  0.000034  1
  Pd  Pd22  1  0.658005  0.340666  0.000005  1
