# generated using pymatgen
data_Dy5OsRuO12
_symmetry_space_group_name_H-M   'P 1'
_cell_length_a   6.87594783
_cell_length_b   6.87594665
_cell_length_c   7.46777614
_cell_angle_alpha   73.98603188
_cell_angle_beta   73.98603830
_cell_angle_gamma   48.83481172
_symmetry_Int_Tables_number   1
_chemical_formula_structural   Dy5OsRuO12
_chemical_formula_sum   'Dy5 Os1 Ru1 O12'
_cell_volume   253.30139437
_cell_formula_units_Z   1
loop_
 _symmetry_equiv_pos_site_id
 _symmetry_equiv_pos_as_xyz
  1  'x, y, z'
loop_
 _atom_site_type_symbol
 _atom_site_label
 _atom_site_symmetry_multiplicity
 _atom_site_fract_x
 _atom_site_fract_y
 _atom_site_fract_z
 _atom_site_occupancy
  Dy  Dy0  1  0.189328  0.207555  0.642122  1
  Dy  Dy1  1  0.185309  0.191192  0.170626  1
  Dy  Dy2  1  0.491987  0.508013  0.500000  1
  Dy  Dy3  1  0.792445  0.810672  0.357878  1
  Dy  Dy4  1  0.808808  0.814691  0.829374  1
  Os  Os5  1  0.285394  0.714606  0.000000  1
  Ru  Ru6  1  0.729595  0.270405  0.000000  1
  O  O7  1  0.414760  0.911210  0.913906  1
  O  O8  1  0.927292  0.412448  0.914433  1
  O  O9  1  0.898716  0.409387  0.425125  1
  O  O10  1  0.393715  0.909301  0.429453  1
  O  O11  1  0.503418  0.499485  0.200690  1
  O  O12  1  0.009661  0.988595  0.175390  1
  O  O13  1  0.011405  0.990339  0.824610  1
  O  O14  1  0.500515  0.496582  0.799310  1
  O  O15  1  0.088790  0.585240  0.086094  1
  O  O16  1  0.587552  0.072708  0.085567  1
  O  O17  1  0.090699  0.606285  0.570547  1
  O  O18  1  0.590613  0.101284  0.574875  1
