# generated using pymatgen
data_Er16Cd4TcPd2Pt
_symmetry_space_group_name_H-M   'P 1'
_cell_length_a   9.65415577
_cell_length_b   9.63899794
_cell_length_c   9.63899705
_cell_angle_alpha   59.26852754
_cell_angle_beta   59.31480894
_cell_angle_gamma   59.31481079
_symmetry_Int_Tables_number   1
_chemical_formula_structural   Er16Cd4TcPd2Pt
_chemical_formula_sum   'Er16 Cd4 Tc1 Pd2 Pt1'
_cell_volume   624.13510077
_cell_formula_units_Z   1
loop_
 _symmetry_equiv_pos_site_id
 _symmetry_equiv_pos_as_xyz
  1  'x, y, z'
loop_
 _atom_site_type_symbol
 _atom_site_label
 _atom_site_symmetry_multiplicity
 _atom_site_fract_x
 _atom_site_fract_y
 _atom_site_fract_z
 _atom_site_occupancy
  Er  Er0  1  0.353439  0.351637  0.351637  1
  Er  Er1  1  0.352881  0.350630  0.945807  1
  Er  Er2  1  0.352881  0.945807  0.350630  1
  Er  Er3  1  0.943532  0.351968  0.351968  1
  Er  Er4  1  0.815097  0.187958  0.187958  1
  Er  Er5  1  0.188731  0.810258  0.810258  1
  Er  Er6  1  0.187930  0.816438  0.187426  1
  Er  Er7  1  0.809314  0.188484  0.811017  1
  Er  Er8  1  0.187930  0.187426  0.816438  1
  Er  Er9  1  0.809314  0.811017  0.188484  1
  Er  Er10  1  0.934968  0.566282  0.566282  1
  Er  Er11  1  0.556564  0.938004  0.938004  1
  Er  Er12  1  0.566217  0.935147  0.565445  1
  Er  Er13  1  0.937761  0.556769  0.937830  1
  Er  Er14  1  0.566217  0.565445  0.935147  1
  Er  Er15  1  0.937761  0.937830  0.556769  1
  Cd  Cd16  1  0.579949  0.579816  0.579816  1
  Cd  Cd17  1  0.580715  0.580791  0.253757  1
  Cd  Cd18  1  0.580715  0.253757  0.580791  1
  Cd  Cd19  1  0.253775  0.580777  0.580777  1
  Tc  Tc20  1  0.144808  0.144998  0.144998  1
  Pd  Pd21  1  0.144035  0.145009  0.569177  1
  Pd  Pd22  1  0.144035  0.569177  0.145009  1
  Pt  Pt23  1  0.571431  0.144575  0.144575  1
