# generated using pymatgen
data_Hf3Zn3IrPd2
_symmetry_space_group_name_H-M   'P 1'
_cell_length_a   7.25300900
_cell_length_b   7.25300734
_cell_length_c   6.82814000
_cell_angle_alpha   90.00000000
_cell_angle_beta   90.00000000
_cell_angle_gamma   119.99999388
_symmetry_Int_Tables_number   1
_chemical_formula_structural   Hf3Zn3IrPd2
_chemical_formula_sum   'Hf6 Zn6 Ir2 Pd4'
_cell_volume   311.07807944
_cell_formula_units_Z   2
loop_
 _symmetry_equiv_pos_site_id
 _symmetry_equiv_pos_as_xyz
  1  'x, y, z'
loop_
 _atom_site_type_symbol
 _atom_site_label
 _atom_site_symmetry_multiplicity
 _atom_site_fract_x
 _atom_site_fract_y
 _atom_site_fract_z
 _atom_site_occupancy
  Hf  Hf0  1  0.601928  0.599499  0.250000  1
  Hf  Hf1  1  0.028585  0.412133  0.750000  1
  Hf  Hf2  1  0.400501  0.002431  0.250000  1
  Hf  Hf3  1  0.997569  0.398072  0.250000  1
  Hf  Hf4  1  0.383549  0.971415  0.750000  1
  Hf  Hf5  1  0.587867  0.616451  0.750000  1
  Zn  Zn6  1  0.273351  0.267990  0.499624  1
  Zn  Zn7  1  0.732010  0.005360  0.499624  1
  Zn  Zn8  1  0.994640  0.726649  0.499624  1
  Zn  Zn9  1  0.732010  0.005360  0.000376  1
  Zn  Zn10  1  0.273351  0.267990  0.000376  1
  Zn  Zn11  1  0.994640  0.726649  0.000376  1
  Ir  Ir12  1  0.333333  0.666667  0.483770  1
  Ir  Ir13  1  0.333333  0.666667  0.016230  1
  Pd  Pd14  1  0.000000  0.000000  0.750000  1
  Pd  Pd15  1  0.000000  0.000000  0.250000  1
  Pd  Pd16  1  0.666667  0.333333  0.523201  1
  Pd  Pd17  1  0.666667  0.333333  0.976799  1
