# generated using pymatgen
data_Dy13Y3In6CoRh
_symmetry_space_group_name_H-M   'P 1'
_cell_length_a   10.42503100
_cell_length_b   10.42503153
_cell_length_c   7.04354600
_cell_angle_alpha   90.00000000
_cell_angle_beta   90.00000000
_cell_angle_gamma   120.00000150
_symmetry_Int_Tables_number   1
_chemical_formula_structural   Dy13Y3In6CoRh
_chemical_formula_sum   'Dy13 Y3 In6 Co1 Rh1'
_cell_volume   662.94379857
_cell_formula_units_Z   1
loop_
 _symmetry_equiv_pos_site_id
 _symmetry_equiv_pos_as_xyz
  1  'x, y, z'
loop_
 _atom_site_type_symbol
 _atom_site_label
 _atom_site_symmetry_multiplicity
 _atom_site_fract_x
 _atom_site_fract_y
 _atom_site_fract_z
 _atom_site_occupancy
  Dy  Dy0  1  0.466893  0.533107  0.481155  1
  Dy  Dy1  1  0.066213  0.533107  0.481155  1
  Dy  Dy2  1  0.466893  0.933787  0.481155  1
  Dy  Dy3  1  0.535823  0.464177  0.982838  1
  Dy  Dy4  1  0.928354  0.464177  0.982838  1
  Dy  Dy5  1  0.535823  0.071646  0.982838  1
  Dy  Dy6  1  0.821922  0.178078  0.274197  1
  Dy  Dy7  1  0.356157  0.178078  0.274197  1
  Dy  Dy8  1  0.821922  0.643843  0.274197  1
  Dy  Dy9  1  0.176201  0.823799  0.775832  1
  Dy  Dy10  1  0.647597  0.823799  0.775832  1
  Dy  Dy11  1  0.176201  0.352403  0.775832  1
  Dy  Dy12  1  0.333333  0.666667  0.100989  1
  Y  Y13  1  0.666667  0.333333  0.592651  1
  Y  Y14  1  0.000000  0.000000  0.493821  1
  Y  Y15  1  0.000000  0.000000  0.997746  1
  In  In16  1  0.162401  0.837599  0.234896  1
  In  In17  1  0.675199  0.837599  0.234896  1
  In  In18  1  0.162401  0.324801  0.234896  1
  In  In19  1  0.836701  0.163299  0.733251  1
  In  In20  1  0.326600  0.163299  0.733251  1
  In  In21  1  0.836701  0.673400  0.733251  1
  Co  Co22  1  0.666667  0.333333  0.204573  1
  Rh  Rh23  1  0.333333  0.666667  0.708261  1
