# generated using pymatgen
data_Ce3DyHo(SiB4)2
_symmetry_space_group_name_H-M   'P 1'
_cell_length_a   7.30284217
_cell_length_b   7.30284223
_cell_length_c   8.24474200
_cell_angle_alpha   90.00000000
_cell_angle_beta   90.00000000
_cell_angle_gamma   90.07352192
_symmetry_Int_Tables_number   1
_chemical_formula_structural   Ce3DyHo(SiB4)2
_chemical_formula_sum   'Ce6 Dy2 Ho2 Si4 B16'
_cell_volume   439.70413051
_cell_formula_units_Z   2
loop_
 _symmetry_equiv_pos_site_id
 _symmetry_equiv_pos_as_xyz
  1  'x, y, z'
loop_
 _atom_site_type_symbol
 _atom_site_label
 _atom_site_symmetry_multiplicity
 _atom_site_fract_x
 _atom_site_fract_y
 _atom_site_fract_z
 _atom_site_occupancy
  Ce  Ce0  1  0.682363  0.182728  0.227573  1
  Ce  Ce1  1  0.317272  0.817637  0.772427  1
  Ce  Ce2  1  0.317272  0.817637  0.227573  1
  Ce  Ce3  1  0.818409  0.681591  0.227551  1
  Ce  Ce4  1  0.818409  0.681591  0.772449  1
  Ce  Ce5  1  0.682363  0.182728  0.772427  1
  Dy  Dy6  1  0.181210  0.318790  0.780700  1
  Dy  Dy7  1  0.181210  0.318790  0.219300  1
  Ho  Ho8  1  0.001866  0.001115  0.500000  1
  Ho  Ho9  1  0.498885  0.498134  0.500000  1
  Si  Si10  1  0.116609  0.613676  0.500000  1
  Si  Si11  1  0.886324  0.383391  0.500000  1
  Si  Si12  1  0.382771  0.117229  0.500000  1
  Si  Si13  1  0.613874  0.886126  0.500000  1
  B  B14  1  0.173463  0.039319  0.000000  1
  B  B15  1  0.827907  0.962149  0.000000  1
  B  B16  1  0.960743  0.172985  0.000000  1
  B  B17  1  0.327015  0.539257  0.000000  1
  B  B18  1  0.039957  0.827959  0.000000  1
  B  B19  1  0.672041  0.460043  0.000000  1
  B  B20  1  0.537851  0.672093  0.000000  1
  B  B21  1  0.460681  0.326537  0.000000  1
  B  B22  1  0.091710  0.591040  0.000000  1
  B  B23  1  0.908960  0.408290  0.000000  1
  B  B24  1  0.409339  0.090661  0.000000  1
  B  B25  1  0.590884  0.909116  0.000000  1
  B  B26  1  0.000673  0.000366  0.159422  1
  B  B27  1  0.000673  0.000366  0.840578  1
  B  B28  1  0.499634  0.499327  0.840578  1
  B  B29  1  0.499634  0.499327  0.159422  1
