# generated using pymatgen
data_NaNd16Tl3Rh4
_symmetry_space_group_name_H-M   'P 1'
_cell_length_a   9.99587221
_cell_length_b   9.99587045
_cell_length_c   9.99587000
_cell_angle_alpha   59.82601571
_cell_angle_beta   59.82600829
_cell_angle_gamma   59.82601072
_symmetry_Int_Tables_number   1
_chemical_formula_structural   NaNd16Tl3Rh4
_chemical_formula_sum   'Na1 Nd16 Tl3 Rh4'
_cell_volume   703.44228449
_cell_formula_units_Z   1
loop_
 _symmetry_equiv_pos_site_id
 _symmetry_equiv_pos_as_xyz
  1  'x, y, z'
loop_
 _atom_site_type_symbol
 _atom_site_label
 _atom_site_symmetry_multiplicity
 _atom_site_fract_x
 _atom_site_fract_y
 _atom_site_fract_z
 _atom_site_occupancy
  Na  Na0  1  0.427344  0.427342  0.427345  1
  Nd  Nd1  1  0.808947  0.808920  0.190526  1
  Nd  Nd2  1  0.808961  0.190514  0.808924  1
  Nd  Nd3  1  0.185406  0.185432  0.815317  1
  Nd  Nd4  1  0.652394  0.043468  0.652441  1
  Nd  Nd5  1  0.059052  0.059057  0.441188  1
  Nd  Nd6  1  0.438140  0.438091  0.057696  1
  Nd  Nd7  1  0.651109  0.651135  0.651174  1
  Nd  Nd8  1  0.815336  0.185405  0.185404  1
  Nd  Nd9  1  0.190491  0.808968  0.808964  1
  Nd  Nd10  1  0.043488  0.652388  0.652422  1
  Nd  Nd11  1  0.441177  0.059086  0.059086  1
  Nd  Nd12  1  0.438192  0.057678  0.438094  1
  Nd  Nd13  1  0.059067  0.441213  0.059068  1
  Nd  Nd14  1  0.652402  0.652408  0.043467  1
  Nd  Nd15  1  0.185402  0.815323  0.185425  1
  Nd  Nd16  1  0.057657  0.438190  0.438140  1
  Tl  Tl17  1  0.415991  0.415987  0.755036  1
  Tl  Tl18  1  0.416016  0.755017  0.415983  1
  Tl  Tl19  1  0.755011  0.416017  0.415991  1
  Rh  Rh20  1  0.857498  0.426544  0.857371  1
  Rh  Rh21  1  0.856912  0.856943  0.857023  1
  Rh  Rh22  1  0.857428  0.857388  0.426544  1
  Rh  Rh23  1  0.426582  0.857490  0.857375  1
