# generated using pymatgen
data_KHBr6
_symmetry_space_group_name_H-M   'P 1'
_cell_length_a   5.15284701
_cell_length_b   9.53455461
_cell_length_c   8.03206848
_cell_angle_alpha   104.01409605
_cell_angle_beta   85.83662547
_cell_angle_gamma   125.32911727
_symmetry_Int_Tables_number   1
_chemical_formula_structural   KHBr6
_chemical_formula_sum   'K1 H1 Br6'
_cell_volume   311.22741892
_cell_formula_units_Z   1
loop_
 _symmetry_equiv_pos_site_id
 _symmetry_equiv_pos_as_xyz
  1  'x, y, z'
loop_
 _atom_site_type_symbol
 _atom_site_label
 _atom_site_symmetry_multiplicity
 _atom_site_fract_x
 _atom_site_fract_y
 _atom_site_fract_z
 _atom_site_occupancy
  K  K0  1  0.371293  0.053637  0.375573  1
  H  H1  1  0.322558  0.526340  0.532102  1
  Br  Br2  1  0.155568  0.360444  0.589493  1
  Br  Br3  1  0.804246  0.971721  0.798394  1
  Br  Br4  1  0.593413  0.803581  0.483560  1
  Br  Br5  1  0.008406  0.143120  0.117605  1
  Br  Br6  1  0.609523  0.447294  0.079693  1
  Br  Br7  1  0.116938  0.696341  0.027249  1
