# generated using pymatgen
data_DyLu5(Al3Ru)8
_symmetry_space_group_name_H-M   'P 1'
_cell_length_a   8.74930553
_cell_length_b   8.75220022
_cell_length_c   9.55059100
_cell_angle_alpha   90.00000000
_cell_angle_beta   90.00000000
_cell_angle_gamma   120.01094775
_symmetry_Int_Tables_number   1
_chemical_formula_structural   DyLu5(Al3Ru)8
_chemical_formula_sum   'Dy1 Lu5 Al24 Ru8'
_cell_volume   633.29168302
_cell_formula_units_Z   1
loop_
 _symmetry_equiv_pos_site_id
 _symmetry_equiv_pos_as_xyz
  1  'x, y, z'
loop_
 _atom_site_type_symbol
 _atom_site_label
 _atom_site_symmetry_multiplicity
 _atom_site_fract_x
 _atom_site_fract_y
 _atom_site_fract_z
 _atom_site_occupancy
  Dy  Dy0  1  0.385003  0.192502  0.750000  1
  Lu  Lu1  1  0.194842  0.805720  0.250000  1
  Lu  Lu2  1  0.194842  0.389120  0.250000  1
  Lu  Lu3  1  0.612032  0.806016  0.250000  1
  Lu  Lu4  1  0.804716  0.195133  0.750000  1
  Lu  Lu5  1  0.804716  0.609583  0.750000  1
  Al  Al6  1  0.561575  0.439358  0.250000  1
  Al  Al7  1  0.561575  0.122218  0.250000  1
  Al  Al8  1  0.878298  0.439149  0.250000  1
  Al  Al9  1  0.438856  0.562474  0.750000  1
  Al  Al10  1  0.438856  0.876383  0.750000  1
  Al  Al11  1  0.122280  0.561140  0.750000  1
  Al  Al12  1  0.325298  0.162649  0.420717  1
  Al  Al13  1  0.837634  0.162587  0.421798  1
  Al  Al14  1  0.837634  0.675048  0.421798  1
  Al  Al15  1  0.674764  0.837382  0.577338  1
  Al  Al16  1  0.162527  0.836594  0.577362  1
  Al  Al17  1  0.162527  0.325933  0.577362  1
  Al  Al18  1  0.674764  0.837382  0.922662  1
  Al  Al19  1  0.162527  0.836594  0.922638  1
  Al  Al20  1  0.162527  0.325933  0.922638  1
  Al  Al21  1  0.325298  0.162649  0.079283  1
  Al  Al22  1  0.837634  0.162587  0.078202  1
  Al  Al23  1  0.837634  0.675048  0.078202  1
  Al  Al24  1  0.666904  0.333451  0.518813  1
  Al  Al25  1  0.333659  0.666830  0.478625  1
  Al  Al26  1  0.333659  0.666830  0.021375  1
  Al  Al27  1  0.666904  0.333451  0.981187  1
  Al  Al28  1  0.000945  0.000472  0.250000  1
  Al  Al29  1  0.996055  0.998027  0.750000  1
  Ru  Ru30  1  0.000337  0.000169  0.500186  1
  Ru  Ru31  1  0.000337  0.000169  0.999814  1
  Ru  Ru32  1  0.500513  0.500899  0.499371  1
  Ru  Ru33  1  0.500513  0.999614  0.499371  1
  Ru  Ru34  1  0.000391  0.500195  0.499777  1
  Ru  Ru35  1  0.500513  0.500899  0.000629  1
  Ru  Ru36  1  0.500513  0.999614  0.000629  1
  Ru  Ru37  1  0.000391  0.500195  0.000223  1
