# generated using pymatgen
data_Ca3LuAl18Rh5Au
_symmetry_space_group_name_H-M   'P 1'
_cell_length_a   7.57181256
_cell_length_b   7.57385392
_cell_length_c   9.44775200
_cell_angle_alpha   89.92598457
_cell_angle_beta   89.97800278
_cell_angle_gamma   119.46322182
_symmetry_Int_Tables_number   1
_chemical_formula_structural   Ca3LuAl18Rh5Au
_chemical_formula_sum   'Ca3 Lu1 Al18 Rh5 Au1'
_cell_volume   471.73596045
_cell_formula_units_Z   1
loop_
 _symmetry_equiv_pos_site_id
 _symmetry_equiv_pos_as_xyz
  1  'x, y, z'
loop_
 _atom_site_type_symbol
 _atom_site_label
 _atom_site_symmetry_multiplicity
 _atom_site_fract_x
 _atom_site_fract_y
 _atom_site_fract_z
 _atom_site_occupancy
  Ca  Ca0  1  0.994679  0.674887  0.250692  1
  Ca  Ca1  1  0.004339  0.324325  0.749347  1
  Ca  Ca2  1  0.676410  0.995370  0.250748  1
  Lu  Lu3  1  0.324142  0.001958  0.748497  1
  Al  Al4  1  0.138126  0.138667  0.257685  1
  Al  Al5  1  0.865402  0.861880  0.744005  1
  Al  Al6  1  0.002405  0.345019  0.076630  1
  Al  Al7  1  0.998985  0.656202  0.919481  1
  Al  Al8  1  0.001569  0.663835  0.574986  1
  Al  Al9  1  0.336833  0.000540  0.428213  1
  Al  Al10  1  0.000516  0.336927  0.428002  1
  Al  Al11  1  0.662930  0.000708  0.575595  1
  Al  Al12  1  0.655054  0.998919  0.919720  1
  Al  Al13  1  0.344679  0.002502  0.076277  1
  Al  Al14  1  0.333074  0.332360  0.549792  1
  Al  Al15  1  0.667270  0.667251  0.458211  1
  Al  Al16  1  0.657913  0.658087  0.046826  1
  Al  Al17  1  0.339237  0.338879  0.944552  1
  Al  Al18  1  0.339488  0.551316  0.250707  1
  Al  Al19  1  0.655806  0.445014  0.748882  1
  Al  Al20  1  0.550953  0.339909  0.250621  1
  Al  Al21  1  0.448873  0.662949  0.749188  1
  Rh  Rh22  1  0.670460  0.327456  0.998304  1
  Rh  Rh23  1  0.328245  0.672783  0.998134  1
  Rh  Rh24  1  0.329294  0.672521  0.501336  1
  Rh  Rh25  1  0.670090  0.327852  0.501585  1
  Rh  Rh26  1  0.002420  0.001353  0.502855  1
  Au  Au27  1  0.000805  0.000529  0.999127  1
