# generated using pymatgen
data_Pr8Sm2B2Cl15
_symmetry_space_group_name_H-M   'P 1'
_cell_length_a   9.08497516
_cell_length_b   9.91820093
_cell_length_c   10.72601382
_cell_angle_alpha   90.77081283
_cell_angle_beta   114.54079923
_cell_angle_gamma   111.07929672
_symmetry_Int_Tables_number   1
_chemical_formula_structural   Pr8Sm2B2Cl15
_chemical_formula_sum   'Pr8 Sm2 B2 Cl15'
_cell_volume   805.10934335
_cell_formula_units_Z   1
loop_
 _symmetry_equiv_pos_site_id
 _symmetry_equiv_pos_as_xyz
  1  'x, y, z'
loop_
 _atom_site_type_symbol
 _atom_site_label
 _atom_site_symmetry_multiplicity
 _atom_site_fract_x
 _atom_site_fract_y
 _atom_site_fract_z
 _atom_site_occupancy
  Pr  Pr0  1  0.811260  0.418995  0.278940  1
  Pr  Pr1  1  0.188740  0.581005  0.721060  1
  Pr  Pr2  1  0.682007  0.744077  0.818256  1
  Pr  Pr3  1  0.317993  0.255923  0.181744  1
  Pr  Pr4  1  0.527626  0.700020  0.102602  1
  Pr  Pr5  1  0.472374  0.299980  0.897398  1
  Pr  Pr6  1  0.592289  0.036533  0.333930  1
  Pr  Pr7  1  0.407711  0.963467  0.666070  1
  Sm  Sm8  1  0.730714  0.076986  0.048523  1
  Sm  Sm9  1  0.269286  0.923014  0.951477  1
  B  B10  1  0.466339  0.819814  0.876255  1
  B  B11  1  0.533661  0.180186  0.123745  1
  Cl  Cl12  1  0.000000  0.000000  0.000000  1
  Cl  Cl13  1  0.633976  0.882485  0.585586  1
  Cl  Cl14  1  0.366024  0.117515  0.414414  1
  Cl  Cl15  1  0.882212  0.299448  0.523144  1
  Cl  Cl16  1  0.117788  0.700552  0.476856  1
  Cl  Cl17  1  0.291438  0.768662  0.175660  1
  Cl  Cl18  1  0.708562  0.231338  0.824340  1
  Cl  Cl19  1  0.047606  0.337328  0.221428  1
  Cl  Cl20  1  0.165676  0.053915  0.711491  1
  Cl  Cl21  1  0.834324  0.946085  0.288509  1
  Cl  Cl22  1  0.235399  0.411268  0.946248  1
  Cl  Cl23  1  0.764601  0.588732  0.053752  1
  Cl  Cl24  1  0.407745  0.467944  0.660556  1
  Cl  Cl25  1  0.592255  0.532056  0.339444  1
  Cl  Cl26  1  0.952394  0.662672  0.778572  1
