# generated using pymatgen
data_Pr4CuGe2Pd27
_symmetry_space_group_name_H-M   'P 1'
_cell_length_a   8.98415507
_cell_length_b   8.98415507
_cell_length_c   7.22160348
_cell_angle_alpha   90.10086885
_cell_angle_beta   90.10086885
_cell_angle_gamma   89.37047485
_symmetry_Int_Tables_number   1
_chemical_formula_structural   Pr4CuGe2Pd27
_chemical_formula_sum   'Pr4 Cu1 Ge2 Pd27'
_cell_volume   582.85506016
_cell_formula_units_Z   1
loop_
 _symmetry_equiv_pos_site_id
 _symmetry_equiv_pos_as_xyz
  1  'x, y, z'
loop_
 _atom_site_type_symbol
 _atom_site_label
 _atom_site_symmetry_multiplicity
 _atom_site_fract_x
 _atom_site_fract_y
 _atom_site_fract_z
 _atom_site_occupancy
  Pr  Pr0  1  0.502444  0.002444  0.935291  1
  Pr  Pr1  1  0.997556  0.497556  0.064709  1
  Pr  Pr2  1  0.000691  0.999309  0.500000  1
  Pr  Pr3  1  0.499309  0.500691  0.500000  1
  Cu  Cu4  1  0.250000  0.750000  0.000000  1
  Ge  Ge5  1  0.500046  0.000046  0.449676  1
  Ge  Ge6  1  0.999954  0.499954  0.550324  1
  Pd  Pd7  1  0.330086  0.830086  0.620348  1
  Pd  Pd8  1  0.329359  0.169662  0.623427  1
  Pd  Pd9  1  0.669662  0.829359  0.623427  1
  Pd  Pd10  1  0.669428  0.169428  0.620652  1
  Pd  Pd11  1  0.169914  0.669914  0.379652  1
  Pd  Pd12  1  0.170641  0.330338  0.376573  1
  Pd  Pd13  1  0.830338  0.670641  0.376573  1
  Pd  Pd14  1  0.830572  0.330572  0.379348  1
  Pd  Pd15  1  0.497838  0.767302  0.250990  1
  Pd  Pd16  1  0.498269  0.233985  0.252892  1
  Pd  Pd17  1  0.267302  0.997838  0.250990  1
  Pd  Pd18  1  0.733985  0.998269  0.252892  1
  Pd  Pd19  1  0.002162  0.732698  0.749010  1
  Pd  Pd20  1  0.001731  0.266015  0.747108  1
  Pd  Pd21  1  0.232698  0.502162  0.749010  1
  Pd  Pd22  1  0.766015  0.501731  0.747108  1
  Pd  Pd23  1  0.498838  0.351075  0.857400  1
  Pd  Pd24  1  0.494012  0.656671  0.862595  1
  Pd  Pd25  1  0.851075  0.998838  0.857400  1
  Pd  Pd26  1  0.156671  0.994012  0.862595  1
  Pd  Pd27  1  0.001162  0.148925  0.142600  1
  Pd  Pd28  1  0.005988  0.843329  0.137405  1
  Pd  Pd29  1  0.648925  0.501162  0.142600  1
  Pd  Pd30  1  0.343329  0.505988  0.137405  1
  Pd  Pd31  1  0.250000  0.250000  0.000000  1
  Pd  Pd32  1  0.750000  0.750000  0.000000  1
  Pd  Pd33  1  0.750000  0.250000  0.000000  1
