# generated using pymatgen
data_CaYb13(InN4)2
_symmetry_space_group_name_H-M   'P 1'
_cell_length_a   3.51815002
_cell_length_b   12.01438725
_cell_length_c   11.55639973
_cell_angle_alpha   89.84372749
_cell_angle_beta   89.99569124
_cell_angle_gamma   89.98932169
_symmetry_Int_Tables_number   1
_chemical_formula_structural   CaYb13(InN4)2
_chemical_formula_sum   'Ca1 Yb13 In2 N8'
_cell_volume   488.46889277
_cell_formula_units_Z   1
loop_
 _symmetry_equiv_pos_site_id
 _symmetry_equiv_pos_as_xyz
  1  'x, y, z'
loop_
 _atom_site_type_symbol
 _atom_site_label
 _atom_site_symmetry_multiplicity
 _atom_site_fract_x
 _atom_site_fract_y
 _atom_site_fract_z
 _atom_site_occupancy
  Ca  Ca0  1  0.499022  0.669029  0.238057  1
  Yb  Yb1  1  0.499465  0.332546  0.760522  1
  Yb  Yb2  1  0.500627  0.167204  0.260361  1
  Yb  Yb3  1  0.500601  0.833135  0.739856  1
  Yb  Yb4  1  0.499186  0.499982  0.000373  1
  Yb  Yb5  1  0.501016  0.000168  0.500370  1
  Yb  Yb6  1  0.999797  0.929114  0.268903  1
  Yb  Yb7  1  0.999576  0.071880  0.732015  1
  Yb  Yb8  1  0.000248  0.427291  0.231763  1
  Yb  Yb9  1  0.000434  0.571534  0.768163  1
  Yb  Yb10  1  0.001867  0.767838  0.482114  1
  Yb  Yb11  1  0.001445  0.232301  0.518965  1
  Yb  Yb12  1  0.998474  0.267561  0.019053  1
  Yb  Yb13  1  0.998274  0.732346  0.979526  1
  In  In14  1  0.541485  0.499412  0.500544  1
  In  In15  1  0.458320  0.000069  0.000076  1
  N  N16  1  0.998891  0.597541  0.127307  1
  N  N17  1  0.998917  0.400594  0.870932  1
  N  N18  1  0.000982  0.099258  0.371507  1
  N  N19  1  0.001116  0.901282  0.629071  1
  N  N20  1  0.500777  0.833137  0.361885  1
  N  N21  1  0.500732  0.167163  0.639244  1
  N  N22  1  0.499198  0.332024  0.139156  1
  N  N23  1  0.499551  0.667591  0.860237  1
