# generated using pymatgen
data_Tm6Al24Fe2Ni3RuRh2
_symmetry_space_group_name_H-M   'P 1'
_cell_length_a   8.69283300
_cell_length_b   8.69283220
_cell_length_c   9.35762100
_cell_angle_alpha   90.00000000
_cell_angle_beta   90.00000000
_cell_angle_gamma   120.00000684
_symmetry_Int_Tables_number   1
_chemical_formula_structural   Tm6Al24Fe2Ni3RuRh2
_chemical_formula_sum   'Tm6 Al24 Fe2 Ni3 Ru1 Rh2'
_cell_volume   612.37673968
_cell_formula_units_Z   1
loop_
 _symmetry_equiv_pos_site_id
 _symmetry_equiv_pos_as_xyz
  1  'x, y, z'
loop_
 _atom_site_type_symbol
 _atom_site_label
 _atom_site_symmetry_multiplicity
 _atom_site_fract_x
 _atom_site_fract_y
 _atom_site_fract_z
 _atom_site_occupancy
  Tm  Tm0  1  0.806741  0.195492  0.751343  1
  Tm  Tm1  1  0.193259  0.804508  0.248657  1
  Tm  Tm2  1  0.387793  0.193897  0.751532  1
  Tm  Tm3  1  0.612207  0.806103  0.248468  1
  Tm  Tm4  1  0.806741  0.611250  0.751343  1
  Tm  Tm5  1  0.193259  0.388750  0.248657  1
  Al  Al6  1  0.666533  0.333266  0.976831  1
  Al  Al7  1  0.333467  0.666734  0.023169  1
  Al  Al8  1  0.332385  0.666193  0.476929  1
  Al  Al9  1  0.667615  0.333807  0.523071  1
  Al  Al10  1  0.841788  0.161623  0.423271  1
  Al  Al11  1  0.158212  0.838377  0.576729  1
  Al  Al12  1  0.319213  0.159606  0.423467  1
  Al  Al13  1  0.160611  0.839934  0.922943  1
  Al  Al14  1  0.680787  0.840394  0.576533  1
  Al  Al15  1  0.839389  0.160066  0.077057  1
  Al  Al16  1  0.841788  0.680165  0.423271  1
  Al  Al17  1  0.679833  0.839917  0.922718  1
  Al  Al18  1  0.158212  0.319835  0.576729  1
  Al  Al19  1  0.320167  0.160083  0.077282  1
  Al  Al20  1  0.160611  0.320678  0.922943  1
  Al  Al21  1  0.839389  0.679322  0.077057  1
  Al  Al22  1  0.439245  0.561149  0.754087  1
  Al  Al23  1  0.560755  0.438851  0.245913  1
  Al  Al24  1  0.122561  0.561280  0.753191  1
  Al  Al25  1  0.877439  0.438720  0.246809  1
  Al  Al26  1  0.439245  0.878096  0.754087  1
  Al  Al27  1  0.560755  0.121904  0.245913  1
  Al  Al28  1  0.000366  0.000183  0.749549  1
  Al  Al29  1  0.999634  0.999817  0.250451  1
  Fe  Fe30  1  0.000000  0.000000  0.000000  1
  Fe  Fe31  1  0.000000  0.000000  0.500000  1
  Ni  Ni32  1  0.500000  0.500000  0.000000  1
  Ni  Ni33  1  0.000000  0.500000  0.000000  1
  Ni  Ni34  1  0.500000  0.000000  0.000000  1
  Ru  Ru35  1  0.000000  0.500000  0.500000  1
  Rh  Rh36  1  0.500000  0.500000  0.500000  1
  Rh  Rh37  1  0.500000  0.000000  0.500000  1
