# generated using pymatgen
data_LaY6Er13Pb16
_symmetry_space_group_name_H-M   'P 1'
_cell_length_a   8.18066384
_cell_length_b   8.25210866
_cell_length_c   15.57821100
_cell_angle_alpha   90.01044947
_cell_angle_beta   90.03842988
_cell_angle_gamma   89.97955231
_symmetry_Int_Tables_number   1
_chemical_formula_structural   LaY6Er13Pb16
_chemical_formula_sum   'La1 Y6 Er13 Pb16'
_cell_volume   1051.64929342
_cell_formula_units_Z   1
loop_
 _symmetry_equiv_pos_site_id
 _symmetry_equiv_pos_as_xyz
  1  'x, y, z'
loop_
 _atom_site_type_symbol
 _atom_site_label
 _atom_site_symmetry_multiplicity
 _atom_site_fract_x
 _atom_site_fract_y
 _atom_site_fract_z
 _atom_site_occupancy
  La  La0  1  0.029408  0.178505  0.903331  1
  Y  Y1  1  0.036212  0.176228  0.599704  1
  Y  Y2  1  0.464804  0.675859  0.400832  1
  Y  Y3  1  0.964170  0.822655  0.100532  1
  Y  Y4  1  0.466186  0.676703  0.099567  1
  Y  Y5  1  0.964767  0.823958  0.400597  1
  Y  Y6  1  0.534299  0.324107  0.597149  1
  Er  Er7  1  0.374372  0.842168  0.877927  1
  Er  Er8  1  0.874655  0.658742  0.620047  1
  Er  Er9  1  0.625129  0.157601  0.378013  1
  Er  Er10  1  0.126620  0.342866  0.122512  1
  Er  Er11  1  0.625414  0.157738  0.122189  1
  Er  Er12  1  0.124871  0.341809  0.378356  1
  Er  Er13  1  0.375419  0.842377  0.621645  1
  Er  Er14  1  0.875134  0.657964  0.878363  1
  Er  Er15  1  0.537003  0.326176  0.900089  1
  Er  Er16  1  0.207902  0.504579  0.749188  1
  Er  Er17  1  0.707079  0.994422  0.749119  1
  Er  Er18  1  0.792589  0.495505  0.249812  1
  Er  Er19  1  0.292919  0.004767  0.250932  1
  Pb  Pb20  1  0.287593  0.030972  0.046118  1
  Pb  Pb21  1  0.784442  0.464530  0.456285  1
  Pb  Pb22  1  0.716040  0.965813  0.542517  1
  Pb  Pb23  1  0.220437  0.536957  0.957409  1
  Pb  Pb24  1  0.709125  0.958790  0.958693  1
  Pb  Pb25  1  0.215998  0.535751  0.542420  1
  Pb  Pb26  1  0.284427  0.035508  0.457381  1
  Pb  Pb27  1  0.783725  0.464068  0.042721  1
  Pb  Pb28  1  0.569897  0.626652  0.750014  1
  Pb  Pb29  1  0.070036  0.871706  0.749095  1
  Pb  Pb30  1  0.430153  0.373687  0.250324  1
  Pb  Pb31  1  0.930107  0.126810  0.249991  1
  Pb  Pb32  1  0.350313  0.155412  0.749510  1
  Pb  Pb33  1  0.842289  0.349149  0.746434  1
  Pb  Pb34  1  0.653333  0.845473  0.250647  1
  Pb  Pb35  1  0.153133  0.653994  0.250537  1
