# generated using pymatgen
data_BaSrSiO4
_symmetry_space_group_name_H-M   'P 1'
_cell_length_a   5.81506600
_cell_length_b   7.42444300
_cell_length_c   9.92096200
_cell_angle_alpha   90.00000000
_cell_angle_beta   90.00000000
_cell_angle_gamma   90.00000000
_symmetry_Int_Tables_number   1
_chemical_formula_structural   BaSrSiO4
_chemical_formula_sum   'Ba4 Sr4 Si4 O16'
_cell_volume   428.32390353
_cell_formula_units_Z   4
loop_
 _symmetry_equiv_pos_site_id
 _symmetry_equiv_pos_as_xyz
  1  'x, y, z'
loop_
 _atom_site_type_symbol
 _atom_site_label
 _atom_site_symmetry_multiplicity
 _atom_site_fract_x
 _atom_site_fract_y
 _atom_site_fract_z
 _atom_site_occupancy
  Ba  Ba0  1  0.250000  0.159855  0.912346  1
  Ba  Ba1  1  0.750000  0.840145  0.087654  1
  Ba  Ba2  1  0.250000  0.659855  0.587654  1
  Ba  Ba3  1  0.750000  0.340145  0.412346  1
  Sr  Sr4  1  0.250000  0.997364  0.303510  1
  Sr  Sr5  1  0.750000  0.002636  0.696490  1
  Sr  Sr6  1  0.250000  0.497364  0.196490  1
  Sr  Sr7  1  0.750000  0.502636  0.803510  1
  Si  Si8  1  0.250000  0.223682  0.578379  1
  Si  Si9  1  0.750000  0.776318  0.421621  1
  Si  Si10  1  0.250000  0.723682  0.921621  1
  Si  Si11  1  0.750000  0.276318  0.078379  1
  O  O12  1  0.516870  0.703835  0.342302  1
  O  O13  1  0.016870  0.296165  0.657698  1
  O  O14  1  0.983130  0.203835  0.157698  1
  O  O15  1  0.483130  0.796165  0.842302  1
  O  O16  1  0.483130  0.296165  0.657698  1
  O  O17  1  0.983130  0.703835  0.342302  1
  O  O18  1  0.016870  0.796165  0.842302  1
  O  O19  1  0.516870  0.203835  0.157698  1
  O  O20  1  0.250000  0.312314  0.424249  1
  O  O21  1  0.750000  0.687686  0.575751  1
  O  O22  1  0.250000  0.812314  0.075751  1
  O  O23  1  0.750000  0.187686  0.924249  1
  O  O24  1  0.750000  0.496237  0.070417  1
  O  O25  1  0.250000  0.503763  0.929583  1
  O  O26  1  0.750000  0.996237  0.429583  1
  O  O27  1  0.250000  0.003763  0.570417  1
