# generated using pymatgen
data_Na2LaPr4EuTe8
_symmetry_space_group_name_H-M   'P 1'
_cell_length_a   9.14062211
_cell_length_b   9.14062216
_cell_length_c   9.16166843
_cell_angle_alpha   59.80715269
_cell_angle_beta   59.80715352
_cell_angle_gamma   59.64769987
_symmetry_Int_Tables_number   1
_chemical_formula_structural   Na2LaPr4EuTe8
_chemical_formula_sum   'Na2 La1 Pr4 Eu1 Te8'
_cell_volume   538.24013207
_cell_formula_units_Z   1
loop_
 _symmetry_equiv_pos_site_id
 _symmetry_equiv_pos_as_xyz
  1  'x, y, z'
loop_
 _atom_site_type_symbol
 _atom_site_label
 _atom_site_symmetry_multiplicity
 _atom_site_fract_x
 _atom_site_fract_y
 _atom_site_fract_z
 _atom_site_occupancy
  Na  Na0  1  0.125000  0.625000  0.125000  1
  Na  Na1  1  0.625000  0.125000  0.125000  1
  La  La2  1  0.125000  0.125000  0.125000  1
  Pr  Pr3  1  0.625000  0.125000  0.625000  1
  Pr  Pr4  1  0.625000  0.625000  0.625000  1
  Pr  Pr5  1  0.125000  0.625000  0.625000  1
  Pr  Pr6  1  0.625000  0.625000  0.125000  1
  Eu  Eu7  1  0.125000  0.125000  0.625000  1
  Te  Te8  1  0.376903  0.875395  0.374372  1
  Te  Te9  1  0.873097  0.374605  0.875628  1
  Te  Te10  1  0.874446  0.874446  0.374630  1
  Te  Te11  1  0.873903  0.873903  0.875726  1
  Te  Te12  1  0.875395  0.376903  0.374372  1
  Te  Te13  1  0.375554  0.375554  0.875370  1
  Te  Te14  1  0.376097  0.376097  0.374274  1
  Te  Te15  1  0.374605  0.873097  0.875628  1
