# generated using pymatgen
data_Tb3ThAl13Ga5Ir6
_symmetry_space_group_name_H-M   'P 1'
_cell_length_a   7.57214811
_cell_length_b   7.57817891
_cell_length_c   9.57062600
_cell_angle_alpha   90.00000000
_cell_angle_beta   90.00000000
_cell_angle_gamma   119.60586873
_symmetry_Int_Tables_number   1
_chemical_formula_structural   Tb3ThAl13Ga5Ir6
_chemical_formula_sum   'Tb3 Th1 Al13 Ga5 Ir6'
_cell_volume   477.49197756
_cell_formula_units_Z   1
loop_
 _symmetry_equiv_pos_site_id
 _symmetry_equiv_pos_as_xyz
  1  'x, y, z'
loop_
 _atom_site_type_symbol
 _atom_site_label
 _atom_site_symmetry_multiplicity
 _atom_site_fract_x
 _atom_site_fract_y
 _atom_site_fract_z
 _atom_site_occupancy
  Tb  Tb0  1  0.999657  0.326049  0.750000  1
  Tb  Tb1  1  0.670944  0.996084  0.250000  1
  Tb  Tb2  1  0.329446  0.005927  0.750000  1
  Th  Th3  1  0.994946  0.670093  0.250000  1
  Al  Al4  1  0.002720  0.331191  0.070520  1
  Al  Al5  1  0.999714  0.665043  0.920572  1
  Al  Al6  1  0.999714  0.665043  0.579428  1
  Al  Al7  1  0.339317  0.005400  0.429733  1
  Al  Al8  1  0.002720  0.331191  0.429480  1
  Al  Al9  1  0.664435  0.999072  0.574762  1
  Al  Al10  1  0.664435  0.999072  0.925238  1
  Al  Al11  1  0.339317  0.005400  0.070267  1
  Al  Al12  1  0.332765  0.333347  0.559429  1
  Al  Al13  1  0.662908  0.666018  0.453735  1
  Al  Al14  1  0.662908  0.666018  0.046265  1
  Al  Al15  1  0.332765  0.333347  0.940571  1
  Al  Al16  1  0.448792  0.661094  0.750000  1
  Ga  Ga17  1  0.131104  0.133962  0.250000  1
  Ga  Ga18  1  0.870342  0.872117  0.750000  1
  Ga  Ga19  1  0.344975  0.548273  0.250000  1
  Ga  Ga20  1  0.657765  0.450824  0.750000  1
  Ga  Ga21  1  0.542544  0.336407  0.250000  1
  Ir  Ir22  1  0.673893  0.330065  0.001162  1
  Ir  Ir23  1  0.328321  0.671077  0.998291  1
  Ir  Ir24  1  0.328321  0.671077  0.501709  1
  Ir  Ir25  1  0.673893  0.330065  0.498838  1
  Ir  Ir26  1  0.000669  0.998372  0.001188  1
  Ir  Ir27  1  0.000669  0.998372  0.498812  1
