# generated using pymatgen
data_Cs2Pd2PtS4
_symmetry_space_group_name_H-M   'P 1'
_cell_length_a   9.02591316
_cell_length_b   7.91761249
_cell_length_c   6.40629113
_cell_angle_alpha   77.32331848
_cell_angle_beta   58.85111307
_cell_angle_gamma   42.58880838
_symmetry_Int_Tables_number   1
_chemical_formula_structural   Cs2Pd2PtS4
_chemical_formula_sum   'Cs2 Pd2 Pt1 S4'
_cell_volume   254.65091265
_cell_formula_units_Z   1
loop_
 _symmetry_equiv_pos_site_id
 _symmetry_equiv_pos_as_xyz
  1  'x, y, z'
loop_
 _atom_site_type_symbol
 _atom_site_label
 _atom_site_symmetry_multiplicity
 _atom_site_fract_x
 _atom_site_fract_y
 _atom_site_fract_z
 _atom_site_occupancy
  Cs  Cs0  1  0.657696  0.657696  0.342304  1
  Cs  Cs1  1  0.342304  0.342304  0.657696  1
  Pd  Pd2  1  0.500000  0.500000  0.000000  1
  Pd  Pd3  1  0.000000  0.000000  0.000000  1
  Pt  Pt4  1  0.000000  0.000000  0.500000  1
  S  S5  1  0.060461  0.731477  0.279117  1
  S  S6  1  0.731477  0.060461  0.928945  1
  S  S7  1  0.939539  0.268523  0.720883  1
  S  S8  1  0.268523  0.939539  0.071055  1
