# generated using pymatgen
data_Tb3Ho(Er2Ni)4
_symmetry_space_group_name_H-M   'P 1'
_cell_length_a   6.31617800
_cell_length_b   6.79402633
_cell_length_c   9.47609900
_cell_angle_alpha   90.00000000
_cell_angle_beta   90.00000000
_cell_angle_gamma   90.01708662
_symmetry_Int_Tables_number   1
_chemical_formula_structural   Tb3Ho(Er2Ni)4
_chemical_formula_sum   'Tb3 Ho1 Er8 Ni4'
_cell_volume   406.64099196
_cell_formula_units_Z   1
loop_
 _symmetry_equiv_pos_site_id
 _symmetry_equiv_pos_as_xyz
  1  'x, y, z'
loop_
 _atom_site_type_symbol
 _atom_site_label
 _atom_site_symmetry_multiplicity
 _atom_site_fract_x
 _atom_site_fract_y
 _atom_site_fract_z
 _atom_site_occupancy
  Tb  Tb0  1  0.861854  0.531871  0.250000  1
  Tb  Tb1  1  0.638077  0.032011  0.250000  1
  Tb  Tb2  1  0.138519  0.468201  0.750000  1
  Ho  Ho3  1  0.361647  0.967380  0.750000  1
  Er  Er4  1  0.321032  0.678587  0.065559  1
  Er  Er5  1  0.179287  0.177990  0.434449  1
  Er  Er6  1  0.678867  0.321591  0.565911  1
  Er  Er7  1  0.820498  0.821949  0.934102  1
  Er  Er8  1  0.678867  0.321591  0.934089  1
  Er  Er9  1  0.820498  0.821949  0.565898  1
  Er  Er10  1  0.321032  0.678587  0.434441  1
  Er  Er11  1  0.179287  0.177990  0.065551  1
  Ni  Ni12  1  0.056858  0.892128  0.250000  1
  Ni  Ni13  1  0.442645  0.392171  0.250000  1
  Ni  Ni14  1  0.944590  0.107125  0.750000  1
  Ni  Ni15  1  0.556444  0.608878  0.750000  1
