# generated using pymatgen
data_TbPr4CoRuO12
_symmetry_space_group_name_H-M   'P 1'
_cell_length_a   7.02957655
_cell_length_b   7.02774676
_cell_length_c   7.54536890
_cell_angle_alpha   74.18949590
_cell_angle_beta   74.22113024
_cell_angle_gamma   50.80563155
_symmetry_Int_Tables_number   1
_chemical_formula_structural   TbPr4CoRuO12
_chemical_formula_sum   'Tb1 Pr4 Co1 Ru1 O12'
_cell_volume   275.46192058
_cell_formula_units_Z   1
loop_
 _symmetry_equiv_pos_site_id
 _symmetry_equiv_pos_as_xyz
  1  'x, y, z'
loop_
 _atom_site_type_symbol
 _atom_site_label
 _atom_site_symmetry_multiplicity
 _atom_site_fract_x
 _atom_site_fract_y
 _atom_site_fract_z
 _atom_site_occupancy
  Tb  Tb0  1  0.319738  0.294767  0.354890  1
  Pr  Pr1  1  0.705645  0.681495  0.640929  1
  Pr  Pr2  1  0.697360  0.687980  0.165488  1
  Pr  Pr3  1  0.312182  0.303016  0.832319  1
  Pr  Pr4  1  0.001967  0.000143  0.498405  1
  Co  Co5  1  0.741248  0.256423  0.002696  1
  Ru  Ru6  1  0.229286  0.768314  0.003048  1
  O  O7  1  0.108780  0.589801  0.567206  1
  O  O8  1  0.981636  0.016852  0.166118  1
  O  O9  1  0.403606  0.906299  0.422208  1
  O  O10  1  0.500873  0.494821  0.175870  1
  O  O11  1  0.109419  0.576776  0.083782  1
  O  O12  1  0.922377  0.396917  0.418093  1
  O  O13  1  0.979167  0.016457  0.836258  1
  O  O14  1  0.595624  0.093663  0.570160  1
  O  O15  1  0.501331  0.496684  0.832419  1
  O  O16  1  0.574977  0.106652  0.085363  1
  O  O17  1  0.417028  0.894220  0.922072  1
  O  O18  1  0.897756  0.418717  0.922676  1
