# generated using pymatgen
data_Sm8Sc12Si15Os
_symmetry_space_group_name_H-M   'P 1'
_cell_length_a   7.17677921
_cell_length_b   7.52310126
_cell_length_c   14.11459700
_cell_angle_alpha   90.00000000
_cell_angle_beta   90.00000000
_cell_angle_gamma   90.16081762
_symmetry_Int_Tables_number   1
_chemical_formula_structural   Sm8Sc12Si15Os
_chemical_formula_sum   'Sm8 Sc12 Si15 Os1'
_cell_volume   762.06719185
_cell_formula_units_Z   1
loop_
 _symmetry_equiv_pos_site_id
 _symmetry_equiv_pos_as_xyz
  1  'x, y, z'
loop_
 _atom_site_type_symbol
 _atom_site_label
 _atom_site_symmetry_multiplicity
 _atom_site_fract_x
 _atom_site_fract_y
 _atom_site_fract_z
 _atom_site_occupancy
  Sm  Sm0  1  0.011538  0.177357  0.096737  1
  Sm  Sm1  1  0.990869  0.828748  0.902353  1
  Sm  Sm2  1  0.487535  0.674722  0.903149  1
  Sm  Sm3  1  0.990869  0.828748  0.597647  1
  Sm  Sm4  1  0.510947  0.324555  0.096705  1
  Sm  Sm5  1  0.011538  0.177357  0.403263  1
  Sm  Sm6  1  0.510947  0.324555  0.403295  1
  Sm  Sm7  1  0.487535  0.674722  0.596851  1
  Sc  Sc8  1  0.153746  0.490304  0.750000  1
  Sc  Sc9  1  0.838736  0.497042  0.250000  1
  Sc  Sc10  1  0.338793  0.003029  0.250000  1
  Sc  Sc11  1  0.670007  0.001796  0.750000  1
  Sc  Sc12  1  0.318525  0.172397  0.627390  1
  Sc  Sc13  1  0.671809  0.825395  0.373977  1
  Sc  Sc14  1  0.171613  0.677543  0.374292  1
  Sc  Sc15  1  0.671809  0.825395  0.126023  1
  Sc  Sc16  1  0.837263  0.318393  0.627459  1
  Sc  Sc17  1  0.318525  0.172397  0.872610  1
  Sc  Sc18  1  0.837263  0.318393  0.872541  1
  Sc  Sc19  1  0.171613  0.677543  0.125708  1
  Si  Si20  1  0.967922  0.878700  0.250000  1
  Si  Si21  1  0.467786  0.619290  0.250000  1
  Si  Si22  1  0.530065  0.386527  0.750000  1
  Si  Si23  1  0.287752  0.875226  0.750000  1
  Si  Si24  1  0.712031  0.124179  0.250000  1
  Si  Si25  1  0.212702  0.375635  0.250000  1
  Si  Si26  1  0.779169  0.622785  0.750000  1
  Si  Si27  1  0.156235  0.468667  0.537010  1
  Si  Si28  1  0.847513  0.536760  0.461368  1
  Si  Si29  1  0.347934  0.964460  0.460077  1
  Si  Si30  1  0.847513  0.536760  0.038632  1
  Si  Si31  1  0.653009  0.034471  0.538271  1
  Si  Si32  1  0.156235  0.468667  0.962990  1
  Si  Si33  1  0.653009  0.034471  0.961729  1
  Si  Si34  1  0.347934  0.964460  0.039923  1
  Os  Os35  1  0.031714  0.118554  0.750000  1
