# generated using pymatgen
data_CsHf2(PO4)3
_symmetry_space_group_name_H-M   'P 1'
_cell_length_a   8.59077839
_cell_length_b   8.59077708
_cell_length_c   9.72326300
_cell_angle_alpha   90.00000000
_cell_angle_beta   116.21648832
_cell_angle_gamma   60.00000184
_symmetry_Int_Tables_number   1
_chemical_formula_structural   CsHf2(PO4)3
_chemical_formula_sum   'Cs2 Hf4 P6 O24'
_cell_volume   534.51840586
_cell_formula_units_Z   2
loop_
 _symmetry_equiv_pos_site_id
 _symmetry_equiv_pos_as_xyz
  1  'x, y, z'
loop_
 _atom_site_type_symbol
 _atom_site_label
 _atom_site_symmetry_multiplicity
 _atom_site_fract_x
 _atom_site_fract_y
 _atom_site_fract_z
 _atom_site_occupancy
  Cs  Cs0  1  0.000000  0.000000  0.000000  1
  Cs  Cs1  1  0.000000  0.500000  0.500000  1
  Hf  Hf2  1  0.693070  0.653465  0.039604  1
  Hf  Hf3  1  0.306930  0.846535  0.460395  1
  Hf  Hf4  1  0.693069  0.153466  0.539605  1
  Hf  Hf5  1  0.306931  0.346535  0.960395  1
  P  P6  1  0.782464  0.250001  0.250000  1
  P  P7  1  0.499999  0.967536  0.250000  1
  P  P8  1  0.217536  0.532465  0.250000  1
  P  P9  1  0.782464  0.467536  0.750000  1
  P  P10  1  0.500000  0.032464  0.750000  1
  P  P11  1  0.217535  0.750000  0.750000  1
  O  O12  1  0.624066  0.227591  0.108910  1
  O  O13  1  0.336501  0.148343  0.108910  1
  O  O14  1  0.257253  0.515156  0.108910  1
  O  O15  1  0.766383  0.425947  0.187924  1
  O  O16  1  0.613872  0.807670  0.187924  1
  O  O17  1  0.995594  0.578459  0.187924  1
  O  O18  1  0.386129  0.921542  0.312076  1
  O  O19  1  0.233617  0.692330  0.312076  1
  O  O20  1  0.004406  0.074052  0.312076  1
  O  O21  1  0.742747  0.272409  0.391091  1
  O  O22  1  0.663499  0.984845  0.391091  1
  O  O23  1  0.375934  0.351656  0.391091  1
  O  O24  1  0.624065  0.648345  0.608909  1
  O  O25  1  0.336500  0.015156  0.608909  1
  O  O26  1  0.257253  0.727591  0.608909  1
  O  O27  1  0.766382  0.307671  0.687923  1
  O  O28  1  0.613871  0.078459  0.687923  1
  O  O29  1  0.995592  0.925949  0.687923  1
  O  O30  1  0.386129  0.192330  0.812077  1
  O  O31  1  0.233618  0.574052  0.812077  1
  O  O32  1  0.004407  0.421541  0.812077  1
  O  O33  1  0.742746  0.484844  0.891091  1
  O  O34  1  0.663500  0.851657  0.891091  1
  O  O35  1  0.375935  0.772409  0.891091  1
