# generated using pymatgen
data_Zr9Ta2Ir2O3
_symmetry_space_group_name_H-M   'P 1'
_cell_length_a   8.56611400
_cell_length_b   8.65570922
_cell_length_c   8.66954700
_cell_angle_alpha   90.00000000
_cell_angle_beta   90.00000000
_cell_angle_gamma   119.65731712
_symmetry_Int_Tables_number   1
_chemical_formula_structural   Zr9Ta2Ir2O3
_chemical_formula_sum   'Zr18 Ta4 Ir4 O6'
_cell_volume   558.60249863
_cell_formula_units_Z   2
loop_
 _symmetry_equiv_pos_site_id
 _symmetry_equiv_pos_as_xyz
  1  'x, y, z'
loop_
 _atom_site_type_symbol
 _atom_site_label
 _atom_site_symmetry_multiplicity
 _atom_site_fract_x
 _atom_site_fract_y
 _atom_site_fract_z
 _atom_site_occupancy
  Zr  Zr0  1  0.452515  0.905022  0.250000  1
  Zr  Zr1  1  0.547485  0.094978  0.750000  1
  Zr  Zr2  1  0.093966  0.546309  0.250000  1
  Zr  Zr3  1  0.906034  0.453691  0.750000  1
  Zr  Zr4  1  0.452329  0.546314  0.250000  1
  Zr  Zr5  1  0.547671  0.453686  0.750000  1
  Zr  Zr6  1  0.203011  0.406020  0.561126  1
  Zr  Zr7  1  0.796989  0.593980  0.438874  1
  Zr  Zr8  1  0.584382  0.790431  0.564773  1
  Zr  Zr9  1  0.796989  0.593980  0.061126  1
  Zr  Zr10  1  0.415618  0.209569  0.435227  1
  Zr  Zr11  1  0.203011  0.406020  0.938874  1
  Zr  Zr12  1  0.206049  0.790433  0.564765  1
  Zr  Zr13  1  0.415618  0.209569  0.064773  1
  Zr  Zr14  1  0.793951  0.209567  0.435235  1
  Zr  Zr15  1  0.584382  0.790431  0.935227  1
  Zr  Zr16  1  0.793951  0.209567  0.064765  1
  Zr  Zr17  1  0.206049  0.790433  0.935235  1
  Ta  Ta18  1  0.107975  0.215957  0.250000  1
  Ta  Ta19  1  0.892025  0.784043  0.750000  1
  Ta  Ta20  1  0.000000  0.000000  0.000000  1
  Ta  Ta21  1  0.000000  0.000000  0.500000  1
  Ir  Ir22  1  0.771467  0.890228  0.250000  1
  Ir  Ir23  1  0.228533  0.109772  0.750000  1
  Ir  Ir24  1  0.118761  0.890227  0.250000  1
  Ir  Ir25  1  0.881239  0.109773  0.750000  1
  O  O26  1  0.500000  0.000000  0.000000  1
  O  O27  1  0.000000  0.500000  0.000000  1
  O  O28  1  0.500000  0.000000  0.500000  1
  O  O29  1  0.500000  0.500000  0.000000  1
  O  O30  1  0.000000  0.500000  0.500000  1
  O  O31  1  0.500000  0.500000  0.500000  1
