# generated using pymatgen
data_Gd8Re(TcB)12
_symmetry_space_group_name_H-M   'P 1'
_cell_length_a   7.78919220
_cell_length_b   7.78919159
_cell_length_c   7.78919200
_cell_angle_alpha   87.16453315
_cell_angle_beta   87.16454074
_cell_angle_gamma   87.16453445
_symmetry_Int_Tables_number   1
_chemical_formula_structural   Gd8Re(TcB)12
_chemical_formula_sum   'Gd8 Re1 Tc12 B12'
_cell_volume   470.90159235
_cell_formula_units_Z   1
loop_
 _symmetry_equiv_pos_site_id
 _symmetry_equiv_pos_as_xyz
  1  'x, y, z'
loop_
 _atom_site_type_symbol
 _atom_site_label
 _atom_site_symmetry_multiplicity
 _atom_site_fract_x
 _atom_site_fract_y
 _atom_site_fract_z
 _atom_site_occupancy
  Gd  Gd0  1  0.643346  0.643393  0.643354  1
  Gd  Gd1  1  0.356654  0.356607  0.356646  1
  Gd  Gd2  1  0.185394  0.185527  0.682983  1
  Gd  Gd3  1  0.683117  0.185310  0.185439  1
  Gd  Gd4  1  0.185417  0.683022  0.185418  1
  Gd  Gd5  1  0.814606  0.814473  0.317017  1
  Gd  Gd6  1  0.316883  0.814690  0.814561  1
  Gd  Gd7  1  0.814583  0.316978  0.814582  1
  Re  Re8  1  0.000000  0.000000  0.000000  1
  Tc  Tc9  1  0.595524  0.065273  0.595491  1
  Tc  Tc10  1  0.595536  0.595487  0.065327  1
  Tc  Tc11  1  0.065266  0.595505  0.595475  1
  Tc  Tc12  1  0.404476  0.934727  0.404509  1
  Tc  Tc13  1  0.404464  0.404513  0.934673  1
  Tc  Tc14  1  0.934734  0.404495  0.404525  1
  Tc  Tc15  1  0.924525  0.924542  0.672353  1
  Tc  Tc16  1  0.672368  0.924416  0.924424  1
  Tc  Tc17  1  0.924450  0.672464  0.924330  1
  Tc  Tc18  1  0.075475  0.075458  0.327647  1
  Tc  Tc19  1  0.327632  0.075584  0.075576  1
  Tc  Tc20  1  0.075550  0.327536  0.075670  1
  B  B21  1  0.151807  0.848170  0.499976  1
  B  B22  1  0.499983  0.151823  0.848132  1
  B  B23  1  0.848185  0.499984  0.151807  1
  B  B24  1  0.500017  0.848177  0.151868  1
  B  B25  1  0.151815  0.500016  0.848193  1
  B  B26  1  0.848193  0.151830  0.500024  1
  B  B27  1  0.670735  0.499984  0.329290  1
  B  B28  1  0.329275  0.670716  0.499995  1
  B  B29  1  0.500006  0.329273  0.670706  1
  B  B30  1  0.329265  0.500016  0.670710  1
  B  B31  1  0.670725  0.329284  0.500005  1
  B  B32  1  0.499994  0.670727  0.329294  1
