# generated using pymatgen
data_Tb4Lu(GeB4)2
_symmetry_space_group_name_H-M   'P 1'
_cell_length_a   7.25256800
_cell_length_b   7.25256800
_cell_length_c   8.13205100
_cell_angle_alpha   90.00000000
_cell_angle_beta   90.00000000
_cell_angle_gamma   90.00000000
_symmetry_Int_Tables_number   1
_chemical_formula_structural   Tb4Lu(GeB4)2
_chemical_formula_sum   'Tb8 Lu2 Ge4 B16'
_cell_volume   427.74378937
_cell_formula_units_Z   2
loop_
 _symmetry_equiv_pos_site_id
 _symmetry_equiv_pos_as_xyz
  1  'x, y, z'
loop_
 _atom_site_type_symbol
 _atom_site_label
 _atom_site_symmetry_multiplicity
 _atom_site_fract_x
 _atom_site_fract_y
 _atom_site_fract_z
 _atom_site_occupancy
  Tb  Tb0  1  0.680239  0.180239  0.222973  1
  Tb  Tb1  1  0.319761  0.819761  0.777027  1
  Tb  Tb2  1  0.319761  0.819761  0.222973  1
  Tb  Tb3  1  0.819761  0.680239  0.222973  1
  Tb  Tb4  1  0.819761  0.680239  0.777027  1
  Tb  Tb5  1  0.680239  0.180239  0.777027  1
  Tb  Tb6  1  0.180239  0.319761  0.777027  1
  Tb  Tb7  1  0.180239  0.319761  0.222973  1
  Lu  Lu8  1  0.000000  0.000000  0.500000  1
  Lu  Lu9  1  0.500000  0.500000  0.500000  1
  Ge  Ge10  1  0.120862  0.620862  0.500000  1
  Ge  Ge11  1  0.879138  0.379138  0.500000  1
  Ge  Ge12  1  0.379138  0.120862  0.500000  1
  Ge  Ge13  1  0.620862  0.879138  0.500000  1
  B  B14  1  0.172099  0.039375  0.000000  1
  B  B15  1  0.827901  0.960625  0.000000  1
  B  B16  1  0.960625  0.172099  0.000000  1
  B  B17  1  0.327901  0.539375  0.000000  1
  B  B18  1  0.039375  0.827901  0.000000  1
  B  B19  1  0.672099  0.460625  0.000000  1
  B  B20  1  0.539375  0.672099  0.000000  1
  B  B21  1  0.460625  0.327901  0.000000  1
  B  B22  1  0.090227  0.590227  0.000000  1
  B  B23  1  0.909773  0.409773  0.000000  1
  B  B24  1  0.409773  0.090227  0.000000  1
  B  B25  1  0.590227  0.909773  0.000000  1
  B  B26  1  0.000000  0.000000  0.162142  1
  B  B27  1  0.000000  0.000000  0.837858  1
  B  B28  1  0.500000  0.500000  0.837858  1
  B  B29  1  0.500000  0.500000  0.162142  1
