# generated using pymatgen
data_Li2LaTbSi4
_symmetry_space_group_name_H-M   'P 1'
_cell_length_a   3.87435700
_cell_length_b   7.74245461
_cell_length_c   10.46354498
_cell_angle_alpha   89.62788851
_cell_angle_beta   90.00000000
_cell_angle_gamma   90.00000000
_symmetry_Int_Tables_number   1
_chemical_formula_structural   Li2LaTbSi4
_chemical_formula_sum   'Li4 La2 Tb2 Si8'
_cell_volume   313.86868667
_cell_formula_units_Z   2
loop_
 _symmetry_equiv_pos_site_id
 _symmetry_equiv_pos_as_xyz
  1  'x, y, z'
loop_
 _atom_site_type_symbol
 _atom_site_label
 _atom_site_symmetry_multiplicity
 _atom_site_fract_x
 _atom_site_fract_y
 _atom_site_fract_z
 _atom_site_occupancy
  Li  Li0  1  0.250000  0.996464  0.388831  1
  Li  Li1  1  0.750000  0.003536  0.611169  1
  Li  Li2  1  0.250000  0.491891  0.107225  1
  Li  Li3  1  0.750000  0.508109  0.892775  1
  La  La4  1  0.250000  0.640066  0.637010  1
  La  La5  1  0.750000  0.359934  0.362990  1
  Tb  Tb6  1  0.250000  0.132376  0.865579  1
  Tb  Tb7  1  0.750000  0.867624  0.134421  1
  Si  Si8  1  0.750000  0.264715  0.063802  1
  Si  Si9  1  0.250000  0.735285  0.936198  1
  Si  Si10  1  0.750000  0.778767  0.423173  1
  Si  Si11  1  0.250000  0.221233  0.576827  1
  Si  Si12  1  0.750000  0.842357  0.826944  1
  Si  Si13  1  0.250000  0.157643  0.173056  1
  Si  Si14  1  0.750000  0.330133  0.683982  1
  Si  Si15  1  0.250000  0.669867  0.316018  1
