# generated using pymatgen
data_AgHgF6
_symmetry_space_group_name_H-M   'P 1'
_cell_length_a   5.53541391
_cell_length_b   5.60106062
_cell_length_c   5.97682729
_cell_angle_alpha   89.94076527
_cell_angle_beta   61.27417170
_cell_angle_gamma   61.60599962
_symmetry_Int_Tables_number   1
_chemical_formula_structural   AgHgF6
_chemical_formula_sum   'Ag1 Hg1 F6'
_cell_volume   136.59330495
_cell_formula_units_Z   1
loop_
 _symmetry_equiv_pos_site_id
 _symmetry_equiv_pos_as_xyz
  1  'x, y, z'
loop_
 _atom_site_type_symbol
 _atom_site_label
 _atom_site_symmetry_multiplicity
 _atom_site_fract_x
 _atom_site_fract_y
 _atom_site_fract_z
 _atom_site_occupancy
  Ag  Ag0  1  0.000000  0.000000  0.000000  1
  Hg  Hg1  1  0.000000  0.500000  0.500000  1
  F  F2  1  0.889765  0.880316  0.764333  1
  F  F3  1  0.110235  0.119684  0.235667  1
  F  F4  1  0.875088  0.770414  0.231167  1
  F  F5  1  0.124912  0.229586  0.768833  1
  F  F6  1  0.501842  0.633472  0.748356  1
  F  F7  1  0.498158  0.366528  0.251644  1
