# generated using pymatgen
data_Dy4AlRu
_symmetry_space_group_name_H-M   'P 1'
_cell_length_a   9.51465394
_cell_length_b   9.51465362
_cell_length_c   9.51465400
_cell_angle_alpha   59.99999867
_cell_angle_beta   59.99999978
_cell_angle_gamma   59.99999874
_symmetry_Int_Tables_number   1
_chemical_formula_structural   Dy4AlRu
_chemical_formula_sum   'Dy16 Al4 Ru4'
_cell_volume   609.06546092
_cell_formula_units_Z   4
loop_
 _symmetry_equiv_pos_site_id
 _symmetry_equiv_pos_as_xyz
  1  'x, y, z'
loop_
 _atom_site_type_symbol
 _atom_site_label
 _atom_site_symmetry_multiplicity
 _atom_site_fract_x
 _atom_site_fract_y
 _atom_site_fract_z
 _atom_site_occupancy
  Dy  Dy0  1  0.601076  0.601076  0.601076  1
  Dy  Dy1  1  0.601076  0.601076  0.196771  1
  Dy  Dy2  1  0.601076  0.196771  0.601076  1
  Dy  Dy3  1  0.196771  0.601076  0.601076  1
  Dy  Dy4  1  0.056139  0.443861  0.443861  1
  Dy  Dy5  1  0.443861  0.056139  0.056139  1
  Dy  Dy6  1  0.443861  0.056139  0.443861  1
  Dy  Dy7  1  0.056139  0.443861  0.056139  1
  Dy  Dy8  1  0.443861  0.443861  0.056139  1
  Dy  Dy9  1  0.056139  0.056139  0.443861  1
  Dy  Dy10  1  0.189844  0.810156  0.810156  1
  Dy  Dy11  1  0.810156  0.189844  0.189844  1
  Dy  Dy12  1  0.810156  0.189844  0.810156  1
  Dy  Dy13  1  0.189844  0.810156  0.189844  1
  Dy  Dy14  1  0.810156  0.810156  0.189844  1
  Dy  Dy15  1  0.189844  0.189844  0.810156  1
  Al  Al16  1  0.826775  0.826775  0.826775  1
  Al  Al17  1  0.826775  0.826775  0.519674  1
  Al  Al18  1  0.826775  0.519674  0.826775  1
  Al  Al19  1  0.519674  0.826775  0.826775  1
  Ru  Ru20  1  0.389798  0.389798  0.389798  1
  Ru  Ru21  1  0.389798  0.389798  0.830607  1
  Ru  Ru22  1  0.389798  0.830607  0.389798  1
  Ru  Ru23  1  0.830607  0.389798  0.389798  1
