# generated using pymatgen
data_Tm3Fe8Co
_symmetry_space_group_name_H-M   'P 1'
_cell_length_a   8.61124315
_cell_length_b   8.61124299
_cell_length_c   8.61124195
_cell_angle_alpha   34.16130467
_cell_angle_beta   34.16130818
_cell_angle_gamma   34.16130313
_symmetry_Int_Tables_number   1
_chemical_formula_structural   Tm3Fe8Co
_chemical_formula_sum   'Tm3 Fe8 Co1'
_cell_volume   179.52007844
_cell_formula_units_Z   1
loop_
 _symmetry_equiv_pos_site_id
 _symmetry_equiv_pos_as_xyz
  1  'x, y, z'
loop_
 _atom_site_type_symbol
 _atom_site_label
 _atom_site_symmetry_multiplicity
 _atom_site_fract_x
 _atom_site_fract_y
 _atom_site_fract_z
 _atom_site_occupancy
  Tm  Tm0  1  0.141877  0.141877  0.141877  1
  Tm  Tm1  1  0.858123  0.858123  0.858123  1
  Tm  Tm2  1  0.000000  0.000000  0.000000  1
  Fe  Fe3  1  0.332910  0.332910  0.332910  1
  Fe  Fe4  1  0.667090  0.667090  0.667090  1
  Fe  Fe5  1  0.582133  0.081636  0.582130  1
  Fe  Fe6  1  0.582132  0.582132  0.081634  1
  Fe  Fe7  1  0.081636  0.582133  0.582130  1
  Fe  Fe8  1  0.918365  0.417868  0.417868  1
  Fe  Fe9  1  0.417867  0.417867  0.918367  1
  Fe  Fe10  1  0.417868  0.918365  0.417868  1
  Co  Co11  1  0.500000  0.500000  0.500000  1
