# generated using pymatgen
data_Ca20Cd3Ga8Sn
_symmetry_space_group_name_H-M   'P 1'
_cell_length_a   8.10900700
_cell_length_b   8.10900700
_cell_length_c   14.81264900
_cell_angle_alpha   90.00000000
_cell_angle_beta   90.00000000
_cell_angle_gamma   90.00000000
_symmetry_Int_Tables_number   1
_chemical_formula_structural   Ca20Cd3Ga8Sn
_chemical_formula_sum   'Ca20 Cd3 Ga8 Sn1'
_cell_volume   974.02046656
_cell_formula_units_Z   1
loop_
 _symmetry_equiv_pos_site_id
 _symmetry_equiv_pos_as_xyz
  1  'x, y, z'
loop_
 _atom_site_type_symbol
 _atom_site_label
 _atom_site_symmetry_multiplicity
 _atom_site_fract_x
 _atom_site_fract_y
 _atom_site_fract_z
 _atom_site_occupancy
  Ca  Ca0  1  0.677507  0.167091  0.106799  1
  Ca  Ca1  1  0.171132  0.671141  0.609825  1
  Ca  Ca2  1  0.322493  0.832909  0.106799  1
  Ca  Ca3  1  0.828868  0.328859  0.609825  1
  Ca  Ca4  1  0.832909  0.677507  0.106799  1
  Ca  Ca5  1  0.328859  0.171132  0.609825  1
  Ca  Ca6  1  0.167091  0.322493  0.106799  1
  Ca  Ca7  1  0.671141  0.828868  0.609825  1
  Ca  Ca8  1  0.832909  0.322493  0.893201  1
  Ca  Ca9  1  0.328859  0.828868  0.390175  1
  Ca  Ca10  1  0.167091  0.677507  0.893201  1
  Ca  Ca11  1  0.671141  0.171132  0.390175  1
  Ca  Ca12  1  0.677507  0.832909  0.893201  1
  Ca  Ca13  1  0.171132  0.328859  0.390175  1
  Ca  Ca14  1  0.322493  0.167091  0.893201  1
  Ca  Ca15  1  0.828868  0.671141  0.390175  1
  Ca  Ca16  1  0.500000  0.500000  0.754480  1
  Ca  Ca17  1  0.000000  0.000000  0.248011  1
  Ca  Ca18  1  0.000000  0.000000  0.751989  1
  Ca  Ca19  1  0.500000  0.500000  0.245520  1
  Cd  Cd20  1  0.500000  0.500000  0.500000  1
  Cd  Cd21  1  0.500000  0.500000  0.000000  1
  Cd  Cd22  1  0.000000  0.000000  0.500000  1
  Ga  Ga23  1  0.611952  0.114555  0.751875  1
  Ga  Ga24  1  0.114555  0.611952  0.248125  1
  Ga  Ga25  1  0.885445  0.388048  0.248125  1
  Ga  Ga26  1  0.388048  0.885445  0.751875  1
  Ga  Ga27  1  0.885445  0.611952  0.751875  1
  Ga  Ga28  1  0.388048  0.114555  0.248125  1
  Ga  Ga29  1  0.114555  0.388048  0.751875  1
  Ga  Ga30  1  0.611952  0.885445  0.248125  1
  Sn  Sn31  1  0.000000  0.000000  0.000000  1
