# generated using pymatgen
data_Dy7Ho3Si5Bi
_symmetry_space_group_name_H-M   'P 1'
_cell_length_a   8.53451102
_cell_length_b   8.57879612
_cell_length_c   6.36540000
_cell_angle_alpha   89.99754484
_cell_angle_beta   89.99915410
_cell_angle_gamma   119.83624395
_symmetry_Int_Tables_number   1
_chemical_formula_structural   Dy7Ho3Si5Bi
_chemical_formula_sum   'Dy7 Ho3 Si5 Bi1'
_cell_volume   404.27379744
_cell_formula_units_Z   1
loop_
 _symmetry_equiv_pos_site_id
 _symmetry_equiv_pos_as_xyz
  1  'x, y, z'
loop_
 _atom_site_type_symbol
 _atom_site_label
 _atom_site_symmetry_multiplicity
 _atom_site_fract_x
 _atom_site_fract_y
 _atom_site_fract_z
 _atom_site_occupancy
  Dy  Dy0  1  0.984774  0.744864  0.750047  1
  Dy  Dy1  1  0.998252  0.243345  0.249938  1
  Dy  Dy2  1  0.754960  0.756593  0.249921  1
  Dy  Dy3  1  0.767674  0.000047  0.750054  1
  Dy  Dy4  1  0.239941  0.255081  0.750065  1
  Dy  Dy5  1  0.240367  0.000040  0.249964  1
  Dy  Dy6  1  0.330706  0.653944  0.495002  1
  Ho  Ho7  1  0.676842  0.346134  0.004985  1
  Ho  Ho8  1  0.676872  0.346206  0.495016  1
  Ho  Ho9  1  0.330691  0.653834  0.005007  1
  Si  Si10  1  0.393398  0.390654  0.249757  1
  Si  Si11  1  0.002305  0.609123  0.249804  1
  Si  Si12  1  0.998496  0.394476  0.750203  1
  Si  Si13  1  0.604230  0.605294  0.750221  1
  Si  Si14  1  0.606918  0.000162  0.249863  1
  Bi  Bi15  1  0.393575  0.000201  0.750155  1
