# generated using pymatgen
data_Y4Co16Ni(P4Ru)3
_symmetry_space_group_name_H-M   'P 1'
_cell_length_a   3.69417300
_cell_length_b   10.37127754
_cell_length_c   11.78928018
_cell_angle_alpha   89.85678786
_cell_angle_beta   90.00000000
_cell_angle_gamma   90.00000000
_symmetry_Int_Tables_number   1
_chemical_formula_structural   Y4Co16Ni(P4Ru)3
_chemical_formula_sum   'Y4 Co16 Ni1 P12 Ru3'
_cell_volume   451.68474058
_cell_formula_units_Z   1
loop_
 _symmetry_equiv_pos_site_id
 _symmetry_equiv_pos_as_xyz
  1  'x, y, z'
loop_
 _atom_site_type_symbol
 _atom_site_label
 _atom_site_symmetry_multiplicity
 _atom_site_fract_x
 _atom_site_fract_y
 _atom_site_fract_z
 _atom_site_occupancy
  Y  Y0  1  0.250000  0.913703  0.204264  1
  Y  Y1  1  0.750000  0.082594  0.798358  1
  Y  Y2  1  0.750000  0.414002  0.295866  1
  Y  Y3  1  0.250000  0.585199  0.703928  1
  Co  Co4  1  0.250000  0.091947  0.990057  1
  Co  Co5  1  0.750000  0.907611  0.012500  1
  Co  Co6  1  0.750000  0.591795  0.510818  1
  Co  Co7  1  0.250000  0.408727  0.489308  1
  Co  Co8  1  0.250000  0.278940  0.677133  1
  Co  Co9  1  0.750000  0.719640  0.324086  1
  Co  Co10  1  0.750000  0.777540  0.822072  1
  Co  Co11  1  0.250000  0.221425  0.176682  1
  Co  Co12  1  0.250000  0.617443  0.199331  1
  Co  Co13  1  0.750000  0.386159  0.798554  1
  Co  Co14  1  0.750000  0.113560  0.297172  1
  Co  Co15  1  0.250000  0.886783  0.702211  1
  Co  Co16  1  0.250000  0.035165  0.430781  1
  Co  Co17  1  0.750000  0.965175  0.568438  1
  Co  Co18  1  0.750000  0.535530  0.068569  1
  Co  Co19  1  0.250000  0.466914  0.930731  1
  Ni  Ni20  1  0.250000  0.716037  0.990871  1
  P  P21  1  0.250000  0.079859  0.612349  1
  P  P22  1  0.750000  0.919412  0.387690  1
  P  P23  1  0.750000  0.581769  0.888836  1
  P  P24  1  0.250000  0.421257  0.112011  1
  P  P25  1  0.250000  0.228557  0.366886  1
  P  P26  1  0.750000  0.771830  0.633599  1
  P  P27  1  0.750000  0.729139  0.131086  1
  P  P28  1  0.250000  0.271778  0.867703  1
  P  P29  1  0.250000  0.897895  0.893158  1
  P  P30  1  0.750000  0.095756  0.108517  1
  P  P31  1  0.750000  0.403753  0.610138  1
  P  P32  1  0.250000  0.597185  0.388896  1
  Ru  Ru33  1  0.250000  0.783983  0.491280  1
  Ru  Ru34  1  0.750000  0.216208  0.508283  1
  Ru  Ru35  1  0.750000  0.285736  0.007839  1
