# generated using pymatgen
data_Ba4SiSb3Pt4
_symmetry_space_group_name_H-M   'P 1'
_cell_length_a   7.05617953
_cell_length_b   7.05617953
_cell_length_c   7.05617953
_cell_angle_alpha   90.21345253
_cell_angle_beta   89.78654747
_cell_angle_gamma   89.78654747
_symmetry_Int_Tables_number   1
_chemical_formula_structural   Ba4SiSb3Pt4
_chemical_formula_sum   'Ba4 Si1 Sb3 Pt4'
_cell_volume   351.31751474
_cell_formula_units_Z   1
loop_
 _symmetry_equiv_pos_site_id
 _symmetry_equiv_pos_as_xyz
  1  'x, y, z'
loop_
 _atom_site_type_symbol
 _atom_site_label
 _atom_site_symmetry_multiplicity
 _atom_site_fract_x
 _atom_site_fract_y
 _atom_site_fract_z
 _atom_site_occupancy
  Ba  Ba0  1  0.882071  0.878477  0.875895  1
  Ba  Ba1  1  0.624105  0.117929  0.378477  1
  Ba  Ba2  1  0.121523  0.375895  0.617929  1
  Ba  Ba3  1  0.380631  0.619369  0.119369  1
  Si  Si4  1  0.092109  0.907891  0.407891  1
  Sb  Sb5  1  0.580085  0.588243  0.575881  1
  Sb  Sb6  1  0.924119  0.419915  0.088243  1
  Sb  Sb7  1  0.411757  0.075881  0.919915  1
  Pt  Pt8  1  0.153736  0.140145  0.186310  1
  Pt  Pt9  1  0.313690  0.846264  0.640145  1
  Pt  Pt10  1  0.859855  0.686310  0.346264  1
  Pt  Pt11  1  0.656321  0.343679  0.843679  1
