# generated using pymatgen
data_Yb4As6Ir3Rh4
_symmetry_space_group_name_H-M   'P 1'
_cell_length_a   7.22702079
_cell_length_b   7.22640464
_cell_length_c   7.22702108
_cell_angle_alpha   109.71288681
_cell_angle_beta   108.99244948
_cell_angle_gamma   109.71288917
_symmetry_Int_Tables_number   1
_chemical_formula_structural   Yb4As6Ir3Rh4
_chemical_formula_sum   'Yb4 As6 Ir3 Rh4'
_cell_volume   290.52092387
_cell_formula_units_Z   1
loop_
 _symmetry_equiv_pos_site_id
 _symmetry_equiv_pos_as_xyz
  1  'x, y, z'
loop_
 _atom_site_type_symbol
 _atom_site_label
 _atom_site_symmetry_multiplicity
 _atom_site_fract_x
 _atom_site_fract_y
 _atom_site_fract_z
 _atom_site_occupancy
  Yb  Yb0  1  0.499131  0.500000  0.500869  1
  Yb  Yb1  1  0.999131  0.500000  0.000869  1
  Yb  Yb2  1  0.499063  0.000000  0.997316  1
  Yb  Yb3  1  0.002684  0.000000  0.500937  1
  As  As4  1  0.681599  0.000000  0.681054  1
  As  As5  1  0.680968  0.681336  0.000368  1
  As  As6  1  0.319056  0.319447  0.000391  1
  As  As7  1  0.999609  0.680553  0.680944  1
  As  As8  1  0.999632  0.318664  0.319032  1
  As  As9  1  0.318946  0.000000  0.318401  1
  Ir  Ir10  1  0.501012  0.750862  0.249850  1
  Ir  Ir11  1  0.750150  0.249138  0.498988  1
  Ir  Ir12  1  0.000202  0.000000  0.999798  1
  Rh  Rh13  1  0.249986  0.748799  0.498813  1
  Rh  Rh14  1  0.248823  0.500000  0.751177  1
  Rh  Rh15  1  0.501187  0.251201  0.750014  1
  Rh  Rh16  1  0.748823  0.500000  0.251177  1
