# generated using pymatgen
data_Ho4Hf3InPt4
_symmetry_space_group_name_H-M   'P 1'
_cell_length_a   4.59178300
_cell_length_b   7.10026729
_cell_length_c   8.23708671
_cell_angle_alpha   87.10382138
_cell_angle_beta   90.00000000
_cell_angle_gamma   90.00000000
_symmetry_Int_Tables_number   1
_chemical_formula_structural   Ho4Hf3InPt4
_chemical_formula_sum   'Ho4 Hf3 In1 Pt4'
_cell_volume   268.20978948
_cell_formula_units_Z   1
loop_
 _symmetry_equiv_pos_site_id
 _symmetry_equiv_pos_as_xyz
  1  'x, y, z'
loop_
 _atom_site_type_symbol
 _atom_site_label
 _atom_site_symmetry_multiplicity
 _atom_site_fract_x
 _atom_site_fract_y
 _atom_site_fract_z
 _atom_site_occupancy
  Ho  Ho0  1  0.250000  0.968357  0.331730  1
  Ho  Ho1  1  0.250000  0.480800  0.179743  1
  Ho  Ho2  1  0.750000  0.010949  0.670709  1
  Ho  Ho3  1  0.750000  0.529103  0.812193  1
  Hf  Hf4  1  0.250000  0.865710  0.928830  1
  Hf  Hf5  1  0.250000  0.354775  0.566487  1
  Hf  Hf6  1  0.750000  0.146148  0.078284  1
  In  In7  1  0.750000  0.647596  0.421604  1
  Pt  Pt8  1  0.250000  0.237955  0.899583  1
  Pt  Pt9  1  0.250000  0.732852  0.627072  1
  Pt  Pt10  1  0.750000  0.773055  0.089028  1
  Pt  Pt11  1  0.750000  0.252698  0.394738  1
