# generated using pymatgen
data_Ho5TmAl24Ir3Os5
_symmetry_space_group_name_H-M   'P 1'
_cell_length_a   8.77712836
_cell_length_b   8.81602251
_cell_length_c   9.54736554
_cell_angle_alpha   89.83920859
_cell_angle_beta   90.18081070
_cell_angle_gamma   119.97208780
_symmetry_Int_Tables_number   1
_chemical_formula_structural   Ho5TmAl24Ir3Os5
_chemical_formula_sum   'Ho5 Tm1 Al24 Ir3 Os5'
_cell_volume   639.96880362
_cell_formula_units_Z   1
loop_
 _symmetry_equiv_pos_site_id
 _symmetry_equiv_pos_as_xyz
  1  'x, y, z'
loop_
 _atom_site_type_symbol
 _atom_site_label
 _atom_site_symmetry_multiplicity
 _atom_site_fract_x
 _atom_site_fract_y
 _atom_site_fract_z
 _atom_site_occupancy
  Ho  Ho0  1  0.195140  0.385877  0.251157  1
  Ho  Ho1  1  0.804917  0.614049  0.748809  1
  Ho  Ho2  1  0.611140  0.808050  0.251471  1
  Ho  Ho3  1  0.389011  0.191808  0.748511  1
  Ho  Ho4  1  0.198178  0.811901  0.250078  1
  Tm  Tm5  1  0.800711  0.188702  0.750023  1
  Al  Al6  1  0.333395  0.667466  0.024500  1
  Al  Al7  1  0.666808  0.332411  0.975090  1
  Al  Al8  1  0.666276  0.332781  0.523582  1
  Al  Al9  1  0.333975  0.667060  0.476826  1
  Al  Al10  1  0.163957  0.326211  0.576816  1
  Al  Al11  1  0.835739  0.673500  0.423469  1
  Al  Al12  1  0.672762  0.835782  0.575917  1
  Al  Al13  1  0.837283  0.673620  0.076281  1
  Al  Al14  1  0.327560  0.164563  0.424387  1
  Al  Al15  1  0.162423  0.326120  0.923401  1
  Al  Al16  1  0.163994  0.836746  0.575866  1
  Al  Al17  1  0.327028  0.162757  0.075134  1
  Al  Al18  1  0.836117  0.163187  0.424703  1
  Al  Al19  1  0.673276  0.837580  0.924533  1
  Al  Al20  1  0.835857  0.162894  0.075733  1
  Al  Al21  1  0.164208  0.837035  0.923692  1
  Al  Al22  1  0.563454  0.125777  0.249542  1
  Al  Al23  1  0.437104  0.874494  0.750453  1
  Al  Al24  1  0.876282  0.438842  0.249488  1
  Al  Al25  1  0.123379  0.560616  0.750486  1
  Al  Al26  1  0.562880  0.439337  0.250326  1
  Al  Al27  1  0.437130  0.560625  0.749715  1
  Al  Al28  1  0.000666  0.001848  0.249988  1
  Al  Al29  1  0.998811  0.998671  0.750010  1
  Ir  Ir30  1  0.999906  0.499762  0.999847  1
  Ir  Ir31  1  0.500059  0.499943  0.999982  1
  Ir  Ir32  1  0.999914  0.499746  0.500139  1
  Os  Os33  1  0.500286  0.000159  0.999824  1
  Os  Os34  1  0.500287  0.000139  0.500183  1
  Os  Os35  1  0.500069  0.499933  0.500050  1
  Os  Os36  1  0.000008  0.000009  0.999909  1
  Os  Os37  1  0.000010  0.999999  0.500080  1
