# generated using pymatgen
data_Zr10AgSnBi5Pb
_symmetry_space_group_name_H-M   'P 1'
_cell_length_a   8.97892328
_cell_length_b   8.97070090
_cell_length_c   5.99387007
_cell_angle_alpha   90.01808498
_cell_angle_beta   89.99096168
_cell_angle_gamma   119.96970612
_symmetry_Int_Tables_number   1
_chemical_formula_structural   Zr10AgSnBi5Pb
_chemical_formula_sum   'Zr10 Ag1 Sn1 Bi5 Pb1'
_cell_volume   418.23566532
_cell_formula_units_Z   1
loop_
 _symmetry_equiv_pos_site_id
 _symmetry_equiv_pos_as_xyz
  1  'x, y, z'
loop_
 _atom_site_type_symbol
 _atom_site_label
 _atom_site_symmetry_multiplicity
 _atom_site_fract_x
 _atom_site_fract_y
 _atom_site_fract_z
 _atom_site_occupancy
  Zr  Zr0  1  0.667712  0.333704  0.000774  1
  Zr  Zr1  1  0.332288  0.665993  0.000774  1
  Zr  Zr2  1  0.332513  0.666275  0.499339  1
  Zr  Zr3  1  0.667487  0.333761  0.499339  1
  Zr  Zr4  1  0.721431  0.721253  0.749961  1
  Zr  Zr5  1  0.278569  0.999823  0.749961  1
  Zr  Zr6  1  0.000000  0.278712  0.749742  1
  Zr  Zr7  1  0.278431  0.279209  0.250195  1
  Zr  Zr8  1  0.721569  0.000777  0.250195  1
  Zr  Zr9  1  0.000000  0.721169  0.249852  1
  Ag  Ag10  1  0.000000  0.000241  0.499849  1
  Sn  Sn11  1  0.000000  0.000279  0.000025  1
  Bi  Bi12  1  0.382188  0.382883  0.748086  1
  Bi  Bi13  1  0.617812  0.000696  0.748086  1
  Bi  Bi14  1  0.000000  0.617058  0.748069  1
  Bi  Bi15  1  0.617595  0.617263  0.251882  1
  Bi  Bi16  1  0.382405  0.999668  0.251882  1
  Pb  Pb17  1  0.000000  0.381236  0.251991  1
