# generated using pymatgen
data_Ac11NdAu12
_symmetry_space_group_name_H-M   'P 1'
_cell_length_a   4.97442600
_cell_length_b   12.61754334
_cell_length_c   11.70550111
_cell_angle_alpha   89.94858484
_cell_angle_beta   90.00000000
_cell_angle_gamma   90.00000000
_symmetry_Int_Tables_number   1
_chemical_formula_structural   Ac11NdAu12
_chemical_formula_sum   'Ac11 Nd1 Au12'
_cell_volume   734.69589895
_cell_formula_units_Z   1
loop_
 _symmetry_equiv_pos_site_id
 _symmetry_equiv_pos_as_xyz
  1  'x, y, z'
loop_
 _atom_site_type_symbol
 _atom_site_label
 _atom_site_symmetry_multiplicity
 _atom_site_fract_x
 _atom_site_fract_y
 _atom_site_fract_z
 _atom_site_occupancy
  Ac  Ac0  1  0.250000  0.663923  0.862340  1
  Ac  Ac1  1  0.250000  0.831659  0.366463  1
  Ac  Ac2  1  0.750000  0.333940  0.136075  1
  Ac  Ac3  1  0.750000  0.169331  0.635322  1
  Ac  Ac4  1  0.250000  0.335907  0.863393  1
  Ac  Ac5  1  0.250000  0.168517  0.367566  1
  Ac  Ac6  1  0.750000  0.665909  0.134982  1
  Ac  Ac7  1  0.750000  0.830676  0.634273  1
  Ac  Ac8  1  0.250000  0.000011  0.864959  1
  Ac  Ac9  1  0.250000  0.500001  0.367208  1
  Ac  Ac10  1  0.750000  0.999895  0.135068  1
  Nd  Nd11  1  0.750000  0.500083  0.632510  1
  Au  Au12  1  0.250000  0.341836  0.587340  1
  Au  Au13  1  0.250000  0.167617  0.087914  1
  Au  Au14  1  0.750000  0.663257  0.416608  1
  Au  Au15  1  0.750000  0.832600  0.912758  1
  Au  Au16  1  0.250000  0.658444  0.586224  1
  Au  Au17  1  0.250000  0.832098  0.086599  1
  Au  Au18  1  0.750000  0.336837  0.417955  1
  Au  Au19  1  0.750000  0.167415  0.913976  1
  Au  Au20  1  0.250000  0.999942  0.586827  1
  Au  Au21  1  0.250000  0.500012  0.086685  1
  Au  Au22  1  0.750000  0.000182  0.413416  1
  Au  Au23  1  0.750000  0.499908  0.903538  1
