# generated using pymatgen
data_La4Pr6Zn4IrRu5
_symmetry_space_group_name_H-M   'P 1'
_cell_length_a   8.49169899
_cell_length_b   8.59723585
_cell_length_c   8.60957702
_cell_angle_alpha   109.56377917
_cell_angle_beta   109.49215399
_cell_angle_gamma   108.85446068
_symmetry_Int_Tables_number   1
_chemical_formula_structural   La4Pr6Zn4IrRu5
_chemical_formula_sum   'La4 Pr6 Zn4 Ir1 Ru5'
_cell_volume   486.81796523
_cell_formula_units_Z   1
loop_
 _symmetry_equiv_pos_site_id
 _symmetry_equiv_pos_as_xyz
  1  'x, y, z'
loop_
 _atom_site_type_symbol
 _atom_site_label
 _atom_site_symmetry_multiplicity
 _atom_site_fract_x
 _atom_site_fract_y
 _atom_site_fract_z
 _atom_site_occupancy
  La  La0  1  0.251497  0.690015  0.441330  1
  La  La1  1  0.752574  0.811423  0.059648  1
  La  La2  1  0.445066  0.252106  0.685739  1
  La  La3  1  0.689343  0.439057  0.250158  1
  Pr  Pr4  1  0.063312  0.747908  0.815289  1
  Pr  Pr5  1  0.817817  0.065779  0.751050  1
  Pr  Pr6  1  0.220775  0.224314  0.222847  1
  Pr  Pr7  1  0.499972  0.996041  0.276889  1
  Pr  Pr8  1  0.280455  0.503630  0.001339  1
  Pr  Pr9  1  0.999577  0.279109  0.501743  1
  Zn  Zn10  1  0.590194  0.589714  0.588534  1
  Zn  Zn11  1  0.499392  0.000794  0.912763  1
  Zn  Zn12  1  0.915200  0.498368  0.000176  1
  Zn  Zn13  1  0.000183  0.913149  0.499160  1
  Ir  Ir14  1  0.246158  0.127410  0.870483  1
  Ru  Ru15  1  0.739221  0.365414  0.625805  1
  Ru  Ru16  1  0.869646  0.255117  0.131386  1
  Ru  Ru17  1  0.121434  0.871749  0.245445  1
  Ru  Ru18  1  0.623906  0.738855  0.369592  1
  Ru  Ru19  1  0.374277  0.630045  0.750626  1
