# generated using pymatgen
data_Ho3Hg3Pd2Rh
_symmetry_space_group_name_H-M   'P 1'
_cell_length_a   7.66802900
_cell_length_b   7.66802969
_cell_length_c   3.82337700
_cell_angle_alpha   90.00000000
_cell_angle_beta   90.00000000
_cell_angle_gamma   119.99999270
_symmetry_Int_Tables_number   1
_chemical_formula_structural   Ho3Hg3Pd2Rh
_chemical_formula_sum   'Ho3 Hg3 Pd2 Rh1'
_cell_volume   194.69075064
_cell_formula_units_Z   1
loop_
 _symmetry_equiv_pos_site_id
 _symmetry_equiv_pos_as_xyz
  1  'x, y, z'
loop_
 _atom_site_type_symbol
 _atom_site_label
 _atom_site_symmetry_multiplicity
 _atom_site_fract_x
 _atom_site_fract_y
 _atom_site_fract_z
 _atom_site_occupancy
  Ho  Ho0  1  0.983991  0.392343  0.500000  1
  Ho  Ho1  1  0.607657  0.591647  0.500000  1
  Ho  Ho2  1  0.408353  0.016009  0.500000  1
  Hg  Hg3  1  0.266582  0.268851  0.000000  1
  Hg  Hg4  1  0.002270  0.733418  0.000000  1
  Hg  Hg5  1  0.731149  0.997730  0.000000  1
  Pd  Pd6  1  0.333333  0.666667  0.000000  1
  Pd  Pd7  1  0.000000  0.000000  0.500000  1
  Rh  Rh8  1  0.666667  0.333333  0.000000  1
