# generated using pymatgen
data_Pr2NdIn3O9
_symmetry_space_group_name_H-M   'P 1'
_cell_length_a   6.57416100
_cell_length_b   6.57416124
_cell_length_c   12.56738500
_cell_angle_alpha   90.00000000
_cell_angle_beta   90.00000000
_cell_angle_gamma   119.99999376
_symmetry_Int_Tables_number   1
_chemical_formula_structural   Pr2NdIn3O9
_chemical_formula_sum   'Pr4 Nd2 In6 O18'
_cell_volume   470.38803467
_cell_formula_units_Z   2
loop_
 _symmetry_equiv_pos_site_id
 _symmetry_equiv_pos_as_xyz
  1  'x, y, z'
loop_
 _atom_site_type_symbol
 _atom_site_label
 _atom_site_symmetry_multiplicity
 _atom_site_fract_x
 _atom_site_fract_y
 _atom_site_fract_z
 _atom_site_occupancy
  Pr  Pr0  1  0.666667  0.333333  0.960994  1
  Pr  Pr1  1  0.333333  0.666667  0.460994  1
  Pr  Pr2  1  0.666667  0.333333  0.460994  1
  Pr  Pr3  1  0.333333  0.666667  0.960994  1
  Nd  Nd4  1  0.000000  0.000000  0.998582  1
  Nd  Nd5  1  0.000000  0.000000  0.498582  1
  In  In6  1  0.666879  0.666879  0.726824  1
  In  In7  1  0.000000  0.333121  0.726824  1
  In  In8  1  0.333121  0.333121  0.226824  1
  In  In9  1  0.000000  0.666879  0.226824  1
  In  In10  1  0.333121  0.000000  0.726824  1
  In  In11  1  0.666879  0.000000  0.226824  1
  O  O12  1  0.694123  0.694123  0.894818  1
  O  O13  1  0.000000  0.305877  0.894818  1
  O  O14  1  0.305877  0.305877  0.394818  1
  O  O15  1  0.000000  0.694123  0.394818  1
  O  O16  1  0.305877  0.000000  0.894818  1
  O  O17  1  0.694123  0.000000  0.394818  1
  O  O18  1  0.642871  0.642871  0.559923  1
  O  O19  1  0.000000  0.357129  0.559923  1
  O  O20  1  0.357129  0.357129  0.059923  1
  O  O21  1  0.000000  0.642871  0.059923  1
  O  O22  1  0.357129  0.000000  0.559923  1
  O  O23  1  0.642871  0.000000  0.059923  1
  O  O24  1  0.000000  0.000000  0.698785  1
  O  O25  1  0.000000  0.000000  0.198785  1
  O  O26  1  0.666667  0.333333  0.750918  1
  O  O27  1  0.333333  0.666667  0.250918  1
  O  O28  1  0.666667  0.333333  0.250918  1
  O  O29  1  0.333333  0.666667  0.750918  1
