# generated using pymatgen
data_NdGaAu3
_symmetry_space_group_name_H-M   'P 1'
_cell_length_a   9.33554200
_cell_length_b   9.33554200
_cell_length_c   9.33554200
_cell_angle_alpha   90.00000000
_cell_angle_beta   90.00000000
_cell_angle_gamma   90.00000000
_symmetry_Int_Tables_number   1
_chemical_formula_structural   NdGaAu3
_chemical_formula_sum   'Nd8 Ga8 Au24'
_cell_volume   813.61437186
_cell_formula_units_Z   8
loop_
 _symmetry_equiv_pos_site_id
 _symmetry_equiv_pos_as_xyz
  1  'x, y, z'
loop_
 _atom_site_type_symbol
 _atom_site_label
 _atom_site_symmetry_multiplicity
 _atom_site_fract_x
 _atom_site_fract_y
 _atom_site_fract_z
 _atom_site_occupancy
  Nd  Nd0  1  0.890594  0.390595  0.109405  1
  Nd  Nd1  1  0.609406  0.890594  0.109405  1
  Nd  Nd2  1  0.390595  0.390595  0.390595  1
  Nd  Nd3  1  0.109405  0.890594  0.390595  1
  Nd  Nd4  1  0.890594  0.109405  0.609406  1
  Nd  Nd5  1  0.609406  0.609406  0.609406  1
  Nd  Nd6  1  0.390595  0.109405  0.890594  1
  Nd  Nd7  1  0.109405  0.609406  0.890594  1
  Ga  Ga8  1  0.105849  0.105849  0.105849  1
  Ga  Ga9  1  0.394151  0.605849  0.105849  1
  Ga  Ga10  1  0.605849  0.105849  0.394151  1
  Ga  Ga11  1  0.894151  0.605849  0.394151  1
  Ga  Ga12  1  0.105849  0.394151  0.605849  1
  Ga  Ga13  1  0.394151  0.894151  0.605849  1
  Ga  Ga14  1  0.605849  0.394151  0.894151  1
  Ga  Ga15  1  0.894151  0.894151  0.894151  1
  Au  Au16  1  0.261781  0.358158  0.078875  1
  Au  Au17  1  0.238219  0.858157  0.078875  1
  Au  Au18  1  0.578876  0.261781  0.141842  1
  Au  Au19  1  0.921124  0.761781  0.141842  1
  Au  Au20  1  0.858157  0.078875  0.238219  1
  Au  Au21  1  0.641842  0.578876  0.238219  1
  Au  Au22  1  0.358158  0.078875  0.261781  1
  Au  Au23  1  0.141842  0.578876  0.261781  1
  Au  Au24  1  0.078875  0.261781  0.358158  1
  Au  Au25  1  0.421124  0.761781  0.358158  1
  Au  Au26  1  0.761781  0.358158  0.421124  1
  Au  Au27  1  0.738219  0.858157  0.421124  1
  Au  Au28  1  0.261781  0.141842  0.578876  1
  Au  Au29  1  0.238219  0.641842  0.578876  1
  Au  Au30  1  0.578876  0.238219  0.641842  1
  Au  Au31  1  0.921124  0.738219  0.641842  1
  Au  Au32  1  0.858157  0.421124  0.738219  1
  Au  Au33  1  0.641842  0.921124  0.738219  1
  Au  Au34  1  0.358158  0.421124  0.761781  1
  Au  Au35  1  0.141842  0.921124  0.761781  1
  Au  Au36  1  0.078875  0.238219  0.858157  1
  Au  Au37  1  0.421124  0.738219  0.858157  1
  Au  Au38  1  0.761781  0.141842  0.921124  1
  Au  Au39  1  0.738219  0.641842  0.921124  1
