# generated using pymatgen
data_Ta3Nb7Si6
_symmetry_space_group_name_H-M   'P 1'
_cell_length_a   7.56633550
_cell_length_b   7.56633488
_cell_length_c   7.56289245
_cell_angle_alpha   128.15399719
_cell_angle_beta   128.15399336
_cell_angle_gamma   76.34093791
_symmetry_Int_Tables_number   1
_chemical_formula_structural   Ta3Nb7Si6
_chemical_formula_sum   'Ta3 Nb7 Si6'
_cell_volume   260.21059023
_cell_formula_units_Z   1
loop_
 _symmetry_equiv_pos_site_id
 _symmetry_equiv_pos_as_xyz
  1  'x, y, z'
loop_
 _atom_site_type_symbol
 _atom_site_label
 _atom_site_symmetry_multiplicity
 _atom_site_fract_x
 _atom_site_fract_y
 _atom_site_fract_z
 _atom_site_occupancy
  Ta  Ta0  1  0.815048  0.315048  0.831081  1
  Ta  Ta1  1  0.000087  0.000307  0.000021  1
  Ta  Ta2  1  0.500307  0.500087  0.000021  1
  Nb  Nb3  1  0.017408  0.185212  0.500517  1
  Nb  Nb4  1  0.685212  0.517408  0.500517  1
  Nb  Nb5  1  0.517723  0.017723  0.833025  1
  Nb  Nb6  1  0.185263  0.685263  0.167301  1
  Nb  Nb7  1  0.982080  0.814660  0.499628  1
  Nb  Nb8  1  0.314660  0.482080  0.499628  1
  Nb  Nb9  1  0.482526  0.982526  0.168022  1
  Si  Si10  1  0.750141  0.749679  0.000050  1
  Si  Si11  1  0.249679  0.250141  0.000050  1
  Si  Si12  1  0.370875  0.129296  0.500302  1
  Si  Si13  1  0.629296  0.870875  0.500302  1
  Si  Si14  1  0.870524  0.370524  0.241241  1
  Si  Si15  1  0.129169  0.629169  0.758293  1
