# generated using pymatgen
data_KErTa6Cl18
_symmetry_space_group_name_H-M   'P 1'
_cell_length_a   10.18159800
_cell_length_b   10.18159772
_cell_length_c   10.18159781
_cell_angle_alpha   55.45993416
_cell_angle_beta   55.45993919
_cell_angle_gamma   55.45993238
_symmetry_Int_Tables_number   1
_chemical_formula_structural   KErTa6Cl18
_chemical_formula_sum   'K1 Er1 Ta6 Cl18'
_cell_volume   667.64716459
_cell_formula_units_Z   1
loop_
 _symmetry_equiv_pos_site_id
 _symmetry_equiv_pos_as_xyz
  1  'x, y, z'
loop_
 _atom_site_type_symbol
 _atom_site_label
 _atom_site_symmetry_multiplicity
 _atom_site_fract_x
 _atom_site_fract_y
 _atom_site_fract_z
 _atom_site_occupancy
  K  K0  1  0.221227  0.221227  0.221227  1
  Er  Er1  1  0.498500  0.498500  0.498500  1
  Ta  Ta2  1  0.803453  0.147764  0.911735  1
  Ta  Ta3  1  0.911735  0.803453  0.147764  1
  Ta  Ta4  1  0.147764  0.911735  0.803453  1
  Ta  Ta5  1  0.197401  0.852620  0.087451  1
  Ta  Ta6  1  0.087451  0.197401  0.852620  1
  Ta  Ta7  1  0.852620  0.087451  0.197401  1
  Cl  Cl8  1  0.865489  0.412643  0.725002  1
  Cl  Cl9  1  0.725002  0.865489  0.412643  1
  Cl  Cl10  1  0.412643  0.725002  0.865489  1
  Cl  Cl11  1  0.134617  0.586275  0.276009  1
  Cl  Cl12  1  0.276009  0.134617  0.586275  1
  Cl  Cl13  1  0.586275  0.276009  0.134617  1
  Cl  Cl14  1  0.538508  0.340217  0.799814  1
  Cl  Cl15  1  0.799814  0.538508  0.340217  1
  Cl  Cl16  1  0.340217  0.799814  0.538508  1
  Cl  Cl17  1  0.456768  0.660890  0.204149  1
  Cl  Cl18  1  0.204149  0.456768  0.660890  1
  Cl  Cl19  1  0.660890  0.204149  0.456768  1
  Cl  Cl20  1  0.660162  0.940495  0.071343  1
  Cl  Cl21  1  0.071343  0.660162  0.940495  1
  Cl  Cl22  1  0.940495  0.071343  0.660162  1
  Cl  Cl23  1  0.340019  0.060028  0.928558  1
  Cl  Cl24  1  0.928558  0.340019  0.060028  1
  Cl  Cl25  1  0.060028  0.928558  0.340019  1
