# generated using pymatgen
data_AcHo(PS4)2
_symmetry_space_group_name_H-M   'P 1'
_cell_length_a   6.49578297
_cell_length_b   6.59055691
_cell_length_c   7.99296800
_cell_angle_alpha   89.37264735
_cell_angle_beta   86.25026989
_cell_angle_gamma   86.90200496
_symmetry_Int_Tables_number   1
_chemical_formula_structural   AcHo(PS4)2
_chemical_formula_sum   'Ac1 Ho1 P2 S8'
_cell_volume   340.94457961
_cell_formula_units_Z   1
loop_
 _symmetry_equiv_pos_site_id
 _symmetry_equiv_pos_as_xyz
  1  'x, y, z'
loop_
 _atom_site_type_symbol
 _atom_site_label
 _atom_site_symmetry_multiplicity
 _atom_site_fract_x
 _atom_site_fract_y
 _atom_site_fract_z
 _atom_site_occupancy
  Ac  Ac0  1  0.789830  0.248893  0.944733  1
  Ho  Ho1  1  0.211783  0.715886  0.057517  1
  P  P2  1  0.702206  0.746705  0.193321  1
  P  P3  1  0.296928  0.259284  0.805316  1
  S  S4  1  0.547446  0.258425  0.646583  1
  S  S5  1  0.434264  0.759607  0.334883  1
  S  S6  1  0.902356  0.973087  0.231591  1
  S  S7  1  0.144586  0.992999  0.781821  1
  S  S8  1  0.630906  0.753291  0.942819  1
  S  S9  1  0.342254  0.285541  0.061615  1
  S  S10  1  0.898417  0.498079  0.236619  1
  S  S11  1  0.099023  0.508203  0.763181  1
