# generated using pymatgen
data_W2I8N
_symmetry_space_group_name_H-M   'P 1'
_cell_length_a   7.76950111
_cell_length_b   7.83356038
_cell_length_c   7.50499406
_cell_angle_alpha   92.15395867
_cell_angle_beta   95.20664376
_cell_angle_gamma   95.20737722
_symmetry_Int_Tables_number   1
_chemical_formula_structural   W2I8N
_chemical_formula_sum   'W2 I8 N1'
_cell_volume   452.52944458
_cell_formula_units_Z   1
loop_
 _symmetry_equiv_pos_site_id
 _symmetry_equiv_pos_as_xyz
  1  'x, y, z'
loop_
 _atom_site_type_symbol
 _atom_site_label
 _atom_site_symmetry_multiplicity
 _atom_site_fract_x
 _atom_site_fract_y
 _atom_site_fract_z
 _atom_site_occupancy
  W  W0  1  0.047751  0.416821  0.779683  1
  W  W1  1  0.951689  0.582577  0.220407  1
  I  I2  1  0.649267  0.384778  0.207496  1
  I  I3  1  0.892175  0.685377  0.603692  1
  I  I4  1  0.261634  0.767851  0.276221  1
  I  I5  1  0.795252  0.855776  0.113390  1
  I  I6  1  0.208044  0.142711  0.875329  1
  I  I7  1  0.349020  0.618127  0.800121  1
  I  I8  1  0.108194  0.316415  0.398553  1
  I  I9  1  0.737484  0.231620  0.724171  1
  N  N10  1  0.999488  0.497946  0.000935  1
