# generated using pymatgen
data_Tb3Tm5Cd2TcNi
_symmetry_space_group_name_H-M   'P 1'
_cell_length_a   9.52447270
_cell_length_b   9.52447276
_cell_length_c   9.65494700
_cell_angle_alpha   59.54579836
_cell_angle_beta   59.54579814
_cell_angle_gamma   59.27723642
_symmetry_Int_Tables_number   1
_chemical_formula_structural   Tb3Tm5Cd2TcNi
_chemical_formula_sum   'Tb6 Tm10 Cd4 Tc2 Ni2'
_cell_volume   611.65291278
_cell_formula_units_Z   2
loop_
 _symmetry_equiv_pos_site_id
 _symmetry_equiv_pos_as_xyz
  1  'x, y, z'
loop_
 _atom_site_type_symbol
 _atom_site_label
 _atom_site_symmetry_multiplicity
 _atom_site_fract_x
 _atom_site_fract_y
 _atom_site_fract_z
 _atom_site_occupancy
  Tb  Tb0  1  0.940023  0.553259  0.565349  1
  Tb  Tb1  1  0.553259  0.940023  0.941368  1
  Tb  Tb2  1  0.553259  0.940023  0.565349  1
  Tb  Tb3  1  0.940023  0.553259  0.941368  1
  Tb  Tb4  1  0.563833  0.563833  0.936167  1
  Tb  Tb5  1  0.943715  0.943715  0.556285  1
  Tm  Tm6  1  0.350481  0.350481  0.340768  1
  Tm  Tm7  1  0.350481  0.350481  0.958268  1
  Tm  Tm8  1  0.350754  0.960748  0.344249  1
  Tm  Tm9  1  0.960748  0.350754  0.344249  1
  Tm  Tm10  1  0.811415  0.184958  0.188941  1
  Tm  Tm11  1  0.184958  0.811415  0.814686  1
  Tm  Tm12  1  0.184958  0.811415  0.188941  1
  Tm  Tm13  1  0.811415  0.184958  0.814686  1
  Tm  Tm14  1  0.187356  0.187356  0.812644  1
  Tm  Tm15  1  0.809004  0.809004  0.190996  1
  Cd  Cd16  1  0.579306  0.579306  0.581818  1
  Cd  Cd17  1  0.579306  0.579306  0.259569  1
  Cd  Cd18  1  0.579506  0.257840  0.581326  1
  Cd  Cd19  1  0.257840  0.579506  0.581326  1
  Tc  Tc20  1  0.142946  0.142946  0.137161  1
  Tc  Tc21  1  0.142946  0.142946  0.576947  1
  Ni  Ni22  1  0.143898  0.578563  0.138769  1
  Ni  Ni23  1  0.578563  0.143898  0.138769  1
