# generated using pymatgen
data_Rb4DyPaSe6
_symmetry_space_group_name_H-M   'P 1'
_cell_length_a   7.66751197
_cell_length_b   7.66751289
_cell_length_c   8.40536200
_cell_angle_alpha   81.05615025
_cell_angle_beta   81.05614918
_cell_angle_gamma   119.98197736
_symmetry_Int_Tables_number   1
_chemical_formula_structural   Rb4DyPaSe6
_chemical_formula_sum   'Rb4 Dy1 Pa1 Se6'
_cell_volume   406.82582741
_cell_formula_units_Z   1
loop_
 _symmetry_equiv_pos_site_id
 _symmetry_equiv_pos_as_xyz
  1  'x, y, z'
loop_
 _atom_site_type_symbol
 _atom_site_label
 _atom_site_symmetry_multiplicity
 _atom_site_fract_x
 _atom_site_fract_y
 _atom_site_fract_z
 _atom_site_occupancy
  Rb  Rb0  1  0.500069  0.499931  0.000000  1
  Rb  Rb1  1  0.654165  0.345835  0.500000  1
  Rb  Rb2  1  0.346093  0.653907  0.500000  1
  Rb  Rb3  1  0.999684  0.000316  0.500000  1
  Dy  Dy4  1  0.832295  0.167705  0.000000  1
  Pa  Pa5  1  0.167776  0.832224  0.000000  1
  Se  Se6  1  0.818667  0.809206  0.197855  1
  Se  Se7  1  0.190794  0.181333  0.802145  1
  Se  Se8  1  0.421198  0.043383  0.200937  1
  Se  Se9  1  0.558807  0.946164  0.798554  1
  Se  Se10  1  0.956617  0.578802  0.799063  1
  Se  Se11  1  0.053836  0.441193  0.201446  1
