# generated using pymatgen
data_MoOsF10
_symmetry_space_group_name_H-M   'P 1'
_cell_length_a   8.83343415
_cell_length_b   8.83343426
_cell_length_c   5.48323192
_cell_angle_alpha   89.00064996
_cell_angle_beta   89.00065090
_cell_angle_gamma   111.12481835
_symmetry_Int_Tables_number   1
_chemical_formula_structural   MoOsF10
_chemical_formula_sum   'Mo2 Os2 F20'
_cell_volume   398.91145141
_cell_formula_units_Z   2
loop_
 _symmetry_equiv_pos_site_id
 _symmetry_equiv_pos_as_xyz
  1  'x, y, z'
loop_
 _atom_site_type_symbol
 _atom_site_label
 _atom_site_symmetry_multiplicity
 _atom_site_fract_x
 _atom_site_fract_y
 _atom_site_fract_z
 _atom_site_occupancy
  Mo  Mo0  1  0.744617  0.744617  0.737356  1
  Mo  Mo1  1  0.255383  0.255383  0.262644  1
  Os  Os2  1  0.801294  0.198706  0.000000  1
  Os  Os3  1  0.198706  0.801294  0.000000  1
  F  F4  1  0.862120  0.862120  0.468827  1
  F  F5  1  0.137880  0.137880  0.531173  1
  F  F6  1  0.671067  0.671067  0.052981  1
  F  F7  1  0.328933  0.328933  0.947019  1
  F  F8  1  0.541277  0.727260  0.622514  1
  F  F9  1  0.272740  0.458723  0.377486  1
  F  F10  1  0.458723  0.272740  0.377486  1
  F  F11  1  0.727260  0.541277  0.622514  1
  F  F12  1  0.780505  0.977439  0.877849  1
  F  F13  1  0.022561  0.219495  0.122151  1
  F  F14  1  0.219495  0.022561  0.122151  1
  F  F15  1  0.977439  0.780505  0.877849  1
  F  F16  1  0.905837  0.288916  0.699458  1
  F  F17  1  0.711084  0.094163  0.300542  1
  F  F18  1  0.094163  0.711084  0.300542  1
  F  F19  1  0.288916  0.905837  0.699458  1
  F  F20  1  0.596900  0.170153  0.880869  1
  F  F21  1  0.829847  0.403100  0.119131  1
  F  F22  1  0.403100  0.829847  0.119131  1
  F  F23  1  0.170153  0.596900  0.880869  1
