# generated using pymatgen
data_ScTiBRh6
_symmetry_space_group_name_H-M   'P 1'
_cell_length_a   5.64306196
_cell_length_b   5.64306223
_cell_length_c   5.64306200
_cell_angle_alpha   60.00000136
_cell_angle_beta   59.99999976
_cell_angle_gamma   59.99999805
_symmetry_Int_Tables_number   1
_chemical_formula_structural   ScTiBRh6
_chemical_formula_sum   'Sc1 Ti1 B1 Rh6'
_cell_volume   127.06603541
_cell_formula_units_Z   1
loop_
 _symmetry_equiv_pos_site_id
 _symmetry_equiv_pos_as_xyz
  1  'x, y, z'
loop_
 _atom_site_type_symbol
 _atom_site_label
 _atom_site_symmetry_multiplicity
 _atom_site_fract_x
 _atom_site_fract_y
 _atom_site_fract_z
 _atom_site_occupancy
  Sc  Sc0  1  0.750000  0.750000  0.750000  1
  Ti  Ti1  1  0.250000  0.250000  0.250000  1
  B  B2  1  0.500000  0.500000  0.500000  1
  Rh  Rh3  1  0.758296  0.758296  0.241704  1
  Rh  Rh4  1  0.758296  0.241704  0.241704  1
  Rh  Rh5  1  0.241704  0.758296  0.241704  1
  Rh  Rh6  1  0.241704  0.241704  0.758296  1
  Rh  Rh7  1  0.758296  0.241704  0.758296  1
  Rh  Rh8  1  0.241704  0.758296  0.758296  1
