# generated using pymatgen
data_Rb2Pa3Cl7O5
_symmetry_space_group_name_H-M   'P 1'
_cell_length_a   10.44404062
_cell_length_b   10.44404047
_cell_length_c   12.07621626
_cell_angle_alpha   70.20649948
_cell_angle_beta   70.20649967
_cell_angle_gamma   54.35595849
_symmetry_Int_Tables_number   1
_chemical_formula_structural   Rb2Pa3Cl7O5
_chemical_formula_sum   'Rb4 Pa6 Cl14 O10'
_cell_volume   989.87712231
_cell_formula_units_Z   2
loop_
 _symmetry_equiv_pos_site_id
 _symmetry_equiv_pos_as_xyz
  1  'x, y, z'
loop_
 _atom_site_type_symbol
 _atom_site_label
 _atom_site_symmetry_multiplicity
 _atom_site_fract_x
 _atom_site_fract_y
 _atom_site_fract_z
 _atom_site_occupancy
  Rb  Rb0  1  0.798782  0.747314  0.865071  1
  Rb  Rb1  1  0.201218  0.252686  0.134929  1
  Rb  Rb2  1  0.252686  0.201218  0.634929  1
  Rb  Rb3  1  0.747314  0.798782  0.365071  1
  Pa  Pa4  1  0.435712  0.564288  0.750000  1
  Pa  Pa5  1  0.214864  0.790135  0.042132  1
  Pa  Pa6  1  0.209865  0.785136  0.457868  1
  Pa  Pa7  1  0.790135  0.214864  0.542132  1
  Pa  Pa8  1  0.564288  0.435712  0.250000  1
  Pa  Pa9  1  0.785136  0.209865  0.957868  1
  Cl  Cl10  1  0.944989  0.359268  0.863345  1
  Cl  Cl11  1  0.055011  0.640732  0.136655  1
  Cl  Cl12  1  0.578532  0.730951  0.657840  1
  Cl  Cl13  1  0.077882  0.922118  0.250000  1
  Cl  Cl14  1  0.359714  0.953762  0.956192  1
  Cl  Cl15  1  0.046238  0.640286  0.543808  1
  Cl  Cl16  1  0.953762  0.359714  0.456192  1
  Cl  Cl17  1  0.730951  0.578532  0.157840  1
  Cl  Cl18  1  0.421468  0.269049  0.342160  1
  Cl  Cl19  1  0.359268  0.944989  0.363345  1
  Cl  Cl20  1  0.922118  0.077882  0.750000  1
  Cl  Cl21  1  0.640732  0.055011  0.636655  1
  Cl  Cl22  1  0.269049  0.421468  0.842160  1
  Cl  Cl23  1  0.640286  0.046238  0.043808  1
  O  O24  1  0.713354  0.290455  0.379975  1
  O  O25  1  0.598131  0.398698  0.875606  1
  O  O26  1  0.401869  0.601302  0.124394  1
  O  O27  1  0.709545  0.286646  0.120025  1
  O  O28  1  0.290455  0.713354  0.879976  1
  O  O29  1  0.000000  0.000000  0.000000  1
  O  O30  1  0.286646  0.709545  0.620025  1
  O  O31  1  0.398698  0.598131  0.375606  1
  O  O32  1  0.601302  0.401869  0.624394  1
  O  O33  1  0.000000  0.000000  0.500000  1
