# generated using pymatgen
data_HoNb6CoS12
_symmetry_space_group_name_H-M   'P 1'
_cell_length_a   5.83059800
_cell_length_b   5.83059801
_cell_length_c   12.80394900
_cell_angle_alpha   90.00000000
_cell_angle_beta   90.00000000
_cell_angle_gamma   119.99999994
_symmetry_Int_Tables_number   1
_chemical_formula_structural   HoNb6CoS12
_chemical_formula_sum   'Ho1 Nb6 Co1 S12'
_cell_volume   376.96477244
_cell_formula_units_Z   1
loop_
 _symmetry_equiv_pos_site_id
 _symmetry_equiv_pos_as_xyz
  1  'x, y, z'
loop_
 _atom_site_type_symbol
 _atom_site_label
 _atom_site_symmetry_multiplicity
 _atom_site_fract_x
 _atom_site_fract_y
 _atom_site_fract_z
 _atom_site_occupancy
  Ho  Ho0  1  0.666667  0.333333  0.750000  1
  Nb  Nb1  1  0.333333  0.666667  0.016999  1
  Nb  Nb2  1  0.666667  0.333333  0.480976  1
  Nb  Nb3  1  0.333333  0.666667  0.483001  1
  Nb  Nb4  1  0.000000  0.000000  0.019184  1
  Nb  Nb5  1  0.666667  0.333333  0.019024  1
  Nb  Nb6  1  0.000000  0.000000  0.480816  1
  Co  Co7  1  0.333333  0.666667  0.250000  1
  S  S8  1  0.000892  0.666767  0.139606  1
  S  S9  1  0.668440  0.670845  0.605716  1
  S  S10  1  0.000892  0.334125  0.360394  1
  S  S11  1  0.333233  0.334125  0.139606  1
  S  S12  1  0.329155  0.997595  0.605716  1
  S  S13  1  0.329155  0.331560  0.894284  1
  S  S14  1  0.665875  0.666767  0.360394  1
  S  S15  1  0.002405  0.670845  0.894284  1
  S  S16  1  0.668440  0.997595  0.894284  1
  S  S17  1  0.333233  0.999108  0.360394  1
  S  S18  1  0.665875  0.999108  0.139606  1
  S  S19  1  0.002405  0.331560  0.605716  1
