# generated using pymatgen
data_Mn3(NiAs)4
_symmetry_space_group_name_H-M   'P 1'
_cell_length_a   6.05439259
_cell_length_b   3.69054900
_cell_length_c   7.02267204
_cell_angle_alpha   90.00000000
_cell_angle_beta   90.41626085
_cell_angle_gamma   90.00000000
_symmetry_Int_Tables_number   1
_chemical_formula_structural   Mn3(NiAs)4
_chemical_formula_sum   'Mn3 Ni4 As4'
_cell_volume   156.91067124
_cell_formula_units_Z   1
loop_
 _symmetry_equiv_pos_site_id
 _symmetry_equiv_pos_as_xyz
  1  'x, y, z'
loop_
 _atom_site_type_symbol
 _atom_site_label
 _atom_site_symmetry_multiplicity
 _atom_site_fract_x
 _atom_site_fract_y
 _atom_site_fract_z
 _atom_site_occupancy
  Mn  Mn0  1  0.970929  0.749999  0.181161  1
  Mn  Mn1  1  0.462431  0.749999  0.325008  1
  Mn  Mn2  1  0.532409  0.250000  0.684676  1
  Ni  Ni3  1  0.640281  0.250000  0.062199  1
  Ni  Ni4  1  0.149348  0.250000  0.438092  1
  Ni  Ni5  1  0.859880  0.749999  0.559809  1
  Ni  Ni6  1  0.376192  0.749999  0.944822  1
  As  As7  1  0.243182  0.250000  0.112153  1
  As  As8  1  0.754812  0.250000  0.376973  1
  As  As9  1  0.240597  0.749999  0.634358  1
  As  As10  1  0.767912  0.749999  0.878009  1
