# generated using pymatgen
data_Yb10CoRe3N14
_symmetry_space_group_name_H-M   'P 1'
_cell_length_a   6.11546957
_cell_length_b   8.69027634
_cell_length_c   8.90603000
_cell_angle_alpha   113.89819466
_cell_angle_beta   98.63486357
_cell_angle_gamma   89.68268262
_symmetry_Int_Tables_number   1
_chemical_formula_structural   Yb10CoRe3N14
_chemical_formula_sum   'Yb10 Co1 Re3 N14'
_cell_volume   427.02755360
_cell_formula_units_Z   1
loop_
 _symmetry_equiv_pos_site_id
 _symmetry_equiv_pos_as_xyz
  1  'x, y, z'
loop_
 _atom_site_type_symbol
 _atom_site_label
 _atom_site_symmetry_multiplicity
 _atom_site_fract_x
 _atom_site_fract_y
 _atom_site_fract_z
 _atom_site_occupancy
  Yb  Yb0  1  0.855813  0.572814  0.336881  1
  Yb  Yb1  1  0.260107  0.987491  0.555423  1
  Yb  Yb2  1  0.685146  0.399936  0.829935  1
  Yb  Yb3  1  0.292568  0.582370  0.138079  1
  Yb  Yb4  1  0.390673  0.784630  0.913792  1
  Yb  Yb5  1  0.618411  0.218231  0.112000  1
  Yb  Yb6  1  0.158683  0.398045  0.650890  1
  Yb  Yb7  1  0.879108  0.834096  0.753409  1
  Yb  Yb8  1  0.150391  0.166141  0.264660  1
  Yb  Yb9  1  0.729656  0.046855  0.444349  1
  Co  Co10  1  0.602498  0.369155  0.475697  1
  Re  Re11  1  0.421025  0.636223  0.520587  1
  Re  Re12  1  0.120757  0.214327  0.917943  1
  Re  Re13  1  0.872354  0.777424  0.080654  1
  N  N14  1  0.542643  0.576829  0.695709  1
  N  N15  1  0.438877  0.451032  0.315802  1
  N  N16  1  0.142280  0.704419  0.572948  1
  N  N17  1  0.863842  0.294040  0.402179  1
  N  N18  1  0.411571  0.198853  0.509712  1
  N  N19  1  0.589327  0.812429  0.523204  1
  N  N20  1  0.951603  0.134487  0.708839  1
  N  N21  1  0.049797  0.857059  0.285333  1
  N  N22  1  0.234193  0.046120  0.975849  1
  N  N23  1  0.753470  0.946128  0.026478  1
  N  N24  1  0.361567  0.334378  0.912615  1
  N  N25  1  0.958435  0.354058  0.073774  1
  N  N26  1  0.033868  0.646850  0.917572  1
  N  N27  1  0.631335  0.655582  0.085693  1
