# generated using pymatgen
data_Ho2Er13Tm5Bi12
_symmetry_space_group_name_H-M   'P 1'
_cell_length_a   8.19597201
_cell_length_b   9.47414300
_cell_length_c   11.93657401
_cell_angle_alpha   89.99941686
_cell_angle_beta   89.99446206
_cell_angle_gamma   89.99758107
_symmetry_Int_Tables_number   1
_chemical_formula_structural   Ho2Er13Tm5Bi12
_chemical_formula_sum   'Ho2 Er13 Tm5 Bi12'
_cell_volume   926.87270953
_cell_formula_units_Z   1
loop_
 _symmetry_equiv_pos_site_id
 _symmetry_equiv_pos_as_xyz
  1  'x, y, z'
loop_
 _atom_site_type_symbol
 _atom_site_label
 _atom_site_symmetry_multiplicity
 _atom_site_fract_x
 _atom_site_fract_y
 _atom_site_fract_z
 _atom_site_occupancy
  Ho  Ho0  1  0.685764  0.750015  0.781871  1
  Ho  Ho1  1  0.185783  0.749979  0.718131  1
  Er  Er2  1  0.353736  0.749981  0.216845  1
  Er  Er3  1  0.853751  0.750009  0.283162  1
  Er  Er4  1  0.646319  0.249961  0.783214  1
  Er  Er5  1  0.146241  0.249972  0.716711  1
  Er  Er6  1  0.692286  0.564958  0.059234  1
  Er  Er7  1  0.192311  0.935040  0.440762  1
  Er  Er8  1  0.307813  0.064852  0.940873  1
  Er  Er9  1  0.807789  0.435092  0.559115  1
  Er  Er10  1  0.307839  0.435134  0.940888  1
  Er  Er11  1  0.476885  0.249988  0.488998  1
  Er  Er12  1  0.976803  0.249986  0.011011  1
  Er  Er13  1  0.314063  0.250002  0.217930  1
  Er  Er14  1  0.814066  0.249985  0.282125  1
  Tm  Tm15  1  0.807808  0.064998  0.559126  1
  Tm  Tm16  1  0.692283  0.934967  0.059246  1
  Tm  Tm17  1  0.192268  0.565047  0.440751  1
  Tm  Tm18  1  0.523070  0.749977  0.510736  1
  Tm  Tm19  1  0.023053  0.750021  0.989266  1
  Bi  Bi20  1  0.404849  0.750046  0.957844  1
  Bi  Bi21  1  0.904815  0.750090  0.542164  1
  Bi  Bi22  1  0.594988  0.249862  0.042597  1
  Bi  Bi23  1  0.094929  0.250088  0.457417  1
  Bi  Bi24  1  0.566096  0.996243  0.325646  1
  Bi  Bi25  1  0.066097  0.503742  0.174375  1
  Bi  Bi26  1  0.434045  0.495957  0.674177  1
  Bi  Bi27  1  0.934031  0.004035  0.825792  1
  Bi  Bi28  1  0.434067  0.004021  0.674191  1
  Bi  Bi29  1  0.934033  0.495959  0.825790  1
  Bi  Bi30  1  0.566075  0.503737  0.325649  1
  Bi  Bi31  1  0.066048  0.996253  0.174363  1
