# generated using pymatgen
data_SrMn5O11
_symmetry_space_group_name_H-M   'P 1'
_cell_length_a   13.88839200
_cell_length_b   7.43421979
_cell_length_c   9.79159500
_cell_angle_alpha   49.65296726
_cell_angle_beta   90.00000000
_cell_angle_gamma   90.00000000
_symmetry_Int_Tables_number   1
_chemical_formula_structural   SrMn5O11
_chemical_formula_sum   'Sr4 Mn20 O44'
_cell_volume   770.50228286
_cell_formula_units_Z   4
loop_
 _symmetry_equiv_pos_site_id
 _symmetry_equiv_pos_as_xyz
  1  'x, y, z'
loop_
 _atom_site_type_symbol
 _atom_site_label
 _atom_site_symmetry_multiplicity
 _atom_site_fract_x
 _atom_site_fract_y
 _atom_site_fract_z
 _atom_site_occupancy
  Sr  Sr0  1  0.579354  0.049633  0.258927  1
  Sr  Sr1  1  0.079354  0.950367  0.241073  1
  Sr  Sr2  1  0.420646  0.950367  0.741073  1
  Sr  Sr3  1  0.920646  0.049633  0.758927  1
  Mn  Mn4  1  0.492660  0.477443  0.262894  1
  Mn  Mn5  1  0.992660  0.522557  0.237106  1
  Mn  Mn6  1  0.507340  0.522557  0.737106  1
  Mn  Mn7  1  0.007340  0.477443  0.762894  1
  Mn  Mn8  1  0.831625  0.717716  0.552857  1
  Mn  Mn9  1  0.331625  0.282284  0.947143  1
  Mn  Mn10  1  0.168375  0.282284  0.447143  1
  Mn  Mn11  1  0.668375  0.717716  0.052857  1
  Mn  Mn12  1  0.826408  0.482766  0.927902  1
  Mn  Mn13  1  0.326408  0.517234  0.572098  1
  Mn  Mn14  1  0.173592  0.517234  0.072098  1
  Mn  Mn15  1  0.673592  0.482766  0.427902  1
  Mn  Mn16  1  0.834063  0.970833  0.164051  1
  Mn  Mn17  1  0.334063  0.029167  0.335949  1
  Mn  Mn18  1  0.165937  0.029167  0.835949  1
  Mn  Mn19  1  0.665937  0.970833  0.664051  1
  Mn  Mn20  1  0.826370  0.242930  0.301311  1
  Mn  Mn21  1  0.326370  0.757070  0.198689  1
  Mn  Mn22  1  0.173630  0.757070  0.698689  1
  Mn  Mn23  1  0.673630  0.242930  0.801311  1
  O  O24  1  0.933846  0.798888  0.165585  1
  O  O25  1  0.433846  0.201112  0.334415  1
  O  O26  1  0.066154  0.201112  0.834415  1
  O  O27  1  0.566154  0.798888  0.665585  1
  O  O28  1  0.899131  0.982638  0.339028  1
  O  O29  1  0.399131  0.017362  0.160972  1
  O  O30  1  0.100869  0.017362  0.660972  1
  O  O31  1  0.600869  0.982638  0.839028  1
  O  O32  1  0.898013  0.489498  0.094688  1
  O  O33  1  0.398013  0.510502  0.405312  1
  O  O34  1  0.101987  0.510502  0.905312  1
  O  O35  1  0.601987  0.489498  0.594688  1
  O  O36  1  0.912003  0.251662  0.974304  1
  O  O37  1  0.412003  0.748338  0.525696  1
  O  O38  1  0.087997  0.748338  0.025696  1
  O  O39  1  0.587997  0.251662  0.474304  1
  O  O40  1  0.908301  0.707127  0.726701  1
  O  O41  1  0.923822  0.496806  0.604404  1
  O  O42  1  0.076178  0.503194  0.395596  1
  O  O43  1  0.576178  0.496806  0.104404  1
  O  O44  1  0.914851  0.279259  0.423183  1
  O  O45  1  0.414851  0.720741  0.076817  1
  O  O46  1  0.085149  0.720741  0.576817  1
  O  O47  1  0.585149  0.279259  0.923183  1
  O  O48  1  0.750418  0.981004  0.999144  1
  O  O49  1  0.250418  0.018996  0.500856  1
  O  O50  1  0.249582  0.018996  0.000856  1
  O  O51  1  0.749582  0.981004  0.499144  1
  O  O52  1  0.741698  0.735678  0.875258  1
  O  O53  1  0.241698  0.264322  0.624742  1
  O  O54  1  0.258302  0.264322  0.124742  1
  O  O55  1  0.758302  0.735678  0.375258  1
  O  O56  1  0.756198  0.486358  0.758331  1
  O  O57  1  0.256198  0.513642  0.741669  1
  O  O58  1  0.243802  0.513642  0.241669  1
  O  O59  1  0.743802  0.486358  0.258331  1
  O  O60  1  0.743339  0.223818  0.633141  1
  O  O61  1  0.243339  0.776182  0.866859  1
  O  O62  1  0.256661  0.776182  0.366859  1
  O  O63  1  0.756661  0.223818  0.133141  1
  O  O64  1  0.591699  0.707127  0.226701  1
  O  O65  1  0.091699  0.292873  0.273299  1
  O  O66  1  0.408301  0.292873  0.773299  1
  O  O67  1  0.423822  0.503194  0.895596  1
