# generated using pymatgen
data_La9Sm7(ErPb4)4
_symmetry_space_group_name_H-M   'P 1'
_cell_length_a   8.44178580
_cell_length_b   8.55506368
_cell_length_c   16.13162300
_cell_angle_alpha   89.95576437
_cell_angle_beta   90.14437669
_cell_angle_gamma   90.14964165
_symmetry_Int_Tables_number   1
_chemical_formula_structural   La9Sm7(ErPb4)4
_chemical_formula_sum   'La9 Sm7 Er4 Pb16'
_cell_volume   1165.01804377
_cell_formula_units_Z   1
loop_
 _symmetry_equiv_pos_site_id
 _symmetry_equiv_pos_as_xyz
  1  'x, y, z'
loop_
 _atom_site_type_symbol
 _atom_site_label
 _atom_site_symmetry_multiplicity
 _atom_site_fract_x
 _atom_site_fract_y
 _atom_site_fract_z
 _atom_site_occupancy
  La  La0  1  0.128891  0.341121  0.619362  1
  La  La1  1  0.472607  0.679592  0.598071  1
  La  La2  1  0.974160  0.821755  0.903427  1
  La  La3  1  0.526195  0.322043  0.097408  1
  La  La4  1  0.028202  0.176495  0.400468  1
  La  La5  1  0.526002  0.322209  0.401623  1
  La  La6  1  0.026125  0.177918  0.097834  1
  La  La7  1  0.474495  0.678585  0.903024  1
  La  La8  1  0.972604  0.822690  0.598346  1
  Sm  Sm9  1  0.631415  0.157749  0.621937  1
  Sm  Sm10  1  0.131800  0.342577  0.878960  1
  Sm  Sm11  1  0.368233  0.843022  0.121477  1
  Sm  Sm12  1  0.869159  0.656494  0.378613  1
  Sm  Sm13  1  0.370645  0.842962  0.376815  1
  Sm  Sm14  1  0.868418  0.657653  0.121509  1
  Sm  Sm15  1  0.631473  0.157071  0.879620  1
  Er  Er16  1  0.797227  0.495764  0.750693  1
  Er  Er17  1  0.298883  0.003982  0.750828  1
  Er  Er18  1  0.201957  0.504683  0.249141  1
  Er  Er19  1  0.702270  0.995535  0.249928  1
  Pb  Pb20  1  0.709741  0.961902  0.455049  1
  Pb  Pb21  1  0.207960  0.538726  0.045018  1
  Pb  Pb22  1  0.291621  0.038973  0.955410  1
  Pb  Pb23  1  0.783944  0.464642  0.544725  1
  Pb  Pb24  1  0.294554  0.033396  0.544041  1
  Pb  Pb25  1  0.792556  0.461405  0.955224  1
  Pb  Pb26  1  0.708334  0.961015  0.045334  1
  Pb  Pb27  1  0.209487  0.540643  0.452003  1
  Pb  Pb28  1  0.438535  0.372722  0.751869  1
  Pb  Pb29  1  0.935366  0.124321  0.751927  1
  Pb  Pb30  1  0.563436  0.627059  0.249577  1
  Pb  Pb31  1  0.062619  0.872074  0.249723  1
  Pb  Pb32  1  0.662583  0.848569  0.750793  1
  Pb  Pb33  1  0.162939  0.654204  0.751361  1
  Pb  Pb34  1  0.337795  0.152455  0.249241  1
  Pb  Pb35  1  0.837769  0.347994  0.249625  1
