# generated using pymatgen
data_Pr16Cd4IrOs2Pt
_symmetry_space_group_name_H-M   'P 1'
_cell_length_a   10.03321229
_cell_length_b   10.03104945
_cell_length_c   10.06569100
_cell_angle_alpha   59.88569877
_cell_angle_beta   59.89286233
_cell_angle_gamma   59.89830380
_symmetry_Int_Tables_number   1
_chemical_formula_structural   Pr16Cd4IrOs2Pt
_chemical_formula_sum   'Pr16 Cd4 Ir1 Os2 Pt1'
_cell_volume   714.58246540
_cell_formula_units_Z   1
loop_
 _symmetry_equiv_pos_site_id
 _symmetry_equiv_pos_as_xyz
  1  'x, y, z'
loop_
 _atom_site_type_symbol
 _atom_site_label
 _atom_site_symmetry_multiplicity
 _atom_site_fract_x
 _atom_site_fract_y
 _atom_site_fract_z
 _atom_site_occupancy
  Pr  Pr0  1  0.349470  0.345044  0.351447  1
  Pr  Pr1  1  0.349470  0.345044  0.954037  1
  Pr  Pr2  1  0.345789  0.959371  0.347420  1
  Pr  Pr3  1  0.955927  0.344287  0.349893  1
  Pr  Pr4  1  0.810629  0.190366  0.191343  1
  Pr  Pr5  1  0.190913  0.813389  0.803570  1
  Pr  Pr6  1  0.190913  0.813389  0.192128  1
  Pr  Pr7  1  0.810629  0.190366  0.807661  1
  Pr  Pr8  1  0.190531  0.190777  0.809346  1
  Pr  Pr9  1  0.803559  0.810882  0.192779  1
  Pr  Pr10  1  0.939391  0.557098  0.563658  1
  Pr  Pr11  1  0.558326  0.939067  0.940298  1
  Pr  Pr12  1  0.558326  0.939067  0.562309  1
  Pr  Pr13  1  0.939391  0.557098  0.939853  1
  Pr  Pr14  1  0.563106  0.560222  0.938336  1
  Pr  Pr15  1  0.941216  0.940547  0.559119  1
  Cd  Cd16  1  0.579360  0.579415  0.579724  1
  Cd  Cd17  1  0.579360  0.579415  0.261500  1
  Cd  Cd18  1  0.579622  0.259812  0.580283  1
  Cd  Cd19  1  0.260356  0.579452  0.580096  1
  Ir  Ir20  1  0.577794  0.144483  0.138862  1
  Os  Os21  1  0.140975  0.142897  0.137435  1
  Os  Os22  1  0.140975  0.142897  0.578694  1
  Pt  Pt23  1  0.143975  0.575611  0.140207  1
