# generated using pymatgen
data_LaGd7Te8
_symmetry_space_group_name_H-M   'P 1'
_cell_length_a   9.01943113
_cell_length_b   9.01943228
_cell_length_c   9.01943100
_cell_angle_alpha   59.85281335
_cell_angle_beta   59.85281644
_cell_angle_gamma   59.85281621
_symmetry_Int_Tables_number   1
_chemical_formula_structural   LaGd7Te8
_chemical_formula_sum   'La1 Gd7 Te8'
_cell_volume   517.09396313
_cell_formula_units_Z   1
loop_
 _symmetry_equiv_pos_site_id
 _symmetry_equiv_pos_as_xyz
  1  'x, y, z'
loop_
 _atom_site_type_symbol
 _atom_site_label
 _atom_site_symmetry_multiplicity
 _atom_site_fract_x
 _atom_site_fract_y
 _atom_site_fract_z
 _atom_site_occupancy
  La  La0  1  0.625000  0.625000  0.625000  1
  Gd  Gd1  1  0.125000  0.625000  0.125000  1
  Gd  Gd2  1  0.125000  0.125000  0.625000  1
  Gd  Gd3  1  0.625000  0.125000  0.125000  1
  Gd  Gd4  1  0.125000  0.125000  0.125000  1
  Gd  Gd5  1  0.625000  0.125000  0.625000  1
  Gd  Gd6  1  0.125000  0.625000  0.625000  1
  Gd  Gd7  1  0.625000  0.625000  0.125000  1
  Te  Te8  1  0.370927  0.879202  0.370927  1
  Te  Te9  1  0.879073  0.370798  0.879073  1
  Te  Te10  1  0.879073  0.879073  0.370798  1
  Te  Te11  1  0.875098  0.875098  0.875098  1
  Te  Te12  1  0.879202  0.370927  0.370927  1
  Te  Te13  1  0.370927  0.370927  0.879202  1
  Te  Te14  1  0.374902  0.374902  0.374902  1
  Te  Te15  1  0.370798  0.879073  0.879073  1
