# generated using pymatgen
data_Er16In3Ni4Ag
_symmetry_space_group_name_H-M   'P 1'
_cell_length_a   9.42642930
_cell_length_b   9.42642896
_cell_length_c   9.42642936
_cell_angle_alpha   60.35876478
_cell_angle_beta   60.35876616
_cell_angle_gamma   60.35876345
_symmetry_Int_Tables_number   1
_chemical_formula_structural   Er16In3Ni4Ag
_chemical_formula_sum   'Er16 In3 Ni4 Ag1'
_cell_volume   597.08604509
_cell_formula_units_Z   1
loop_
 _symmetry_equiv_pos_site_id
 _symmetry_equiv_pos_as_xyz
  1  'x, y, z'
loop_
 _atom_site_type_symbol
 _atom_site_label
 _atom_site_symmetry_multiplicity
 _atom_site_fract_x
 _atom_site_fract_y
 _atom_site_fract_z
 _atom_site_occupancy
  Er  Er0  1  0.346013  0.346013  0.346013  1
  Er  Er1  1  0.349794  0.349794  0.949328  1
  Er  Er2  1  0.349794  0.949328  0.349794  1
  Er  Er3  1  0.949328  0.349794  0.349794  1
  Er  Er4  1  0.810845  0.189989  0.189989  1
  Er  Er5  1  0.190147  0.812107  0.812107  1
  Er  Er6  1  0.189989  0.810845  0.189989  1
  Er  Er7  1  0.812107  0.190147  0.812107  1
  Er  Er8  1  0.189989  0.189989  0.810845  1
  Er  Er9  1  0.812107  0.812107  0.190147  1
  Er  Er10  1  0.932557  0.563964  0.563964  1
  Er  Er11  1  0.562191  0.937872  0.937872  1
  Er  Er12  1  0.563964  0.932557  0.563964  1
  Er  Er13  1  0.937872  0.562191  0.937872  1
  Er  Er14  1  0.563964  0.563964  0.932557  1
  Er  Er15  1  0.937872  0.937872  0.562191  1
  In  In16  1  0.582270  0.582270  0.255104  1
  In  In17  1  0.582270  0.255104  0.582270  1
  In  In18  1  0.255104  0.582270  0.582270  1
  Ni  Ni19  1  0.143523  0.143523  0.143523  1
  Ni  Ni20  1  0.140872  0.140872  0.572641  1
  Ni  Ni21  1  0.140872  0.572641  0.140872  1
  Ni  Ni22  1  0.572641  0.140872  0.140872  1
  Ag  Ag23  1  0.583912  0.583912  0.583912  1
