# generated using pymatgen
data_Hf6Al8Co7Si8
_symmetry_space_group_name_H-M   'P 1'
_cell_length_a   8.28104272
_cell_length_b   8.28104213
_cell_length_c   8.28104100
_cell_angle_alpha   59.99999254
_cell_angle_beta   59.99999490
_cell_angle_gamma   59.99999424
_symmetry_Int_Tables_number   1
_chemical_formula_structural   Hf6Al8Co7Si8
_chemical_formula_sum   'Hf6 Al8 Co7 Si8'
_cell_volume   401.55024618
_cell_formula_units_Z   1
loop_
 _symmetry_equiv_pos_site_id
 _symmetry_equiv_pos_as_xyz
  1  'x, y, z'
loop_
 _atom_site_type_symbol
 _atom_site_label
 _atom_site_symmetry_multiplicity
 _atom_site_fract_x
 _atom_site_fract_y
 _atom_site_fract_z
 _atom_site_occupancy
  Hf  Hf0  1  0.692910  0.307089  0.307089  1
  Hf  Hf1  1  0.307089  0.692910  0.692910  1
  Hf  Hf2  1  0.307089  0.692910  0.307089  1
  Hf  Hf3  1  0.307089  0.307089  0.692910  1
  Hf  Hf4  1  0.692910  0.307089  0.692910  1
  Hf  Hf5  1  0.692910  0.692910  0.307089  1
  Al  Al6  1  0.119483  0.119483  0.119483  1
  Al  Al7  1  0.119483  0.119483  0.641551  1
  Al  Al8  1  0.641551  0.119483  0.119483  1
  Al  Al9  1  0.119483  0.641551  0.119483  1
  Al  Al10  1  0.880516  0.880516  0.880516  1
  Al  Al11  1  0.880516  0.880516  0.358452  1
  Al  Al12  1  0.880516  0.358452  0.880516  1
  Al  Al13  1  0.358452  0.880516  0.880516  1
  Co  Co14  1  0.000000  0.000000  0.000000  1
  Co  Co15  1  0.500000  0.000000  0.000000  1
  Co  Co16  1  0.000000  0.500000  0.500000  1
  Co  Co17  1  0.000000  0.500000  0.000000  1
  Co  Co18  1  0.000000  0.000000  0.500000  1
  Co  Co19  1  0.500000  0.000000  0.500000  1
  Co  Co20  1  0.500000  0.500000  0.000000  1
  Si  Si21  1  0.338085  0.338085  0.338085  1
  Si  Si22  1  0.338085  0.338085  0.985743  1
  Si  Si23  1  0.985743  0.338085  0.338085  1
  Si  Si24  1  0.338085  0.985743  0.338085  1
  Si  Si25  1  0.661915  0.661915  0.661915  1
  Si  Si26  1  0.661915  0.661915  0.014257  1
  Si  Si27  1  0.661915  0.014257  0.661915  1
  Si  Si28  1  0.014257  0.661915  0.661915  1
