# generated using pymatgen
data_Ho5Si3O
_symmetry_space_group_name_H-M   'P 1'
_cell_length_a   8.37362700
_cell_length_b   8.37362701
_cell_length_c   6.19251200
_cell_angle_alpha   90.00000000
_cell_angle_beta   90.00000000
_cell_angle_gamma   119.99999602
_symmetry_Int_Tables_number   1
_chemical_formula_structural   Ho5Si3O
_chemical_formula_sum   'Ho10 Si6 O2'
_cell_volume   376.03193480
_cell_formula_units_Z   2
loop_
 _symmetry_equiv_pos_site_id
 _symmetry_equiv_pos_as_xyz
  1  'x, y, z'
loop_
 _atom_site_type_symbol
 _atom_site_label
 _atom_site_symmetry_multiplicity
 _atom_site_fract_x
 _atom_site_fract_y
 _atom_site_fract_z
 _atom_site_occupancy
  Ho  Ho0  1  0.768111  0.768111  0.250000  1
  Ho  Ho1  1  0.768111  0.000000  0.750000  1
  Ho  Ho2  1  0.000000  0.231889  0.250000  1
  Ho  Ho3  1  0.000000  0.768111  0.750000  1
  Ho  Ho4  1  0.231889  0.231889  0.750000  1
  Ho  Ho5  1  0.231889  0.000000  0.250000  1
  Ho  Ho6  1  0.666667  0.333333  0.000000  1
  Ho  Ho7  1  0.333333  0.666667  0.500000  1
  Ho  Ho8  1  0.333333  0.666667  0.000000  1
  Ho  Ho9  1  0.666667  0.333333  0.500000  1
  Si  Si10  1  0.398564  0.000000  0.750000  1
  Si  Si11  1  0.398564  0.398564  0.250000  1
  Si  Si12  1  0.000000  0.601436  0.250000  1
  Si  Si13  1  0.000000  0.398564  0.750000  1
  Si  Si14  1  0.601436  0.601436  0.750000  1
  Si  Si15  1  0.601436  0.000000  0.250000  1
  O  O16  1  0.000000  0.000000  0.500000  1
  O  O17  1  0.000000  0.000000  0.000000  1
