# generated using pymatgen
data_Dy8In2OsRh
_symmetry_space_group_name_H-M   'P 1'
_cell_length_a   9.65894708
_cell_length_b   9.71102273
_cell_length_c   9.65894768
_cell_angle_alpha   59.82149686
_cell_angle_beta   59.61816978
_cell_angle_gamma   59.82149189
_symmetry_Int_Tables_number   1
_chemical_formula_structural   Dy8In2OsRh
_chemical_formula_sum   'Dy16 In4 Os2 Rh2'
_cell_volume   637.04534737
_cell_formula_units_Z   2
loop_
 _symmetry_equiv_pos_site_id
 _symmetry_equiv_pos_as_xyz
  1  'x, y, z'
loop_
 _atom_site_type_symbol
 _atom_site_label
 _atom_site_symmetry_multiplicity
 _atom_site_fract_x
 _atom_site_fract_y
 _atom_site_fract_z
 _atom_site_occupancy
  Dy  Dy0  1  0.189655  0.191522  0.804852  1
  Dy  Dy1  1  0.598015  0.597635  0.206713  1
  Dy  Dy2  1  0.441042  0.058958  0.441042  1
  Dy  Dy3  1  0.439038  0.443941  0.059859  1
  Dy  Dy4  1  0.812622  0.187378  0.812622  1
  Dy  Dy5  1  0.193148  0.806852  0.193148  1
  Dy  Dy6  1  0.439038  0.057161  0.059859  1
  Dy  Dy7  1  0.189655  0.813971  0.804852  1
  Dy  Dy8  1  0.057061  0.442939  0.057061  1
  Dy  Dy9  1  0.804852  0.813971  0.189655  1
  Dy  Dy10  1  0.206713  0.597635  0.598015  1
  Dy  Dy11  1  0.059859  0.443941  0.439038  1
  Dy  Dy12  1  0.059859  0.057161  0.439038  1
  Dy  Dy13  1  0.804852  0.191522  0.189655  1
  Dy  Dy14  1  0.599474  0.202136  0.599474  1
  Dy  Dy15  1  0.599474  0.598918  0.599474  1
  In  In16  1  0.831857  0.833052  0.831857  1
  In  In17  1  0.832940  0.832825  0.501411  1
  In  In18  1  0.501411  0.832825  0.832940  1
  In  In19  1  0.831857  0.503235  0.831857  1
  Os  Os20  1  0.392640  0.827498  0.392640  1
  Os  Os21  1  0.392640  0.387222  0.392640  1
  Rh  Rh22  1  0.829581  0.388851  0.392718  1
  Rh  Rh23  1  0.392718  0.388851  0.829581  1
