# generated using pymatgen
data_Tl4IrRh3O13
_symmetry_space_group_name_H-M   'P 1'
_cell_length_a   7.32084124
_cell_length_b   7.30729226
_cell_length_c   7.30729400
_cell_angle_alpha   60.00000116
_cell_angle_beta   60.06120434
_cell_angle_gamma   60.06119653
_symmetry_Int_Tables_number   1
_chemical_formula_structural   Tl4IrRh3O13
_chemical_formula_sum   'Tl4 Ir1 Rh3 O13'
_cell_volume   276.66879345
_cell_formula_units_Z   1
loop_
 _symmetry_equiv_pos_site_id
 _symmetry_equiv_pos_as_xyz
  1  'x, y, z'
loop_
 _atom_site_type_symbol
 _atom_site_label
 _atom_site_symmetry_multiplicity
 _atom_site_fract_x
 _atom_site_fract_y
 _atom_site_fract_z
 _atom_site_occupancy
  Tl  Tl0  1  0.874541  0.375153  0.375153  1
  Tl  Tl1  1  0.374086  0.374087  0.374087  1
  Tl  Tl2  1  0.374086  0.374087  0.877741  1
  Tl  Tl3  1  0.374086  0.877741  0.374087  1
  Ir  Ir4  1  0.372358  0.875881  0.875881  1
  Rh  Rh5  1  0.876576  0.371030  0.876197  1
  Rh  Rh6  1  0.876576  0.876197  0.371030  1
  Rh  Rh7  1  0.876576  0.876197  0.876197  1
  O  O8  1  0.202235  0.800803  0.800803  1
  O  O9  1  0.202235  0.800803  0.196159  1
  O  O10  1  0.546085  0.951176  0.951176  1
  O  O11  1  0.546085  0.951176  0.551563  1
  O  O12  1  0.958429  0.953450  0.544060  1
  O  O13  1  0.794308  0.800053  0.202820  1
  O  O14  1  0.546085  0.551563  0.951176  1
  O  O15  1  0.794308  0.202820  0.800053  1
  O  O16  1  0.794308  0.202820  0.202820  1
  O  O17  1  0.958429  0.544060  0.953450  1
  O  O18  1  0.958429  0.544060  0.544060  1
  O  O19  1  0.202235  0.196159  0.800803  1
  O  O20  1  0.497939  0.500687  0.500687  1
