# generated using pymatgen
data_Tb18Ho2IrRh11
_symmetry_space_group_name_H-M   'P 1'
_cell_length_a   10.94543506
_cell_length_b   10.94543414
_cell_length_c   6.37921601
_cell_angle_alpha   89.99818379
_cell_angle_beta   89.99818051
_cell_angle_gamma   90.06816071
_symmetry_Int_Tables_number   1
_chemical_formula_structural   Tb18Ho2IrRh11
_chemical_formula_sum   'Tb18 Ho2 Ir1 Rh11'
_cell_volume   764.24573060
_cell_formula_units_Z   1
loop_
 _symmetry_equiv_pos_site_id
 _symmetry_equiv_pos_as_xyz
  1  'x, y, z'
loop_
 _atom_site_type_symbol
 _atom_site_label
 _atom_site_symmetry_multiplicity
 _atom_site_fract_x
 _atom_site_fract_y
 _atom_site_fract_z
 _atom_site_occupancy
  Tb  Tb0  1  0.290695  0.088623  0.378397  1
  Tb  Tb1  1  0.291047  0.909937  0.878344  1
  Tb  Tb2  1  0.709184  0.088430  0.878297  1
  Tb  Tb3  1  0.709059  0.911257  0.378143  1
  Tb  Tb4  1  0.587123  0.789973  0.877978  1
  Tb  Tb5  1  0.588645  0.209473  0.378687  1
  Tb  Tb6  1  0.410987  0.789967  0.379247  1
  Tb  Tb7  1  0.411294  0.209240  0.878109  1
  Tb  Tb8  1  0.210027  0.412877  0.622022  1
  Tb  Tb9  1  0.210033  0.589013  0.120753  1
  Tb  Tb10  1  0.790527  0.411355  0.121313  1
  Tb  Tb11  1  0.790760  0.588706  0.621891  1
  Tb  Tb12  1  0.911377  0.709305  0.121603  1
  Tb  Tb13  1  0.911570  0.290816  0.621703  1
  Tb  Tb14  1  0.090063  0.708953  0.621656  1
  Tb  Tb15  1  0.088743  0.290941  0.121857  1
  Tb  Tb16  1  0.999781  0.999891  0.500115  1
  Tb  Tb17  1  0.000109  0.000219  0.999885  1
  Ho  Ho18  1  0.499719  0.500018  0.000065  1
  Ho  Ho19  1  0.499982  0.500281  0.499935  1
  Ir  Ir20  1  0.346587  0.653413  0.750000  1
  Rh  Rh21  1  0.845789  0.154211  0.250000  1
  Rh  Rh22  1  0.845621  0.845954  0.750214  1
  Rh  Rh23  1  0.154046  0.154379  0.749786  1
  Rh  Rh24  1  0.153550  0.846450  0.250000  1
  Rh  Rh25  1  0.653718  0.346282  0.750000  1
  Rh  Rh26  1  0.654428  0.653803  0.250110  1
  Rh  Rh27  1  0.346197  0.345572  0.249890  1
  Rh  Rh28  1  0.500208  0.000466  0.123166  1
  Rh  Rh29  1  0.500294  0.000695  0.622574  1
  Rh  Rh30  1  0.999305  0.499706  0.877426  1
  Rh  Rh31  1  0.999534  0.499792  0.376834  1
