# generated using pymatgen
data_Tb2DyPaGa12Fe
_symmetry_space_group_name_H-M   'P 1'
_cell_length_a   7.45953628
_cell_length_b   7.45953589
_cell_length_c   7.34470317
_cell_angle_alpha   109.29355766
_cell_angle_beta   109.29356175
_cell_angle_gamma   109.78886646
_symmetry_Int_Tables_number   1
_chemical_formula_structural   Tb2DyPaGa12Fe
_chemical_formula_sum   'Tb2 Dy1 Pa1 Ga12 Fe1'
_cell_volume   314.75282815
_cell_formula_units_Z   1
loop_
 _symmetry_equiv_pos_site_id
 _symmetry_equiv_pos_as_xyz
  1  'x, y, z'
loop_
 _atom_site_type_symbol
 _atom_site_label
 _atom_site_symmetry_multiplicity
 _atom_site_fract_x
 _atom_site_fract_y
 _atom_site_fract_z
 _atom_site_occupancy
  Tb  Tb0  1  0.000000  0.500000  0.000000  1
  Tb  Tb1  1  0.500000  0.000000  0.000000  1
  Dy  Dy2  1  0.500000  0.500000  0.500000  1
  Pa  Pa3  1  0.000000  0.000000  0.500000  1
  Ga  Ga4  1  0.749960  0.250040  0.500000  1
  Ga  Ga5  1  0.749964  0.500438  0.250439  1
  Ga  Ga6  1  0.499562  0.250036  0.749561  1
  Ga  Ga7  1  0.250036  0.499562  0.749561  1
  Ga  Ga8  1  0.250040  0.749960  0.500000  1
  Ga  Ga9  1  0.500438  0.749964  0.250439  1
  Ga  Ga10  1  0.714943  0.714943  0.001742  1
  Ga  Ga11  1  0.284951  0.000480  0.287206  1
  Ga  Ga12  1  0.000480  0.284951  0.287206  1
  Ga  Ga13  1  0.285057  0.285057  0.998258  1
  Ga  Ga14  1  0.715049  0.999520  0.712794  1
  Ga  Ga15  1  0.999520  0.715049  0.712794  1
  Fe  Fe16  1  0.000000  0.000000  0.000000  1
