# generated using pymatgen
data_Er16Cd4Co3Os
_symmetry_space_group_name_H-M   'P 1'
_cell_length_a   9.49305904
_cell_length_b   9.42943453
_cell_length_c   9.42956719
_cell_angle_alpha   60.04728202
_cell_angle_beta   60.29509408
_cell_angle_gamma   60.28625439
_symmetry_Int_Tables_number   1
_chemical_formula_structural   Er16Cd4Co3Os
_chemical_formula_sum   'Er16 Cd4 Co3 Os1'
_cell_volume   599.67931324
_cell_formula_units_Z   1
loop_
 _symmetry_equiv_pos_site_id
 _symmetry_equiv_pos_as_xyz
  1  'x, y, z'
loop_
 _atom_site_type_symbol
 _atom_site_label
 _atom_site_symmetry_multiplicity
 _atom_site_fract_x
 _atom_site_fract_y
 _atom_site_fract_z
 _atom_site_occupancy
  Er  Er0  1  0.341080  0.350173  0.350301  1
  Er  Er1  1  0.341215  0.350270  0.958304  1
  Er  Er2  1  0.341155  0.958384  0.350328  1
  Er  Er3  1  0.962116  0.345936  0.346039  1
  Er  Er4  1  0.816410  0.187495  0.187488  1
  Er  Er5  1  0.188869  0.812170  0.812014  1
  Er  Er6  1  0.188879  0.812137  0.186959  1
  Er  Er7  1  0.816429  0.187499  0.808570  1
  Er  Er8  1  0.188865  0.186947  0.812041  1
  Er  Er9  1  0.816354  0.808631  0.187504  1
  Er  Er10  1  0.936689  0.563121  0.563188  1
  Er  Er11  1  0.563271  0.939660  0.939678  1
  Er  Er12  1  0.563269  0.939640  0.557422  1
  Er  Er13  1  0.936689  0.563156  0.936997  1
  Er  Er14  1  0.563282  0.557398  0.939654  1
  Er  Er15  1  0.936700  0.937001  0.563179  1
  Cd  Cd16  1  0.581490  0.579903  0.579872  1
  Cd  Cd17  1  0.581482  0.579928  0.258639  1
  Cd  Cd18  1  0.581506  0.258658  0.579898  1
  Cd  Cd19  1  0.259287  0.580258  0.580136  1
  Co  Co20  1  0.140460  0.141068  0.141098  1
  Co  Co21  1  0.140421  0.141033  0.577457  1
  Co  Co22  1  0.140438  0.577395  0.141072  1
  Os  Os23  1  0.573644  0.142139  0.142163  1
