# generated using pymatgen
data_CeNd13Ir6
_symmetry_space_group_name_H-M   'P 1'
_cell_length_a   10.00399200
_cell_length_b   10.17190415
_cell_length_c   6.39210697
_cell_angle_alpha   89.88664673
_cell_angle_beta   90.00000000
_cell_angle_gamma   119.45542408
_symmetry_Int_Tables_number   1
_chemical_formula_structural   CeNd13Ir6
_chemical_formula_sum   'Ce1 Nd13 Ir6'
_cell_volume   566.37786714
_cell_formula_units_Z   1
loop_
 _symmetry_equiv_pos_site_id
 _symmetry_equiv_pos_as_xyz
  1  'x, y, z'
loop_
 _atom_site_type_symbol
 _atom_site_label
 _atom_site_symmetry_multiplicity
 _atom_site_fract_x
 _atom_site_fract_y
 _atom_site_fract_z
 _atom_site_occupancy
  Ce  Ce0  1  0.874136  0.748271  0.740114  1
  Nd  Nd1  1  0.335014  0.670027  0.020462  1
  Nd  Nd2  1  0.540246  0.080491  0.057257  1
  Nd  Nd3  1  0.541595  0.463434  0.052336  1
  Nd  Nd4  1  0.921839  0.463434  0.052336  1
  Nd  Nd5  1  0.126690  0.875702  0.251539  1
  Nd  Nd6  1  0.749012  0.875702  0.251539  1
  Nd  Nd7  1  0.126170  0.252339  0.248318  1
  Nd  Nd8  1  0.664897  0.329792  0.528316  1
  Nd  Nd9  1  0.460118  0.920237  0.557836  1
  Nd  Nd10  1  0.075059  0.536795  0.549102  1
  Nd  Nd11  1  0.461736  0.536795  0.549102  1
  Nd  Nd12  1  0.250948  0.126322  0.750364  1
  Nd  Nd13  1  0.875375  0.126322  0.750364  1
  Ir  Ir14  1  0.811571  0.623142  0.321835  1
  Ir  Ir15  1  0.376487  0.190176  0.301758  1
  Ir  Ir16  1  0.813689  0.190176  0.301758  1
  Ir  Ir17  1  0.190024  0.380049  0.804993  1
  Ir  Ir18  1  0.171131  0.805399  0.796337  1
  Ir  Ir19  1  0.634268  0.805399  0.796337  1
