# generated using pymatgen
data_Ac7Ho13Pb16
_symmetry_space_group_name_H-M   'P 1'
_cell_length_a   8.47451140
_cell_length_b   8.58125640
_cell_length_c   16.17060800
_cell_angle_alpha   90.04861417
_cell_angle_beta   90.23188106
_cell_angle_gamma   89.71193192
_symmetry_Int_Tables_number   1
_chemical_formula_structural   Ac7Ho13Pb16
_chemical_formula_sum   'Ac7 Ho13 Pb16'
_cell_volume   1175.93333420
_cell_formula_units_Z   1
loop_
 _symmetry_equiv_pos_site_id
 _symmetry_equiv_pos_as_xyz
  1  'x, y, z'
loop_
 _atom_site_type_symbol
 _atom_site_label
 _atom_site_symmetry_multiplicity
 _atom_site_fract_x
 _atom_site_fract_y
 _atom_site_fract_z
 _atom_site_occupancy
  Ac  Ac0  1  0.976338  0.822254  0.900990  1
  Ac  Ac1  1  0.521735  0.322875  0.095701  1
  Ac  Ac2  1  0.023193  0.178217  0.405737  1
  Ac  Ac3  1  0.523109  0.325886  0.405505  1
  Ac  Ac4  1  0.022343  0.175982  0.095514  1
  Ac  Ac5  1  0.479794  0.676651  0.904010  1
  Ac  Ac6  1  0.976627  0.821264  0.596046  1
  Ho  Ho7  1  0.636072  0.157067  0.623051  1
  Ho  Ho8  1  0.138576  0.343747  0.875286  1
  Ho  Ho9  1  0.364607  0.842695  0.123546  1
  Ho  Ho10  1  0.866588  0.656707  0.378933  1
  Ho  Ho11  1  0.367748  0.840286  0.378850  1
  Ho  Ho12  1  0.862922  0.657221  0.123156  1
  Ho  Ho13  1  0.635463  0.155276  0.873720  1
  Ho  Ho14  1  0.136482  0.345310  0.622606  1
  Ho  Ho15  1  0.467497  0.676118  0.601393  1
  Ho  Ho16  1  0.798953  0.495115  0.747850  1
  Ho  Ho17  1  0.300418  0.003916  0.747750  1
  Ho  Ho18  1  0.200506  0.506399  0.251162  1
  Ho  Ho19  1  0.699791  0.994489  0.250482  1
  Pb  Pb20  1  0.697038  0.954794  0.455183  1
  Pb  Pb21  1  0.197153  0.546610  0.045547  1
  Pb  Pb22  1  0.302250  0.045333  0.952719  1
  Pb  Pb23  1  0.788671  0.465340  0.548262  1
  Pb  Pb24  1  0.305534  0.037738  0.546820  1
  Pb  Pb25  1  0.804186  0.451441  0.953386  1
  Pb  Pb26  1  0.697736  0.954148  0.044928  1
  Pb  Pb27  1  0.207234  0.549833  0.460493  1
  Pb  Pb28  1  0.439946  0.366860  0.747867  1
  Pb  Pb29  1  0.940529  0.136945  0.748718  1
  Pb  Pb30  1  0.561188  0.636215  0.250268  1
  Pb  Pb31  1  0.060216  0.863540  0.251530  1
  Pb  Pb32  1  0.656779  0.848689  0.743896  1
  Pb  Pb33  1  0.170609  0.644302  0.747865  1
  Pb  Pb34  1  0.336007  0.144194  0.250599  1
  Pb  Pb35  1  0.836156  0.356545  0.250628  1
