# generated using pymatgen
data_DyY(Al5Rh)4
_symmetry_space_group_name_H-M   'P 1'
_cell_length_a   6.85467245
_cell_length_b   6.85467318
_cell_length_c   9.15044800
_cell_angle_alpha   90.00000000
_cell_angle_beta   90.00000000
_cell_angle_gamma   97.10806544
_symmetry_Int_Tables_number   1
_chemical_formula_structural   DyY(Al5Rh)4
_chemical_formula_sum   'Dy1 Y1 Al20 Rh4'
_cell_volume   426.64353359
_cell_formula_units_Z   1
loop_
 _symmetry_equiv_pos_site_id
 _symmetry_equiv_pos_as_xyz
  1  'x, y, z'
loop_
 _atom_site_type_symbol
 _atom_site_label
 _atom_site_symmetry_multiplicity
 _atom_site_fract_x
 _atom_site_fract_y
 _atom_site_fract_z
 _atom_site_occupancy
  Dy  Dy0  1  0.128511  0.871489  0.250000  1
  Y  Y1  1  0.871008  0.128992  0.750000  1
  Al  Al2  1  0.621727  0.378273  0.549966  1
  Al  Al3  1  0.378054  0.621946  0.450046  1
  Al  Al4  1  0.378054  0.621946  0.049954  1
  Al  Al5  1  0.621727  0.378273  0.950034  1
  Al  Al6  1  0.220789  0.220844  0.499974  1
  Al  Al7  1  0.779156  0.779211  0.499974  1
  Al  Al8  1  0.779156  0.779211  0.000026  1
  Al  Al9  1  0.220789  0.220844  0.000026  1
  Al  Al10  1  0.846215  0.153785  0.103488  1
  Al  Al11  1  0.154212  0.845788  0.896836  1
  Al  Al12  1  0.154212  0.845788  0.603164  1
  Al  Al13  1  0.846215  0.153785  0.396512  1
  Al  Al14  1  0.857591  0.592651  0.750000  1
  Al  Al15  1  0.141901  0.407402  0.250000  1
  Al  Al16  1  0.407349  0.142409  0.750000  1
  Al  Al17  1  0.592598  0.858099  0.250000  1
  Al  Al18  1  0.226289  0.480950  0.750000  1
  Al  Al19  1  0.774308  0.519143  0.250000  1
  Al  Al20  1  0.519050  0.773711  0.750000  1
  Al  Al21  1  0.480857  0.225692  0.250000  1
  Rh  Rh22  1  0.000263  0.500147  0.500114  1
  Rh  Rh23  1  0.000263  0.500147  0.999886  1
  Rh  Rh24  1  0.499853  0.999737  0.999886  1
  Rh  Rh25  1  0.499853  0.999737  0.500114  1
