# generated using pymatgen
data_ErTm4Rh5
_symmetry_space_group_name_H-M   'P 1'
_cell_length_a   3.39113000
_cell_length_b   3.39113000
_cell_length_c   16.92866600
_cell_angle_alpha   90.00000000
_cell_angle_beta   90.00000000
_cell_angle_gamma   90.00000000
_symmetry_Int_Tables_number   1
_chemical_formula_structural   ErTm4Rh5
_chemical_formula_sum   'Er1 Tm4 Rh5'
_cell_volume   194.67564144
_cell_formula_units_Z   1
loop_
 _symmetry_equiv_pos_site_id
 _symmetry_equiv_pos_as_xyz
  1  'x, y, z'
loop_
 _atom_site_type_symbol
 _atom_site_label
 _atom_site_symmetry_multiplicity
 _atom_site_fract_x
 _atom_site_fract_y
 _atom_site_fract_z
 _atom_site_occupancy
  Er  Er0  1  0.000000  0.000000  0.000000  1
  Tm  Tm1  1  0.000000  0.000000  0.199944  1
  Tm  Tm2  1  0.000000  0.000000  0.399896  1
  Tm  Tm3  1  0.000000  0.000000  0.600104  1
  Tm  Tm4  1  0.000000  0.000000  0.800056  1
  Rh  Rh5  1  0.500000  0.500000  0.100480  1
  Rh  Rh6  1  0.500000  0.500000  0.299873  1
  Rh  Rh7  1  0.500000  0.500000  0.500000  1
  Rh  Rh8  1  0.500000  0.500000  0.700127  1
  Rh  Rh9  1  0.500000  0.500000  0.899520  1
