# generated using pymatgen
data_Hf3MnTc3As2
_symmetry_space_group_name_H-M   'P 1'
_cell_length_a   7.76360016
_cell_length_b   7.76360090
_cell_length_c   7.76360197
_cell_angle_alpha   127.52158599
_cell_angle_beta   124.60716751
_cell_angle_gamma   79.80452723
_symmetry_Int_Tables_number   1
_chemical_formula_structural   Hf3MnTc3As2
_chemical_formula_sum   'Hf6 Mn2 Tc6 As4'
_cell_volume   295.06499938
_cell_formula_units_Z   2
loop_
 _symmetry_equiv_pos_site_id
 _symmetry_equiv_pos_as_xyz
  1  'x, y, z'
loop_
 _atom_site_type_symbol
 _atom_site_label
 _atom_site_symmetry_multiplicity
 _atom_site_fract_x
 _atom_site_fract_y
 _atom_site_fract_z
 _atom_site_occupancy
  Hf  Hf0  1  0.449463  0.651884  0.702421  1
  Hf  Hf1  1  0.550537  0.252958  0.202421  1
  Hf  Hf2  1  0.749863  0.854827  0.604963  1
  Hf  Hf3  1  0.250137  0.855100  0.104963  1
  Hf  Hf4  1  0.051023  0.253085  0.702062  1
  Hf  Hf5  1  0.948977  0.651038  0.202062  1
  Mn  Mn6  1  0.250607  0.254961  0.504355  1
  Mn  Mn7  1  0.749393  0.253748  0.004355  1
  Tc  Tc8  1  0.500000  0.497172  0.997172  1
  Tc  Tc9  1  0.000000  0.497172  0.497172  1
  Tc  Tc10  1  0.121598  0.253445  0.130497  1
  Tc  Tc11  1  0.878402  0.008898  0.131847  1
  Tc  Tc12  1  0.377052  0.008898  0.630497  1
  Tc  Tc13  1  0.622948  0.253445  0.631847  1
  As  As14  1  0.333093  0.586521  0.253056  1
  As  As15  1  0.666907  0.919963  0.253427  1
  As  As16  1  0.166536  0.919963  0.753056  1
  As  As17  1  0.833464  0.586521  0.753427  1
