# generated using pymatgen
data_Y6Er3TmBi6
_symmetry_space_group_name_H-M   'P 1'
_cell_length_a   8.24135300
_cell_length_b   9.49226200
_cell_length_c   12.05455000
_cell_angle_alpha   89.99758076
_cell_angle_beta   90.00000000
_cell_angle_gamma   90.00000000
_symmetry_Int_Tables_number   1
_chemical_formula_structural   Y6Er3TmBi6
_chemical_formula_sum   'Y12 Er6 Tm2 Bi12'
_cell_volume   943.01637892
_cell_formula_units_Z   2
loop_
 _symmetry_equiv_pos_site_id
 _symmetry_equiv_pos_as_xyz
  1  'x, y, z'
loop_
 _atom_site_type_symbol
 _atom_site_label
 _atom_site_symmetry_multiplicity
 _atom_site_fract_x
 _atom_site_fract_y
 _atom_site_fract_z
 _atom_site_occupancy
  Y  Y0  1  0.186390  0.749737  0.718762  1
  Y  Y1  1  0.686390  0.750263  0.781238  1
  Y  Y2  1  0.813678  0.249734  0.281264  1
  Y  Y3  1  0.313678  0.250266  0.218736  1
  Y  Y4  1  0.693443  0.562846  0.059742  1
  Y  Y5  1  0.193443  0.937154  0.440258  1
  Y  Y6  1  0.306679  0.062697  0.940281  1
  Y  Y7  1  0.806679  0.437303  0.559719  1
  Y  Y8  1  0.354149  0.750017  0.215601  1
  Y  Y9  1  0.854149  0.749983  0.284399  1
  Y  Y10  1  0.645729  0.250103  0.784533  1
  Y  Y11  1  0.145729  0.249897  0.715467  1
  Er  Er12  1  0.974247  0.250202  0.011312  1
  Er  Er13  1  0.474247  0.249798  0.488688  1
  Er  Er14  1  0.306797  0.434976  0.940259  1
  Er  Er15  1  0.806797  0.065024  0.559741  1
  Er  Er16  1  0.693348  0.934889  0.059765  1
  Er  Er17  1  0.193348  0.565111  0.440235  1
  Tm  Tm18  1  0.025436  0.750190  0.988843  1
  Tm  Tm19  1  0.525436  0.749810  0.511157  1
  Bi  Bi20  1  0.434288  0.003433  0.672631  1
  Bi  Bi21  1  0.934288  0.496567  0.827369  1
  Bi  Bi22  1  0.566054  0.504018  0.327328  1
  Bi  Bi23  1  0.066054  0.995982  0.172672  1
  Bi  Bi24  1  0.566683  0.995736  0.327416  1
  Bi  Bi25  1  0.066683  0.504264  0.172584  1
  Bi  Bi26  1  0.433651  0.496338  0.672553  1
  Bi  Bi27  1  0.933651  0.003662  0.827447  1
  Bi  Bi28  1  0.407477  0.748499  0.957999  1
  Bi  Bi29  1  0.907477  0.751501  0.542001  1
  Bi  Bi30  1  0.591950  0.248482  0.042103  1
  Bi  Bi31  1  0.091950  0.251518  0.457897  1
