# generated using pymatgen
data_Lu2AlCoB8
_symmetry_space_group_name_H-M   'P 1'
_cell_length_a   5.86584844
_cell_length_b   5.86584775
_cell_length_c   3.39403800
_cell_angle_alpha   90.00000000
_cell_angle_beta   90.00000000
_cell_angle_gamma   104.27309413
_symmetry_Int_Tables_number   1
_chemical_formula_structural   Lu2AlCoB8
_chemical_formula_sum   'Lu2 Al1 Co1 B8'
_cell_volume   113.17775776
_cell_formula_units_Z   1
loop_
 _symmetry_equiv_pos_site_id
 _symmetry_equiv_pos_as_xyz
  1  'x, y, z'
loop_
 _atom_site_type_symbol
 _atom_site_label
 _atom_site_symmetry_multiplicity
 _atom_site_fract_x
 _atom_site_fract_y
 _atom_site_fract_z
 _atom_site_occupancy
  Lu  Lu0  1  0.196881  0.803098  0.000000  1
  Lu  Lu1  1  0.803098  0.196881  0.000000  1
  Al  Al2  1  0.324424  0.324424  0.000000  1
  Co  Co3  1  0.669803  0.669803  0.000000  1
  B  B4  1  0.881014  0.568269  0.500000  1
  B  B5  1  0.412066  0.597220  0.500000  1
  B  B6  1  0.872254  0.872254  0.500000  1
  B  B7  1  0.568269  0.881014  0.500000  1
  B  B8  1  0.438615  0.118067  0.500000  1
  B  B9  1  0.118289  0.118289  0.500000  1
  B  B10  1  0.597220  0.412066  0.500000  1
  B  B11  1  0.118067  0.438615  0.500000  1
