# generated using pymatgen
data_Yb6Er3LuSn8
_symmetry_space_group_name_H-M   'P 1'
_cell_length_a   7.80414486
_cell_length_b   8.39943160
_cell_length_c   15.95328524
_cell_angle_alpha   90.00396197
_cell_angle_beta   90.01917735
_cell_angle_gamma   90.15479174
_symmetry_Int_Tables_number   1
_chemical_formula_structural   Yb6Er3LuSn8
_chemical_formula_sum   'Yb12 Er6 Lu2 Sn16'
_cell_volume   1045.74004791
_cell_formula_units_Z   2
loop_
 _symmetry_equiv_pos_site_id
 _symmetry_equiv_pos_as_xyz
  1  'x, y, z'
loop_
 _atom_site_type_symbol
 _atom_site_label
 _atom_site_symmetry_multiplicity
 _atom_site_fract_x
 _atom_site_fract_y
 _atom_site_fract_z
 _atom_site_occupancy
  Yb  Yb0  1  0.177055  0.334148  0.620538  1
  Yb  Yb1  1  0.501106  0.686570  0.593307  1
  Yb  Yb2  1  0.001444  0.814547  0.909065  1
  Yb  Yb3  1  0.495686  0.312583  0.092099  1
  Yb  Yb4  1  0.998548  0.188159  0.407034  1
  Yb  Yb5  1  0.496356  0.312919  0.407907  1
  Yb  Yb6  1  0.997416  0.186934  0.092305  1
  Yb  Yb7  1  0.501324  0.686774  0.907626  1
  Yb  Yb8  1  0.003113  0.813471  0.591616  1
  Yb  Yb9  1  0.333614  0.991232  0.749552  1
  Yb  Yb10  1  0.165042  0.488810  0.249314  1
  Yb  Yb11  1  0.666506  0.010481  0.250497  1
  Er  Er12  1  0.672817  0.163983  0.622431  1
  Er  Er13  1  0.173394  0.333811  0.878829  1
  Er  Er14  1  0.326728  0.834249  0.121504  1
  Er  Er15  1  0.827878  0.664299  0.377688  1
  Er  Er16  1  0.326636  0.834772  0.377358  1
  Er  Er17  1  0.826788  0.664647  0.121072  1
  Lu  Lu18  1  0.672289  0.163428  0.879227  1
  Lu  Lu19  1  0.838181  0.507996  0.748748  1
  Sn  Sn20  1  0.675379  0.961722  0.459615  1
  Sn  Sn21  1  0.170783  0.536935  0.040179  1
  Sn  Sn22  1  0.328177  0.036943  0.959409  1
  Sn  Sn23  1  0.823896  0.466423  0.542935  1
  Sn  Sn24  1  0.335776  0.034169  0.540208  1
  Sn  Sn25  1  0.827014  0.465073  0.955610  1
  Sn  Sn26  1  0.671773  0.962855  0.040835  1
  Sn  Sn27  1  0.167987  0.538805  0.456948  1
  Sn  Sn28  1  0.477514  0.380428  0.754100  1
  Sn  Sn29  1  0.966867  0.129055  0.751447  1
  Sn  Sn30  1  0.529573  0.629568  0.249486  1
  Sn  Sn31  1  0.029403  0.870416  0.248318  1
  Sn  Sn32  1  0.719283  0.865373  0.751599  1
  Sn  Sn33  1  0.210235  0.628306  0.753385  1
  Sn  Sn34  1  0.283346  0.126584  0.249209  1
  Sn  Sn35  1  0.781073  0.373534  0.249003  1
