# generated using pymatgen
data_YEr2(AlNi2)3
_symmetry_space_group_name_H-M   'P 1'
_cell_length_a   8.43320665
_cell_length_b   8.43320637
_cell_length_c   8.43320613
_cell_angle_alpha   35.90247018
_cell_angle_beta   35.90247008
_cell_angle_gamma   35.90247105
_symmetry_Int_Tables_number   1
_chemical_formula_structural   YEr2(AlNi2)3
_chemical_formula_sum   'Y1 Er2 Al3 Ni6'
_cell_volume   184.43687479
_cell_formula_units_Z   1
loop_
 _symmetry_equiv_pos_site_id
 _symmetry_equiv_pos_as_xyz
  1  'x, y, z'
loop_
 _atom_site_type_symbol
 _atom_site_label
 _atom_site_symmetry_multiplicity
 _atom_site_fract_x
 _atom_site_fract_y
 _atom_site_fract_z
 _atom_site_occupancy
  Y  Y0  1  0.000000  0.000000  0.000000  1
  Er  Er1  1  0.862352  0.862352  0.862352  1
  Er  Er2  1  0.137648  0.137648  0.137648  1
  Al  Al3  1  0.500000  0.500000  0.500000  1
  Al  Al4  1  0.666095  0.666095  0.666095  1
  Al  Al5  1  0.333905  0.333905  0.333905  1
  Ni  Ni6  1  0.414618  0.921796  0.414618  1
  Ni  Ni7  1  0.414618  0.414618  0.921796  1
  Ni  Ni8  1  0.921796  0.414618  0.414618  1
  Ni  Ni9  1  0.585382  0.078204  0.585382  1
  Ni  Ni10  1  0.585382  0.585382  0.078204  1
  Ni  Ni11  1  0.078204  0.585382  0.585382  1
