# generated using pymatgen
data_La5Sn2BiI
_symmetry_space_group_name_H-M   'P 1'
_cell_length_a   9.88875973
_cell_length_b   9.88875918
_cell_length_c   7.05207300
_cell_angle_alpha   90.00000000
_cell_angle_beta   90.00000000
_cell_angle_gamma   120.45286122
_symmetry_Int_Tables_number   1
_chemical_formula_structural   La5Sn2BiI
_chemical_formula_sum   'La10 Sn4 Bi2 I2'
_cell_volume   594.47156272
_cell_formula_units_Z   2
loop_
 _symmetry_equiv_pos_site_id
 _symmetry_equiv_pos_as_xyz
  1  'x, y, z'
loop_
 _atom_site_type_symbol
 _atom_site_label
 _atom_site_symmetry_multiplicity
 _atom_site_fract_x
 _atom_site_fract_y
 _atom_site_fract_z
 _atom_site_occupancy
  La  La0  1  0.278169  0.995545  0.750000  1
  La  La1  1  0.721831  0.004455  0.250000  1
  La  La2  1  0.995545  0.278169  0.750000  1
  La  La3  1  0.004455  0.721831  0.250000  1
  La  La4  1  0.723690  0.723690  0.750000  1
  La  La5  1  0.276310  0.276310  0.250000  1
  La  La6  1  0.330019  0.669981  0.500000  1
  La  La7  1  0.669981  0.330019  0.500000  1
  La  La8  1  0.669981  0.330019  0.000000  1
  La  La9  1  0.330019  0.669981  0.000000  1
  Sn  Sn10  1  0.615496  0.998846  0.750000  1
  Sn  Sn11  1  0.384504  0.001154  0.250000  1
  Sn  Sn12  1  0.998846  0.615496  0.750000  1
  Sn  Sn13  1  0.001154  0.384504  0.250000  1
  Bi  Bi14  1  0.382408  0.382408  0.750000  1
  Bi  Bi15  1  0.617592  0.617592  0.250000  1
  I  I16  1  0.000000  0.000000  0.500000  1
  I  I17  1  0.000000  0.000000  0.000000  1
