# generated using pymatgen
data_Ho3ThCdRu
_symmetry_space_group_name_H-M   'P 1'
_cell_length_a   9.66943823
_cell_length_b   9.66950137
_cell_length_c   9.66279600
_cell_angle_alpha   60.02270441
_cell_angle_beta   60.02270403
_cell_angle_gamma   60.04690657
_symmetry_Int_Tables_number   1
_chemical_formula_structural   Ho3ThCdRu
_chemical_formula_sum   'Ho12 Th4 Cd4 Ru4'
_cell_volume   639.28706017
_cell_formula_units_Z   4
loop_
 _symmetry_equiv_pos_site_id
 _symmetry_equiv_pos_as_xyz
  1  'x, y, z'
loop_
 _atom_site_type_symbol
 _atom_site_label
 _atom_site_symmetry_multiplicity
 _atom_site_fract_x
 _atom_site_fract_y
 _atom_site_fract_z
 _atom_site_occupancy
  Ho  Ho0  1  0.062405  0.437199  0.437673  1
  Ho  Ho1  1  0.437204  0.062411  0.062707  1
  Ho  Ho2  1  0.437199  0.062414  0.437670  1
  Ho  Ho3  1  0.062408  0.437203  0.062713  1
  Ho  Ho4  1  0.437498  0.437500  0.062494  1
  Ho  Ho5  1  0.062649  0.062654  0.437347  1
  Ho  Ho6  1  0.185613  0.814436  0.814364  1
  Ho  Ho7  1  0.814439  0.185609  0.185587  1
  Ho  Ho8  1  0.814437  0.185614  0.814357  1
  Ho  Ho9  1  0.185609  0.814437  0.185584  1
  Ho  Ho10  1  0.814874  0.814869  0.185129  1
  Ho  Ho11  1  0.186028  0.186017  0.813981  1
  Th  Th12  1  0.597710  0.597709  0.597384  1
  Th  Th13  1  0.597708  0.597703  0.207210  1
  Th  Th14  1  0.598306  0.205653  0.598022  1
  Th  Th15  1  0.205659  0.598302  0.598018  1
  Cd  Cd16  1  0.831941  0.831939  0.832759  1
  Cd  Cd17  1  0.831940  0.831940  0.503357  1
  Cd  Cd18  1  0.831541  0.503768  0.832347  1
  Cd  Cd19  1  0.503773  0.831541  0.832344  1
  Ru  Ru20  1  0.393460  0.393466  0.392340  1
  Ru  Ru21  1  0.393469  0.393460  0.820729  1
  Ru  Ru22  1  0.394141  0.820007  0.392936  1
  Ru  Ru23  1  0.819990  0.394145  0.392944  1
