# generated using pymatgen
data_Tb8Mg2Sc9Si16Tc
_symmetry_space_group_name_H-M   'P 1'
_cell_length_a   6.98658511
_cell_length_b   7.37073309
_cell_length_c   13.92012300
_cell_angle_alpha   90.00000000
_cell_angle_beta   90.00000000
_cell_angle_gamma   90.11816560
_symmetry_Int_Tables_number   1
_chemical_formula_structural   Tb8Mg2Sc9Si16Tc
_chemical_formula_sum   'Tb8 Mg2 Sc9 Si16 Tc1'
_cell_volume   716.83266618
_cell_formula_units_Z   1
loop_
 _symmetry_equiv_pos_site_id
 _symmetry_equiv_pos_as_xyz
  1  'x, y, z'
loop_
 _atom_site_type_symbol
 _atom_site_label
 _atom_site_symmetry_multiplicity
 _atom_site_fract_x
 _atom_site_fract_y
 _atom_site_fract_z
 _atom_site_occupancy
  Tb  Tb0  1  0.010863  0.180938  0.094344  1
  Tb  Tb1  1  0.989810  0.821779  0.900087  1
  Tb  Tb2  1  0.488800  0.676921  0.900996  1
  Tb  Tb3  1  0.989810  0.821779  0.599913  1
  Tb  Tb4  1  0.514089  0.326840  0.095625  1
  Tb  Tb5  1  0.010863  0.180938  0.405656  1
  Tb  Tb6  1  0.514089  0.326840  0.404375  1
  Tb  Tb7  1  0.488800  0.676921  0.599004  1
  Mg  Mg8  1  0.842834  0.492968  0.250000  1
  Mg  Mg9  1  0.659386  0.991978  0.750000  1
  Sc  Sc10  1  0.343562  0.002427  0.250000  1
  Sc  Sc11  1  0.331469  0.177113  0.626302  1
  Sc  Sc12  1  0.675118  0.818972  0.375030  1
  Sc  Sc13  1  0.168182  0.672338  0.377147  1
  Sc  Sc14  1  0.675118  0.818972  0.124970  1
  Sc  Sc15  1  0.823088  0.323680  0.627972  1
  Sc  Sc16  1  0.331469  0.177113  0.873698  1
  Sc  Sc17  1  0.823088  0.323680  0.872028  1
  Sc  Sc18  1  0.168182  0.672338  0.122853  1
  Si  Si19  1  0.039427  0.126110  0.750000  1
  Si  Si20  1  0.973997  0.894007  0.250000  1
  Si  Si21  1  0.463245  0.616866  0.250000  1
  Si  Si22  1  0.515730  0.402939  0.750000  1
  Si  Si23  1  0.275803  0.866325  0.750000  1
  Si  Si24  1  0.713570  0.117198  0.250000  1
  Si  Si25  1  0.222790  0.373546  0.250000  1
  Si  Si26  1  0.796248  0.616845  0.750000  1
  Si  Si27  1  0.154443  0.466247  0.549328  1
  Si  Si28  1  0.841963  0.538284  0.468364  1
  Si  Si29  1  0.344297  0.965190  0.462240  1
  Si  Si30  1  0.841963  0.538284  0.031636  1
  Si  Si31  1  0.659230  0.036233  0.535101  1
  Si  Si32  1  0.154443  0.466247  0.950672  1
  Si  Si33  1  0.659230  0.036233  0.964899  1
  Si  Si34  1  0.344297  0.965190  0.037760  1
  Tc  Tc35  1  0.150704  0.489720  0.750000  1
