# generated using pymatgen
data_LaPrMn(TeO)2
_symmetry_space_group_name_H-M   'P 1'
_cell_length_a   4.18208800
_cell_length_b   4.18369600
_cell_length_c   9.92298900
_cell_angle_alpha   90.00000000
_cell_angle_beta   90.00000000
_cell_angle_gamma   90.00000000
_symmetry_Int_Tables_number   1
_chemical_formula_structural   LaPrMn(TeO)2
_chemical_formula_sum   'La1 Pr1 Mn1 Te2 O2'
_cell_volume   173.61841888
_cell_formula_units_Z   1
loop_
 _symmetry_equiv_pos_site_id
 _symmetry_equiv_pos_as_xyz
  1  'x, y, z'
loop_
 _atom_site_type_symbol
 _atom_site_label
 _atom_site_symmetry_multiplicity
 _atom_site_fract_x
 _atom_site_fract_y
 _atom_site_fract_z
 _atom_site_occupancy
  La  La0  1  0.000000  0.499999  0.117480  1
  Pr  Pr1  1  0.499999  0.000000  0.882392  1
  Mn  Mn2  1  0.499999  0.499999  0.499698  1
  Te  Te3  1  0.499999  0.000000  0.314434  1
  Te  Te4  1  0.000000  0.499999  0.686643  1
  O  O5  1  0.000000  0.000000  0.999792  1
  O  O6  1  0.499999  0.499999  0.999560  1
