# generated using pymatgen
data_CoReNiMo3C
_symmetry_space_group_name_H-M   'P 1'
_cell_length_a   7.96616899
_cell_length_b   7.96616927
_cell_length_c   7.96616900
_cell_angle_alpha   60.00000527
_cell_angle_beta   60.00000410
_cell_angle_gamma   59.99999670
_symmetry_Int_Tables_number   1
_chemical_formula_structural   CoReNiMo3C
_chemical_formula_sum   'Co4 Re4 Ni4 Mo12 C4'
_cell_volume   357.46504706
_cell_formula_units_Z   4
loop_
 _symmetry_equiv_pos_site_id
 _symmetry_equiv_pos_as_xyz
  1  'x, y, z'
loop_
 _atom_site_type_symbol
 _atom_site_label
 _atom_site_symmetry_multiplicity
 _atom_site_fract_x
 _atom_site_fract_y
 _atom_site_fract_z
 _atom_site_occupancy
  Co  Co0  1  0.506977  0.831007  0.831007  1
  Co  Co1  1  0.831007  0.506977  0.831007  1
  Co  Co2  1  0.831007  0.831007  0.506977  1
  Co  Co3  1  0.831007  0.831007  0.831007  1
  Re  Re4  1  0.122559  0.625814  0.625814  1
  Re  Re5  1  0.625814  0.122559  0.625814  1
  Re  Re6  1  0.625814  0.625814  0.122559  1
  Re  Re7  1  0.625814  0.625814  0.625814  1
  Ni  Ni8  1  0.752206  0.415932  0.415932  1
  Ni  Ni9  1  0.415932  0.752206  0.415932  1
  Ni  Ni10  1  0.415932  0.415932  0.752206  1
  Ni  Ni11  1  0.415932  0.415932  0.415932  1
  Mo  Mo12  1  0.804867  0.804867  0.195133  1
  Mo  Mo13  1  0.195133  0.195133  0.804867  1
  Mo  Mo14  1  0.804867  0.195133  0.804867  1
  Mo  Mo15  1  0.195133  0.804867  0.195133  1
  Mo  Mo16  1  0.195133  0.804867  0.804867  1
  Mo  Mo17  1  0.804867  0.195133  0.195133  1
  Mo  Mo18  1  0.442973  0.442973  0.057027  1
  Mo  Mo19  1  0.057027  0.057027  0.442973  1
  Mo  Mo20  1  0.442973  0.057027  0.442973  1
  Mo  Mo21  1  0.057027  0.442973  0.057027  1
  Mo  Mo22  1  0.057027  0.442973  0.442973  1
  Mo  Mo23  1  0.442973  0.057027  0.057027  1
  C  C24  1  0.625266  0.124911  0.124911  1
  C  C25  1  0.124911  0.625266  0.124911  1
  C  C26  1  0.124911  0.124911  0.625266  1
  C  C27  1  0.124911  0.124911  0.124911  1
