# generated using pymatgen
data_Dy9Y11Si15Hg
_symmetry_space_group_name_H-M   'P 1'
_cell_length_a   7.46463844
_cell_length_b   7.72133016
_cell_length_c   14.69470112
_cell_angle_alpha   89.97714245
_cell_angle_beta   89.39994066
_cell_angle_gamma   90.11705050
_symmetry_Int_Tables_number   1
_chemical_formula_structural   Dy9Y11Si15Hg
_chemical_formula_sum   'Dy9 Y11 Si15 Hg1'
_cell_volume   846.90928587
_cell_formula_units_Z   1
loop_
 _symmetry_equiv_pos_site_id
 _symmetry_equiv_pos_as_xyz
  1  'x, y, z'
loop_
 _atom_site_type_symbol
 _atom_site_label
 _atom_site_symmetry_multiplicity
 _atom_site_fract_x
 _atom_site_fract_y
 _atom_site_fract_z
 _atom_site_occupancy
  Dy  Dy0  1  0.969956  0.816355  0.400662  1
  Dy  Dy1  1  0.674106  0.829648  0.873908  1
  Dy  Dy2  1  0.182396  0.679965  0.621582  1
  Dy  Dy3  1  0.821625  0.319820  0.126051  1
  Dy  Dy4  1  0.318013  0.178837  0.377766  1
  Dy  Dy5  1  0.322356  0.177165  0.124243  1
  Dy  Dy6  1  0.818466  0.320666  0.377528  1
  Dy  Dy7  1  0.183203  0.676542  0.877326  1
  Dy  Dy8  1  0.682160  0.821986  0.621768  1
  Y  Y9  1  0.648667  0.989519  0.250683  1
  Y  Y10  1  0.150508  0.511436  0.249232  1
  Y  Y11  1  0.849550  0.489344  0.747587  1
  Y  Y12  1  0.349449  0.012145  0.749066  1
  Y  Y13  1  0.975714  0.822604  0.101634  1
  Y  Y14  1  0.471184  0.684206  0.401343  1
  Y  Y15  1  0.518905  0.312995  0.899353  1
  Y  Y16  1  0.030000  0.182446  0.597962  1
  Y  Y17  1  0.029743  0.176269  0.899935  1
  Y  Y18  1  0.529165  0.316005  0.597998  1
  Y  Y19  1  0.474609  0.682632  0.100895  1
  Si  Si20  1  0.766928  0.627999  0.251971  1
  Si  Si21  1  0.266629  0.873271  0.251711  1
  Si  Si22  1  0.734824  0.126681  0.748254  1
  Si  Si23  1  0.231361  0.373686  0.747794  1
  Si  Si24  1  0.022715  0.103667  0.251571  1
  Si  Si25  1  0.523251  0.395687  0.252041  1
  Si  Si26  1  0.476910  0.603817  0.747736  1
  Si  Si27  1  0.977503  0.892824  0.748170  1
  Si  Si28  1  0.354488  0.971394  0.540012  1
  Si  Si29  1  0.649697  0.028919  0.041404  1
  Si  Si30  1  0.145825  0.470690  0.460256  1
  Si  Si31  1  0.161198  0.470061  0.042801  1
  Si  Si32  1  0.645381  0.028636  0.459276  1
  Si  Si33  1  0.351108  0.969191  0.961225  1
  Si  Si34  1  0.855505  0.529914  0.539018  1
  Hg  Hg35  1  0.836905  0.532975  0.960237  1
