# generated using pymatgen
data_Sc3Al3FeSiGe
_symmetry_space_group_name_H-M   'P 1'
_cell_length_a   6.63083100
_cell_length_b   6.63083203
_cell_length_c   4.00393200
_cell_angle_alpha   90.00000000
_cell_angle_beta   90.00000000
_cell_angle_gamma   119.99999983
_symmetry_Int_Tables_number   1
_chemical_formula_structural   Sc3Al3FeSiGe
_chemical_formula_sum   'Sc3 Al3 Fe1 Si1 Ge1'
_cell_volume   152.45908595
_cell_formula_units_Z   1
loop_
 _symmetry_equiv_pos_site_id
 _symmetry_equiv_pos_as_xyz
  1  'x, y, z'
loop_
 _atom_site_type_symbol
 _atom_site_label
 _atom_site_symmetry_multiplicity
 _atom_site_fract_x
 _atom_site_fract_y
 _atom_site_fract_z
 _atom_site_occupancy
  Sc  Sc0  1  0.409485  0.002338  0.000000  1
  Sc  Sc1  1  0.997662  0.407146  0.000000  1
  Sc  Sc2  1  0.592855  0.590515  0.000000  1
  Al  Al3  1  0.769738  0.003735  0.500000  1
  Al  Al4  1  0.233996  0.230261  0.500000  1
  Al  Al5  1  0.996265  0.766004  0.500000  1
  Fe  Fe6  1  0.000000  0.000000  0.000000  1
  Si  Si7  1  0.666667  0.333333  0.500000  1
  Ge  Ge8  1  0.333333  0.666667  0.500000  1
