# generated using pymatgen
data_YErCuSi2Ru
_symmetry_space_group_name_H-M   'P 1'
_cell_length_a   4.20815700
_cell_length_b   6.95910605
_cell_length_c   7.36438704
_cell_angle_alpha   91.44388646
_cell_angle_beta   90.00000000
_cell_angle_gamma   90.00000000
_symmetry_Int_Tables_number   1
_chemical_formula_structural   YErCuSi2Ru
_chemical_formula_sum   'Y2 Er2 Cu2 Si4 Ru2'
_cell_volume   215.59767670
_cell_formula_units_Z   2
loop_
 _symmetry_equiv_pos_site_id
 _symmetry_equiv_pos_as_xyz
  1  'x, y, z'
loop_
 _atom_site_type_symbol
 _atom_site_label
 _atom_site_symmetry_multiplicity
 _atom_site_fract_x
 _atom_site_fract_y
 _atom_site_fract_z
 _atom_site_occupancy
  Y  Y0  1  0.250000  0.994413  0.797327  1
  Y  Y1  1  0.750000  0.005587  0.202673  1
  Er  Er2  1  0.250000  0.492702  0.689123  1
  Er  Er3  1  0.750000  0.507298  0.310877  1
  Cu  Cu4  1  0.750000  0.830675  0.572346  1
  Cu  Cu5  1  0.250000  0.169325  0.427654  1
  Si  Si6  1  0.250000  0.299679  0.090775  1
  Si  Si7  1  0.750000  0.700321  0.909225  1
  Si  Si8  1  0.250000  0.793435  0.389583  1
  Si  Si9  1  0.750000  0.206565  0.610417  1
  Ru  Ru10  1  0.750000  0.348249  0.933980  1
  Ru  Ru11  1  0.250000  0.651751  0.066020  1
