# generated using pymatgen
data_CuSbF7
_symmetry_space_group_name_H-M   'P 1'
_cell_length_a   7.60477183
_cell_length_b   7.60477216
_cell_length_c   7.60477216
_cell_angle_alpha   123.70339892
_cell_angle_beta   123.66387137
_cell_angle_gamma   83.73001785
_symmetry_Int_Tables_number   1
_chemical_formula_structural   CuSbF7
_chemical_formula_sum   'Cu2 Sb2 F14'
_cell_volume   291.75931163
_cell_formula_units_Z   2
loop_
 _symmetry_equiv_pos_site_id
 _symmetry_equiv_pos_as_xyz
  1  'x, y, z'
loop_
 _atom_site_type_symbol
 _atom_site_label
 _atom_site_symmetry_multiplicity
 _atom_site_fract_x
 _atom_site_fract_y
 _atom_site_fract_z
 _atom_site_occupancy
  Cu  Cu0  1  0.500000  0.000000  0.000000  1
  Cu  Cu1  1  0.000000  0.000000  0.500000  1
  Sb  Sb2  1  0.500000  0.000000  0.500000  1
  Sb  Sb3  1  0.000000  0.500000  0.500000  1
  F  F4  1  0.250000  0.066802  0.816802  1
  F  F5  1  0.750000  0.933198  0.183198  1
  F  F6  1  0.535096  0.292721  0.757625  1
  F  F7  1  0.964904  0.722528  0.757625  1
  F  F8  1  0.072196  0.340557  0.651151  1
  F  F9  1  0.427804  0.078957  0.268362  1
  F  F10  1  0.310595  0.659443  0.731638  1
  F  F11  1  0.189405  0.921043  0.348849  1
  F  F12  1  0.927804  0.659443  0.348849  1
  F  F13  1  0.572196  0.921043  0.731638  1
  F  F14  1  0.689405  0.340557  0.268362  1
  F  F15  1  0.810595  0.078957  0.651151  1
  F  F16  1  0.035096  0.277472  0.242375  1
  F  F17  1  0.464904  0.707279  0.242375  1
