# generated using pymatgen
data_Sc4V3ReOs4
_symmetry_space_group_name_H-M   'P 1'
_cell_length_a   5.16547716
_cell_length_b   5.19628115
_cell_length_c   8.65401400
_cell_angle_alpha   90.00000000
_cell_angle_beta   90.00000000
_cell_angle_gamma   120.50704640
_symmetry_Int_Tables_number   1
_chemical_formula_structural   Sc4V3ReOs4
_chemical_formula_sum   'Sc4 V3 Re1 Os4'
_cell_volume   200.12880534
_cell_formula_units_Z   1
loop_
 _symmetry_equiv_pos_site_id
 _symmetry_equiv_pos_as_xyz
  1  'x, y, z'
loop_
 _atom_site_type_symbol
 _atom_site_label
 _atom_site_symmetry_multiplicity
 _atom_site_fract_x
 _atom_site_fract_y
 _atom_site_fract_z
 _atom_site_occupancy
  Sc  Sc0  1  0.335571  0.667000  0.437428  1
  Sc  Sc1  1  0.663792  0.331905  0.557464  1
  Sc  Sc2  1  0.663792  0.331905  0.942536  1
  Sc  Sc3  1  0.335571  0.667000  0.062572  1
  V  V4  1  0.173938  0.337330  0.750000  1
  V  V5  1  0.174741  0.835832  0.750000  1
  V  V6  1  0.339234  0.168993  0.250000  1
  Re  Re7  1  0.834252  0.663061  0.250000  1
  Os  Os8  1  0.642995  0.821925  0.750000  1
  Os  Os9  1  0.003426  0.000065  0.994730  1
  Os  Os10  1  0.829261  0.174920  0.250000  1
  Os  Os11  1  0.003426  0.000065  0.505270  1
