# generated using pymatgen
data_Ca3LaMg2(RuO6)2
_symmetry_space_group_name_H-M   'P 1'
_cell_length_a   5.47446326
_cell_length_b   5.63334226
_cell_length_c   7.80752834
_cell_angle_alpha   89.95762924
_cell_angle_beta   89.90443456
_cell_angle_gamma   90.04401081
_symmetry_Int_Tables_number   1
_chemical_formula_structural   Ca3LaMg2(RuO6)2
_chemical_formula_sum   'Ca3 La1 Mg2 Ru2 O12'
_cell_volume   240.77999539
_cell_formula_units_Z   1
loop_
 _symmetry_equiv_pos_site_id
 _symmetry_equiv_pos_as_xyz
  1  'x, y, z'
loop_
 _atom_site_type_symbol
 _atom_site_label
 _atom_site_symmetry_multiplicity
 _atom_site_fract_x
 _atom_site_fract_y
 _atom_site_fract_z
 _atom_site_occupancy
  Ca  Ca0  1  0.487054  0.447560  0.251282  1
  Ca  Ca1  1  0.011103  0.944785  0.248968  1
  Ca  Ca2  1  0.513690  0.553666  0.748889  1
  La  La3  1  0.990170  0.049183  0.750621  1
  Mg  Mg4  1  0.000383  0.501309  0.003145  1
  Mg  Mg5  1  0.499352  0.000047  0.496184  1
  Ru  Ru6  1  0.000033  0.501286  0.495606  1
  Ru  Ru7  1  0.499481  0.999730  0.005095  1
  O  O8  1  0.907928  0.525289  0.257650  1
  O  O9  1  0.590325  0.032865  0.242378  1
  O  O10  1  0.090158  0.481128  0.742300  1
  O  O11  1  0.420436  0.970732  0.756987  1
  O  O12  1  0.307610  0.714047  0.050741  1
  O  O13  1  0.189089  0.209410  0.454117  1
  O  O14  1  0.712807  0.303144  0.548472  1
  O  O15  1  0.790305  0.801782  0.959855  1
  O  O16  1  0.693742  0.285268  0.949081  1
  O  O17  1  0.803336  0.787743  0.543564  1
  O  O18  1  0.286742  0.697767  0.451997  1
  O  O19  1  0.206255  0.193258  0.043065  1
