# generated using pymatgen
data_Ca3Ni6PdC2
_symmetry_space_group_name_H-M   'P 1'
_cell_length_a   7.65387871
_cell_length_b   7.65387856
_cell_length_c   7.65387840
_cell_angle_alpha   39.47874251
_cell_angle_beta   39.47874399
_cell_angle_gamma   39.47874650
_symmetry_Int_Tables_number   1
_chemical_formula_structural   Ca3Ni6PdC2
_chemical_formula_sum   'Ca3 Ni6 Pd1 C2'
_cell_volume   163.14731023
_cell_formula_units_Z   1
loop_
 _symmetry_equiv_pos_site_id
 _symmetry_equiv_pos_as_xyz
  1  'x, y, z'
loop_
 _atom_site_type_symbol
 _atom_site_label
 _atom_site_symmetry_multiplicity
 _atom_site_fract_x
 _atom_site_fract_y
 _atom_site_fract_z
 _atom_site_occupancy
  Ca  Ca0  1  0.645294  0.645294  0.645294  1
  Ca  Ca1  1  0.354706  0.354706  0.354706  1
  Ca  Ca2  1  0.500000  0.500000  0.500000  1
  Ni  Ni3  1  0.562806  0.057727  0.057727  1
  Ni  Ni4  1  0.057727  0.057727  0.562806  1
  Ni  Ni5  1  0.057727  0.562806  0.057727  1
  Ni  Ni6  1  0.942273  0.437194  0.942273  1
  Ni  Ni7  1  0.942273  0.942273  0.437194  1
  Ni  Ni8  1  0.437194  0.942273  0.942273  1
  Pd  Pd9  1  0.000000  0.000000  0.000000  1
  C  C10  1  0.831634  0.831634  0.831634  1
  C  C11  1  0.168366  0.168366  0.168366  1
