# generated using pymatgen
data_ZrTi12Nb7Si16
_symmetry_space_group_name_H-M   'P 1'
_cell_length_a   6.71519708
_cell_length_b   6.71546524
_cell_length_c   12.29868435
_cell_angle_alpha   90.02599817
_cell_angle_beta   89.99187894
_cell_angle_gamma   89.93540448
_symmetry_Int_Tables_number   1
_chemical_formula_structural   ZrTi12Nb7Si16
_chemical_formula_sum   'Zr1 Ti12 Nb7 Si16'
_cell_volume   554.61702751
_cell_formula_units_Z   1
loop_
 _symmetry_equiv_pos_site_id
 _symmetry_equiv_pos_as_xyz
  1  'x, y, z'
loop_
 _atom_site_type_symbol
 _atom_site_label
 _atom_site_symmetry_multiplicity
 _atom_site_fract_x
 _atom_site_fract_y
 _atom_site_fract_z
 _atom_site_occupancy
  Zr  Zr0  1  0.341897  0.000631  0.470366  1
  Ti  Ti1  1  0.348457  0.502338  0.377185  1
  Ti  Ti2  1  0.847912  0.996646  0.371087  1
  Ti  Ti3  1  0.002205  0.151637  0.127135  1
  Ti  Ti4  1  0.997614  0.846270  0.629964  1
  Ti  Ti5  1  0.651686  0.497208  0.878594  1
  Ti  Ti6  1  0.504373  0.348137  0.623316  1
  Ti  Ti7  1  0.497610  0.651749  0.120837  1
  Ti  Ti8  1  0.151362  0.002841  0.872432  1
  Ti  Ti9  1  0.672302  0.669116  0.500038  1
  Ti  Ti10  1  0.829621  0.170915  0.750745  1
  Ti  Ti11  1  0.169873  0.828997  0.249177  1
  Ti  Ti12  1  0.329561  0.329392  0.999796  1
  Nb  Nb13  1  0.002859  0.656923  0.028741  1
  Nb  Nb14  1  0.996652  0.345086  0.528864  1
  Nb  Nb15  1  0.657032  0.002346  0.971563  1
  Nb  Nb16  1  0.156239  0.497202  0.779381  1
  Nb  Nb17  1  0.843493  0.502439  0.278264  1
  Nb  Nb18  1  0.497130  0.156504  0.220830  1
  Nb  Nb19  1  0.502547  0.843000  0.721237  1
  Si  Si20  1  0.044768  0.702153  0.436364  1
  Si  Si21  1  0.954532  0.297586  0.936475  1
  Si  Si22  1  0.707299  0.045936  0.564241  1
  Si  Si23  1  0.203521  0.455172  0.185419  1
  Si  Si24  1  0.796664  0.545637  0.687025  1
  Si  Si25  1  0.454925  0.202185  0.814150  1
  Si  Si26  1  0.546998  0.794363  0.312524  1
  Si  Si27  1  0.297269  0.954533  0.063560  1
  Si  Si28  1  0.861520  0.793059  0.827240  1
  Si  Si29  1  0.133260  0.210525  0.324333  1
  Si  Si30  1  0.793273  0.861990  0.172700  1
  Si  Si31  1  0.292319  0.634653  0.577490  1
  Si  Si32  1  0.706430  0.361494  0.076854  1
  Si  Si33  1  0.640004  0.294626  0.423675  1
  Si  Si34  1  0.361904  0.707019  0.922841  1
  Si  Si35  1  0.204890  0.139693  0.675557  1
