# generated using pymatgen
data_Al12Co7Si4Ru
_symmetry_space_group_name_H-M   'P 1'
_cell_length_a   7.63889588
_cell_length_b   7.63889550
_cell_length_c   7.63889500
_cell_angle_alpha   59.92443162
_cell_angle_beta   59.92443041
_cell_angle_gamma   59.92443657
_symmetry_Int_Tables_number   1
_chemical_formula_structural   Al12Co7Si4Ru
_chemical_formula_sum   'Al12 Co7 Si4 Ru1'
_cell_volume   314.65282520
_cell_formula_units_Z   1
loop_
 _symmetry_equiv_pos_site_id
 _symmetry_equiv_pos_as_xyz
  1  'x, y, z'
loop_
 _atom_site_type_symbol
 _atom_site_label
 _atom_site_symmetry_multiplicity
 _atom_site_fract_x
 _atom_site_fract_y
 _atom_site_fract_z
 _atom_site_occupancy
  Al  Al0  1  0.798952  0.798952  0.206797  1
  Al  Al1  1  0.199879  0.199879  0.800455  1
  Al  Al2  1  0.798952  0.206797  0.798952  1
  Al  Al3  1  0.199879  0.800455  0.199879  1
  Al  Al4  1  0.206797  0.798952  0.798952  1
  Al  Al5  1  0.800455  0.199879  0.199879  1
  Al  Al6  1  0.450093  0.450093  0.050249  1
  Al  Al7  1  0.051797  0.051797  0.446422  1
  Al  Al8  1  0.450093  0.050249  0.450093  1
  Al  Al9  1  0.051797  0.446422  0.051797  1
  Al  Al10  1  0.050249  0.450093  0.450093  1
  Al  Al11  1  0.446422  0.051797  0.051797  1
  Co  Co12  1  0.778553  0.407010  0.407010  1
  Co  Co13  1  0.407010  0.778553  0.407010  1
  Co  Co14  1  0.407010  0.407010  0.778553  1
  Co  Co15  1  0.407848  0.407848  0.407848  1
  Co  Co16  1  0.471273  0.841927  0.841927  1
  Co  Co17  1  0.841927  0.471273  0.841927  1
  Co  Co18  1  0.841927  0.841927  0.471273  1
  Si  Si19  1  0.129371  0.621144  0.621144  1
  Si  Si20  1  0.621144  0.129371  0.621144  1
  Si  Si21  1  0.621144  0.621144  0.129371  1
  Si  Si22  1  0.624165  0.624165  0.624165  1
  Ru  Ru23  1  0.843257  0.843257  0.843257  1
