# generated using pymatgen
data_Gd2Lu2B12OsW
_symmetry_space_group_name_H-M   'P 1'
_cell_length_a   3.61565200
_cell_length_b   9.18081911
_cell_length_c   11.59920502
_cell_angle_alpha   89.83578774
_cell_angle_beta   90.00000000
_cell_angle_gamma   90.00000000
_symmetry_Int_Tables_number   1
_chemical_formula_structural   Gd2Lu2B12OsW
_chemical_formula_sum   'Gd4 Lu4 B24 Os2 W2'
_cell_volume   385.02993426
_cell_formula_units_Z   2
loop_
 _symmetry_equiv_pos_site_id
 _symmetry_equiv_pos_as_xyz
  1  'x, y, z'
loop_
 _atom_site_type_symbol
 _atom_site_label
 _atom_site_symmetry_multiplicity
 _atom_site_fract_x
 _atom_site_fract_y
 _atom_site_fract_z
 _atom_site_occupancy
  Gd  Gd0  1  0.000000  0.321079  0.414107  1
  Gd  Gd1  1  0.000000  0.678921  0.585893  1
  Gd  Gd2  1  0.000000  0.821415  0.085931  1
  Gd  Gd3  1  0.000000  0.178585  0.914069  1
  Lu  Lu4  1  0.000000  0.944891  0.371526  1
  Lu  Lu5  1  0.000000  0.055109  0.628474  1
  Lu  Lu6  1  0.000000  0.442469  0.127834  1
  Lu  Lu7  1  0.000000  0.557531  0.872166  1
  B  B8  1  0.500000  0.551879  0.433785  1
  B  B9  1  0.500000  0.448121  0.566215  1
  B  B10  1  0.500000  0.054716  0.067736  1
  B  B11  1  0.500000  0.945284  0.932264  1
  B  B12  1  0.500000  0.753090  0.420345  1
  B  B13  1  0.500000  0.246910  0.579655  1
  B  B14  1  0.500000  0.249935  0.082108  1
  B  B15  1  0.500000  0.750065  0.917892  1
  B  B16  1  0.500000  0.796263  0.263765  1
  B  B17  1  0.500000  0.203737  0.736234  1
  B  B18  1  0.500000  0.290715  0.233435  1
  B  B19  1  0.500000  0.709285  0.766566  1
  B  B20  1  0.500000  0.630671  0.181284  1
  B  B21  1  0.500000  0.369329  0.818716  1
  B  B22  1  0.500000  0.129680  0.313718  1
  B  B23  1  0.500000  0.870320  0.686282  1
  B  B24  1  0.500000  0.983571  0.212374  1
  B  B25  1  0.500000  0.016429  0.787626  1
  B  B26  1  0.500000  0.478068  0.285224  1
  B  B27  1  0.500000  0.521932  0.714776  1
  B  B28  1  0.500000  0.599934  0.026760  1
  B  B29  1  0.500000  0.400066  0.973240  1
  B  B30  1  0.500000  0.099502  0.471691  1
  B  B31  1  0.500000  0.900498  0.528309  1
  Os  Os32  1  0.000000  0.138762  0.179209  1
  Os  Os33  1  0.000000  0.861238  0.820791  1
  W  W34  1  0.000000  0.639706  0.318595  1
  W  W35  1  0.000000  0.360294  0.681405  1
