# generated using pymatgen
data_Pr2Nd6Be3Si12Rh
_symmetry_space_group_name_H-M   'P 1'
_cell_length_a   8.04159200
_cell_length_b   8.04159067
_cell_length_c   8.58260900
_cell_angle_alpha   90.00000000
_cell_angle_beta   90.00000000
_cell_angle_gamma   119.99999725
_symmetry_Int_Tables_number   1
_chemical_formula_structural   Pr2Nd6Be3Si12Rh
_chemical_formula_sum   'Pr2 Nd6 Be3 Si12 Rh1'
_cell_volume   480.65555884
_cell_formula_units_Z   1
loop_
 _symmetry_equiv_pos_site_id
 _symmetry_equiv_pos_as_xyz
  1  'x, y, z'
loop_
 _atom_site_type_symbol
 _atom_site_label
 _atom_site_symmetry_multiplicity
 _atom_site_fract_x
 _atom_site_fract_y
 _atom_site_fract_z
 _atom_site_occupancy
  Pr  Pr0  1  0.000000  0.000000  0.750089  1
  Pr  Pr1  1  0.000000  0.000000  0.249920  1
  Nd  Nd2  1  0.499978  0.500022  0.748957  1
  Nd  Nd3  1  0.499978  0.999958  0.748957  1
  Nd  Nd4  1  0.000042  0.500022  0.748957  1
  Nd  Nd5  1  0.500903  0.499097  0.251048  1
  Nd  Nd6  1  0.998194  0.499097  0.251048  1
  Nd  Nd7  1  0.500903  0.001806  0.251048  1
  Be  Be8  1  0.666667  0.333333  0.997867  1
  Be  Be9  1  0.666667  0.333333  0.502290  1
  Be  Be10  1  0.333333  0.666667  0.497569  1
  Si  Si11  1  0.830407  0.169593  0.999545  1
  Si  Si12  1  0.830407  0.660814  0.999545  1
  Si  Si13  1  0.339186  0.169593  0.999545  1
  Si  Si14  1  0.827777  0.172223  0.500426  1
  Si  Si15  1  0.827777  0.655556  0.500426  1
  Si  Si16  1  0.344444  0.172223  0.500426  1
  Si  Si17  1  0.172891  0.827109  0.499657  1
  Si  Si18  1  0.654217  0.827109  0.499657  1
  Si  Si19  1  0.172891  0.345783  0.499657  1
  Si  Si20  1  0.168877  0.831123  0.000207  1
  Si  Si21  1  0.662246  0.831123  0.000207  1
  Si  Si22  1  0.168877  0.337754  0.000207  1
  Rh  Rh23  1  0.333333  0.666667  0.002748  1
