# generated using pymatgen
data_Tb3TmMnTc7
_symmetry_space_group_name_H-M   'P 1'
_cell_length_a   5.33369200
_cell_length_b   5.33369220
_cell_length_c   8.96283400
_cell_angle_alpha   90.00000000
_cell_angle_beta   90.00000000
_cell_angle_gamma   119.99999875
_symmetry_Int_Tables_number   1
_chemical_formula_structural   Tb3TmMnTc7
_chemical_formula_sum   'Tb3 Tm1 Mn1 Tc7'
_cell_volume   220.81667850
_cell_formula_units_Z   1
loop_
 _symmetry_equiv_pos_site_id
 _symmetry_equiv_pos_as_xyz
  1  'x, y, z'
loop_
 _atom_site_type_symbol
 _atom_site_label
 _atom_site_symmetry_multiplicity
 _atom_site_fract_x
 _atom_site_fract_y
 _atom_site_fract_z
 _atom_site_occupancy
  Tb  Tb0  1  0.333333  0.666667  0.435963  1
  Tb  Tb1  1  0.666667  0.333333  0.563728  1
  Tb  Tb2  1  0.666667  0.333333  0.935807  1
  Tm  Tm3  1  0.333333  0.666667  0.064939  1
  Mn  Mn4  1  0.000000  0.000000  0.499752  1
  Tc  Tc5  1  0.000000  0.000000  0.000159  1
  Tc  Tc6  1  0.829894  0.170106  0.251232  1
  Tc  Tc7  1  0.829894  0.659789  0.251232  1
  Tc  Tc8  1  0.340211  0.170106  0.251232  1
  Tc  Tc9  1  0.170197  0.829803  0.748651  1
  Tc  Tc10  1  0.170197  0.340395  0.748651  1
  Tc  Tc11  1  0.659605  0.829803  0.748651  1
