# generated using pymatgen
data_Dy8InAgIrRh
_symmetry_space_group_name_H-M   'P 1'
_cell_length_a   9.59538078
_cell_length_b   9.59538155
_cell_length_c   9.59572700
_cell_angle_alpha   59.99881251
_cell_angle_beta   59.99880987
_cell_angle_gamma   60.22143124
_symmetry_Int_Tables_number   1
_chemical_formula_structural   Dy8InAgIrRh
_chemical_formula_sum   'Dy16 In2 Ag2 Ir2 Rh2'
_cell_volume   625.75024506
_cell_formula_units_Z   2
loop_
 _symmetry_equiv_pos_site_id
 _symmetry_equiv_pos_as_xyz
  1  'x, y, z'
loop_
 _atom_site_type_symbol
 _atom_site_label
 _atom_site_symmetry_multiplicity
 _atom_site_fract_x
 _atom_site_fract_y
 _atom_site_fract_z
 _atom_site_occupancy
  Dy  Dy0  1  0.600009  0.600009  0.599820  1
  Dy  Dy1  1  0.600009  0.600009  0.200162  1
  Dy  Dy2  1  0.602246  0.198148  0.599803  1
  Dy  Dy3  1  0.198148  0.602246  0.599803  1
  Dy  Dy4  1  0.059497  0.439595  0.440791  1
  Dy  Dy5  1  0.439595  0.059497  0.060118  1
  Dy  Dy6  1  0.439595  0.059497  0.440791  1
  Dy  Dy7  1  0.059497  0.439595  0.060118  1
  Dy  Dy8  1  0.442322  0.442322  0.057678  1
  Dy  Dy9  1  0.061247  0.061247  0.438753  1
  Dy  Dy10  1  0.184277  0.812273  0.812636  1
  Dy  Dy11  1  0.812273  0.184277  0.190813  1
  Dy  Dy12  1  0.812273  0.184277  0.812636  1
  Dy  Dy13  1  0.184277  0.812273  0.190813  1
  Dy  Dy14  1  0.809300  0.809300  0.190700  1
  Dy  Dy15  1  0.185724  0.185724  0.814276  1
  In  In16  1  0.833975  0.506722  0.829652  1
  In  In17  1  0.506722  0.833975  0.829652  1
  Ag  Ag18  1  0.833674  0.833674  0.832012  1
  Ag  Ag19  1  0.833674  0.833674  0.500639  1
  Ir  Ir20  1  0.392707  0.823727  0.391784  1
  Ir  Ir21  1  0.823727  0.392707  0.391784  1
  Rh  Rh22  1  0.392617  0.392617  0.390499  1
  Rh  Rh23  1  0.392617  0.392617  0.824268  1
