# generated using pymatgen
data_Tb7DyRe3B24Ir
_symmetry_space_group_name_H-M   'P 1'
_cell_length_a   3.69403300
_cell_length_b   9.20498603
_cell_length_c   11.58973508
_cell_angle_alpha   90.15042341
_cell_angle_beta   90.00000000
_cell_angle_gamma   90.00000000
_symmetry_Int_Tables_number   1
_chemical_formula_structural   Tb7DyRe3B24Ir
_chemical_formula_sum   'Tb7 Dy1 Re3 B24 Ir1'
_cell_volume   394.09045539
_cell_formula_units_Z   1
loop_
 _symmetry_equiv_pos_site_id
 _symmetry_equiv_pos_as_xyz
  1  'x, y, z'
loop_
 _atom_site_type_symbol
 _atom_site_label
 _atom_site_symmetry_multiplicity
 _atom_site_fract_x
 _atom_site_fract_y
 _atom_site_fract_z
 _atom_site_occupancy
  Tb  Tb0  1  0.000000  0.318864  0.415548  1
  Tb  Tb1  1  0.000000  0.677994  0.591404  1
  Tb  Tb2  1  0.000000  0.827437  0.081468  1
  Tb  Tb3  1  0.000000  0.177058  0.912512  1
  Tb  Tb4  1  0.000000  0.943718  0.370140  1
  Tb  Tb5  1  0.000000  0.056070  0.629036  1
  Tb  Tb6  1  0.000000  0.440934  0.128417  1
  Dy  Dy7  1  0.000000  0.556949  0.871491  1
  Re  Re8  1  0.000000  0.363186  0.677726  1
  Re  Re9  1  0.000000  0.138311  0.179692  1
  Re  Re10  1  0.000000  0.861469  0.821061  1
  B  B11  1  0.500000  0.553719  0.433435  1
  B  B12  1  0.500000  0.446720  0.567134  1
  B  B13  1  0.500000  0.053480  0.066822  1
  B  B14  1  0.500000  0.946931  0.932336  1
  B  B15  1  0.500000  0.748329  0.419788  1
  B  B16  1  0.500000  0.251578  0.581334  1
  B  B17  1  0.500000  0.248200  0.081519  1
  B  B18  1  0.500000  0.752239  0.918616  1
  B  B19  1  0.500000  0.790485  0.265632  1
  B  B20  1  0.500000  0.209336  0.733708  1
  B  B21  1  0.500000  0.290855  0.234578  1
  B  B22  1  0.500000  0.708463  0.766425  1
  B  B23  1  0.500000  0.631960  0.184883  1
  B  B24  1  0.500000  0.369405  0.813707  1
  B  B25  1  0.500000  0.131108  0.314263  1
  B  B26  1  0.500000  0.867957  0.686122  1
  B  B27  1  0.500000  0.983920  0.211803  1
  B  B28  1  0.500000  0.016470  0.787131  1
  B  B29  1  0.500000  0.483543  0.288014  1
  B  B30  1  0.500000  0.517628  0.712581  1
  B  B31  1  0.500000  0.604801  0.029413  1
  B  B32  1  0.500000  0.396611  0.971294  1
  B  B33  1  0.500000  0.103276  0.470644  1
  B  B34  1  0.500000  0.893718  0.528766  1
  Ir  Ir35  1  0.000000  0.637277  0.321564  1
