# generated using pymatgen
data_Be7Al3TcNi
_symmetry_space_group_name_H-M   'P 1'
_cell_length_a   4.40990600
_cell_length_b   4.40990546
_cell_length_c   7.26257800
_cell_angle_alpha   90.00000000
_cell_angle_beta   90.00000000
_cell_angle_gamma   120.00000406
_symmetry_Int_Tables_number   1
_chemical_formula_structural   Be7Al3TcNi
_chemical_formula_sum   'Be7 Al3 Tc1 Ni1'
_cell_volume   122.31508883
_cell_formula_units_Z   1
loop_
 _symmetry_equiv_pos_site_id
 _symmetry_equiv_pos_as_xyz
  1  'x, y, z'
loop_
 _atom_site_type_symbol
 _atom_site_label
 _atom_site_symmetry_multiplicity
 _atom_site_fract_x
 _atom_site_fract_y
 _atom_site_fract_z
 _atom_site_occupancy
  Be  Be0  1  0.000000  0.000000  0.496238  1
  Be  Be1  1  0.834627  0.669254  0.256212  1
  Be  Be2  1  0.168362  0.831638  0.741031  1
  Be  Be3  1  0.663275  0.831638  0.741031  1
  Be  Be4  1  0.330746  0.165373  0.256212  1
  Be  Be5  1  0.834627  0.165373  0.256212  1
  Be  Be6  1  0.168362  0.336725  0.741031  1
  Al  Al7  1  0.333333  0.666667  0.082201  1
  Al  Al8  1  0.666667  0.333333  0.544607  1
  Al  Al9  1  0.666667  0.333333  0.943331  1
  Tc  Tc10  1  0.333333  0.666667  0.451383  1
  Ni  Ni11  1  0.000000  0.000000  0.990511  1
