# generated using pymatgen
data_Tm3VFeCo7P6
_symmetry_space_group_name_H-M   'P 1'
_cell_length_a   3.67972400
_cell_length_b   10.54277700
_cell_length_c   12.10062400
_cell_angle_alpha   90.00000000
_cell_angle_beta   90.00000000
_cell_angle_gamma   90.00000000
_symmetry_Int_Tables_number   1
_chemical_formula_structural   Tm3VFeCo7P6
_chemical_formula_sum   'Tm6 V2 Fe2 Co14 P12'
_cell_volume   469.43777337
_cell_formula_units_Z   2
loop_
 _symmetry_equiv_pos_site_id
 _symmetry_equiv_pos_as_xyz
  1  'x, y, z'
loop_
 _atom_site_type_symbol
 _atom_site_label
 _atom_site_symmetry_multiplicity
 _atom_site_fract_x
 _atom_site_fract_y
 _atom_site_fract_z
 _atom_site_occupancy
  Tm  Tm0  1  0.000000  0.500000  0.523705  1
  Tm  Tm1  1  0.500000  0.000000  0.476295  1
  Tm  Tm2  1  0.500000  0.819927  0.203230  1
  Tm  Tm3  1  0.500000  0.180073  0.203230  1
  Tm  Tm4  1  0.000000  0.680073  0.796770  1
  Tm  Tm5  1  0.000000  0.319927  0.796770  1
  V  V6  1  0.500000  0.500000  0.152879  1
  V  V7  1  0.000000  0.000000  0.847121  1
  Fe  Fe8  1  0.000000  0.500000  0.987470  1
  Fe  Fe9  1  0.500000  0.000000  0.012530  1
  Co  Co10  1  0.500000  0.500000  0.700498  1
  Co  Co11  1  0.000000  0.000000  0.299502  1
  Co  Co12  1  0.500000  0.331086  0.993654  1
  Co  Co13  1  0.500000  0.668914  0.993654  1
  Co  Co14  1  0.000000  0.168914  0.006346  1
  Co  Co15  1  0.000000  0.831086  0.006346  1
  Co  Co16  1  0.500000  0.295942  0.431212  1
  Co  Co17  1  0.500000  0.704058  0.431212  1
  Co  Co18  1  0.000000  0.204058  0.568788  1
  Co  Co19  1  0.000000  0.795942  0.568788  1
  Co  Co20  1  0.500000  0.878392  0.707083  1
  Co  Co21  1  0.500000  0.121608  0.707083  1
  Co  Co22  1  0.000000  0.621608  0.292917  1
  Co  Co23  1  0.000000  0.378392  0.292917  1
  P  P24  1  0.500000  0.500000  0.883576  1
  P  P25  1  0.000000  0.000000  0.116424  1
  P  P26  1  0.500000  0.500000  0.347739  1
  P  P27  1  0.000000  0.000000  0.652261  1
  P  P28  1  0.500000  0.311203  0.616906  1
  P  P29  1  0.500000  0.688797  0.616906  1
  P  P30  1  0.000000  0.188797  0.383094  1
  P  P31  1  0.000000  0.811203  0.383094  1
  P  P32  1  0.500000  0.845747  0.892528  1
  P  P33  1  0.500000  0.154253  0.892528  1
  P  P34  1  0.000000  0.654253  0.107472  1
  P  P35  1  0.000000  0.345747  0.107472  1
