# generated using pymatgen
data_Tb8TiNb10Si16Mo
_symmetry_space_group_name_H-M   'P 1'
_cell_length_a   7.07032064
_cell_length_b   7.06636211
_cell_length_c   13.05697622
_cell_angle_alpha   89.88414507
_cell_angle_beta   90.05318463
_cell_angle_gamma   89.97391526
_symmetry_Int_Tables_number   1
_chemical_formula_structural   Tb8TiNb10Si16Mo
_chemical_formula_sum   'Tb8 Ti1 Nb10 Si16 Mo1'
_cell_volume   652.34372880
_cell_formula_units_Z   1
loop_
 _symmetry_equiv_pos_site_id
 _symmetry_equiv_pos_as_xyz
  1  'x, y, z'
loop_
 _atom_site_type_symbol
 _atom_site_label
 _atom_site_symmetry_multiplicity
 _atom_site_fract_x
 _atom_site_fract_y
 _atom_site_fract_z
 _atom_site_occupancy
  Tb  Tb0  1  0.342550  0.001639  0.467708  1
  Tb  Tb1  1  0.497578  0.842641  0.718914  1
  Tb  Tb2  1  0.501170  0.157973  0.216764  1
  Tb  Tb3  1  0.841453  0.496813  0.282330  1
  Tb  Tb4  1  0.158362  0.501163  0.782924  1
  Tb  Tb5  1  0.658689  0.997254  0.967487  1
  Tb  Tb6  1  0.002905  0.340346  0.533302  1
  Tb  Tb7  1  0.997153  0.659669  0.030714  1
  Ti  Ti8  1  0.991718  0.845194  0.625788  1
  Nb  Nb9  1  0.328026  0.329100  0.999020  1
  Nb  Nb10  1  0.171457  0.828018  0.249341  1
  Nb  Nb11  1  0.827726  0.171314  0.750220  1
  Nb  Nb12  1  0.672215  0.672040  0.499915  1
  Nb  Nb13  1  0.490967  0.655033  0.123671  1
  Nb  Nb14  1  0.505825  0.345761  0.625047  1
  Nb  Nb15  1  0.653607  0.491943  0.875797  1
  Nb  Nb16  1  0.347211  0.507077  0.376433  1
  Nb  Nb17  1  0.845489  0.991713  0.374626  1
  Nb  Nb18  1  0.006494  0.152744  0.126162  1
  Si  Si19  1  0.201690  0.128888  0.685123  1
  Si  Si20  1  0.367183  0.707688  0.931310  1
  Si  Si21  1  0.633086  0.295746  0.433563  1
  Si  Si22  1  0.704063  0.367999  0.066581  1
  Si  Si23  1  0.296477  0.634189  0.567730  1
  Si  Si24  1  0.796311  0.866516  0.182649  1
  Si  Si25  1  0.133050  0.203209  0.317031  1
  Si  Si26  1  0.871707  0.800703  0.816567  1
  Si  Si27  1  0.291481  0.955761  0.061309  1
  Si  Si28  1  0.545472  0.793214  0.313386  1
  Si  Si29  1  0.451268  0.206580  0.814341  1
  Si  Si30  1  0.793732  0.548867  0.685929  1
  Si  Si31  1  0.207205  0.453524  0.185995  1
  Si  Si32  1  0.709508  0.045209  0.564763  1
  Si  Si33  1  0.956318  0.289316  0.935927  1
  Si  Si34  1  0.046189  0.707615  0.437029  1
  Mo  Mo35  1  0.154667  0.007542  0.874603  1
