# generated using pymatgen
data_SmZn3PdAu
_symmetry_space_group_name_H-M   'P 1'
_cell_length_a   5.38970600
_cell_length_b   5.38970486
_cell_length_c   4.38509500
_cell_angle_alpha   90.00000000
_cell_angle_beta   90.00000000
_cell_angle_gamma   120.00000699
_symmetry_Int_Tables_number   1
_chemical_formula_structural   SmZn3PdAu
_chemical_formula_sum   'Sm1 Zn3 Pd1 Au1'
_cell_volume   110.31629495
_cell_formula_units_Z   1
loop_
 _symmetry_equiv_pos_site_id
 _symmetry_equiv_pos_as_xyz
  1  'x, y, z'
loop_
 _atom_site_type_symbol
 _atom_site_label
 _atom_site_symmetry_multiplicity
 _atom_site_fract_x
 _atom_site_fract_y
 _atom_site_fract_z
 _atom_site_occupancy
  Sm  Sm0  1  0.000000  0.000000  0.000000  1
  Zn  Zn1  1  0.994623  0.497312  0.500000  1
  Zn  Zn2  1  0.502688  0.497312  0.500000  1
  Zn  Zn3  1  0.502688  0.005377  0.500000  1
  Pd  Pd4  1  0.666667  0.333333  0.000000  1
  Au  Au5  1  0.333333  0.666667  0.000000  1
