# generated using pymatgen
data_VFe4Re3P4
_symmetry_space_group_name_H-M   'P 1'
_cell_length_a   3.71730600
_cell_length_b   5.78314432
_cell_length_c   6.59724763
_cell_angle_alpha   89.89753255
_cell_angle_beta   90.00000000
_cell_angle_gamma   90.00000000
_symmetry_Int_Tables_number   1
_chemical_formula_structural   VFe4Re3P4
_chemical_formula_sum   'V1 Fe4 Re3 P4'
_cell_volume   141.82553622
_cell_formula_units_Z   1
loop_
 _symmetry_equiv_pos_site_id
 _symmetry_equiv_pos_as_xyz
  1  'x, y, z'
loop_
 _atom_site_type_symbol
 _atom_site_label
 _atom_site_symmetry_multiplicity
 _atom_site_fract_x
 _atom_site_fract_y
 _atom_site_fract_z
 _atom_site_occupancy
  V  V0  1  0.250000  0.027433  0.172372  1
  Fe  Fe1  1  0.750000  0.361777  0.064539  1
  Fe  Fe2  1  0.750000  0.859965  0.434154  1
  Fe  Fe3  1  0.250000  0.639612  0.932289  1
  Fe  Fe4  1  0.250000  0.141581  0.566135  1
  Re  Re5  1  0.750000  0.467799  0.666404  1
  Re  Re6  1  0.750000  0.971552  0.832496  1
  Re  Re7  1  0.250000  0.530221  0.333259  1
  P  P8  1  0.750000  0.734438  0.122591  1
  P  P9  1  0.750000  0.232463  0.376589  1
  P  P10  1  0.250000  0.264937  0.879536  1
  P  P11  1  0.250000  0.768223  0.619636  1
