# generated using pymatgen
data_HoBeB14
_symmetry_space_group_name_H-M   'P 1'
_cell_length_a   7.19873440
_cell_length_b   7.19873342
_cell_length_c   7.19873436
_cell_angle_alpha   132.70480701
_cell_angle_beta   110.35359168
_cell_angle_gamma   88.50818818
_symmetry_Int_Tables_number   1
_chemical_formula_structural   HoBeB14
_chemical_formula_sum   'Ho2 Be2 B28'
_cell_volume   244.80994793
_cell_formula_units_Z   2
loop_
 _symmetry_equiv_pos_site_id
 _symmetry_equiv_pos_as_xyz
  1  'x, y, z'
loop_
 _atom_site_type_symbol
 _atom_site_label
 _atom_site_symmetry_multiplicity
 _atom_site_fract_x
 _atom_site_fract_y
 _atom_site_fract_z
 _atom_site_occupancy
  Ho  Ho0  1  0.392274  0.750000  0.642274  1
  Ho  Ho1  1  0.607726  0.250000  0.357726  1
  Be  Be2  1  0.000000  0.500000  0.000000  1
  Be  Be3  1  0.000000  0.000000  0.500000  1
  B  B4  1  0.978639  0.344145  0.634494  1
  B  B5  1  0.629477  0.328199  0.795266  1
  B  B6  1  0.799044  0.833573  0.965471  1
  B  B7  1  0.631898  0.666427  0.965471  1
  B  B8  1  0.200956  0.166427  0.034529  1
  B  B9  1  0.780008  0.777791  0.676302  1
  B  B10  1  0.967067  0.665789  0.795266  1
  B  B11  1  0.021361  0.655855  0.365506  1
  B  B12  1  0.967067  0.171801  0.301278  1
  B  B13  1  0.032933  0.828199  0.698722  1
  B  B14  1  0.368102  0.333573  0.034529  1
  B  B15  1  0.075417  0.907656  0.167761  1
  B  B16  1  0.629477  0.834211  0.301278  1
  B  B17  1  0.398511  0.722209  0.002217  1
  B  B18  1  0.239894  0.407656  0.832239  1
  B  B19  1  0.219992  0.222209  0.323698  1
  B  B20  1  0.209650  0.844145  0.365506  1
  B  B21  1  0.924583  0.092344  0.832239  1
  B  B22  1  0.398511  0.396294  0.676302  1
  B  B23  1  0.219992  0.896294  0.997783  1
  B  B24  1  0.780008  0.103706  0.002217  1
  B  B25  1  0.601489  0.277791  0.997783  1
  B  B26  1  0.601489  0.603706  0.323698  1
  B  B27  1  0.032933  0.334211  0.204734  1
  B  B28  1  0.760106  0.592344  0.167761  1
  B  B29  1  0.790350  0.155855  0.634494  1
  B  B30  1  0.370523  0.165789  0.698722  1
  B  B31  1  0.370523  0.671801  0.204734  1
