# generated using pymatgen
data_Dy16MgIn2Rh4Au
_symmetry_space_group_name_H-M   'P 1'
_cell_length_a   9.63658424
_cell_length_b   9.64192135
_cell_length_c   9.57618312
_cell_angle_alpha   59.88065741
_cell_angle_beta   59.70627725
_cell_angle_gamma   60.11658649
_symmetry_Int_Tables_number   1
_chemical_formula_structural   Dy16MgIn2Rh4Au
_chemical_formula_sum   'Dy16 Mg1 In2 Rh4 Au1'
_cell_volume   627.73753452
_cell_formula_units_Z   1
loop_
 _symmetry_equiv_pos_site_id
 _symmetry_equiv_pos_as_xyz
  1  'x, y, z'
loop_
 _atom_site_type_symbol
 _atom_site_label
 _atom_site_symmetry_multiplicity
 _atom_site_fract_x
 _atom_site_fract_y
 _atom_site_fract_z
 _atom_site_occupancy
  Dy  Dy0  1  0.691775  0.309386  0.308888  1
  Dy  Dy1  1  0.692292  0.691262  0.309680  1
  Dy  Dy2  1  0.313584  0.687909  0.311494  1
  Dy  Dy3  1  0.937152  0.936921  0.553098  1
  Dy  Dy4  1  0.147697  0.150825  0.548015  1
  Dy  Dy5  1  0.568872  0.937972  0.555720  1
  Dy  Dy6  1  0.151194  0.153622  0.150962  1
  Dy  Dy7  1  0.312004  0.311144  0.689964  1
  Dy  Dy8  1  0.938311  0.571206  0.553504  1
  Dy  Dy9  1  0.564755  0.562907  0.935308  1
  Dy  Dy10  1  0.565372  0.935693  0.933298  1
  Dy  Dy11  1  0.936402  0.564276  0.933342  1
  Dy  Dy12  1  0.147678  0.549557  0.149602  1
  Dy  Dy13  1  0.313560  0.688067  0.688786  1
  Dy  Dy14  1  0.692082  0.309870  0.690900  1
  Dy  Dy15  1  0.553300  0.147052  0.148426  1
  Mg  Mg16  1  0.223754  0.923114  0.932416  1
  In  In17  1  0.918089  0.244453  0.922919  1
  In  In18  1  0.917482  0.916634  0.922160  1
  Rh  Rh19  1  0.358411  0.356780  0.356585  1
  Rh  Rh20  1  0.926062  0.357947  0.356778  1
  Rh  Rh21  1  0.358419  0.356995  0.926061  1
  Rh  Rh22  1  0.357996  0.927231  0.356209  1
  Au  Au23  1  0.913755  0.909175  0.265883  1
