# generated using pymatgen
data_Ho3ThZnRu
_symmetry_space_group_name_H-M   'P 1'
_cell_length_a   9.52939958
_cell_length_b   9.52939963
_cell_length_c   9.52939900
_cell_angle_alpha   59.99999870
_cell_angle_beta   59.99999855
_cell_angle_gamma   59.99999718
_symmetry_Int_Tables_number   1
_chemical_formula_structural   Ho3ThZnRu
_chemical_formula_sum   'Ho12 Th4 Zn4 Ru4'
_cell_volume   611.90157810
_cell_formula_units_Z   4
loop_
 _symmetry_equiv_pos_site_id
 _symmetry_equiv_pos_as_xyz
  1  'x, y, z'
loop_
 _atom_site_type_symbol
 _atom_site_label
 _atom_site_symmetry_multiplicity
 _atom_site_fract_x
 _atom_site_fract_y
 _atom_site_fract_z
 _atom_site_occupancy
  Ho  Ho0  1  0.059518  0.440482  0.440482  1
  Ho  Ho1  1  0.440482  0.059518  0.059518  1
  Ho  Ho2  1  0.440482  0.059518  0.440482  1
  Ho  Ho3  1  0.059518  0.440482  0.059518  1
  Ho  Ho4  1  0.440482  0.440482  0.059518  1
  Ho  Ho5  1  0.059518  0.059518  0.440482  1
  Ho  Ho6  1  0.185312  0.814688  0.814688  1
  Ho  Ho7  1  0.814688  0.185312  0.185312  1
  Ho  Ho8  1  0.814688  0.185312  0.814688  1
  Ho  Ho9  1  0.185312  0.814688  0.185312  1
  Ho  Ho10  1  0.814688  0.814688  0.185312  1
  Ho  Ho11  1  0.185312  0.185312  0.814688  1
  Th  Th12  1  0.601531  0.601531  0.601531  1
  Th  Th13  1  0.601531  0.601531  0.195407  1
  Th  Th14  1  0.601531  0.195407  0.601531  1
  Th  Th15  1  0.195407  0.601531  0.601531  1
  Zn  Zn16  1  0.830641  0.830641  0.830641  1
  Zn  Zn17  1  0.830641  0.830641  0.508078  1
  Zn  Zn18  1  0.830641  0.508078  0.830641  1
  Zn  Zn19  1  0.508078  0.830641  0.830641  1
  Ru  Ru20  1  0.393091  0.393091  0.393091  1
  Ru  Ru21  1  0.393091  0.393091  0.820726  1
  Ru  Ru22  1  0.393091  0.820726  0.393091  1
  Ru  Ru23  1  0.820726  0.393091  0.393091  1
