# generated using pymatgen
data_MnZn3As(PN2)6
_symmetry_space_group_name_H-M   'P 1'
_cell_length_a   7.21251152
_cell_length_b   7.21251012
_cell_length_c   7.21251102
_cell_angle_alpha   109.63025723
_cell_angle_beta   109.63024810
_cell_angle_gamma   109.63022877
_symmetry_Int_Tables_number   1
_chemical_formula_structural   MnZn3As(PN2)6
_chemical_formula_sum   'Mn1 Zn3 As1 P6 N12'
_cell_volume   287.11372686
_cell_formula_units_Z   1
loop_
 _symmetry_equiv_pos_site_id
 _symmetry_equiv_pos_as_xyz
  1  'x, y, z'
loop_
 _atom_site_type_symbol
 _atom_site_label
 _atom_site_symmetry_multiplicity
 _atom_site_fract_x
 _atom_site_fract_y
 _atom_site_fract_z
 _atom_site_occupancy
  Mn  Mn0  1  0.351578  0.351578  0.351578  1
  Zn  Zn1  1  0.003175  0.666791  0.003175  1
  Zn  Zn2  1  0.666791  0.003175  0.003175  1
  Zn  Zn3  1  0.003175  0.003175  0.666791  1
  As  As4  1  0.005714  0.005714  0.005714  1
  P  P5  1  0.498455  0.247794  0.749741  1
  P  P6  1  0.498455  0.749741  0.247794  1
  P  P7  1  0.749741  0.247794  0.498455  1
  P  P8  1  0.247794  0.498455  0.749741  1
  P  P9  1  0.749741  0.498455  0.247794  1
  P  P10  1  0.247794  0.749741  0.498455  1
  N  N11  1  0.998870  0.726845  0.443044  1
  N  N12  1  0.271438  0.711473  0.271438  1
  N  N13  1  0.278587  0.553566  0.553566  1
  N  N14  1  0.553566  0.553566  0.278587  1
  N  N15  1  0.553566  0.278587  0.553566  1
  N  N16  1  0.726845  0.998870  0.443044  1
  N  N17  1  0.443044  0.998870  0.726845  1
  N  N18  1  0.726845  0.443044  0.998870  1
  N  N19  1  0.271438  0.271438  0.711473  1
  N  N20  1  0.711473  0.271438  0.271438  1
  N  N21  1  0.998870  0.443044  0.726845  1
  N  N22  1  0.443044  0.726845  0.998870  1
