# generated using pymatgen
data_Sn3Bi9(Te2Cl)4
_symmetry_space_group_name_H-M   'P 1'
_cell_length_a   24.76549676
_cell_length_b   24.76549760
_cell_length_c   6.64927972
_cell_angle_alpha   74.15762125
_cell_angle_beta   74.15762134
_cell_angle_gamma   13.37596791
_symmetry_Int_Tables_number   1
_chemical_formula_structural   Sn3Bi9(Te2Cl)4
_chemical_formula_sum   'Sn3 Bi9 Te8 Cl4'
_cell_volume   907.11231345
_cell_formula_units_Z   1
loop_
 _symmetry_equiv_pos_site_id
 _symmetry_equiv_pos_as_xyz
  1  'x, y, z'
loop_
 _atom_site_type_symbol
 _atom_site_label
 _atom_site_symmetry_multiplicity
 _atom_site_fract_x
 _atom_site_fract_y
 _atom_site_fract_z
 _atom_site_occupancy
  Sn  Sn0  1  0.965686  0.965686  0.311340  1
  Sn  Sn1  1  0.465035  0.465035  0.808662  1
  Sn  Sn2  1  0.530347  0.530347  0.172698  1
  Bi  Bi3  1  0.029356  0.029356  0.673590  1
  Bi  Bi4  1  0.749104  0.749104  0.987616  1
  Bi  Bi5  1  0.248648  0.248648  0.488649  1
  Bi  Bi6  1  0.249240  0.249240  0.007770  1
  Bi  Bi7  1  0.748758  0.748758  0.508893  1
  Bi  Bi8  1  0.846680  0.846680  0.583582  1
  Bi  Bi9  1  0.348623  0.348623  0.079000  1
  Bi  Bi10  1  0.149424  0.149424  0.436261  1
  Bi  Bi11  1  0.650711  0.650711  0.933359  1
  Te  Te12  1  0.463341  0.463341  0.315363  1
  Te  Te13  1  0.963522  0.963522  0.814117  1
  Te  Te14  1  0.533711  0.533711  0.665162  1
  Te  Te15  1  0.034318  0.034318  0.164508  1
  Te  Te16  1  0.342960  0.342960  0.590498  1
  Te  Te17  1  0.845046  0.845046  0.086912  1
  Te  Te18  1  0.154614  0.154614  0.926169  1
  Te  Te19  1  0.653216  0.653216  0.428708  1
  Cl  Cl20  1  0.094627  0.094627  0.538301  1
  Cl  Cl21  1  0.596558  0.596558  0.030894  1
  Cl  Cl22  1  0.900936  0.900936  0.481231  1
  Cl  Cl23  1  0.403625  0.403625  0.966719  1
