# generated using pymatgen
data_Pr2Eu4Al24CuOs7
_symmetry_space_group_name_H-M   'P 1'
_cell_length_a   8.94581995
_cell_length_b   8.94581899
_cell_length_c   9.67436700
_cell_angle_alpha   89.76082013
_cell_angle_beta   90.23917984
_cell_angle_gamma   119.79689320
_symmetry_Int_Tables_number   1
_chemical_formula_structural   Pr2Eu4Al24CuOs7
_chemical_formula_sum   'Pr2 Eu4 Al24 Cu1 Os7'
_cell_volume   671.85198439
_cell_formula_units_Z   1
loop_
 _symmetry_equiv_pos_site_id
 _symmetry_equiv_pos_as_xyz
  1  'x, y, z'
loop_
 _atom_site_type_symbol
 _atom_site_label
 _atom_site_symmetry_multiplicity
 _atom_site_fract_x
 _atom_site_fract_y
 _atom_site_fract_z
 _atom_site_occupancy
  Pr  Pr0  1  0.192614  0.807386  0.251408  1
  Pr  Pr1  1  0.807386  0.192614  0.748592  1
  Eu  Eu2  1  0.189918  0.383192  0.248919  1
  Eu  Eu3  1  0.810082  0.616808  0.751081  1
  Eu  Eu4  1  0.616808  0.810082  0.248919  1
  Eu  Eu5  1  0.383192  0.189918  0.751081  1
  Al  Al6  1  0.331516  0.668484  0.011150  1
  Al  Al7  1  0.668484  0.331516  0.988850  1
  Al  Al8  1  0.666420  0.333580  0.509199  1
  Al  Al9  1  0.333580  0.666420  0.490801  1
  Al  Al10  1  0.162869  0.326117  0.573866  1
  Al  Al11  1  0.837131  0.673883  0.426134  1
  Al  Al12  1  0.673883  0.837131  0.573866  1
  Al  Al13  1  0.843192  0.675490  0.076886  1
  Al  Al14  1  0.326117  0.162869  0.426134  1
  Al  Al15  1  0.156808  0.324510  0.923114  1
  Al  Al16  1  0.163062  0.836938  0.574012  1
  Al  Al17  1  0.324510  0.156808  0.076886  1
  Al  Al18  1  0.836938  0.163062  0.425988  1
  Al  Al19  1  0.675490  0.843192  0.923114  1
  Al  Al20  1  0.836374  0.163626  0.073688  1
  Al  Al21  1  0.163626  0.836374  0.926312  1
  Al  Al22  1  0.562172  0.124370  0.248758  1
  Al  Al23  1  0.437828  0.875630  0.751242  1
  Al  Al24  1  0.875630  0.437828  0.248758  1
  Al  Al25  1  0.124370  0.562172  0.751242  1
  Al  Al26  1  0.562933  0.437067  0.251644  1
  Al  Al27  1  0.437067  0.562933  0.748356  1
  Al  Al28  1  0.999245  0.000755  0.250399  1
  Al  Al29  1  0.000755  0.999245  0.749601  1
  Cu  Cu30  1  0.500000  0.500000  0.000000  1
  Os  Os31  1  0.500000  0.000000  0.000000  1
  Os  Os32  1  0.000000  0.500000  0.000000  1
  Os  Os33  1  0.500000  0.000000  0.500000  1
  Os  Os34  1  0.000000  0.500000  0.500000  1
  Os  Os35  1  0.500000  0.500000  0.500000  1
  Os  Os36  1  0.000000  0.000000  0.000000  1
  Os  Os37  1  0.000000  0.000000  0.500000  1
