# generated using pymatgen
data_CsTa(MoSe3)2
_symmetry_space_group_name_H-M   'P 1'
_cell_length_a   5.92360100
_cell_length_b   5.92360216
_cell_length_c   18.97148400
_cell_angle_alpha   90.00000000
_cell_angle_beta   90.00000000
_cell_angle_gamma   119.99999910
_symmetry_Int_Tables_number   1
_chemical_formula_structural   CsTa(MoSe3)2
_chemical_formula_sum   'Cs2 Ta2 Mo4 Se12'
_cell_volume   576.50571938
_cell_formula_units_Z   2
loop_
 _symmetry_equiv_pos_site_id
 _symmetry_equiv_pos_as_xyz
  1  'x, y, z'
loop_
 _atom_site_type_symbol
 _atom_site_label
 _atom_site_symmetry_multiplicity
 _atom_site_fract_x
 _atom_site_fract_y
 _atom_site_fract_z
 _atom_site_occupancy
  Cs  Cs0  1  0.000000  0.000000  0.500000  1
  Cs  Cs1  1  0.000000  0.000000  0.000000  1
  Ta  Ta2  1  0.666667  0.333333  0.250000  1
  Ta  Ta3  1  0.333333  0.666667  0.750000  1
  Mo  Mo4  1  0.000000  0.000000  0.250000  1
  Mo  Mo5  1  0.000000  0.000000  0.750000  1
  Mo  Mo6  1  0.333333  0.666667  0.250000  1
  Mo  Mo7  1  0.666667  0.333333  0.750000  1
  Se  Se8  1  0.329831  0.994932  0.162861  1
  Se  Se9  1  0.005068  0.334898  0.162861  1
  Se  Se10  1  0.665102  0.670169  0.162861  1
  Se  Se11  1  0.334898  0.329831  0.662861  1
  Se  Se12  1  0.665102  0.670169  0.337139  1
  Se  Se13  1  0.670169  0.005068  0.662861  1
  Se  Se14  1  0.994932  0.665102  0.662861  1
  Se  Se15  1  0.994932  0.665102  0.837139  1
  Se  Se16  1  0.334898  0.329831  0.837139  1
  Se  Se17  1  0.005068  0.334898  0.337139  1
  Se  Se18  1  0.329831  0.994932  0.337139  1
  Se  Se19  1  0.670169  0.005068  0.837139  1
