# generated using pymatgen
data_PrDy(Si2Rh3)2
_symmetry_space_group_name_H-M   'P 1'
_cell_length_a   6.66995892
_cell_length_b   6.66995960
_cell_length_c   6.66996065
_cell_angle_alpha   130.34368660
_cell_angle_beta   114.50968675
_cell_angle_gamma   86.43285302
_symmetry_Int_Tables_number   1
_chemical_formula_structural   PrDy(Si2Rh3)2
_chemical_formula_sum   'Pr1 Dy1 Si4 Rh6'
_cell_volume   196.46497878
_cell_formula_units_Z   1
loop_
 _symmetry_equiv_pos_site_id
 _symmetry_equiv_pos_as_xyz
  1  'x, y, z'
loop_
 _atom_site_type_symbol
 _atom_site_label
 _atom_site_symmetry_multiplicity
 _atom_site_fract_x
 _atom_site_fract_y
 _atom_site_fract_z
 _atom_site_occupancy
  Pr  Pr0  1  0.750000  0.035726  0.285726  1
  Dy  Dy1  1  0.250000  0.949438  0.699438  1
  Si  Si2  1  0.577391  0.380961  0.803569  1
  Si  Si3  1  0.922609  0.726179  0.803569  1
  Si  Si4  1  0.420614  0.615624  0.195011  1
  Si  Si5  1  0.079386  0.274397  0.195011  1
  Rh  Rh6  1  0.218055  0.507286  0.719567  1
  Rh  Rh7  1  0.787719  0.507286  0.289231  1
  Rh  Rh8  1  0.497915  0.500040  0.497955  1
  Rh  Rh9  1  0.002085  0.500040  0.002125  1
  Rh  Rh10  1  0.712281  0.001511  0.719567  1
  Rh  Rh11  1  0.281945  0.001511  0.289231  1
