# generated using pymatgen
data_ZrScV3Si4
_symmetry_space_group_name_H-M   'P 1'
_cell_length_a   6.62885224
_cell_length_b   6.62936114
_cell_length_c   12.26775718
_cell_angle_alpha   90.00149248
_cell_angle_beta   89.98027805
_cell_angle_gamma   89.97640457
_symmetry_Int_Tables_number   1
_chemical_formula_structural   ZrScV3Si4
_chemical_formula_sum   'Zr4 Sc4 V12 Si16'
_cell_volume   539.10719170
_cell_formula_units_Z   4
loop_
 _symmetry_equiv_pos_site_id
 _symmetry_equiv_pos_as_xyz
  1  'x, y, z'
loop_
 _atom_site_type_symbol
 _atom_site_label
 _atom_site_symmetry_multiplicity
 _atom_site_fract_x
 _atom_site_fract_y
 _atom_site_fract_z
 _atom_site_occupancy
  Zr  Zr0  1  0.002107  0.661030  0.030123  1
  Zr  Zr1  1  0.838883  0.502618  0.280640  1
  Zr  Zr2  1  0.160869  0.497840  0.780199  1
  Zr  Zr3  1  0.501806  0.838832  0.719104  1
  Sc  Sc4  1  0.498477  0.161825  0.220158  1
  Sc  Sc5  1  0.998314  0.338055  0.529399  1
  Sc  Sc6  1  0.661918  0.001199  0.970484  1
  Sc  Sc7  1  0.337887  0.998644  0.470011  1
  V  V8  1  0.331525  0.333425  0.999840  1
  V  V9  1  0.166537  0.831376  0.249832  1
  V  V10  1  0.832755  0.167545  0.750176  1
  V  V11  1  0.667732  0.667450  0.500188  1
  V  V12  1  0.006254  0.157320  0.125977  1
  V  V13  1  0.342853  0.506528  0.375955  1
  V  V14  1  0.657537  0.494935  0.875915  1
  V  V15  1  0.505806  0.343430  0.624440  1
  V  V16  1  0.494224  0.657119  0.123340  1
  V  V17  1  0.993525  0.842175  0.627055  1
  V  V18  1  0.157151  0.005733  0.873516  1
  V  V19  1  0.842956  0.993120  0.373212  1
  Si  Si20  1  0.294997  0.961929  0.064775  1
  Si  Si21  1  0.537596  0.795322  0.314815  1
  Si  Si22  1  0.460960  0.207464  0.815387  1
  Si  Si23  1  0.792911  0.539083  0.684151  1
  Si  Si24  1  0.210437  0.458017  0.185969  1
  Si  Si25  1  0.708389  0.040707  0.562956  1
  Si  Si26  1  0.957504  0.289267  0.936082  1
  Si  Si27  1  0.040793  0.708121  0.436566  1
  Si  Si28  1  0.702133  0.368691  0.070830  1
  Si  Si29  1  0.130685  0.202502  0.320448  1
  Si  Si30  1  0.870399  0.796396  0.821210  1
  Si  Si31  1  0.203822  0.128613  0.678545  1
  Si  Si32  1  0.793853  0.873860  0.179681  1
  Si  Si33  1  0.295328  0.628547  0.569560  1
  Si  Si34  1  0.373463  0.705995  0.929403  1
  Si  Si35  1  0.627616  0.295287  0.430059  1
