# generated using pymatgen
data_Ti8Al14GaOsPt6
_symmetry_space_group_name_H-M   'P 1'
_cell_length_a   8.70005238
_cell_length_b   8.70005278
_cell_length_c   8.70005300
_cell_angle_alpha   120.16433709
_cell_angle_beta   119.79933602
_cell_angle_gamma   90.03176019
_symmetry_Int_Tables_number   1
_chemical_formula_structural   Ti8Al14GaOsPt6
_chemical_formula_sum   'Ti8 Al14 Ga1 Os1 Pt6'
_cell_volume   465.76223036
_cell_formula_units_Z   1
loop_
 _symmetry_equiv_pos_site_id
 _symmetry_equiv_pos_as_xyz
  1  'x, y, z'
loop_
 _atom_site_type_symbol
 _atom_site_label
 _atom_site_symmetry_multiplicity
 _atom_site_fract_x
 _atom_site_fract_y
 _atom_site_fract_z
 _atom_site_occupancy
  Ti  Ti0  1  0.788606  0.291030  0.078698  1
  Ti  Ti1  1  0.212331  0.291030  0.502424  1
  Ti  Ti2  1  0.211269  0.711269  0.500000  1
  Ti  Ti3  1  0.212331  0.709908  0.921302  1
  Ti  Ti4  1  0.788606  0.709908  0.497576  1
  Ti  Ti5  1  0.788460  0.288460  0.500000  1
  Ti  Ti6  1  0.381302  0.121281  0.739978  1
  Ti  Ti7  1  0.381302  0.641325  0.260022  1
  Al  Al8  1  0.157248  0.345201  0.187952  1
  Al  Al9  1  0.157248  0.969296  0.812048  1
  Al  Al10  1  0.157477  0.342176  0.815300  1
  Al  Al11  1  0.526875  0.342176  0.184700  1
  Al  Al12  1  0.843981  0.655894  0.811914  1
  Al  Al13  1  0.843981  0.032067  0.188086  1
  Al  Al14  1  0.843274  0.656683  0.186590  1
  Al  Al15  1  0.470093  0.656683  0.813410  1
  Al  Al16  1  0.381505  0.119461  0.262045  1
  Al  Al17  1  0.857417  0.119461  0.737955  1
  Al  Al18  1  0.620080  0.880595  0.260516  1
  Al  Al19  1  0.620080  0.359565  0.739484  1
  Al  Al20  1  0.621005  0.879846  0.741161  1
  Al  Al21  1  0.138684  0.879846  0.258839  1
  Ga  Ga22  1  0.999513  0.499513  0.500000  1
  Os  Os23  1  0.497557  0.997557  0.500000  1
  Pt  Pt24  1  0.997940  0.999468  0.498685  1
  Pt  Pt25  1  0.500783  0.999468  0.001528  1
  Pt  Pt26  1  0.501217  0.501217  0.000000  1
  Pt  Pt27  1  0.500783  0.499255  0.501315  1
  Pt  Pt28  1  0.997940  0.499255  0.998472  1
  Pt  Pt29  1  0.001112  0.001112  0.000000  1
