# generated using pymatgen
data_Ce2YPa3(Al3Ru)8
_symmetry_space_group_name_H-M   'P 1'
_cell_length_a   8.88221754
_cell_length_b   8.88221779
_cell_length_c   9.46867800
_cell_angle_alpha   90.00000000
_cell_angle_beta   90.00000000
_cell_angle_gamma   120.03407241
_symmetry_Int_Tables_number   1
_chemical_formula_structural   Ce2YPa3(Al3Ru)8
_chemical_formula_sum   'Ce2 Y1 Pa3 Al24 Ru8'
_cell_volume   646.71597913
_cell_formula_units_Z   1
loop_
 _symmetry_equiv_pos_site_id
 _symmetry_equiv_pos_as_xyz
  1  'x, y, z'
loop_
 _atom_site_type_symbol
 _atom_site_label
 _atom_site_symmetry_multiplicity
 _atom_site_fract_x
 _atom_site_fract_y
 _atom_site_fract_z
 _atom_site_occupancy
  Ce  Ce0  1  0.804080  0.614285  0.750000  1
  Ce  Ce1  1  0.385715  0.195920  0.750000  1
  Y  Y2  1  0.807920  0.192080  0.750000  1
  Pa  Pa3  1  0.196559  0.395056  0.250000  1
  Pa  Pa4  1  0.604944  0.803441  0.250000  1
  Pa  Pa5  1  0.198615  0.801385  0.250000  1
  Al  Al6  1  0.334233  0.665767  0.013532  1
  Al  Al7  1  0.668419  0.331581  0.984845  1
  Al  Al8  1  0.668419  0.331581  0.515155  1
  Al  Al9  1  0.334233  0.665767  0.486468  1
  Al  Al10  1  0.161050  0.324387  0.577545  1
  Al  Al11  1  0.838232  0.676611  0.420154  1
  Al  Al12  1  0.675613  0.838950  0.577545  1
  Al  Al13  1  0.838232  0.676611  0.079846  1
  Al  Al14  1  0.323389  0.161768  0.420154  1
  Al  Al15  1  0.161050  0.324387  0.922455  1
  Al  Al16  1  0.162239  0.837761  0.579196  1
  Al  Al17  1  0.323389  0.161768  0.079846  1
  Al  Al18  1  0.838499  0.161501  0.420134  1
  Al  Al19  1  0.675613  0.838950  0.922455  1
  Al  Al20  1  0.838499  0.161501  0.079866  1
  Al  Al21  1  0.162239  0.837761  0.920804  1
  Al  Al22  1  0.563533  0.127531  0.250000  1
  Al  Al23  1  0.440643  0.880768  0.750000  1
  Al  Al24  1  0.872469  0.436467  0.250000  1
  Al  Al25  1  0.119232  0.559357  0.750000  1
  Al  Al26  1  0.562313  0.437687  0.250000  1
  Al  Al27  1  0.437229  0.562771  0.750000  1
  Al  Al28  1  0.000128  0.999872  0.250000  1
  Al  Al29  1  0.000005  0.999995  0.750000  1
  Ru  Ru30  1  0.497786  0.995384  0.007168  1
  Ru  Ru31  1  0.004616  0.502214  0.007168  1
  Ru  Ru32  1  0.497786  0.995384  0.492832  1
  Ru  Ru33  1  0.499471  0.500529  0.003459  1
  Ru  Ru34  1  0.004616  0.502214  0.492832  1
  Ru  Ru35  1  0.499471  0.500529  0.496541  1
  Ru  Ru36  1  0.999759  0.000241  0.999725  1
  Ru  Ru37  1  0.999759  0.000241  0.500275  1
