# generated using pymatgen
data_HoEr4Tl15
_symmetry_space_group_name_H-M   'P 1'
_cell_length_a   4.75222000
_cell_length_b   4.75222000
_cell_length_c   23.94008600
_cell_angle_alpha   90.00000000
_cell_angle_beta   90.00000000
_cell_angle_gamma   90.00000000
_symmetry_Int_Tables_number   1
_chemical_formula_structural   HoEr4Tl15
_chemical_formula_sum   'Ho1 Er4 Tl15'
_cell_volume   540.65320478
_cell_formula_units_Z   1
loop_
 _symmetry_equiv_pos_site_id
 _symmetry_equiv_pos_as_xyz
  1  'x, y, z'
loop_
 _atom_site_type_symbol
 _atom_site_label
 _atom_site_symmetry_multiplicity
 _atom_site_fract_x
 _atom_site_fract_y
 _atom_site_fract_z
 _atom_site_occupancy
  Ho  Ho0  1  0.000000  0.000000  0.000000  1
  Er  Er1  1  0.000000  0.000000  0.199653  1
  Er  Er2  1  0.000000  0.000000  0.399832  1
  Er  Er3  1  0.000000  0.000000  0.600168  1
  Er  Er4  1  0.000000  0.000000  0.800347  1
  Tl  Tl5  1  0.500000  0.500000  0.000000  1
  Tl  Tl6  1  0.500000  0.500000  0.199537  1
  Tl  Tl7  1  0.500000  0.500000  0.399861  1
  Tl  Tl8  1  0.500000  0.500000  0.600139  1
  Tl  Tl9  1  0.500000  0.500000  0.800463  1
  Tl  Tl10  1  0.500000  0.000000  0.099902  1
  Tl  Tl11  1  0.500000  0.000000  0.299593  1
  Tl  Tl12  1  0.500000  0.000000  0.500000  1
  Tl  Tl13  1  0.500000  0.000000  0.700407  1
  Tl  Tl14  1  0.500000  0.000000  0.900098  1
  Tl  Tl15  1  0.000000  0.500000  0.099902  1
  Tl  Tl16  1  0.000000  0.500000  0.299593  1
  Tl  Tl17  1  0.000000  0.500000  0.500000  1
  Tl  Tl18  1  0.000000  0.500000  0.700407  1
  Tl  Tl19  1  0.000000  0.500000  0.900098  1
