# generated using pymatgen
data_Tb3Yb(Pd2Pb)2
_symmetry_space_group_name_H-M   'P 1'
_cell_length_a   7.91523624
_cell_length_b   7.91523624
_cell_length_c   3.66352400
_cell_angle_alpha   90.00000000
_cell_angle_beta   90.00000000
_cell_angle_gamma   89.64848966
_symmetry_Int_Tables_number   1
_chemical_formula_structural   Tb3Yb(Pd2Pb)2
_chemical_formula_sum   'Tb3 Yb1 Pd4 Pb2'
_cell_volume   229.51899347
_cell_formula_units_Z   1
loop_
 _symmetry_equiv_pos_site_id
 _symmetry_equiv_pos_as_xyz
  1  'x, y, z'
loop_
 _atom_site_type_symbol
 _atom_site_label
 _atom_site_symmetry_multiplicity
 _atom_site_fract_x
 _atom_site_fract_y
 _atom_site_fract_z
 _atom_site_occupancy
  Tb  Tb0  1  0.171662  0.326769  0.500000  1
  Tb  Tb1  1  0.826769  0.671662  0.500000  1
  Tb  Tb2  1  0.328986  0.828986  0.500000  1
  Yb  Yb3  1  0.671724  0.171724  0.500000  1
  Pd  Pd4  1  0.374625  0.126528  0.000000  1
  Pd  Pd5  1  0.125479  0.625479  0.000000  1
  Pd  Pd6  1  0.626528  0.874625  0.000000  1
  Pd  Pd7  1  0.875021  0.375021  0.000000  1
  Pb  Pb8  1  0.998290  0.000916  0.000000  1
  Pb  Pb9  1  0.500916  0.498290  0.000000  1
