# generated using pymatgen
data_CaPt2PbO7
_symmetry_space_group_name_H-M   'P 1'
_cell_length_a   7.33359866
_cell_length_b   7.27777117
_cell_length_c   7.27777133
_cell_angle_alpha   59.09262724
_cell_angle_beta   59.74591855
_cell_angle_gamma   59.74591838
_symmetry_Int_Tables_number   1
_chemical_formula_structural   CaPt2PbO7
_chemical_formula_sum   'Ca2 Pt4 Pb2 O14'
_cell_volume   271.69154219
_cell_formula_units_Z   2
loop_
 _symmetry_equiv_pos_site_id
 _symmetry_equiv_pos_as_xyz
  1  'x, y, z'
loop_
 _atom_site_type_symbol
 _atom_site_label
 _atom_site_symmetry_multiplicity
 _atom_site_fract_x
 _atom_site_fract_y
 _atom_site_fract_z
 _atom_site_occupancy
  Ca  Ca0  1  0.625000  0.125000  0.625000  1
  Ca  Ca1  1  0.625000  0.625000  0.125000  1
  Pt  Pt2  1  0.625000  0.125000  0.125000  1
  Pt  Pt3  1  0.125000  0.625000  0.125000  1
  Pt  Pt4  1  0.125000  0.125000  0.625000  1
  Pt  Pt5  1  0.125000  0.125000  0.125000  1
  Pb  Pb6  1  0.125000  0.625000  0.625000  1
  Pb  Pb7  1  0.625000  0.625000  0.625000  1
  O  O8  1  0.207945  0.215509  0.786589  1
  O  O9  1  0.207945  0.786589  0.215509  1
  O  O10  1  0.462867  0.037133  0.037133  1
  O  O11  1  0.209063  0.790937  0.790937  1
  O  O12  1  0.040937  0.459063  0.459063  1
  O  O13  1  0.789955  0.786589  0.215509  1
  O  O14  1  0.460045  0.463411  0.034491  1
  O  O15  1  0.488550  0.511450  0.511450  1
  O  O16  1  0.042055  0.034491  0.463411  1
  O  O17  1  0.460045  0.034491  0.463411  1
  O  O18  1  0.042055  0.463411  0.034491  1
  O  O19  1  0.761450  0.738550  0.738550  1
  O  O20  1  0.789955  0.215509  0.786589  1
  O  O21  1  0.787133  0.212867  0.212867  1
