# generated using pymatgen
data_Tm2Zn2PdRh
_symmetry_space_group_name_H-M   'P 1'
_cell_length_a   4.00955500
_cell_length_b   6.94677848
_cell_length_c   8.17025932
_cell_angle_alpha   90.14320785
_cell_angle_beta   90.00000000
_cell_angle_gamma   90.00000000
_symmetry_Int_Tables_number   1
_chemical_formula_structural   Tm2Zn2PdRh
_chemical_formula_sum   'Tm4 Zn4 Pd2 Rh2'
_cell_volume   227.56952847
_cell_formula_units_Z   2
loop_
 _symmetry_equiv_pos_site_id
 _symmetry_equiv_pos_as_xyz
  1  'x, y, z'
loop_
 _atom_site_type_symbol
 _atom_site_label
 _atom_site_symmetry_multiplicity
 _atom_site_fract_x
 _atom_site_fract_y
 _atom_site_fract_z
 _atom_site_occupancy
  Tm  Tm0  1  0.250000  0.547495  0.191060  1
  Tm  Tm1  1  0.750000  0.452505  0.808940  1
  Tm  Tm2  1  0.750000  0.960628  0.679665  1
  Tm  Tm3  1  0.250000  0.039372  0.320335  1
  Zn  Zn4  1  0.250000  0.634818  0.562975  1
  Zn  Zn5  1  0.750000  0.365182  0.437025  1
  Zn  Zn6  1  0.750000  0.861344  0.067104  1
  Zn  Zn7  1  0.250000  0.138656  0.932896  1
  Pd  Pd8  1  0.250000  0.751463  0.878530  1
  Pd  Pd9  1  0.750000  0.248537  0.121470  1
  Rh  Rh10  1  0.750000  0.751795  0.377781  1
  Rh  Rh11  1  0.250000  0.248205  0.622219  1
