# generated using pymatgen
data_Ca2Sb2PdAu
_symmetry_space_group_name_H-M   'P 1'
_cell_length_a   4.68452500
_cell_length_b   7.54217193
_cell_length_c   8.12673590
_cell_angle_alpha   89.68607248
_cell_angle_beta   90.00000000
_cell_angle_gamma   90.00000000
_symmetry_Int_Tables_number   1
_chemical_formula_structural   Ca2Sb2PdAu
_chemical_formula_sum   'Ca4 Sb4 Pd2 Au2'
_cell_volume   287.12540239
_cell_formula_units_Z   2
loop_
 _symmetry_equiv_pos_site_id
 _symmetry_equiv_pos_as_xyz
  1  'x, y, z'
loop_
 _atom_site_type_symbol
 _atom_site_label
 _atom_site_symmetry_multiplicity
 _atom_site_fract_x
 _atom_site_fract_y
 _atom_site_fract_z
 _atom_site_occupancy
  Ca  Ca0  1  0.250000  0.495170  0.201446  1
  Ca  Ca1  1  0.750000  0.504830  0.798554  1
  Ca  Ca2  1  0.750000  0.999957  0.704690  1
  Ca  Ca3  1  0.250000  0.000043  0.295310  1
  Sb  Sb4  1  0.250000  0.801590  0.913406  1
  Sb  Sb5  1  0.750000  0.198410  0.086594  1
  Sb  Sb6  1  0.750000  0.708441  0.395475  1
  Sb  Sb7  1  0.250000  0.291559  0.604525  1
  Pd  Pd8  1  0.750000  0.820455  0.077697  1
  Pd  Pd9  1  0.250000  0.179545  0.922303  1
  Au  Au10  1  0.250000  0.694697  0.584954  1
  Au  Au11  1  0.750000  0.305303  0.415046  1
