# generated using pymatgen
data_Sc6GaTcTe
_symmetry_space_group_name_H-M   'P 1'
_cell_length_a   7.62145300
_cell_length_b   7.62145146
_cell_length_c   3.91198300
_cell_angle_alpha   90.00000000
_cell_angle_beta   90.00000000
_cell_angle_gamma   119.99999366
_symmetry_Int_Tables_number   1
_chemical_formula_structural   Sc6GaTcTe
_chemical_formula_sum   'Sc6 Ga1 Tc1 Te1'
_cell_volume   196.79002553
_cell_formula_units_Z   1
loop_
 _symmetry_equiv_pos_site_id
 _symmetry_equiv_pos_as_xyz
  1  'x, y, z'
loop_
 _atom_site_type_symbol
 _atom_site_label
 _atom_site_symmetry_multiplicity
 _atom_site_fract_x
 _atom_site_fract_y
 _atom_site_fract_z
 _atom_site_occupancy
  Sc  Sc0  1  0.237598  0.992802  0.500000  1
  Sc  Sc1  1  0.755202  0.762402  0.500000  1
  Sc  Sc2  1  0.007198  0.244798  0.500000  1
  Sc  Sc3  1  0.596859  0.986939  0.000000  1
  Sc  Sc4  1  0.390080  0.403141  0.000000  1
  Sc  Sc5  1  0.013061  0.609920  0.000000  1
  Ga  Ga6  1  0.333333  0.666667  0.500000  1
  Tc  Tc7  1  0.000000  0.000000  0.000000  1
  Te  Te8  1  0.666667  0.333333  0.500000  1
