# generated using pymatgen
data_Ba3LiSbO6
_symmetry_space_group_name_H-M   'P 1'
_cell_length_a   7.17635981
_cell_length_b   7.17636057
_cell_length_c   7.17635996
_cell_angle_alpha   93.09903406
_cell_angle_beta   93.09903987
_cell_angle_gamma   93.09903632
_symmetry_Int_Tables_number   1
_chemical_formula_structural   Ba3LiSbO6
_chemical_formula_sum   'Ba6 Li2 Sb2 O12'
_cell_volume   367.90108160
_cell_formula_units_Z   2
loop_
 _symmetry_equiv_pos_site_id
 _symmetry_equiv_pos_as_xyz
  1  'x, y, z'
loop_
 _atom_site_type_symbol
 _atom_site_label
 _atom_site_symmetry_multiplicity
 _atom_site_fract_x
 _atom_site_fract_y
 _atom_site_fract_z
 _atom_site_occupancy
  Ba  Ba0  1  0.250000  0.599852  0.900148  1
  Ba  Ba1  1  0.900148  0.250000  0.599852  1
  Ba  Ba2  1  0.599852  0.900148  0.250000  1
  Ba  Ba3  1  0.400148  0.099852  0.750000  1
  Ba  Ba4  1  0.750000  0.400148  0.099852  1
  Ba  Ba5  1  0.099852  0.750000  0.400148  1
  Li  Li6  1  0.250000  0.250000  0.250000  1
  Li  Li7  1  0.750000  0.750000  0.750000  1
  Sb  Sb8  1  0.000000  0.000000  0.000000  1
  Sb  Sb9  1  0.500000  0.500000  0.500000  1
  O  O10  1  0.955645  0.086106  0.268922  1
  O  O11  1  0.268922  0.955645  0.086106  1
  O  O12  1  0.086106  0.268922  0.955645  1
  O  O13  1  0.768922  0.586106  0.455645  1
  O  O14  1  0.455645  0.768922  0.586106  1
  O  O15  1  0.586106  0.455645  0.768922  1
  O  O16  1  0.044355  0.913894  0.731078  1
  O  O17  1  0.731078  0.044355  0.913894  1
  O  O18  1  0.913894  0.731078  0.044355  1
  O  O19  1  0.231078  0.413894  0.544355  1
  O  O20  1  0.544355  0.231078  0.413894  1
  O  O21  1  0.413894  0.544355  0.231078  1
