# generated using pymatgen
data_Dy2Er3Ru2
_symmetry_space_group_name_H-M   'P 1'
_cell_length_a   6.30268263
_cell_length_b   7.26154159
_cell_length_c   8.41561852
_cell_angle_alpha   96.73111219
_cell_angle_beta   111.99114631
_cell_angle_gamma   89.99999914
_symmetry_Int_Tables_number   1
_chemical_formula_structural   Dy2Er3Ru2
_chemical_formula_sum   'Dy4 Er6 Ru4'
_cell_volume   354.27092428
_cell_formula_units_Z   2
loop_
 _symmetry_equiv_pos_site_id
 _symmetry_equiv_pos_as_xyz
  1  'x, y, z'
loop_
 _atom_site_type_symbol
 _atom_site_label
 _atom_site_symmetry_multiplicity
 _atom_site_fract_x
 _atom_site_fract_y
 _atom_site_fract_z
 _atom_site_occupancy
  Dy  Dy0  1  0.790637  0.584176  0.813127  1
  Dy  Dy1  1  0.977510  0.915824  0.186873  1
  Dy  Dy2  1  0.209363  0.415824  0.186873  1
  Dy  Dy3  1  0.022490  0.084176  0.813127  1
  Er  Er4  1  0.205609  0.684775  0.565298  1
  Er  Er5  1  0.640311  0.815225  0.434702  1
  Er  Er6  1  0.794391  0.315225  0.434702  1
  Er  Er7  1  0.359689  0.184775  0.565298  1
  Er  Er8  1  0.418921  0.750000  0.000000  1
  Er  Er9  1  0.581079  0.250000  0.000000  1
  Ru  Ru10  1  0.601608  0.923886  0.779426  1
  Ru  Ru11  1  0.822181  0.576114  0.220574  1
  Ru  Ru12  1  0.398392  0.076114  0.220574  1
  Ru  Ru13  1  0.177819  0.423886  0.779426  1
