# generated using pymatgen
data_NpTl2(Cl2O)2
_symmetry_space_group_name_H-M   'P 1'
_cell_length_a   5.84504767
_cell_length_b   6.85297577
_cell_length_c   6.96134400
_cell_angle_alpha   63.86149150
_cell_angle_beta   85.98045425
_cell_angle_gamma   88.36614370
_symmetry_Int_Tables_number   1
_chemical_formula_structural   NpTl2(Cl2O)2
_chemical_formula_sum   'Np1 Tl2 Cl4 O2'
_cell_volume   249.70991727
_cell_formula_units_Z   1
loop_
 _symmetry_equiv_pos_site_id
 _symmetry_equiv_pos_as_xyz
  1  'x, y, z'
loop_
 _atom_site_type_symbol
 _atom_site_label
 _atom_site_symmetry_multiplicity
 _atom_site_fract_x
 _atom_site_fract_y
 _atom_site_fract_z
 _atom_site_occupancy
  Np  Np0  1  0.000000  0.500000  0.500000  1
  Tl  Tl1  1  0.246665  0.137026  0.173038  1
  Tl  Tl2  1  0.753335  0.862974  0.826962  1
  Cl  Cl3  1  0.768174  0.353682  0.880204  1
  Cl  Cl4  1  0.231826  0.646318  0.119796  1
  Cl  Cl5  1  0.263980  0.149455  0.661543  1
  Cl  Cl6  1  0.736020  0.850545  0.338457  1
  O  O7  1  0.821885  0.345897  0.418385  1
  O  O8  1  0.178115  0.654103  0.581615  1
