# generated using pymatgen
data_La10Tc2IrRh
_symmetry_space_group_name_H-M   'P 1'
_cell_length_a   9.14123788
_cell_length_b   9.13711322
_cell_length_c   7.46643828
_cell_angle_alpha   84.93966840
_cell_angle_beta   84.89000798
_cell_angle_gamma   43.18916969
_symmetry_Int_Tables_number   1
_chemical_formula_structural   La10Tc2IrRh
_chemical_formula_sum   'La10 Tc2 Ir1 Rh1'
_cell_volume   424.87462993
_cell_formula_units_Z   1
loop_
 _symmetry_equiv_pos_site_id
 _symmetry_equiv_pos_as_xyz
  1  'x, y, z'
loop_
 _atom_site_type_symbol
 _atom_site_label
 _atom_site_symmetry_multiplicity
 _atom_site_fract_x
 _atom_site_fract_y
 _atom_site_fract_z
 _atom_site_occupancy
  La  La0  1  0.018120  0.798671  0.905685  1
  La  La1  1  0.202640  0.980464  0.595412  1
  La  La2  1  0.995790  0.191154  0.086694  1
  La  La3  1  0.808662  0.003841  0.413059  1
  La  La4  1  0.354119  0.212109  0.817896  1
  La  La5  1  0.788328  0.645139  0.682444  1
  La  La6  1  0.636698  0.789118  0.177346  1
  La  La7  1  0.213811  0.362312  0.321447  1
  La  La8  1  0.576784  0.422632  0.751280  1
  La  La9  1  0.429054  0.570064  0.249772  1
  Tc  Tc10  1  0.170309  0.612505  0.572459  1
  Tc  Tc11  1  0.387105  0.830471  0.927070  1
  Ir  Ir12  1  0.595495  0.177515  0.080771  1
  Rh  Rh13  1  0.823085  0.404005  0.418666  1
