# generated using pymatgen
data_YbPr3Tm4(B6Os)4
_symmetry_space_group_name_H-M   'P 1'
_cell_length_a   3.67729100
_cell_length_b   9.19823917
_cell_length_c   11.63596748
_cell_angle_alpha   90.05777600
_cell_angle_beta   90.00000000
_cell_angle_gamma   90.00000000
_symmetry_Int_Tables_number   1
_chemical_formula_structural   YbPr3Tm4(B6Os)4
_chemical_formula_sum   'Yb1 Pr3 Tm4 B24 Os4'
_cell_volume   393.58177007
_cell_formula_units_Z   1
loop_
 _symmetry_equiv_pos_site_id
 _symmetry_equiv_pos_as_xyz
  1  'x, y, z'
loop_
 _atom_site_type_symbol
 _atom_site_label
 _atom_site_symmetry_multiplicity
 _atom_site_fract_x
 _atom_site_fract_y
 _atom_site_fract_z
 _atom_site_occupancy
  Yb  Yb0  1  0.000000  0.177469  0.914175  1
  Pr  Pr1  1  0.000000  0.321928  0.414871  1
  Pr  Pr2  1  0.000000  0.677377  0.586626  1
  Pr  Pr3  1  0.000000  0.823916  0.084250  1
  Tm  Tm4  1  0.000000  0.944585  0.371302  1
  Tm  Tm5  1  0.000000  0.056767  0.630069  1
  Tm  Tm6  1  0.000000  0.441949  0.126529  1
  Tm  Tm7  1  0.000000  0.554934  0.871988  1
  B  B8  1  0.500000  0.556635  0.429277  1
  B  B9  1  0.500000  0.443182  0.571213  1
  B  B10  1  0.500000  0.057400  0.067590  1
  B  B11  1  0.500000  0.946845  0.929930  1
  B  B12  1  0.500000  0.750592  0.416264  1
  B  B13  1  0.500000  0.249836  0.585202  1
  B  B14  1  0.500000  0.249273  0.080749  1
  B  B15  1  0.500000  0.751103  0.916038  1
  B  B16  1  0.500000  0.790600  0.266168  1
  B  B17  1  0.500000  0.208355  0.736208  1
  B  B18  1  0.500000  0.290085  0.232008  1
  B  B19  1  0.500000  0.709446  0.767331  1
  B  B20  1  0.500000  0.629601  0.184770  1
  B  B21  1  0.500000  0.367937  0.816366  1
  B  B22  1  0.500000  0.129963  0.313933  1
  B  B23  1  0.500000  0.871030  0.686936  1
  B  B24  1  0.500000  0.985974  0.213072  1
  B  B25  1  0.500000  0.017619  0.787636  1
  B  B26  1  0.500000  0.484919  0.284812  1
  B  B27  1  0.500000  0.513449  0.715141  1
  B  B28  1  0.500000  0.599745  0.027052  1
  B  B29  1  0.500000  0.397168  0.971823  1
  B  B30  1  0.500000  0.099719  0.473287  1
  B  B31  1  0.500000  0.900568  0.527473  1
  Os  Os32  1  0.000000  0.639318  0.318475  1
  Os  Os33  1  0.000000  0.359841  0.682118  1
  Os  Os34  1  0.000000  0.139820  0.180097  1
  Os  Os35  1  0.000000  0.861050  0.819221  1
