# generated using pymatgen
data_Yb2Er6Si8Pd3Pt5
_symmetry_space_group_name_H-M   'P 1'
_cell_length_a   4.30952900
_cell_length_b   7.38465070
_cell_length_c   13.99374028
_cell_angle_alpha   90.04951356
_cell_angle_beta   90.00000000
_cell_angle_gamma   90.00000000
_symmetry_Int_Tables_number   1
_chemical_formula_structural   Yb2Er6Si8Pd3Pt5
_chemical_formula_sum   'Yb2 Er6 Si8 Pd3 Pt5'
_cell_volume   445.34175114
_cell_formula_units_Z   1
loop_
 _symmetry_equiv_pos_site_id
 _symmetry_equiv_pos_as_xyz
  1  'x, y, z'
loop_
 _atom_site_type_symbol
 _atom_site_label
 _atom_site_symmetry_multiplicity
 _atom_site_fract_x
 _atom_site_fract_y
 _atom_site_fract_z
 _atom_site_occupancy
  Yb  Yb0  1  0.000000  0.290170  0.499701  1
  Yb  Yb1  1  0.500000  0.710146  0.000032  1
  Er  Er2  1  0.000000  0.300195  0.000545  1
  Er  Er3  1  0.500000  0.700102  0.500106  1
  Er  Er4  1  0.000000  0.204607  0.250103  1
  Er  Er5  1  0.500000  0.793717  0.249695  1
  Er  Er6  1  0.000000  0.205995  0.749795  1
  Er  Er7  1  0.500000  0.794274  0.750474  1
  Si  Si8  1  0.000000  0.907502  0.592242  1
  Si  Si9  1  0.500000  0.092728  0.907568  1
  Si  Si10  1  0.000000  0.907614  0.407709  1
  Si  Si11  1  0.500000  0.094071  0.092989  1
  Si  Si12  1  0.000000  0.588942  0.148715  1
  Si  Si13  1  0.500000  0.408998  0.349529  1
  Si  Si14  1  0.000000  0.590675  0.851735  1
  Si  Si15  1  0.500000  0.409176  0.648292  1
  Pd  Pd16  1  0.000000  0.581986  0.344596  1
  Pd  Pd17  1  0.500000  0.418745  0.842960  1
  Pd  Pd18  1  0.000000  0.581247  0.656469  1
  Pt  Pt19  1  0.500000  0.076802  0.611735  1
  Pt  Pt20  1  0.000000  0.923306  0.888475  1
  Pt  Pt21  1  0.500000  0.076601  0.389040  1
  Pt  Pt22  1  0.000000  0.922828  0.111621  1
  Pt  Pt23  1  0.500000  0.419573  0.155874  1
