# generated using pymatgen
data_Hg3Ir3RhPbO14
_symmetry_space_group_name_H-M   'P 1'
_cell_length_a   7.28116505
_cell_length_b   7.36617412
_cell_length_c   7.29788900
_cell_angle_alpha   60.30618581
_cell_angle_beta   59.92399527
_cell_angle_gamma   60.33087293
_symmetry_Int_Tables_number   1
_chemical_formula_structural   Hg3Ir3RhPbO14
_chemical_formula_sum   'Hg3 Ir3 Rh1 Pb1 O14'
_cell_volume   277.93732228
_cell_formula_units_Z   1
loop_
 _symmetry_equiv_pos_site_id
 _symmetry_equiv_pos_as_xyz
  1  'x, y, z'
loop_
 _atom_site_type_symbol
 _atom_site_label
 _atom_site_symmetry_multiplicity
 _atom_site_fract_x
 _atom_site_fract_y
 _atom_site_fract_z
 _atom_site_occupancy
  Hg  Hg0  1  0.625000  0.125000  0.125000  1
  Hg  Hg1  1  0.125000  0.125000  0.625000  1
  Hg  Hg2  1  0.125000  0.125000  0.125000  1
  Ir  Ir3  1  0.625000  0.125000  0.625000  1
  Ir  Ir4  1  0.625000  0.625000  0.125000  1
  Ir  Ir5  1  0.625000  0.625000  0.625000  1
  Rh  Rh6  1  0.125000  0.625000  0.625000  1
  Pb  Pb7  1  0.125000  0.625000  0.125000  1
  O  O8  1  0.707261  0.691354  0.300692  1
  O  O9  1  0.306983  0.301080  0.695969  1
  O  O10  1  0.691606  0.308737  0.695580  1
  O  O11  1  0.302434  0.691394  0.296112  1
  O  O12  1  0.302434  0.691394  0.710060  1
  O  O13  1  0.691606  0.308737  0.304078  1
  O  O14  1  0.542739  0.558646  0.949308  1
  O  O15  1  0.943017  0.948920  0.554031  1
  O  O16  1  0.558394  0.941263  0.554420  1
  O  O17  1  0.947566  0.558606  0.953888  1
  O  O18  1  0.947566  0.558606  0.539940  1
  O  O19  1  0.558394  0.941263  0.945922  1
  O  O20  1  0.256781  0.230804  0.256208  1
  O  O21  1  0.993219  0.019196  0.993792  1
