# generated using pymatgen
data_Hf8Co2MoP4
_symmetry_space_group_name_H-M   'P 1'
_cell_length_a   11.83286300
_cell_length_b   11.83286300
_cell_length_c   3.61993000
_cell_angle_alpha   90.00000000
_cell_angle_beta   90.00000000
_cell_angle_gamma   90.00000000
_symmetry_Int_Tables_number   1
_chemical_formula_structural   Hf8Co2MoP4
_chemical_formula_sum   'Hf16 Co4 Mo2 P8'
_cell_volume   506.85046017
_cell_formula_units_Z   2
loop_
 _symmetry_equiv_pos_site_id
 _symmetry_equiv_pos_as_xyz
  1  'x, y, z'
loop_
 _atom_site_type_symbol
 _atom_site_label
 _atom_site_symmetry_multiplicity
 _atom_site_fract_x
 _atom_site_fract_y
 _atom_site_fract_z
 _atom_site_occupancy
  Hf  Hf0  1  0.177279  0.099019  0.500000  1
  Hf  Hf1  1  0.822721  0.900981  0.500000  1
  Hf  Hf2  1  0.099019  0.822721  0.500000  1
  Hf  Hf3  1  0.677279  0.400981  0.500000  1
  Hf  Hf4  1  0.900981  0.177279  0.500000  1
  Hf  Hf5  1  0.322721  0.599019  0.500000  1
  Hf  Hf6  1  0.599019  0.677279  0.500000  1
  Hf  Hf7  1  0.400981  0.322721  0.500000  1
  Hf  Hf8  1  0.622156  0.122156  0.500000  1
  Hf  Hf9  1  0.377844  0.877844  0.500000  1
  Hf  Hf10  1  0.122156  0.377844  0.500000  1
  Hf  Hf11  1  0.877844  0.622156  0.500000  1
  Hf  Hf12  1  0.098013  0.598013  0.000000  1
  Hf  Hf13  1  0.901987  0.401987  0.000000  1
  Hf  Hf14  1  0.598013  0.901987  0.000000  1
  Hf  Hf15  1  0.401987  0.098013  0.000000  1
  Co  Co16  1  0.749375  0.249375  0.000000  1
  Co  Co17  1  0.250625  0.750625  0.000000  1
  Co  Co18  1  0.249375  0.250625  0.000000  1
  Co  Co19  1  0.750625  0.749375  0.000000  1
  Mo  Mo20  1  0.000000  0.000000  0.000000  1
  Mo  Mo21  1  0.500000  0.500000  0.000000  1
  P  P22  1  0.057985  0.221190  0.000000  1
  P  P23  1  0.942015  0.778810  0.000000  1
  P  P24  1  0.221190  0.942015  0.000000  1
  P  P25  1  0.557985  0.278810  0.000000  1
  P  P26  1  0.778810  0.057985  0.000000  1
  P  P27  1  0.442015  0.721190  0.000000  1
  P  P28  1  0.721190  0.557985  0.000000  1
  P  P29  1  0.278810  0.442015  0.000000  1
