# generated using pymatgen
data_Li4Pr4Sn3Sb
_symmetry_space_group_name_H-M   'P 1'
_cell_length_a   9.59426292
_cell_length_b   9.59687564
_cell_length_c   7.68748987
_cell_angle_alpha   89.99999897
_cell_angle_beta   90.04694601
_cell_angle_gamma   120.00901005
_symmetry_Int_Tables_number   1
_chemical_formula_structural   Li4Pr4Sn3Sb
_chemical_formula_sum   'Li8 Pr8 Sn6 Sb2'
_cell_volume   612.93869461
_cell_formula_units_Z   2
loop_
 _symmetry_equiv_pos_site_id
 _symmetry_equiv_pos_as_xyz
  1  'x, y, z'
loop_
 _atom_site_type_symbol
 _atom_site_label
 _atom_site_symmetry_multiplicity
 _atom_site_fract_x
 _atom_site_fract_y
 _atom_site_fract_z
 _atom_site_occupancy
  Li  Li0  1  0.832868  0.166836  0.716442  1
  Li  Li1  1  0.832868  0.666031  0.716442  1
  Li  Li2  1  0.333502  0.166750  0.714543  1
  Li  Li3  1  0.166976  0.833154  0.214787  1
  Li  Li4  1  0.166976  0.333823  0.214787  1
  Li  Li5  1  0.666721  0.833361  0.213680  1
  Li  Li6  1  0.667172  0.333585  0.330047  1
  Li  Li7  1  0.332780  0.666390  0.827745  1
  Pr  Pr8  1  0.486327  0.509678  0.506698  1
  Pr  Pr9  1  0.486327  0.976649  0.506698  1
  Pr  Pr10  1  0.025228  0.512614  0.508213  1
  Pr  Pr11  1  0.509518  0.488399  0.003636  1
  Pr  Pr12  1  0.509518  0.021119  0.003636  1
  Pr  Pr13  1  0.978786  0.489393  0.002882  1
  Pr  Pr14  1  0.001156  0.000578  0.503535  1
  Pr  Pr15  1  0.002413  0.001206  0.998219  1
  Sn  Sn16  1  0.333839  0.166919  0.268828  1
  Sn  Sn17  1  0.166602  0.832850  0.768291  1
  Sn  Sn18  1  0.166602  0.333752  0.768291  1
  Sn  Sn19  1  0.666504  0.833252  0.768331  1
  Sn  Sn20  1  0.667196  0.333598  0.734993  1
  Sn  Sn21  1  0.332955  0.666478  0.234455  1
  Sb  Sb22  1  0.833584  0.167123  0.266412  1
  Sb  Sb23  1  0.833584  0.666460  0.266412  1
