# generated using pymatgen
data_Tb2Er3As7Rh9
_symmetry_space_group_name_H-M   'P 1'
_cell_length_a   4.04642400
_cell_length_b   10.21707662
_cell_length_c   10.21145500
_cell_angle_alpha   120.00008864
_cell_angle_beta   90.00196819
_cell_angle_gamma   89.99719896
_symmetry_Int_Tables_number   1
_chemical_formula_structural   Tb2Er3As7Rh9
_chemical_formula_sum   'Tb2 Er3 As7 Rh9'
_cell_volume   365.60818481
_cell_formula_units_Z   1
loop_
 _symmetry_equiv_pos_site_id
 _symmetry_equiv_pos_as_xyz
  1  'x, y, z'
loop_
 _atom_site_type_symbol
 _atom_site_label
 _atom_site_symmetry_multiplicity
 _atom_site_fract_x
 _atom_site_fract_y
 _atom_site_fract_z
 _atom_site_occupancy
  Tb  Tb0  1  0.261851  0.666494  0.333025  1
  Tb  Tb1  1  0.761883  0.333410  0.666733  1
  Er  Er2  1  0.761962  0.109998  0.876106  1
  Er  Er3  1  0.761944  0.123320  0.233632  1
  Er  Er4  1  0.761910  0.766634  0.889871  1
  As  As5  1  0.261812  0.000117  0.999974  1
  As  As6  1  0.761658  0.858040  0.577854  1
  As  As7  1  0.761780  0.421744  0.280250  1
  As  As8  1  0.761810  0.719609  0.141287  1
  As  As9  1  0.261807  0.114811  0.431158  1
  As  As10  1  0.261748  0.568984  0.683889  1
  As  As11  1  0.261778  0.316487  0.885444  1
  Rh  Rh12  1  0.261888  0.876516  0.170808  1
  Rh  Rh13  1  0.261740  0.829263  0.705476  1
  Rh  Rh14  1  0.261906  0.294453  0.123783  1
  Rh  Rh15  1  0.761911  0.599076  0.550525  1
  Rh  Rh16  1  0.761945  0.449462  0.048666  1
  Rh  Rh17  1  0.762037  0.951095  0.400793  1
  Rh  Rh18  1  0.262123  0.357616  0.430148  1
  Rh  Rh19  1  0.262123  0.570278  0.927997  1
  Rh  Rh20  1  0.262383  0.072593  0.642579  1
