# generated using pymatgen
data_Yb2Al9ZnIr2
_symmetry_space_group_name_H-M   'P 1'
_cell_length_a   7.62273648
_cell_length_b   7.62273607
_cell_length_c   9.51273600
_cell_angle_alpha   90.00000000
_cell_angle_beta   90.00000000
_cell_angle_gamma   119.52185121
_symmetry_Int_Tables_number   1
_chemical_formula_structural   Yb2Al9ZnIr2
_chemical_formula_sum   'Yb4 Al18 Zn2 Ir4'
_cell_volume   480.98358909
_cell_formula_units_Z   2
loop_
 _symmetry_equiv_pos_site_id
 _symmetry_equiv_pos_as_xyz
  1  'x, y, z'
loop_
 _atom_site_type_symbol
 _atom_site_label
 _atom_site_symmetry_multiplicity
 _atom_site_fract_x
 _atom_site_fract_y
 _atom_site_fract_z
 _atom_site_occupancy
  Yb  Yb0  1  0.997908  0.676706  0.250000  1
  Yb  Yb1  1  0.002092  0.323294  0.750000  1
  Yb  Yb2  1  0.676706  0.997908  0.250000  1
  Yb  Yb3  1  0.323294  0.002092  0.750000  1
  Al  Al4  1  0.140340  0.140340  0.250000  1
  Al  Al5  1  0.859660  0.859660  0.750000  1
  Al  Al6  1  0.999782  0.344640  0.076436  1
  Al  Al7  1  0.000218  0.655360  0.923564  1
  Al  Al8  1  0.000218  0.655360  0.576436  1
  Al  Al9  1  0.344640  0.999782  0.423564  1
  Al  Al10  1  0.999782  0.344640  0.423564  1
  Al  Al11  1  0.655360  0.000218  0.576436  1
  Al  Al12  1  0.655360  0.000218  0.923564  1
  Al  Al13  1  0.344640  0.999782  0.076436  1
  Al  Al14  1  0.340679  0.340679  0.555793  1
  Al  Al15  1  0.659321  0.659321  0.444207  1
  Al  Al16  1  0.659321  0.659321  0.055793  1
  Al  Al17  1  0.340679  0.340679  0.944207  1
  Al  Al18  1  0.339401  0.552289  0.250000  1
  Al  Al19  1  0.660599  0.447711  0.750000  1
  Al  Al20  1  0.552289  0.339401  0.250000  1
  Al  Al21  1  0.447711  0.660599  0.750000  1
  Zn  Zn22  1  0.000000  0.000000  0.000000  1
  Zn  Zn23  1  0.000000  0.000000  0.500000  1
  Ir  Ir24  1  0.670969  0.329031  0.000000  1
  Ir  Ir25  1  0.329031  0.670969  0.000000  1
  Ir  Ir26  1  0.329031  0.670969  0.500000  1
  Ir  Ir27  1  0.670969  0.329031  0.500000  1
