# generated using pymatgen
data_Ga4Pd3Pt
_symmetry_space_group_name_H-M   'P 1'
_cell_length_a   4.96729235
_cell_length_b   4.96729200
_cell_length_c   4.96729243
_cell_angle_alpha   89.69980827
_cell_angle_beta   90.30018881
_cell_angle_gamma   89.69982194
_symmetry_Int_Tables_number   1
_chemical_formula_structural   Ga4Pd3Pt
_chemical_formula_sum   'Ga4 Pd3 Pt1'
_cell_volume   122.55786746
_cell_formula_units_Z   1
loop_
 _symmetry_equiv_pos_site_id
 _symmetry_equiv_pos_as_xyz
  1  'x, y, z'
loop_
 _atom_site_type_symbol
 _atom_site_label
 _atom_site_symmetry_multiplicity
 _atom_site_fract_x
 _atom_site_fract_y
 _atom_site_fract_z
 _atom_site_occupancy
  Ga  Ga0  1  0.158208  0.341792  0.658208  1
  Ga  Ga1  1  0.343071  0.657836  0.158492  1
  Ga  Ga2  1  0.658492  0.156929  0.342164  1
  Ga  Ga3  1  0.842164  0.841508  0.843071  1
  Pd  Pd4  1  0.639192  0.357898  0.858094  1
  Pd  Pd5  1  0.358094  0.860808  0.642102  1
  Pd  Pd6  1  0.142102  0.141906  0.139192  1
  Pt  Pt7  1  0.858676  0.641324  0.358676  1
