# generated using pymatgen
data_Y12Tm4MgHg3Ir4
_symmetry_space_group_name_H-M   'P 1'
_cell_length_a   9.62359335
_cell_length_b   9.60952641
_cell_length_c   9.60952700
_cell_angle_alpha   60.00000142
_cell_angle_beta   60.04834273
_cell_angle_gamma   60.04833582
_symmetry_Int_Tables_number   1
_chemical_formula_structural   Y12Tm4MgHg3Ir4
_chemical_formula_sum   'Y12 Tm4 Mg1 Hg3 Ir4'
_cell_volume   628.84439798
_cell_formula_units_Z   1
loop_
 _symmetry_equiv_pos_site_id
 _symmetry_equiv_pos_as_xyz
  1  'x, y, z'
loop_
 _atom_site_type_symbol
 _atom_site_label
 _atom_site_symmetry_multiplicity
 _atom_site_fract_x
 _atom_site_fract_y
 _atom_site_fract_z
 _atom_site_occupancy
  Y  Y0  1  0.058429  0.441392  0.441392  1
  Y  Y1  1  0.437805  0.061545  0.061545  1
  Y  Y2  1  0.437805  0.061545  0.439105  1
  Y  Y3  1  0.058429  0.441392  0.058786  1
  Y  Y4  1  0.437805  0.439105  0.061545  1
  Y  Y5  1  0.058429  0.058786  0.441392  1
  Y  Y6  1  0.186733  0.812105  0.812105  1
  Y  Y7  1  0.811401  0.187992  0.187992  1
  Y  Y8  1  0.811401  0.187992  0.812616  1
  Y  Y9  1  0.186733  0.812105  0.189058  1
  Y  Y10  1  0.811401  0.812616  0.187992  1
  Y  Y11  1  0.186733  0.189058  0.812105  1
  Tm  Tm12  1  0.599095  0.597419  0.597419  1
  Tm  Tm13  1  0.599095  0.597419  0.206066  1
  Tm  Tm14  1  0.599095  0.206066  0.597419  1
  Tm  Tm15  1  0.195559  0.601480  0.601480  1
  Mg  Mg16  1  0.536916  0.821028  0.821028  1
  Hg  Hg17  1  0.831290  0.835871  0.835871  1
  Hg  Hg18  1  0.831290  0.835871  0.496969  1
  Hg  Hg19  1  0.831290  0.496969  0.835871  1
  Ir  Ir20  1  0.390733  0.394771  0.394771  1
  Ir  Ir21  1  0.390733  0.394771  0.819725  1
  Ir  Ir22  1  0.390733  0.819725  0.394771  1
  Ir  Ir23  1  0.821064  0.392979  0.392979  1
