# generated using pymatgen
data_PrTh2(SnRh)3
_symmetry_space_group_name_H-M   'P 1'
_cell_length_a   7.63262469
_cell_length_b   7.63262533
_cell_length_c   4.09711200
_cell_angle_alpha   90.00000000
_cell_angle_beta   90.00000000
_cell_angle_gamma   120.36957106
_symmetry_Int_Tables_number   1
_chemical_formula_structural   PrTh2(SnRh)3
_chemical_formula_sum   'Pr1 Th2 Sn3 Rh3'
_cell_volume   205.93345833
_cell_formula_units_Z   1
loop_
 _symmetry_equiv_pos_site_id
 _symmetry_equiv_pos_as_xyz
  1  'x, y, z'
loop_
 _atom_site_type_symbol
 _atom_site_label
 _atom_site_symmetry_multiplicity
 _atom_site_fract_x
 _atom_site_fract_y
 _atom_site_fract_z
 _atom_site_occupancy
  Pr  Pr0  1  0.411182  0.411182  0.500000  1
  Th  Th1  1  0.586572  0.000096  0.500000  1
  Th  Th2  1  0.000096  0.586572  0.500000  1
  Sn  Sn3  1  0.742550  0.742550  0.000000  1
  Sn  Sn4  1  0.250255  0.006681  0.000000  1
  Sn  Sn5  1  0.006681  0.250255  0.000000  1
  Rh  Rh6  1  0.682084  0.330772  0.000000  1
  Rh  Rh7  1  0.330772  0.682084  0.000000  1
  Rh  Rh8  1  0.989810  0.989810  0.500000  1
