# generated using pymatgen
data_K2Pa3(NiSe4)2
_symmetry_space_group_name_H-M   'P 1'
_cell_length_a   3.86838876
_cell_length_b   8.12333220
_cell_length_c   13.55858800
_cell_angle_alpha   94.22057194
_cell_angle_beta   98.20147902
_cell_angle_gamma   103.77462769
_symmetry_Int_Tables_number   1
_chemical_formula_structural   K2Pa3(NiSe4)2
_chemical_formula_sum   'K2 Pa3 Ni2 Se8'
_cell_volume   407.00978612
_cell_formula_units_Z   1
loop_
 _symmetry_equiv_pos_site_id
 _symmetry_equiv_pos_as_xyz
  1  'x, y, z'
loop_
 _atom_site_type_symbol
 _atom_site_label
 _atom_site_symmetry_multiplicity
 _atom_site_fract_x
 _atom_site_fract_y
 _atom_site_fract_z
 _atom_site_occupancy
  K  K0  1  0.866326  0.530263  0.202387  1
  K  K1  1  0.133674  0.469737  0.797612  1
  Pa  Pa2  1  0.500000  0.000000  0.000000  1
  Pa  Pa3  1  0.715332  0.056440  0.374223  1
  Pa  Pa4  1  0.284667  0.943560  0.625776  1
  Ni  Ni5  1  0.130918  0.069475  0.192362  1
  Ni  Ni6  1  0.869081  0.930526  0.807637  1
  Se  Se7  1  0.155410  0.251254  0.059565  1
  Se  Se8  1  0.532040  0.879144  0.184935  1
  Se  Se9  1  0.311989  0.292610  0.331367  1
  Se  Se10  1  0.114732  0.807200  0.422267  1
  Se  Se11  1  0.885268  0.192801  0.577732  1
  Se  Se12  1  0.688012  0.707391  0.668634  1
  Se  Se13  1  0.467960  0.120856  0.815065  1
  Se  Se14  1  0.844589  0.748745  0.940434  1
