# generated using pymatgen
data_NaLi3CaP12Ir19
_symmetry_space_group_name_H-M   'P 1'
_cell_length_a   12.59082832
_cell_length_b   12.60616888
_cell_length_c   3.93477800
_cell_angle_alpha   90.00000000
_cell_angle_beta   90.00000000
_cell_angle_gamma   119.96329535
_symmetry_Int_Tables_number   1
_chemical_formula_structural   NaLi3CaP12Ir19
_chemical_formula_sum   'Na1 Li3 Ca1 P12 Ir19'
_cell_volume   541.06419958
_cell_formula_units_Z   1
loop_
 _symmetry_equiv_pos_site_id
 _symmetry_equiv_pos_as_xyz
  1  'x, y, z'
loop_
 _atom_site_type_symbol
 _atom_site_label
 _atom_site_symmetry_multiplicity
 _atom_site_fract_x
 _atom_site_fract_y
 _atom_site_fract_z
 _atom_site_occupancy
  Na  Na0  1  0.821107  0.819480  0.500000  1
  Li  Li1  1  0.668350  0.334654  0.000000  1
  Li  Li2  1  0.331663  0.665764  0.000000  1
  Li  Li3  1  0.172712  0.998208  0.500000  1
  Ca  Ca4  1  0.000662  0.176949  0.500000  1
  P  P5  1  0.688581  0.177768  0.500000  1
  P  P6  1  0.822883  0.512413  0.500000  1
  P  P7  1  0.489396  0.311926  0.500000  1
  P  P8  1  0.177943  0.689783  0.500000  1
  P  P9  1  0.510420  0.822722  0.500000  1
  P  P10  1  0.311513  0.488325  0.500000  1
  P  P11  1  0.639803  0.640096  0.000000  1
  P  P12  1  0.358764  0.000468  0.000000  1
  P  P13  1  0.000112  0.360510  0.000000  1
  P  P14  1  0.182623  0.177237  0.000000  1
  P  P15  1  0.818898  0.996517  0.000000  1
  P  P16  1  0.001730  0.819807  0.000000  1
  Ir  Ir17  1  0.803344  0.181392  0.000000  1
  Ir  Ir18  1  0.817721  0.619556  0.000000  1
  Ir  Ir19  1  0.379316  0.196198  0.000000  1
  Ir  Ir20  1  0.183272  0.804704  0.000000  1
  Ir  Ir21  1  0.619299  0.817554  0.000000  1
  Ir  Ir22  1  0.196894  0.377861  0.000000  1
  Ir  Ir23  1  0.456766  0.458894  0.000000  1
  Ir  Ir24  1  0.542545  0.002222  0.000000  1
  Ir  Ir25  1  0.000563  0.542087  0.000000  1
  Ir  Ir26  1  0.292762  0.292489  0.500000  1
  Ir  Ir27  1  0.707137  0.000575  0.500000  1
  Ir  Ir28  1  0.000902  0.708280  0.500000  1
  Ir  Ir29  1  0.868719  0.361227  0.500000  1
  Ir  Ir30  1  0.638537  0.509274  0.500000  1
  Ir  Ir31  1  0.491995  0.131677  0.500000  1
  Ir  Ir32  1  0.361253  0.871275  0.500000  1
  Ir  Ir33  1  0.507459  0.639517  0.500000  1
  Ir  Ir34  1  0.131841  0.492676  0.500000  1
  Ir  Ir35  1  0.002514  0.999916  0.000000  1
