# generated using pymatgen
data_Er5SnSb2
_symmetry_space_group_name_H-M   'P 1'
_cell_length_a   8.88940836
_cell_length_b   8.86827884
_cell_length_c   6.34553400
_cell_angle_alpha   90.00000000
_cell_angle_beta   90.00000000
_cell_angle_gamma   119.92139523
_symmetry_Int_Tables_number   1
_chemical_formula_structural   Er5SnSb2
_chemical_formula_sum   'Er10 Sn2 Sb4'
_cell_volume   433.56523644
_cell_formula_units_Z   2
loop_
 _symmetry_equiv_pos_site_id
 _symmetry_equiv_pos_as_xyz
  1  'x, y, z'
loop_
 _atom_site_type_symbol
 _atom_site_label
 _atom_site_symmetry_multiplicity
 _atom_site_fract_x
 _atom_site_fract_y
 _atom_site_fract_z
 _atom_site_occupancy
  Er  Er0  1  0.000738  0.756915  0.750000  1
  Er  Er1  1  0.000738  0.243824  0.250000  1
  Er  Er2  1  0.755573  0.756230  0.250000  1
  Er  Er3  1  0.755573  0.999343  0.750000  1
  Er  Er4  1  0.243888  0.242592  0.750000  1
  Er  Er5  1  0.243888  0.001296  0.250000  1
  Er  Er6  1  0.333912  0.666956  0.500000  1
  Er  Er7  1  0.665221  0.332610  0.000000  1
  Er  Er8  1  0.665221  0.332610  0.500000  1
  Er  Er9  1  0.333912  0.666956  0.000000  1
  Sn  Sn10  1  0.391326  0.999106  0.750000  1
  Sn  Sn11  1  0.391326  0.392220  0.250000  1
  Sb  Sb12  1  0.999409  0.609379  0.250000  1
  Sb  Sb13  1  0.999409  0.390031  0.750000  1
  Sb  Sb14  1  0.609932  0.609725  0.750000  1
  Sb  Sb15  1  0.609932  0.000207  0.250000  1
