# generated using pymatgen
data_Lu3HfGe6Ir7
_symmetry_space_group_name_H-M   'P 1'
_cell_length_a   7.18208270
_cell_length_b   7.20859986
_cell_length_c   7.18208408
_cell_angle_alpha   109.54603049
_cell_angle_beta   109.39630741
_cell_angle_gamma   109.54603056
_symmetry_Int_Tables_number   1
_chemical_formula_structural   Lu3HfGe6Ir7
_chemical_formula_sum   'Lu3 Hf1 Ge6 Ir7'
_cell_volume   285.97503151
_cell_formula_units_Z   1
loop_
 _symmetry_equiv_pos_site_id
 _symmetry_equiv_pos_as_xyz
  1  'x, y, z'
loop_
 _atom_site_type_symbol
 _atom_site_label
 _atom_site_symmetry_multiplicity
 _atom_site_fract_x
 _atom_site_fract_y
 _atom_site_fract_z
 _atom_site_occupancy
  Lu  Lu0  1  0.000000  0.000000  0.500000  1
  Lu  Lu1  1  0.500000  0.000000  0.000000  1
  Lu  Lu2  1  0.500000  0.500000  0.500000  1
  Hf  Hf3  1  0.000000  0.500000  0.000000  1
  Ge  Ge4  1  0.684142  0.685379  0.000000  1
  Ge  Ge5  1  0.315858  0.001235  0.315858  1
  Ge  Ge6  1  0.000000  0.314621  0.315858  1
  Ge  Ge7  1  0.315858  0.314621  0.000000  1
  Ge  Ge8  1  0.684142  0.998765  0.684142  1
  Ge  Ge9  1  0.000000  0.685379  0.684142  1
  Ir  Ir10  1  0.752393  0.252393  0.504786  1
  Ir  Ir11  1  0.752393  0.500000  0.247607  1
  Ir  Ir12  1  0.504786  0.252393  0.752393  1
  Ir  Ir13  1  0.247607  0.500000  0.752393  1
  Ir  Ir14  1  0.247607  0.747607  0.495214  1
  Ir  Ir15  1  0.495214  0.747607  0.247607  1
  Ir  Ir16  1  0.000000  0.000000  0.000000  1
