# generated using pymatgen
data_NaEr3Ir8
_symmetry_space_group_name_H-M   'P 1'
_cell_length_a   5.32583700
_cell_length_b   5.32583713
_cell_length_c   8.65897500
_cell_angle_alpha   90.00000000
_cell_angle_beta   90.00000000
_cell_angle_gamma   120.00000540
_symmetry_Int_Tables_number   1
_chemical_formula_structural   NaEr3Ir8
_chemical_formula_sum   'Na1 Er3 Ir8'
_cell_volume   212.70262293
_cell_formula_units_Z   1
loop_
 _symmetry_equiv_pos_site_id
 _symmetry_equiv_pos_as_xyz
  1  'x, y, z'
loop_
 _atom_site_type_symbol
 _atom_site_label
 _atom_site_symmetry_multiplicity
 _atom_site_fract_x
 _atom_site_fract_y
 _atom_site_fract_z
 _atom_site_occupancy
  Na  Na0  1  0.333333  0.666667  0.438297  1
  Er  Er1  1  0.333333  0.666667  0.083108  1
  Er  Er2  1  0.666667  0.333333  0.556661  1
  Er  Er3  1  0.666667  0.333333  0.929986  1
  Ir  Ir4  1  0.000000  0.000000  0.998301  1
  Ir  Ir5  1  0.000000  0.000000  0.498514  1
  Ir  Ir6  1  0.830514  0.661030  0.247967  1
  Ir  Ir7  1  0.170891  0.829109  0.750412  1
  Ir  Ir8  1  0.658218  0.829109  0.750412  1
  Ir  Ir9  1  0.338970  0.169486  0.247967  1
  Ir  Ir10  1  0.830514  0.169486  0.247967  1
  Ir  Ir11  1  0.170891  0.341782  0.750412  1
