# generated using pymatgen
data_La8Yb11YPb16
_symmetry_space_group_name_H-M   'P 1'
_cell_length_a   8.08155701
_cell_length_b   8.63172311
_cell_length_c   16.24737700
_cell_angle_alpha   90.04638505
_cell_angle_beta   90.09459076
_cell_angle_gamma   89.98517422
_symmetry_Int_Tables_number   1
_chemical_formula_structural   La8Yb11YPb16
_chemical_formula_sum   'La8 Yb11 Y1 Pb16'
_cell_volume   1133.37871209
_cell_formula_units_Z   1
loop_
 _symmetry_equiv_pos_site_id
 _symmetry_equiv_pos_as_xyz
  1  'x, y, z'
loop_
 _atom_site_type_symbol
 _atom_site_label
 _atom_site_symmetry_multiplicity
 _atom_site_fract_x
 _atom_site_fract_y
 _atom_site_fract_z
 _atom_site_occupancy
  La  La0  1  0.500912  0.684759  0.595291  1
  La  La1  1  0.001576  0.813894  0.905259  1
  La  La2  1  0.498959  0.313866  0.095470  1
  La  La3  1  0.999250  0.186215  0.404342  1
  La  La4  1  0.498372  0.314372  0.404332  1
  La  La5  1  0.999108  0.186114  0.095399  1
  La  La6  1  0.500998  0.685460  0.904747  1
  La  La7  1  0.001057  0.813648  0.594639  1
  Yb  Yb8  1  0.165838  0.333795  0.877132  1
  Yb  Yb9  1  0.334358  0.833604  0.123028  1
  Yb  Yb10  1  0.834939  0.666226  0.377129  1
  Yb  Yb11  1  0.333817  0.833239  0.376873  1
  Yb  Yb12  1  0.834532  0.666445  0.123003  1
  Yb  Yb13  1  0.665234  0.166334  0.877043  1
  Yb  Yb14  1  0.165600  0.333365  0.622559  1
  Yb  Yb15  1  0.835357  0.495199  0.750183  1
  Yb  Yb16  1  0.334407  0.004461  0.750347  1
  Yb  Yb17  1  0.165021  0.505049  0.249930  1
  Yb  Yb18  1  0.664992  0.995188  0.250027  1
  Y  Y19  1  0.665383  0.167596  0.623365  1
  Pb  Pb20  1  0.678391  0.962510  0.460425  1
  Pb  Pb21  1  0.177614  0.538264  0.040706  1
  Pb  Pb22  1  0.323054  0.038092  0.959146  1
  Pb  Pb23  1  0.820045  0.460350  0.541255  1
  Pb  Pb24  1  0.324952  0.039099  0.541635  1
  Pb  Pb25  1  0.822496  0.461719  0.959052  1
  Pb  Pb26  1  0.677193  0.961752  0.040735  1
  Pb  Pb27  1  0.178403  0.538460  0.459257  1
  Pb  Pb28  1  0.468571  0.388949  0.749869  1
  Pb  Pb29  1  0.965750  0.110523  0.748501  1
  Pb  Pb30  1  0.532164  0.609329  0.250084  1
  Pb  Pb31  1  0.032258  0.891128  0.249950  1
  Pb  Pb32  1  0.703313  0.855047  0.749099  1
  Pb  Pb33  1  0.203354  0.645869  0.749622  1
  Pb  Pb34  1  0.296219  0.145797  0.250292  1
  Pb  Pb35  1  0.796515  0.354287  0.250272  1
