# generated using pymatgen
data_Sr2La(CdPd)3
_symmetry_space_group_name_H-M   'P 1'
_cell_length_a   7.81550191
_cell_length_b   7.88176686
_cell_length_c   4.25446700
_cell_angle_alpha   90.00000000
_cell_angle_beta   90.00000000
_cell_angle_gamma   120.28088015
_symmetry_Int_Tables_number   1
_chemical_formula_structural   Sr2La(CdPd)3
_chemical_formula_sum   'Sr2 La1 Cd3 Pd3'
_cell_volume   226.31851203
_cell_formula_units_Z   1
loop_
 _symmetry_equiv_pos_site_id
 _symmetry_equiv_pos_as_xyz
  1  'x, y, z'
loop_
 _atom_site_type_symbol
 _atom_site_label
 _atom_site_symmetry_multiplicity
 _atom_site_fract_x
 _atom_site_fract_y
 _atom_site_fract_z
 _atom_site_occupancy
  Sr  Sr0  1  0.406935  0.406625  0.500000  1
  Sr  Sr1  1  0.593065  0.999690  0.500000  1
  La  La2  1  0.000000  0.591180  0.500000  1
  Cd  Cd3  1  0.750592  0.751303  0.000000  1
  Cd  Cd4  1  0.249408  0.000711  0.000000  1
  Cd  Cd5  1  0.000000  0.243939  0.000000  1
  Pd  Pd6  1  0.688453  0.351720  0.000000  1
  Pd  Pd7  1  0.311547  0.663268  0.000000  1
  Pd  Pd8  1  0.000000  0.991563  0.500000  1
