# generated using pymatgen
data_K2Hf(SiO3)3
_symmetry_space_group_name_H-M   'P 1'
_cell_length_a   6.99357900
_cell_length_b   6.99357818
_cell_length_c   10.28986200
_cell_angle_alpha   90.00000000
_cell_angle_beta   90.00000000
_cell_angle_gamma   119.99998967
_symmetry_Int_Tables_number   1
_chemical_formula_structural   K2Hf(SiO3)3
_chemical_formula_sum   'K4 Hf2 Si6 O18'
_cell_volume   435.85210384
_cell_formula_units_Z   2
loop_
 _symmetry_equiv_pos_site_id
 _symmetry_equiv_pos_as_xyz
  1  'x, y, z'
loop_
 _atom_site_type_symbol
 _atom_site_label
 _atom_site_symmetry_multiplicity
 _atom_site_fract_x
 _atom_site_fract_y
 _atom_site_fract_z
 _atom_site_occupancy
  K  K0  1  0.333333  0.666667  0.056707  1
  K  K1  1  0.666667  0.333333  0.556707  1
  K  K2  1  0.333333  0.666667  0.443293  1
  K  K3  1  0.666667  0.333333  0.943293  1
  Hf  Hf4  1  0.000000  0.000000  0.000000  1
  Hf  Hf5  1  0.000000  0.000000  0.500000  1
  Si  Si6  1  0.615333  0.742484  0.750000  1
  Si  Si7  1  0.872848  0.615333  0.250000  1
  Si  Si8  1  0.742484  0.127152  0.250000  1
  Si  Si9  1  0.257516  0.872848  0.750000  1
  Si  Si10  1  0.127152  0.384667  0.750000  1
  Si  Si11  1  0.384667  0.257516  0.250000  1
  O  O12  1  0.253502  0.232887  0.384054  1
  O  O13  1  0.020615  0.253502  0.884054  1
  O  O14  1  0.232887  0.979385  0.884054  1
  O  O15  1  0.767113  0.020615  0.384054  1
  O  O16  1  0.979385  0.746498  0.384054  1
  O  O17  1  0.746498  0.767113  0.884054  1
  O  O18  1  0.746498  0.767113  0.615946  1
  O  O19  1  0.979385  0.746498  0.115946  1
  O  O20  1  0.767113  0.020615  0.115946  1
  O  O21  1  0.232887  0.979385  0.615946  1
  O  O22  1  0.020615  0.253502  0.615946  1
  O  O23  1  0.253502  0.232887  0.115946  1
  O  O24  1  0.486680  0.087896  0.250000  1
  O  O25  1  0.398784  0.486680  0.750000  1
  O  O26  1  0.087896  0.601216  0.750000  1
  O  O27  1  0.912104  0.398784  0.250000  1
  O  O28  1  0.601216  0.513320  0.250000  1
  O  O29  1  0.513320  0.912104  0.750000  1
