# generated using pymatgen
data_DyEr7ReOsBr8
_symmetry_space_group_name_H-M   'P 1'
_cell_length_a   8.91300614
_cell_length_b   8.89962598
_cell_length_c   6.54420824
_cell_angle_alpha   89.56981831
_cell_angle_beta   89.44008406
_cell_angle_gamma   89.43858620
_symmetry_Int_Tables_number   1
_chemical_formula_structural   DyEr7ReOsBr8
_chemical_formula_sum   'Dy1 Er7 Re1 Os1 Br8'
_cell_volume   519.03847422
_cell_formula_units_Z   1
loop_
 _symmetry_equiv_pos_site_id
 _symmetry_equiv_pos_as_xyz
  1  'x, y, z'
loop_
 _atom_site_type_symbol
 _atom_site_label
 _atom_site_symmetry_multiplicity
 _atom_site_fract_x
 _atom_site_fract_y
 _atom_site_fract_z
 _atom_site_occupancy
  Dy  Dy0  1  0.249616  0.900887  0.011357  1
  Er  Er1  1  0.751717  0.098783  0.989196  1
  Er  Er2  1  0.097920  0.752437  0.487727  1
  Er  Er3  1  0.901074  0.248610  0.510866  1
  Er  Er4  1  0.753034  0.903148  0.507923  1
  Er  Er5  1  0.246445  0.097358  0.490499  1
  Er  Er6  1  0.096529  0.247389  0.991793  1
  Er  Er7  1  0.902564  0.753016  0.009340  1
  Re  Re8  1  0.994489  0.005498  0.249858  1
  Os  Os9  1  0.004991  0.994692  0.749556  1
  Br  Br10  1  0.420895  0.816718  0.407848  1
  Br  Br11  1  0.579586  0.182959  0.594666  1
  Br  Br12  1  0.182616  0.578435  0.093896  1
  Br  Br13  1  0.816934  0.420516  0.905360  1
  Br  Br14  1  0.416376  0.192749  0.096160  1
  Br  Br15  1  0.585341  0.807332  0.903487  1
  Br  Br16  1  0.807875  0.583559  0.403891  1
  Br  Br17  1  0.191997  0.415911  0.596575  1
