# generated using pymatgen
data_PrNdBiTe
_symmetry_space_group_name_H-M   'P 1'
_cell_length_a   7.93297916
_cell_length_b   7.93297893
_cell_length_c   7.93297951
_cell_angle_alpha   33.44805696
_cell_angle_beta   33.44805915
_cell_angle_gamma   33.44805961
_symmetry_Int_Tables_number   1
_chemical_formula_structural   PrNdBiTe
_chemical_formula_sum   'Pr1 Nd1 Bi1 Te1'
_cell_volume   135.07100467
_cell_formula_units_Z   1
loop_
 _symmetry_equiv_pos_site_id
 _symmetry_equiv_pos_as_xyz
  1  'x, y, z'
loop_
 _atom_site_type_symbol
 _atom_site_label
 _atom_site_symmetry_multiplicity
 _atom_site_fract_x
 _atom_site_fract_y
 _atom_site_fract_z
 _atom_site_occupancy
  Pr  Pr0  1  0.499068  0.499068  0.499068  1
  Nd  Nd1  1  0.000888  0.000888  0.000888  1
  Bi  Bi2  1  0.749276  0.749276  0.749276  1
  Te  Te3  1  0.250768  0.250768  0.250768  1
