# generated using pymatgen
data_GaSe33
_symmetry_space_group_name_H-M   'P 1'
_cell_length_a   10.67178418
_cell_length_b   10.67178261
_cell_length_c   10.67178420
_cell_angle_alpha   100.37983845
_cell_angle_beta   100.37982962
_cell_angle_gamma   100.37983207
_symmetry_Int_Tables_number   1
_chemical_formula_structural   GaSe33
_chemical_formula_sum   'Ga1 Se33'
_cell_volume   1147.17398741
_cell_formula_units_Z   1
loop_
 _symmetry_equiv_pos_site_id
 _symmetry_equiv_pos_as_xyz
  1  'x, y, z'
loop_
 _atom_site_type_symbol
 _atom_site_label
 _atom_site_symmetry_multiplicity
 _atom_site_fract_x
 _atom_site_fract_y
 _atom_site_fract_z
 _atom_site_occupancy
  Ga  Ga0  1  0.301756  0.301756  0.301756  1
  Se  Se1  1  0.926006  0.887540  0.642887  1
  Se  Se2  1  0.642887  0.926006  0.887540  1
  Se  Se3  1  0.887540  0.642887  0.926006  1
  Se  Se4  1  0.074875  0.393536  0.103742  1
  Se  Se5  1  0.103742  0.074875  0.393536  1
  Se  Se6  1  0.393536  0.103742  0.074875  1
  Se  Se7  1  0.737085  0.181549  0.336066  1
  Se  Se8  1  0.336066  0.737085  0.181549  1
  Se  Se9  1  0.181549  0.336066  0.737085  1
  Se  Se10  1  0.247500  0.709328  0.802720  1
  Se  Se11  1  0.802720  0.247500  0.709328  1
  Se  Se12  1  0.709328  0.802720  0.247500  1
  Se  Se13  1  0.643297  0.643297  0.643297  1
  Se  Se14  1  0.416620  0.917191  0.342498  1
  Se  Se15  1  0.917191  0.342498  0.416620  1
  Se  Se16  1  0.342498  0.416620  0.917191  1
  Se  Se17  1  0.082388  0.530848  0.686680  1
  Se  Se18  1  0.530848  0.686680  0.082388  1
  Se  Se19  1  0.686680  0.082388  0.530848  1
  Se  Se20  1  0.829666  0.668451  0.523810  1
  Se  Se21  1  0.523810  0.829666  0.668451  1
  Se  Se22  1  0.668451  0.523810  0.829666  1
  Se  Se23  1  0.207321  0.494995  0.319914  1
  Se  Se24  1  0.319914  0.207321  0.494995  1
  Se  Se25  1  0.494995  0.319914  0.207321  1
  Se  Se26  1  0.488617  0.094110  0.895949  1
  Se  Se27  1  0.895949  0.488617  0.094110  1
  Se  Se28  1  0.094110  0.895949  0.488617  1
  Se  Se29  1  0.995987  0.194508  0.813218  1
  Se  Se30  1  0.813218  0.995987  0.194508  1
  Se  Se31  1  0.194508  0.813218  0.995987  1
  Se  Se32  1  0.872524  0.872524  0.872524  1
  Se  Se33  1  0.136816  0.136816  0.136816  1
