# generated using pymatgen
data_Pr6Cd19Ag4P
_symmetry_space_group_name_H-M   'P 1'
_cell_length_a   10.01874343
_cell_length_b   10.02158784
_cell_length_c   10.02159140
_cell_angle_alpha   59.98120321
_cell_angle_beta   60.00937349
_cell_angle_gamma   60.00945441
_symmetry_Int_Tables_number   1
_chemical_formula_structural   Pr6Cd19Ag4P
_chemical_formula_sum   'Pr6 Cd19 Ag4 P1'
_cell_volume   711.49445252
_cell_formula_units_Z   1
loop_
 _symmetry_equiv_pos_site_id
 _symmetry_equiv_pos_as_xyz
  1  'x, y, z'
loop_
 _atom_site_type_symbol
 _atom_site_label
 _atom_site_symmetry_multiplicity
 _atom_site_fract_x
 _atom_site_fract_y
 _atom_site_fract_z
 _atom_site_occupancy
  Pr  Pr0  1  0.794308  0.794308  0.205692  1
  Pr  Pr1  1  0.205693  0.794307  0.205693  1
  Pr  Pr2  1  0.795046  0.204954  0.204954  1
  Pr  Pr3  1  0.205692  0.205692  0.794308  1
  Pr  Pr4  1  0.794307  0.205693  0.794307  1
  Pr  Pr5  1  0.204954  0.795046  0.795046  1
  Cd  Cd6  1  0.830134  0.835870  0.503862  1
  Cd  Cd7  1  0.830134  0.503862  0.835869  1
  Cd  Cd8  1  0.503862  0.830134  0.830134  1
  Cd  Cd9  1  0.835870  0.830134  0.830133  1
  Cd  Cd10  1  0.169866  0.164130  0.496138  1
  Cd  Cd11  1  0.169866  0.496138  0.164131  1
  Cd  Cd12  1  0.496138  0.169866  0.169866  1
  Cd  Cd13  1  0.164130  0.169866  0.169867  1
  Cd  Cd14  1  0.623522  0.617766  0.135189  1
  Cd  Cd15  1  0.623522  0.135189  0.617767  1
  Cd  Cd16  1  0.135189  0.623522  0.623522  1
  Cd  Cd17  1  0.617766  0.623522  0.623522  1
  Cd  Cd18  1  0.376478  0.382234  0.864811  1
  Cd  Cd19  1  0.376478  0.864811  0.382233  1
  Cd  Cd20  1  0.864811  0.376478  0.376478  1
  Cd  Cd21  1  0.382234  0.376478  0.376478  1
  Cd  Cd22  1  0.000000  0.500000  0.500000  1
  Cd  Cd23  1  0.500000  0.000000  0.000000  1
  Cd  Cd24  1  0.500000  0.500000  0.500000  1
  Ag  Ag25  1  0.000000  0.000000  0.500000  1
  Ag  Ag26  1  0.500000  0.000000  0.500000  1
  Ag  Ag27  1  0.500000  0.500000  0.000000  1
  Ag  Ag28  1  0.000000  0.500000  0.000000  1
  P  P29  1  0.000000  0.000000  0.000000  1
