# generated using pymatgen
data_Dy2Tm2B12OsW
_symmetry_space_group_name_H-M   'P 1'
_cell_length_a   3.61331100
_cell_length_b   9.18925502
_cell_length_c   11.59128151
_cell_angle_alpha   89.85660596
_cell_angle_beta   90.00000000
_cell_angle_gamma   90.00000000
_symmetry_Int_Tables_number   1
_chemical_formula_structural   Dy2Tm2B12OsW
_chemical_formula_sum   'Dy4 Tm4 B24 Os2 W2'
_cell_volume   384.87148959
_cell_formula_units_Z   2
loop_
 _symmetry_equiv_pos_site_id
 _symmetry_equiv_pos_as_xyz
  1  'x, y, z'
loop_
 _atom_site_type_symbol
 _atom_site_label
 _atom_site_symmetry_multiplicity
 _atom_site_fract_x
 _atom_site_fract_y
 _atom_site_fract_z
 _atom_site_occupancy
  Dy  Dy0  1  0.000000  0.321197  0.413711  1
  Dy  Dy1  1  0.000000  0.678803  0.586289  1
  Dy  Dy2  1  0.000000  0.821492  0.086331  1
  Dy  Dy3  1  0.000000  0.178508  0.913669  1
  Tm  Tm4  1  0.000000  0.944966  0.371571  1
  Tm  Tm5  1  0.000000  0.055034  0.628430  1
  Tm  Tm6  1  0.000000  0.442083  0.127756  1
  Tm  Tm7  1  0.000000  0.557917  0.872243  1
  B  B8  1  0.500000  0.551177  0.434391  1
  B  B9  1  0.500000  0.448823  0.565609  1
  B  B10  1  0.500000  0.053876  0.067082  1
  B  B11  1  0.500000  0.946124  0.932918  1
  B  B12  1  0.500000  0.752273  0.421175  1
  B  B13  1  0.500000  0.247727  0.578825  1
  B  B14  1  0.500000  0.248928  0.081683  1
  B  B15  1  0.500000  0.751072  0.918317  1
  B  B16  1  0.500000  0.795977  0.263478  1
  B  B17  1  0.500000  0.204023  0.736522  1
  B  B18  1  0.500000  0.290174  0.233231  1
  B  B19  1  0.500000  0.709825  0.766769  1
  B  B20  1  0.500000  0.631413  0.181341  1
  B  B21  1  0.500000  0.368587  0.818659  1
  B  B22  1  0.500000  0.130091  0.313310  1
  B  B23  1  0.500000  0.869909  0.686690  1
  B  B24  1  0.500000  0.983506  0.211904  1
  B  B25  1  0.500000  0.016494  0.788096  1
  B  B26  1  0.500000  0.477479  0.285667  1
  B  B27  1  0.500000  0.522521  0.714333  1
  B  B28  1  0.500000  0.602176  0.027585  1
  B  B29  1  0.500000  0.397824  0.972415  1
  B  B30  1  0.500000  0.101883  0.470778  1
  B  B31  1  0.500000  0.898117  0.529222  1
  Os  Os32  1  0.000000  0.138020  0.178180  1
  Os  Os33  1  0.000000  0.861980  0.821820  1
  W  W34  1  0.000000  0.639028  0.319291  1
  W  W35  1  0.000000  0.360972  0.680709  1
