# generated using pymatgen
data_Np3Ni6GeB2
_symmetry_space_group_name_H-M   'P 1'
_cell_length_a   5.21209000
_cell_length_b   5.21209020
_cell_length_c   13.58596200
_cell_angle_alpha   90.00000000
_cell_angle_beta   90.00000000
_cell_angle_gamma   120.00001143
_symmetry_Int_Tables_number   1
_chemical_formula_structural   Np3Ni6GeB2
_chemical_formula_sum   'Np6 Ni12 Ge2 B4'
_cell_volume   319.62799203
_cell_formula_units_Z   2
loop_
 _symmetry_equiv_pos_site_id
 _symmetry_equiv_pos_as_xyz
  1  'x, y, z'
loop_
 _atom_site_type_symbol
 _atom_site_label
 _atom_site_symmetry_multiplicity
 _atom_site_fract_x
 _atom_site_fract_y
 _atom_site_fract_z
 _atom_site_occupancy
  Np  Np0  1  0.666667  0.333333  0.545362  1
  Np  Np1  1  0.333333  0.666667  0.454638  1
  Np  Np2  1  0.333333  0.666667  0.045362  1
  Np  Np3  1  0.666667  0.333333  0.750000  1
  Np  Np4  1  0.666667  0.333333  0.954638  1
  Np  Np5  1  0.333333  0.666667  0.250000  1
  Ni  Ni6  1  0.168429  0.336858  0.649687  1
  Ni  Ni7  1  0.336858  0.168429  0.350313  1
  Ni  Ni8  1  0.336858  0.168429  0.149687  1
  Ni  Ni9  1  0.168429  0.831571  0.850313  1
  Ni  Ni10  1  0.831571  0.663142  0.350313  1
  Ni  Ni11  1  0.831571  0.168429  0.149687  1
  Ni  Ni12  1  0.663142  0.831571  0.649687  1
  Ni  Ni13  1  0.663142  0.831571  0.850313  1
  Ni  Ni14  1  0.168429  0.831571  0.649687  1
  Ni  Ni15  1  0.831571  0.663142  0.149687  1
  Ni  Ni16  1  0.168429  0.336858  0.850313  1
  Ni  Ni17  1  0.831571  0.168429  0.350313  1
  Ge  Ge18  1  0.000000  0.000000  0.000000  1
  Ge  Ge19  1  0.000000  0.000000  0.500000  1
  B  B20  1  0.666667  0.333333  0.250000  1
  B  B21  1  0.000000  0.000000  0.750000  1
  B  B22  1  0.333333  0.666667  0.750000  1
  B  B23  1  0.000000  0.000000  0.250000  1
