# generated using pymatgen
data_Tb6Dy3HoSi6
_symmetry_space_group_name_H-M   'P 1'
_cell_length_a   8.47952600
_cell_length_b   8.47952556
_cell_length_c   6.38104100
_cell_angle_alpha   90.00000000
_cell_angle_beta   90.00000000
_cell_angle_gamma   119.99999391
_symmetry_Int_Tables_number   1
_chemical_formula_structural   Tb6Dy3HoSi6
_chemical_formula_sum   'Tb6 Dy3 Ho1 Si6'
_cell_volume   397.34277760
_cell_formula_units_Z   1
loop_
 _symmetry_equiv_pos_site_id
 _symmetry_equiv_pos_as_xyz
  1  'x, y, z'
loop_
 _atom_site_type_symbol
 _atom_site_label
 _atom_site_symmetry_multiplicity
 _atom_site_fract_x
 _atom_site_fract_y
 _atom_site_fract_z
 _atom_site_occupancy
  Tb  Tb0  1  0.000027  0.756542  0.750031  1
  Tb  Tb1  1  0.000027  0.243484  0.249969  1
  Tb  Tb2  1  0.756516  0.756542  0.249969  1
  Tb  Tb3  1  0.756516  0.999973  0.750031  1
  Tb  Tb4  1  0.243458  0.243484  0.750031  1
  Tb  Tb5  1  0.243458  0.999973  0.249969  1
  Dy  Dy6  1  0.333333  0.666667  0.500000  1
  Dy  Dy7  1  0.666667  0.333333  0.000000  1
  Dy  Dy8  1  0.666667  0.333333  0.500000  1
  Ho  Ho9  1  0.333333  0.666667  0.000000  1
  Si  Si10  1  0.394719  0.999914  0.750076  1
  Si  Si11  1  0.394719  0.394806  0.249924  1
  Si  Si12  1  0.000086  0.605281  0.249924  1
  Si  Si13  1  0.000086  0.394806  0.750076  1
  Si  Si14  1  0.605194  0.605281  0.750076  1
  Si  Si15  1  0.605194  0.999914  0.249924  1
