# generated using pymatgen
data_Nd16Al4PdRu3
_symmetry_space_group_name_H-M   'P 1'
_cell_length_a   9.78744583
_cell_length_b   9.86371235
_cell_length_c   9.86371300
_cell_angle_alpha   60.00000118
_cell_angle_beta   59.74189812
_cell_angle_gamma   59.74189848
_symmetry_Int_Tables_number   1
_chemical_formula_structural   Nd16Al4PdRu3
_chemical_formula_sum   'Nd16 Al4 Pd1 Ru3'
_cell_volume   670.70241331
_cell_formula_units_Z   1
loop_
 _symmetry_equiv_pos_site_id
 _symmetry_equiv_pos_as_xyz
  1  'x, y, z'
loop_
 _atom_site_type_symbol
 _atom_site_label
 _atom_site_symmetry_multiplicity
 _atom_site_fract_x
 _atom_site_fract_y
 _atom_site_fract_z
 _atom_site_occupancy
  Nd  Nd0  1  0.347745  0.353542  0.353542  1
  Nd  Nd1  1  0.347745  0.353542  0.945171  1
  Nd  Nd2  1  0.347745  0.945171  0.353542  1
  Nd  Nd3  1  0.953101  0.348966  0.348966  1
  Nd  Nd4  1  0.811342  0.195401  0.195401  1
  Nd  Nd5  1  0.192725  0.806362  0.806362  1
  Nd  Nd6  1  0.192725  0.806362  0.194550  1
  Nd  Nd7  1  0.811342  0.195401  0.797856  1
  Nd  Nd8  1  0.192725  0.194550  0.806362  1
  Nd  Nd9  1  0.811342  0.797856  0.195401  1
  Nd  Nd10  1  0.936063  0.562424  0.562424  1
  Nd  Nd11  1  0.557907  0.937699  0.937699  1
  Nd  Nd12  1  0.557907  0.937699  0.566696  1
  Nd  Nd13  1  0.936063  0.562424  0.939088  1
  Nd  Nd14  1  0.557907  0.566696  0.937699  1
  Nd  Nd15  1  0.936063  0.939088  0.562424  1
  Al  Al16  1  0.575531  0.573222  0.573222  1
  Al  Al17  1  0.575531  0.573222  0.278025  1
  Al  Al18  1  0.575531  0.278025  0.573222  1
  Al  Al19  1  0.277423  0.574193  0.574193  1
  Pd  Pd20  1  0.574313  0.141896  0.141896  1
  Ru  Ru21  1  0.143742  0.138277  0.138277  1
  Ru  Ru22  1  0.143742  0.138277  0.579704  1
  Ru  Ru23  1  0.143742  0.579704  0.138277  1
