# generated using pymatgen
data_Ho3Ga24Pd8W
_symmetry_space_group_name_H-M   'P 1'
_cell_length_a   8.49735679
_cell_length_b   8.49735751
_cell_length_c   8.49735804
_cell_angle_alpha   89.72217523
_cell_angle_beta   89.72217326
_cell_angle_gamma   89.72217865
_symmetry_Int_Tables_number   1
_chemical_formula_structural   Ho3Ga24Pd8W
_chemical_formula_sum   'Ho3 Ga24 Pd8 W1'
_cell_volume   613.53083542
_cell_formula_units_Z   1
loop_
 _symmetry_equiv_pos_site_id
 _symmetry_equiv_pos_as_xyz
  1  'x, y, z'
loop_
 _atom_site_type_symbol
 _atom_site_label
 _atom_site_symmetry_multiplicity
 _atom_site_fract_x
 _atom_site_fract_y
 _atom_site_fract_z
 _atom_site_occupancy
  Ho  Ho0  1  0.000000  0.500000  0.000000  1
  Ho  Ho1  1  0.500000  0.000000  0.000000  1
  Ho  Ho2  1  0.000000  0.000000  0.500000  1
  Ga  Ga3  1  0.988655  0.644050  0.644050  1
  Ga  Ga4  1  0.644050  0.644050  0.988655  1
  Ga  Ga5  1  0.644050  0.988655  0.644050  1
  Ga  Ga6  1  0.011345  0.355950  0.355950  1
  Ga  Ga7  1  0.355950  0.355950  0.011345  1
  Ga  Ga8  1  0.355950  0.011345  0.355950  1
  Ga  Ga9  1  0.737351  0.500000  0.262649  1
  Ga  Ga10  1  0.262649  0.500000  0.737351  1
  Ga  Ga11  1  0.500000  0.262649  0.737351  1
  Ga  Ga12  1  0.500000  0.737351  0.262649  1
  Ga  Ga13  1  0.262649  0.737351  0.500000  1
  Ga  Ga14  1  0.737351  0.262649  0.500000  1
  Ga  Ga15  1  0.838697  0.141795  0.838697  1
  Ga  Ga16  1  0.141795  0.838697  0.838697  1
  Ga  Ga17  1  0.838697  0.838697  0.141795  1
  Ga  Ga18  1  0.161303  0.858205  0.161303  1
  Ga  Ga19  1  0.858205  0.161303  0.161303  1
  Ga  Ga20  1  0.161303  0.161303  0.858205  1
  Ga  Ga21  1  0.728750  0.488046  0.728750  1
  Ga  Ga22  1  0.488046  0.728750  0.728750  1
  Ga  Ga23  1  0.728750  0.728750  0.488046  1
  Ga  Ga24  1  0.271250  0.511954  0.271250  1
  Ga  Ga25  1  0.511954  0.271250  0.271250  1
  Ga  Ga26  1  0.271250  0.271250  0.511954  1
  Pd  Pd27  1  0.837052  0.837052  0.837052  1
  Pd  Pd28  1  0.162948  0.162948  0.162948  1
  Pd  Pd29  1  0.664907  0.335093  0.000000  1
  Pd  Pd30  1  0.000000  0.335093  0.664907  1
  Pd  Pd31  1  0.335093  0.000000  0.664907  1
  Pd  Pd32  1  0.335093  0.664907  0.000000  1
  Pd  Pd33  1  0.000000  0.664907  0.335093  1
  Pd  Pd34  1  0.664907  0.000000  0.335093  1
  W  W35  1  0.500000  0.500000  0.500000  1
