# generated using pymatgen
data_Y12Ho4MgHg3Ir4
_symmetry_space_group_name_H-M   'P 1'
_cell_length_a   9.65162125
_cell_length_b   9.64707691
_cell_length_c   9.64707700
_cell_angle_alpha   59.99999626
_cell_angle_beta   60.01557020
_cell_angle_gamma   60.01556999
_symmetry_Int_Tables_number   1
_chemical_formula_structural   Y12Ho4MgHg3Ir4
_chemical_formula_sum   'Y12 Ho4 Mg1 Hg3 Ir4'
_cell_volume   635.30008596
_cell_formula_units_Z   1
loop_
 _symmetry_equiv_pos_site_id
 _symmetry_equiv_pos_as_xyz
  1  'x, y, z'
loop_
 _atom_site_type_symbol
 _atom_site_label
 _atom_site_symmetry_multiplicity
 _atom_site_fract_x
 _atom_site_fract_y
 _atom_site_fract_z
 _atom_site_occupancy
  Y  Y0  1  0.058817  0.440902  0.440902  1
  Y  Y1  1  0.437384  0.061970  0.061970  1
  Y  Y2  1  0.437384  0.061970  0.438675  1
  Y  Y3  1  0.058817  0.440902  0.059379  1
  Y  Y4  1  0.437384  0.438675  0.061970  1
  Y  Y5  1  0.058817  0.059379  0.440902  1
  Y  Y6  1  0.186416  0.812407  0.812407  1
  Y  Y7  1  0.811652  0.187679  0.187679  1
  Y  Y8  1  0.811652  0.187679  0.812989  1
  Y  Y9  1  0.186416  0.812407  0.188771  1
  Y  Y10  1  0.811652  0.812989  0.187679  1
  Y  Y11  1  0.186416  0.188771  0.812407  1
  Ho  Ho12  1  0.599575  0.598062  0.598062  1
  Ho  Ho13  1  0.599575  0.598062  0.204301  1
  Ho  Ho14  1  0.599575  0.204301  0.598062  1
  Ho  Ho15  1  0.194356  0.601881  0.601881  1
  Mg  Mg16  1  0.537023  0.820993  0.820993  1
  Hg  Hg17  1  0.831205  0.836024  0.836024  1
  Hg  Hg18  1  0.831205  0.836024  0.496749  1
  Hg  Hg19  1  0.831205  0.496749  0.836024  1
  Ir  Ir20  1  0.390634  0.394220  0.394220  1
  Ir  Ir21  1  0.390634  0.394220  0.820924  1
  Ir  Ir22  1  0.390634  0.820924  0.394220  1
  Ir  Ir23  1  0.821574  0.392809  0.392809  1
