# generated using pymatgen
data_Yb2PC
_symmetry_space_group_name_H-M   'P 1'
_cell_length_a   8.56446200
_cell_length_b   8.58232280
_cell_length_c   8.66368285
_cell_angle_alpha   90.64945969
_cell_angle_beta   91.18097554
_cell_angle_gamma   90.14983126
_symmetry_Int_Tables_number   1
_chemical_formula_structural   Yb2PC
_chemical_formula_sum   'Yb16 P8 C8'
_cell_volume   636.62773124
_cell_formula_units_Z   8
loop_
 _symmetry_equiv_pos_site_id
 _symmetry_equiv_pos_as_xyz
  1  'x, y, z'
loop_
 _atom_site_type_symbol
 _atom_site_label
 _atom_site_symmetry_multiplicity
 _atom_site_fract_x
 _atom_site_fract_y
 _atom_site_fract_z
 _atom_site_occupancy
  Yb  Yb0  1  0.821041  0.820188  0.189898  1
  Yb  Yb1  1  0.072857  0.427921  0.059732  1
  Yb  Yb2  1  0.821383  0.690552  0.810419  1
  Yb  Yb3  1  0.929604  0.055256  0.560556  1
  Yb  Yb4  1  0.435545  0.933735  0.930715  1
  Yb  Yb5  1  0.927992  0.430884  0.430263  1
  Yb  Yb6  1  0.319855  0.183500  0.325312  1
  Yb  Yb7  1  0.683398  0.317551  0.831050  1
  Yb  Yb8  1  0.561146  0.930762  0.563629  1
  Yb  Yb9  1  0.314049  0.319765  0.693836  1
  Yb  Yb10  1  0.678033  0.183973  0.193434  1
  Yb  Yb11  1  0.436118  0.572994  0.061049  1
  Yb  Yb12  1  0.187373  0.688502  0.682220  1
  Yb  Yb13  1  0.190491  0.815301  0.310077  1
  Yb  Yb14  1  0.066921  0.061542  0.935208  1
  Yb  Yb15  1  0.555687  0.568920  0.429982  1
  P  P16  1  0.245912  0.004172  0.625479  1
  P  P17  1  0.373567  0.250088  0.004105  1
  P  P18  1  0.503340  0.629049  0.747523  1
  P  P19  1  0.502067  0.872379  0.249059  1
  P  P20  1  0.118457  0.747330  0.993133  1
  P  P21  1  0.758801  0.500879  0.126728  1
  P  P22  1  0.001300  0.124074  0.254000  1
  P  P23  1  0.627971  0.255701  0.512609  1
  C  C24  1  0.761757  0.984965  0.803792  1
  C  C25  1  0.990614  0.447381  0.733996  1
  C  C26  1  0.951261  0.742832  0.479638  1
  C  C27  1  0.994746  0.304556  0.769471  1
  C  C28  1  0.738227  0.023214  0.943289  1
  C  C29  1  0.805063  0.746651  0.499569  1
  C  C30  1  0.236627  0.479065  0.444872  1
  C  C31  1  0.263798  0.511319  0.305366  1
