# generated using pymatgen
data_Sc4Be4Al2(IrRh)5
_symmetry_space_group_name_H-M   'P 1'
_cell_length_a   9.47871571
_cell_length_b   9.49445871
_cell_length_c   3.09715600
_cell_angle_alpha   90.00000000
_cell_angle_beta   90.00000000
_cell_angle_gamma   89.93122629
_symmetry_Int_Tables_number   1
_chemical_formula_structural   Sc4Be4Al2(IrRh)5
_chemical_formula_sum   'Sc4 Be4 Al2 Ir5 Rh5'
_cell_volume   278.72920485
_cell_formula_units_Z   1
loop_
 _symmetry_equiv_pos_site_id
 _symmetry_equiv_pos_as_xyz
  1  'x, y, z'
loop_
 _atom_site_type_symbol
 _atom_site_label
 _atom_site_symmetry_multiplicity
 _atom_site_fract_x
 _atom_site_fract_y
 _atom_site_fract_z
 _atom_site_occupancy
  Sc  Sc0  1  0.673221  0.175602  0.000000  1
  Sc  Sc1  1  0.326962  0.822695  0.000000  1
  Sc  Sc2  1  0.177353  0.327025  0.000000  1
  Sc  Sc3  1  0.824033  0.674800  0.000000  1
  Be  Be4  1  0.123670  0.624604  0.000000  1
  Be  Be5  1  0.876213  0.375484  0.000000  1
  Be  Be6  1  0.624633  0.876027  0.000000  1
  Be  Be7  1  0.375347  0.123964  0.000000  1
  Al  Al8  1  0.999801  0.999947  0.000000  1
  Al  Al9  1  0.499951  0.499945  0.000000  1
  Ir  Ir10  1  0.290525  0.567844  0.500000  1
  Ir  Ir11  1  0.568081  0.709041  0.500000  1
  Ir  Ir12  1  0.432464  0.290884  0.500000  1
  Ir  Ir13  1  0.500245  0.000314  0.500000  1
  Ir  Ir14  1  0.999346  0.499869  0.500000  1
  Rh  Rh15  1  0.207937  0.067465  0.500000  1
  Rh  Rh16  1  0.791929  0.932302  0.500000  1
  Rh  Rh17  1  0.067934  0.791816  0.500000  1
  Rh  Rh18  1  0.708795  0.431995  0.500000  1
  Rh  Rh19  1  0.931562  0.208376  0.500000  1
