# generated using pymatgen
data_YbTm2(Si3Os)4
_symmetry_space_group_name_H-M   'P 1'
_cell_length_a   10.13417057
_cell_length_b   10.13417022
_cell_length_c   8.14649300
_cell_angle_alpha   90.00000000
_cell_angle_beta   90.00000000
_cell_angle_gamma   132.57522753
_symmetry_Int_Tables_number   1
_chemical_formula_structural   YbTm2(Si3Os)4
_chemical_formula_sum   'Yb2 Tm4 Si24 Os8'
_cell_volume   616.10506979
_cell_formula_units_Z   2
loop_
 _symmetry_equiv_pos_site_id
 _symmetry_equiv_pos_as_xyz
  1  'x, y, z'
loop_
 _atom_site_type_symbol
 _atom_site_label
 _atom_site_symmetry_multiplicity
 _atom_site_fract_x
 _atom_site_fract_y
 _atom_site_fract_z
 _atom_site_occupancy
  Yb  Yb0  1  0.500794  0.000794  0.250000  1
  Yb  Yb1  1  0.999206  0.499206  0.750000  1
  Tm  Tm2  1  0.502873  0.002873  0.750000  1
  Tm  Tm3  1  0.997127  0.497127  0.250000  1
  Tm  Tm4  1  0.999934  0.000066  0.000000  1
  Tm  Tm5  1  0.500066  0.499934  0.500000  1
  Si  Si6  1  0.794507  0.205493  0.500000  1
  Si  Si7  1  0.705493  0.294507  0.000000  1
  Si  Si8  1  0.204652  0.795348  0.500000  1
  Si  Si9  1  0.295348  0.704652  0.000000  1
  Si  Si10  1  0.673681  0.660600  0.166957  1
  Si  Si11  1  0.160600  0.173681  0.333043  1
  Si  Si12  1  0.826319  0.839400  0.666957  1
  Si  Si13  1  0.339400  0.326319  0.833043  1
  Si  Si14  1  0.845346  0.610328  0.997291  1
  Si  Si15  1  0.110328  0.345346  0.502709  1
  Si  Si16  1  0.654654  0.889672  0.497291  1
  Si  Si17  1  0.389672  0.154654  0.002709  1
  Si  Si18  1  0.154143  0.387914  0.008123  1
  Si  Si19  1  0.887914  0.654143  0.491877  1
  Si  Si20  1  0.125675  0.891179  0.728646  1
  Si  Si21  1  0.391179  0.625675  0.771354  1
  Si  Si22  1  0.374325  0.608821  0.228646  1
  Si  Si23  1  0.108821  0.874325  0.271354  1
  Si  Si24  1  0.878622  0.113803  0.272355  1
  Si  Si25  1  0.613803  0.378622  0.227645  1
  Si  Si26  1  0.621378  0.386197  0.772355  1
  Si  Si27  1  0.886197  0.121378  0.727645  1
  Si  Si28  1  0.612086  0.845857  0.991877  1
  Si  Si29  1  0.345857  0.112086  0.508123  1
  Os  Os30  1  0.626338  0.628015  0.872481  1
  Os  Os31  1  0.128015  0.126338  0.627519  1
  Os  Os32  1  0.371985  0.373662  0.127519  1
  Os  Os33  1  0.873662  0.871985  0.372481  1
  Os  Os34  1  0.170432  0.829568  0.000000  1
  Os  Os35  1  0.329568  0.670432  0.500000  1
  Os  Os36  1  0.831430  0.168570  0.000000  1
  Os  Os37  1  0.668570  0.331430  0.500000  1
