# generated using pymatgen
data_Pr2SmY4FeI12
_symmetry_space_group_name_H-M   'P 1'
_cell_length_a   9.89980578
_cell_length_b   9.86016395
_cell_length_c   9.95696482
_cell_angle_alpha   107.01055874
_cell_angle_beta   106.62852031
_cell_angle_gamma   107.30611300
_symmetry_Int_Tables_number   1
_chemical_formula_structural   Pr2SmY4FeI12
_chemical_formula_sum   'Pr2 Sm1 Y4 Fe1 I12'
_cell_volume   809.81884899
_cell_formula_units_Z   1
loop_
 _symmetry_equiv_pos_site_id
 _symmetry_equiv_pos_as_xyz
  1  'x, y, z'
loop_
 _atom_site_type_symbol
 _atom_site_label
 _atom_site_symmetry_multiplicity
 _atom_site_fract_x
 _atom_site_fract_y
 _atom_site_fract_z
 _atom_site_occupancy
  Pr  Pr0  1  0.591734  0.785587  0.522037  1
  Pr  Pr1  1  0.409133  0.214688  0.477424  1
  Sm  Sm2  1  0.478734  0.404625  0.204316  1
  Y  Y3  1  0.794641  0.525101  0.595330  1
  Y  Y4  1  0.521424  0.593531  0.790224  1
  Y  Y5  1  0.206395  0.476052  0.407122  1
  Y  Y6  1  0.998584  0.999806  0.001198  1
  Fe  Fe7  1  0.500042  0.499643  0.498656  1
  I  I8  1  0.736501  0.191122  0.578782  1
  I  I9  1  0.969191  0.886539  0.669635  1
  I  I10  1  0.571288  0.723066  0.173637  1
  I  I11  1  0.113592  0.338563  0.041869  1
  I  I12  1  0.662739  0.961365  0.890260  1
  I  I13  1  0.882094  0.660376  0.958726  1
  I  I14  1  0.031528  0.114111  0.333497  1
  I  I15  1  0.824696  0.430984  0.282127  1
  I  I16  1  0.333089  0.033924  0.107602  1
  I  I17  1  0.264519  0.809714  0.422562  1
  I  I18  1  0.181262  0.571104  0.722271  1
  I  I19  1  0.428814  0.280098  0.822724  1
