# generated using pymatgen
data_Sm(Sn2Ir)2
_symmetry_space_group_name_H-M   'P 1'
_cell_length_a   4.49601600
_cell_length_b   7.29250700
_cell_length_c   18.56314700
_cell_angle_alpha   90.00000000
_cell_angle_beta   90.00000000
_cell_angle_gamma   90.00000000
_symmetry_Int_Tables_number   1
_chemical_formula_structural   Sm(Sn2Ir)2
_chemical_formula_sum   'Sm4 Sn16 Ir8'
_cell_volume   608.63413591
_cell_formula_units_Z   4
loop_
 _symmetry_equiv_pos_site_id
 _symmetry_equiv_pos_as_xyz
  1  'x, y, z'
loop_
 _atom_site_type_symbol
 _atom_site_label
 _atom_site_symmetry_multiplicity
 _atom_site_fract_x
 _atom_site_fract_y
 _atom_site_fract_z
 _atom_site_occupancy
  Sm  Sm0  1  0.250000  0.997774  0.857205  1
  Sm  Sm1  1  0.250000  0.502226  0.357205  1
  Sm  Sm2  1  0.750000  0.002226  0.142795  1
  Sm  Sm3  1  0.750000  0.497774  0.642795  1
  Sn  Sn4  1  0.250000  0.301285  0.182213  1
  Sn  Sn5  1  0.250000  0.198715  0.682213  1
  Sn  Sn6  1  0.750000  0.698715  0.817787  1
  Sn  Sn7  1  0.750000  0.801285  0.317787  1
  Sn  Sn8  1  0.250000  0.724379  0.193756  1
  Sn  Sn9  1  0.250000  0.775621  0.693756  1
  Sn  Sn10  1  0.750000  0.275621  0.806244  1
  Sn  Sn11  1  0.750000  0.224379  0.306244  1
  Sn  Sn12  1  0.250000  0.867350  0.032647  1
  Sn  Sn13  1  0.250000  0.632650  0.532647  1
  Sn  Sn14  1  0.750000  0.132650  0.967353  1
  Sn  Sn15  1  0.750000  0.367350  0.467353  1
  Sn  Sn16  1  0.250000  0.520235  0.932438  1
  Sn  Sn17  1  0.250000  0.979765  0.432438  1
  Sn  Sn18  1  0.750000  0.479765  0.067562  1
  Sn  Sn19  1  0.750000  0.020235  0.567562  1
  Ir  Ir20  1  0.250000  0.249777  0.035273  1
  Ir  Ir21  1  0.250000  0.250223  0.535273  1
  Ir  Ir22  1  0.750000  0.750223  0.964727  1
  Ir  Ir23  1  0.750000  0.749777  0.464727  1
  Ir  Ir24  1  0.250000  0.018506  0.285525  1
  Ir  Ir25  1  0.250000  0.481494  0.785525  1
  Ir  Ir26  1  0.750000  0.981494  0.714475  1
  Ir  Ir27  1  0.750000  0.518506  0.214475  1
