# generated using pymatgen
data_Pr8Ho11ScSi15Br
_symmetry_space_group_name_H-M   'P 1'
_cell_length_a   7.60318377
_cell_length_b   7.75657693
_cell_length_c   14.80036706
_cell_angle_alpha   89.71605003
_cell_angle_beta   86.87390258
_cell_angle_gamma   90.06401451
_symmetry_Int_Tables_number   1
_chemical_formula_structural   Pr8Ho11ScSi15Br
_chemical_formula_sum   'Pr8 Ho11 Sc1 Si15 Br1'
_cell_volume   871.53651054
_cell_formula_units_Z   1
loop_
 _symmetry_equiv_pos_site_id
 _symmetry_equiv_pos_as_xyz
  1  'x, y, z'
loop_
 _atom_site_type_symbol
 _atom_site_label
 _atom_site_symmetry_multiplicity
 _atom_site_fract_x
 _atom_site_fract_y
 _atom_site_fract_z
 _atom_site_occupancy
  Pr  Pr0  1  0.996549  0.170677  0.397831  1
  Pr  Pr1  1  0.508634  0.311189  0.398479  1
  Pr  Pr2  1  0.478148  0.680090  0.900174  1
  Pr  Pr3  1  0.506958  0.685656  0.601952  1
  Pr  Pr4  1  0.997375  0.827317  0.600122  1
  Pr  Pr5  1  0.978906  0.821760  0.898775  1
  Pr  Pr6  1  0.523265  0.320000  0.099969  1
  Pr  Pr7  1  0.023341  0.182500  0.099691  1
  Ho  Ho8  1  0.354872  0.157443  0.625362  1
  Ho  Ho9  1  0.647682  0.830336  0.378620  1
  Ho  Ho10  1  0.667504  0.993350  0.748619  1
  Ho  Ho11  1  0.148395  0.671948  0.376391  1
  Ho  Ho12  1  0.824407  0.326285  0.875208  1
  Ho  Ho13  1  0.837497  0.332971  0.621018  1
  Ho  Ho14  1  0.835620  0.493571  0.254956  1
  Ho  Ho15  1  0.333623  0.005964  0.252410  1
  Ho  Ho16  1  0.321347  0.177225  0.875379  1
  Ho  Ho17  1  0.174828  0.676862  0.122190  1
  Ho  Ho18  1  0.676140  0.824231  0.122129  1
  Sc  Sc19  1  0.162424  0.508087  0.759172  1
  Si  Si20  1  0.285668  0.868760  0.750755  1
  Si  Si21  1  0.457432  0.614910  0.248304  1
  Si  Si22  1  0.040070  0.123810  0.748240  1
  Si  Si23  1  0.533548  0.388060  0.749281  1
  Si  Si24  1  0.957870  0.882909  0.247794  1
  Si  Si25  1  0.716992  0.120614  0.247895  1
  Si  Si26  1  0.856905  0.532047  0.040029  1
  Si  Si27  1  0.357267  0.970868  0.040935  1
  Si  Si28  1  0.140946  0.472417  0.955875  1
  Si  Si29  1  0.690864  0.037227  0.544330  1
  Si  Si30  1  0.304524  0.959951  0.459099  1
  Si  Si31  1  0.803827  0.536696  0.455873  1
  Si  Si32  1  0.791801  0.624429  0.750268  1
  Si  Si33  1  0.218051  0.379245  0.248818  1
  Si  Si34  1  0.640994  0.032320  0.957532  1
  Br  Br35  1  0.205723  0.458277  0.546527  1
