# generated using pymatgen
data_Tb4Dy4Sc12Si15Sn
_symmetry_space_group_name_H-M   'P 1'
_cell_length_a   7.14197276
_cell_length_b   7.42509765
_cell_length_c   14.08801580
_cell_angle_alpha   89.99579675
_cell_angle_beta   89.59052522
_cell_angle_gamma   90.01092285
_symmetry_Int_Tables_number   1
_chemical_formula_structural   Tb4Dy4Sc12Si15Sn
_chemical_formula_sum   'Tb4 Dy4 Sc12 Si15 Sn1'
_cell_volume   747.06620250
_cell_formula_units_Z   1
loop_
 _symmetry_equiv_pos_site_id
 _symmetry_equiv_pos_as_xyz
  1  'x, y, z'
loop_
 _atom_site_type_symbol
 _atom_site_label
 _atom_site_symmetry_multiplicity
 _atom_site_fract_x
 _atom_site_fract_y
 _atom_site_fract_z
 _atom_site_occupancy
  Tb  Tb0  1  0.511600  0.324474  0.096846  1
  Tb  Tb1  1  0.006405  0.169234  0.399232  1
  Tb  Tb2  1  0.513254  0.321370  0.399413  1
  Tb  Tb3  1  0.500426  0.683519  0.600231  1
  Dy  Dy4  1  0.012343  0.175693  0.096805  1
  Dy  Dy5  1  0.987698  0.824783  0.904002  1
  Dy  Dy6  1  0.488280  0.675903  0.903594  1
  Dy  Dy7  1  0.988392  0.830732  0.598781  1
  Sc  Sc8  1  0.161975  0.502354  0.755178  1
  Sc  Sc9  1  0.837903  0.497815  0.249240  1
  Sc  Sc10  1  0.338102  0.002260  0.249262  1
  Sc  Sc11  1  0.663330  0.997669  0.751531  1
  Sc  Sc12  1  0.342074  0.162717  0.630737  1
  Sc  Sc13  1  0.664775  0.825130  0.372761  1
  Sc  Sc14  1  0.164665  0.682934  0.369503  1
  Sc  Sc15  1  0.668914  0.823270  0.123997  1
  Sc  Sc16  1  0.822197  0.323556  0.626725  1
  Sc  Sc17  1  0.329875  0.175624  0.875489  1
  Sc  Sc18  1  0.830885  0.323500  0.875607  1
  Sc  Sc19  1  0.169133  0.676617  0.124861  1
  Si  Si20  1  0.034319  0.119445  0.751344  1
  Si  Si21  1  0.963511  0.883828  0.246811  1
  Si  Si22  1  0.465516  0.617187  0.248377  1
  Si  Si23  1  0.532702  0.383951  0.752346  1
  Si  Si24  1  0.286001  0.870987  0.752527  1
  Si  Si25  1  0.712919  0.125105  0.247336  1
  Si  Si26  1  0.212047  0.374245  0.248905  1
  Si  Si27  1  0.789725  0.627139  0.751809  1
  Si  Si28  1  0.831331  0.539721  0.458837  1
  Si  Si29  1  0.339534  0.963658  0.460386  1
  Si  Si30  1  0.843577  0.534874  0.039430  1
  Si  Si31  1  0.661251  0.037369  0.538191  1
  Si  Si32  1  0.156357  0.464789  0.961295  1
  Si  Si33  1  0.656205  0.034934  0.960388  1
  Si  Si34  1  0.342389  0.964743  0.039523  1
  Sn  Sn35  1  0.170387  0.458868  0.538703  1
