# generated using pymatgen
data_Ac8Si13Ge
_symmetry_space_group_name_H-M   'P 1'
_cell_length_a   8.42842559
_cell_length_b   8.40494343
_cell_length_c   9.08327300
_cell_angle_alpha   90.00000000
_cell_angle_beta   90.00000000
_cell_angle_gamma   120.19252869
_symmetry_Int_Tables_number   1
_chemical_formula_structural   Ac8Si13Ge
_chemical_formula_sum   'Ac8 Si13 Ge1'
_cell_volume   556.17111004
_cell_formula_units_Z   1
loop_
 _symmetry_equiv_pos_site_id
 _symmetry_equiv_pos_as_xyz
  1  'x, y, z'
loop_
 _atom_site_type_symbol
 _atom_site_label
 _atom_site_symmetry_multiplicity
 _atom_site_fract_x
 _atom_site_fract_y
 _atom_site_fract_z
 _atom_site_occupancy
  Ac  Ac0  1  0.254113  0.252106  0.997859  1
  Ac  Ac1  1  0.747881  0.748327  0.999755  1
  Ac  Ac2  1  0.747881  0.748327  0.500245  1
  Ac  Ac3  1  0.254113  0.252106  0.502141  1
  Ac  Ac4  1  0.250757  0.749472  0.498188  1
  Ac  Ac5  1  0.747675  0.250749  0.503507  1
  Ac  Ac6  1  0.747675  0.250749  0.996493  1
  Ac  Ac7  1  0.250757  0.749472  0.001812  1
  Si  Si8  1  0.921335  0.593104  0.750000  1
  Si  Si9  1  0.582932  0.417414  0.250000  1
  Si  Si10  1  0.417405  0.583421  0.750000  1
  Si  Si11  1  0.417021  0.588881  0.250000  1
  Si  Si12  1  0.587673  0.414133  0.750000  1
  Si  Si13  1  0.080411  0.922735  0.250000  1
  Si  Si14  1  0.920332  0.079928  0.750000  1
  Si  Si15  1  0.592869  0.922214  0.250000  1
  Si  Si16  1  0.408056  0.078707  0.750000  1
  Si  Si17  1  0.922156  0.587016  0.250000  1
  Si  Si18  1  0.075716  0.415658  0.750000  1
  Si  Si19  1  0.415213  0.076242  0.250000  1
  Si  Si20  1  0.584760  0.923901  0.750000  1
  Ge  Ge21  1  0.073266  0.395337  0.250000  1
