# generated using pymatgen
data_Tb7Ho5InCo4Os
_symmetry_space_group_name_H-M   'P 1'
_cell_length_a   8.31525130
_cell_length_b   8.31389669
_cell_length_c   8.31427126
_cell_angle_alpha   111.38673289
_cell_angle_beta   110.61919717
_cell_angle_gamma   106.45768741
_symmetry_Int_Tables_number   1
_chemical_formula_structural   Tb7Ho5InCo4Os
_chemical_formula_sum   'Tb7 Ho5 In1 Co4 Os1'
_cell_volume   441.49305170
_cell_formula_units_Z   1
loop_
 _symmetry_equiv_pos_site_id
 _symmetry_equiv_pos_as_xyz
  1  'x, y, z'
loop_
 _atom_site_type_symbol
 _atom_site_label
 _atom_site_symmetry_multiplicity
 _atom_site_fract_x
 _atom_site_fract_y
 _atom_site_fract_z
 _atom_site_occupancy
  Tb  Tb0  1  0.817470  0.717358  0.534830  1
  Tb  Tb1  1  0.182409  0.717168  0.899527  1
  Tb  Tb2  1  0.818145  0.282678  0.100706  1
  Tb  Tb3  1  0.314622  0.620034  0.305945  1
  Tb  Tb4  1  0.684657  0.379685  0.694377  1
  Tb  Tb5  1  0.314532  0.009249  0.694132  1
  Tb  Tb6  1  0.685600  0.990761  0.305623  1
  Ho  Ho7  1  0.410752  0.218051  0.193418  1
  Ho  Ho8  1  0.588605  0.781648  0.806550  1
  Ho  Ho9  1  0.024980  0.217924  0.806592  1
  Ho  Ho10  1  0.975330  0.782626  0.193462  1
  Ho  Ho11  1  0.181929  0.282101  0.463853  1
  In  In12  1  0.499822  0.499946  0.999801  1
  Co  Co13  1  0.376223  0.000413  0.376755  1
  Co  Co14  1  0.623581  0.999954  0.623490  1
  Co  Co15  1  0.111754  0.611010  0.499860  1
  Co  Co16  1  0.889413  0.388583  0.500053  1
  Os  Os17  1  0.000177  0.000809  0.001027  1
