# generated using pymatgen
data_Nd6HoFeBr12
_symmetry_space_group_name_H-M   'P 1'
_cell_length_a   9.46470151
_cell_length_b   9.46470144
_cell_length_c   9.46470157
_cell_angle_alpha   107.07924507
_cell_angle_beta   107.07923977
_cell_angle_gamma   107.07923359
_symmetry_Int_Tables_number   1
_chemical_formula_structural   Nd6HoFeBr12
_chemical_formula_sum   'Nd6 Ho1 Fe1 Br12'
_cell_volume   704.56857393
_cell_formula_units_Z   1
loop_
 _symmetry_equiv_pos_site_id
 _symmetry_equiv_pos_as_xyz
  1  'x, y, z'
loop_
 _atom_site_type_symbol
 _atom_site_label
 _atom_site_symmetry_multiplicity
 _atom_site_fract_x
 _atom_site_fract_y
 _atom_site_fract_z
 _atom_site_occupancy
  Nd  Nd0  1  0.692037  0.977552  0.901329  1
  Nd  Nd1  1  0.977552  0.901329  0.692037  1
  Nd  Nd2  1  0.098671  0.307963  0.022448  1
  Nd  Nd3  1  0.307963  0.022448  0.098671  1
  Nd  Nd4  1  0.901329  0.692037  0.977552  1
  Nd  Nd5  1  0.022448  0.098671  0.307963  1
  Ho  Ho6  1  0.500000  0.500000  0.500000  1
  Fe  Fe7  1  0.000000  0.000000  0.000000  1
  Br  Br8  1  0.072239  0.226242  0.682977  1
  Br  Br9  1  0.390820  0.176928  0.466214  1
  Br  Br10  1  0.609180  0.823072  0.533786  1
  Br  Br11  1  0.226242  0.682977  0.072239  1
  Br  Br12  1  0.773758  0.317023  0.927761  1
  Br  Br13  1  0.682977  0.072239  0.226242  1
  Br  Br14  1  0.533786  0.609180  0.823072  1
  Br  Br15  1  0.823072  0.533786  0.609180  1
  Br  Br16  1  0.927761  0.773758  0.317023  1
  Br  Br17  1  0.317023  0.927761  0.773758  1
  Br  Br18  1  0.466214  0.390820  0.176928  1
  Br  Br19  1  0.176928  0.466214  0.390820  1
