# generated using pymatgen
data_Ho3ZnCdIn3Ir
_symmetry_space_group_name_H-M   'P 1'
_cell_length_a   7.87981900
_cell_length_b   7.87981974
_cell_length_c   3.84487100
_cell_angle_alpha   90.00000000
_cell_angle_beta   90.00000000
_cell_angle_gamma   119.99999381
_symmetry_Int_Tables_number   1
_chemical_formula_structural   Ho3ZnCdIn3Ir
_chemical_formula_sum   'Ho3 Zn1 Cd1 In3 Ir1'
_cell_volume   206.74973266
_cell_formula_units_Z   1
loop_
 _symmetry_equiv_pos_site_id
 _symmetry_equiv_pos_as_xyz
  1  'x, y, z'
loop_
 _atom_site_type_symbol
 _atom_site_label
 _atom_site_symmetry_multiplicity
 _atom_site_fract_x
 _atom_site_fract_y
 _atom_site_fract_z
 _atom_site_occupancy
  Ho  Ho0  1  0.582456  0.619883  0.000000  1
  Ho  Ho1  1  0.380117  0.962572  0.000000  1
  Ho  Ho2  1  0.037428  0.417544  0.000000  1
  Zn  Zn3  1  0.000000  0.000000  0.000000  1
  Cd  Cd4  1  0.666667  0.333333  0.500000  1
  In  In5  1  0.994108  0.733998  0.500000  1
  In  In6  1  0.266002  0.260110  0.500000  1
  In  In7  1  0.739890  0.005892  0.500000  1
  Ir  Ir8  1  0.333333  0.666667  0.500000  1
