# generated using pymatgen
data_Dy9Lu(Al2Ru3)2
_symmetry_space_group_name_H-M   'P 1'
_cell_length_a   8.32462092
_cell_length_b   8.32462100
_cell_length_c   8.32462102
_cell_angle_alpha   109.46740968
_cell_angle_beta   109.46741119
_cell_angle_gamma   109.46740545
_symmetry_Int_Tables_number   1
_chemical_formula_structural   Dy9Lu(Al2Ru3)2
_chemical_formula_sum   'Dy9 Lu1 Al4 Ru6'
_cell_volume   444.15319806
_cell_formula_units_Z   1
loop_
 _symmetry_equiv_pos_site_id
 _symmetry_equiv_pos_as_xyz
  1  'x, y, z'
loop_
 _atom_site_type_symbol
 _atom_site_label
 _atom_site_symmetry_multiplicity
 _atom_site_fract_x
 _atom_site_fract_y
 _atom_site_fract_z
 _atom_site_occupancy
  Dy  Dy0  1  0.319766  0.569300  0.750107  1
  Dy  Dy1  1  0.750107  0.319766  0.569300  1
  Dy  Dy2  1  0.569300  0.750107  0.319766  1
  Dy  Dy3  1  0.714077  0.500472  0.999434  1
  Dy  Dy4  1  0.999434  0.714077  0.500472  1
  Dy  Dy5  1  0.500472  0.999434  0.714077  1
  Dy  Dy6  1  0.249399  0.180618  0.931150  1
  Dy  Dy7  1  0.931150  0.249399  0.180618  1
  Dy  Dy8  1  0.180618  0.931150  0.249399  1
  Lu  Lu9  1  0.788494  0.788494  0.788494  1
  Al  Al10  1  0.411843  0.411843  0.411843  1
  Al  Al11  1  0.089515  0.499649  0.999488  1
  Al  Al12  1  0.999488  0.089515  0.499649  1
  Al  Al13  1  0.499649  0.999488  0.089515  1
  Ru  Ru14  1  0.876797  0.125333  0.749945  1
  Ru  Ru15  1  0.749945  0.876797  0.125333  1
  Ru  Ru16  1  0.125333  0.749945  0.876797  1
  Ru  Ru17  1  0.249759  0.622617  0.372237  1
  Ru  Ru18  1  0.372237  0.249759  0.622617  1
  Ru  Ru19  1  0.622617  0.372237  0.249759  1
