# generated using pymatgen
data_Dy7Co3Sn23Ru3
_symmetry_space_group_name_H-M   'P 1'
_cell_length_a   9.77692200
_cell_length_b   9.77692079
_cell_length_c   10.04221000
_cell_angle_alpha   90.00000000
_cell_angle_beta   90.00000000
_cell_angle_gamma   119.99999734
_symmetry_Int_Tables_number   1
_chemical_formula_structural   Dy7Co3Sn23Ru3
_chemical_formula_sum   'Dy7 Co3 Sn23 Ru3'
_cell_volume   831.31226741
_cell_formula_units_Z   1
loop_
 _symmetry_equiv_pos_site_id
 _symmetry_equiv_pos_as_xyz
  1  'x, y, z'
loop_
 _atom_site_type_symbol
 _atom_site_label
 _atom_site_symmetry_multiplicity
 _atom_site_fract_x
 _atom_site_fract_y
 _atom_site_fract_z
 _atom_site_occupancy
  Dy  Dy0  1  0.000000  0.000000  0.985281  1
  Dy  Dy1  1  0.517567  0.482433  0.695784  1
  Dy  Dy2  1  0.517567  0.035132  0.695784  1
  Dy  Dy3  1  0.964868  0.482433  0.695784  1
  Dy  Dy4  1  0.038092  0.519046  0.305706  1
  Dy  Dy5  1  0.480954  0.961908  0.305706  1
  Dy  Dy6  1  0.480954  0.519046  0.305706  1
  Co  Co7  1  0.339135  0.169567  0.200797  1
  Co  Co8  1  0.830433  0.660865  0.200797  1
  Co  Co9  1  0.830433  0.169567  0.200797  1
  Sn  Sn10  1  0.666667  0.333333  0.183942  1
  Sn  Sn11  1  0.666667  0.333333  0.879538  1
  Sn  Sn12  1  0.333333  0.666667  0.122899  1
  Sn  Sn13  1  0.349691  0.345890  0.004891  1
  Sn  Sn14  1  0.996199  0.650309  0.004891  1
  Sn  Sn15  1  0.654110  0.003801  0.004891  1
  Sn  Sn16  1  0.654110  0.650309  0.004891  1
  Sn  Sn17  1  0.333333  0.666667  0.820640  1
  Sn  Sn18  1  0.435137  0.217569  0.454216  1
  Sn  Sn19  1  0.219725  0.780275  0.541675  1
  Sn  Sn20  1  0.219725  0.439448  0.541675  1
  Sn  Sn21  1  0.560552  0.780275  0.541675  1
  Sn  Sn22  1  0.116813  0.883187  0.269856  1
  Sn  Sn23  1  0.782431  0.564863  0.454216  1
  Sn  Sn24  1  0.782431  0.217569  0.454216  1
  Sn  Sn25  1  0.349691  0.003801  0.004891  1
  Sn  Sn26  1  0.116813  0.233626  0.269856  1
  Sn  Sn27  1  0.766374  0.883187  0.269856  1
  Sn  Sn28  1  0.237994  0.118997  0.723330  1
  Sn  Sn29  1  0.881003  0.762006  0.723330  1
  Sn  Sn30  1  0.881003  0.118997  0.723330  1
  Sn  Sn31  1  0.000000  0.000000  0.495886  1
  Sn  Sn32  1  0.996199  0.345890  0.004891  1
  Ru  Ru33  1  0.168373  0.831627  0.802791  1
  Ru  Ru34  1  0.168373  0.336745  0.802791  1
  Ru  Ru35  1  0.663255  0.831627  0.802791  1
