# generated using pymatgen
data_Sr8Fe3NiO16
_symmetry_space_group_name_H-M   'P 1'
_cell_length_a   5.50727493
_cell_length_b   8.78025925
_cell_length_c   8.78025894
_cell_angle_alpha   89.01299610
_cell_angle_beta   71.76124128
_cell_angle_gamma   108.23949733
_symmetry_Int_Tables_number   1
_chemical_formula_structural   Sr8Fe3NiO16
_chemical_formula_sum   'Sr8 Fe3 Ni1 O16'
_cell_volume   379.84634354
_cell_formula_units_Z   1
loop_
 _symmetry_equiv_pos_site_id
 _symmetry_equiv_pos_as_xyz
  1  'x, y, z'
loop_
 _atom_site_type_symbol
 _atom_site_label
 _atom_site_symmetry_multiplicity
 _atom_site_fract_x
 _atom_site_fract_y
 _atom_site_fract_z
 _atom_site_occupancy
  Sr  Sr0  1  0.249728  0.391760  0.891632  1
  Sr  Sr1  1  0.995953  0.638457  0.646048  1
  Sr  Sr2  1  0.750298  0.893138  0.393339  1
  Sr  Sr3  1  0.503914  0.146087  0.138284  1
  Sr  Sr4  1  0.995962  0.353957  0.361515  1
  Sr  Sr5  1  0.750366  0.606737  0.106818  1
  Sr  Sr6  1  0.503802  0.861615  0.854016  1
  Sr  Sr7  1  0.249735  0.108351  0.608211  1
  Fe  Fe8  1  0.498215  0.498643  0.501330  1
  Fe  Fe9  1  0.250410  0.749932  0.250106  1
  Fe  Fe10  1  0.001838  0.001445  0.998570  1
  Ni  Ni11  1  0.749579  0.249924  0.750056  1
  O  O12  1  0.250174  0.593609  0.093785  1
  O  O13  1  0.999413  0.841535  0.843533  1
  O  O14  1  0.749915  0.090800  0.590537  1
  O  O15  1  0.500300  0.343268  0.341487  1
  O  O16  1  0.999650  0.156729  0.158236  1
  O  O17  1  0.749833  0.409393  0.909250  1
  O  O18  1  0.500321  0.658529  0.656671  1
  O  O19  1  0.250049  0.906056  0.406617  1
  O  O20  1  0.875604  0.122906  0.876975  1
  O  O21  1  0.622917  0.376746  0.623253  1
  O  O22  1  0.375360  0.625154  0.374764  1
  O  O23  1  0.126434  0.875174  0.125022  1
  O  O24  1  0.369700  0.123011  0.876864  1
  O  O25  1  0.129583  0.377380  0.622618  1
  O  O26  1  0.873827  0.624515  0.375438  1
  O  O27  1  0.627121  0.875148  0.125020  1
