# generated using pymatgen
data_Pu4Ga5GeIr7
_symmetry_space_group_name_H-M   'P 1'
_cell_length_a   7.31977074
_cell_length_b   7.31977030
_cell_length_c   7.31977047
_cell_angle_alpha   109.68825774
_cell_angle_beta   109.36281074
_cell_angle_gamma   109.36281261
_symmetry_Int_Tables_number   1
_chemical_formula_structural   Pu4Ga5GeIr7
_chemical_formula_sum   'Pu4 Ga5 Ge1 Ir7'
_cell_volume   301.90188358
_cell_formula_units_Z   1
loop_
 _symmetry_equiv_pos_site_id
 _symmetry_equiv_pos_as_xyz
  1  'x, y, z'
loop_
 _atom_site_type_symbol
 _atom_site_label
 _atom_site_symmetry_multiplicity
 _atom_site_fract_x
 _atom_site_fract_y
 _atom_site_fract_z
 _atom_site_occupancy
  Pu  Pu0  1  0.000000  0.001325  0.502880  1
  Pu  Pu1  1  0.000000  0.502880  0.001325  1
  Pu  Pu2  1  0.498445  0.001325  0.001325  1
  Pu  Pu3  1  0.501555  0.502880  0.502880  1
  Ga  Ga4  1  0.687851  0.689573  0.001721  1
  Ga  Ga5  1  0.312149  0.001721  0.313869  1
  Ga  Ga6  1  0.000000  0.307374  0.307374  1
  Ga  Ga7  1  0.312149  0.313869  0.001721  1
  Ga  Ga8  1  0.687851  0.001721  0.689573  1
  Ge  Ge9  1  0.000000  0.682915  0.682915  1
  Ir  Ir10  1  0.750196  0.249976  0.499780  1
  Ir  Ir11  1  0.750196  0.499780  0.249976  1
  Ir  Ir12  1  0.500000  0.251328  0.751328  1
  Ir  Ir13  1  0.249804  0.499780  0.749584  1
  Ir  Ir14  1  0.249804  0.749584  0.499780  1
  Ir  Ir15  1  0.500000  0.751328  0.251328  1
  Ir  Ir16  1  0.000000  0.992642  0.992642  1
