# generated using pymatgen
data_Dy8Al3Fe
_symmetry_space_group_name_H-M   'P 1'
_cell_length_a   10.16365600
_cell_length_b   10.16365575
_cell_length_c   6.85157900
_cell_angle_alpha   90.00000000
_cell_angle_beta   90.00000000
_cell_angle_gamma   120.00000082
_symmetry_Int_Tables_number   1
_chemical_formula_structural   Dy8Al3Fe
_chemical_formula_sum   'Dy16 Al6 Fe2'
_cell_volume   612.94456970
_cell_formula_units_Z   2
loop_
 _symmetry_equiv_pos_site_id
 _symmetry_equiv_pos_as_xyz
  1  'x, y, z'
loop_
 _atom_site_type_symbol
 _atom_site_label
 _atom_site_symmetry_multiplicity
 _atom_site_fract_x
 _atom_site_fract_y
 _atom_site_fract_z
 _atom_site_occupancy
  Dy  Dy0  1  0.175356  0.824644  0.503454  1
  Dy  Dy1  1  0.649289  0.824644  0.503454  1
  Dy  Dy2  1  0.175356  0.350711  0.503454  1
  Dy  Dy3  1  0.824644  0.175356  0.003454  1
  Dy  Dy4  1  0.350711  0.175356  0.003454  1
  Dy  Dy5  1  0.824644  0.649289  0.003454  1
  Dy  Dy6  1  0.333333  0.666667  0.831084  1
  Dy  Dy7  1  0.666667  0.333333  0.331084  1
  Dy  Dy8  1  0.466169  0.533831  0.210233  1
  Dy  Dy9  1  0.067662  0.533831  0.210233  1
  Dy  Dy10  1  0.466169  0.932338  0.210233  1
  Dy  Dy11  1  0.533831  0.466169  0.710233  1
  Dy  Dy12  1  0.932338  0.466169  0.710233  1
  Dy  Dy13  1  0.533831  0.067662  0.710233  1
  Dy  Dy14  1  0.000000  0.000000  0.226272  1
  Dy  Dy15  1  0.000000  0.000000  0.726272  1
  Al  Al16  1  0.162843  0.837157  0.967360  1
  Al  Al17  1  0.674312  0.837157  0.967360  1
  Al  Al18  1  0.162843  0.325688  0.967360  1
  Al  Al19  1  0.837157  0.162843  0.467360  1
  Al  Al20  1  0.325688  0.162843  0.467360  1
  Al  Al21  1  0.837157  0.674312  0.467360  1
  Fe  Fe22  1  0.333333  0.666667  0.436525  1
  Fe  Fe23  1  0.666667  0.333333  0.936525  1
