# generated using pymatgen
data_Yb2HoUN4
_symmetry_space_group_name_H-M   'P 1'
_cell_length_a   6.88236276
_cell_length_b   9.12568064
_cell_length_c   5.99191998
_cell_angle_alpha   29.16742348
_cell_angle_beta   54.95083318
_cell_angle_gamma   41.04246053
_symmetry_Int_Tables_number   1
_chemical_formula_structural   Yb2HoUN4
_chemical_formula_sum   'Yb2 Ho1 U1 N4'
_cell_volume   116.17542748
_cell_formula_units_Z   1
loop_
 _symmetry_equiv_pos_site_id
 _symmetry_equiv_pos_as_xyz
  1  'x, y, z'
loop_
 _atom_site_type_symbol
 _atom_site_label
 _atom_site_symmetry_multiplicity
 _atom_site_fract_x
 _atom_site_fract_y
 _atom_site_fract_z
 _atom_site_occupancy
  Yb  Yb0  1  0.749996  0.500008  0.999983  1
  Yb  Yb1  1  0.499979  0.999991  0.000068  1
  Ho  Ho2  1  0.249965  0.500006  0.000054  1
  U  U3  1  0.999989  0.000014  0.999981  1
  N  N4  1  0.491715  0.499992  0.516595  1
  N  N5  1  0.213739  0.000005  0.572506  1
  N  N6  1  0.008323  0.499995  0.483368  1
  N  N7  1  0.786294  0.999990  0.427445  1
