# generated using pymatgen
data_Tm11In9Cu4
_symmetry_space_group_name_H-M   'P 1'
_cell_length_a   3.68762100
_cell_length_b   12.94679914
_cell_length_c   12.93614800
_cell_angle_alpha   112.65621447
_cell_angle_beta   90.00000000
_cell_angle_gamma   90.00000000
_symmetry_Int_Tables_number   1
_chemical_formula_structural   Tm11In9Cu4
_chemical_formula_sum   'Tm11 In9 Cu4'
_cell_volume   569.94986454
_cell_formula_units_Z   1
loop_
 _symmetry_equiv_pos_site_id
 _symmetry_equiv_pos_as_xyz
  1  'x, y, z'
loop_
 _atom_site_type_symbol
 _atom_site_label
 _atom_site_symmetry_multiplicity
 _atom_site_fract_x
 _atom_site_fract_y
 _atom_site_fract_z
 _atom_site_occupancy
  Tm  Tm0  1  0.000000  0.307500  0.307576  1
  Tm  Tm1  1  0.000000  0.000044  0.000004  1
  Tm  Tm2  1  0.000000  0.924475  0.579411  1
  Tm  Tm3  1  0.000000  0.075406  0.420577  1
  Tm  Tm4  1  0.000000  0.579445  0.924412  1
  Tm  Tm5  1  0.000000  0.420651  0.075561  1
  Tm  Tm6  1  0.000000  0.159531  0.840466  1
  Tm  Tm7  1  0.000000  0.840496  0.159471  1
  Tm  Tm8  1  0.000000  0.370448  0.629554  1
  Tm  Tm9  1  0.000000  0.629568  0.370461  1
  Tm  Tm10  1  0.000000  0.692495  0.692416  1
  In  In11  1  0.500000  0.154860  0.632453  1
  In  In12  1  0.500000  0.845185  0.367615  1
  In  In13  1  0.500000  0.632416  0.154800  1
  In  In14  1  0.500000  0.367723  0.845330  1
  In  In15  1  0.500000  0.928845  0.780440  1
  In  In16  1  0.500000  0.071206  0.219631  1
  In  In17  1  0.500000  0.780492  0.928893  1
  In  In18  1  0.500000  0.219631  0.071129  1
  In  In19  1  0.500000  0.500019  0.500033  1
  Cu  Cu20  1  0.500000  0.748184  0.550408  1
  Cu  Cu21  1  0.500000  0.251390  0.449541  1
  Cu  Cu22  1  0.500000  0.550278  0.748012  1
  Cu  Cu23  1  0.500000  0.449711  0.251805  1
