# generated using pymatgen
data_Tb6Ti2Fe(Co5P4)3
_symmetry_space_group_name_H-M   'P 1'
_cell_length_a   3.71521800
_cell_length_b   10.64103100
_cell_length_c   12.29846000
_cell_angle_alpha   90.00000000
_cell_angle_beta   90.00000000
_cell_angle_gamma   90.00000000
_symmetry_Int_Tables_number   1
_chemical_formula_structural   Tb6Ti2Fe(Co5P4)3
_chemical_formula_sum   'Tb6 Ti2 Fe1 Co15 P12'
_cell_volume   486.20424192
_cell_formula_units_Z   1
loop_
 _symmetry_equiv_pos_site_id
 _symmetry_equiv_pos_as_xyz
  1  'x, y, z'
loop_
 _atom_site_type_symbol
 _atom_site_label
 _atom_site_symmetry_multiplicity
 _atom_site_fract_x
 _atom_site_fract_y
 _atom_site_fract_z
 _atom_site_occupancy
  Tb  Tb0  1  0.000000  0.500000  0.524838  1
  Tb  Tb1  1  0.500000  0.000000  0.474828  1
  Tb  Tb2  1  0.500000  0.819877  0.204269  1
  Tb  Tb3  1  0.500000  0.180123  0.204269  1
  Tb  Tb4  1  0.000000  0.678755  0.796025  1
  Tb  Tb5  1  0.000000  0.321245  0.796025  1
  Ti  Ti6  1  0.500000  0.500000  0.152193  1
  Ti  Ti7  1  0.000000  0.000000  0.846866  1
  Fe  Fe8  1  0.000000  0.500000  0.988262  1
  Co  Co9  1  0.500000  0.500000  0.702699  1
  Co  Co10  1  0.000000  0.000000  0.297165  1
  Co  Co11  1  0.500000  0.000000  0.012293  1
  Co  Co12  1  0.500000  0.329696  0.995039  1
  Co  Co13  1  0.500000  0.670304  0.995039  1
  Co  Co14  1  0.000000  0.166690  0.005641  1
  Co  Co15  1  0.000000  0.833310  0.005641  1
  Co  Co16  1  0.500000  0.296054  0.431979  1
  Co  Co17  1  0.500000  0.703946  0.431979  1
  Co  Co18  1  0.000000  0.204093  0.568449  1
  Co  Co19  1  0.000000  0.795907  0.568449  1
  Co  Co20  1  0.500000  0.879263  0.705552  1
  Co  Co21  1  0.500000  0.120737  0.705552  1
  Co  Co22  1  0.000000  0.621216  0.294153  1
  Co  Co23  1  0.000000  0.378784  0.294153  1
  P  P24  1  0.500000  0.500000  0.886507  1
  P  P25  1  0.000000  0.000000  0.116004  1
  P  P26  1  0.500000  0.500000  0.351920  1
  P  P27  1  0.000000  0.000000  0.647685  1
  P  P28  1  0.500000  0.309441  0.615807  1
  P  P29  1  0.500000  0.690559  0.615807  1
  P  P30  1  0.000000  0.190762  0.384391  1
  P  P31  1  0.000000  0.809238  0.384391  1
  P  P32  1  0.500000  0.843282  0.892319  1
  P  P33  1  0.500000  0.156718  0.892319  1
  P  P34  1  0.000000  0.656237  0.105745  1
  P  P35  1  0.000000  0.343763  0.105745  1
