# generated using pymatgen
data_DyNp7(B6Os)4
_symmetry_space_group_name_H-M   'P 1'
_cell_length_a   3.56444500
_cell_length_b   9.32684445
_cell_length_c   11.39227454
_cell_angle_alpha   89.96455765
_cell_angle_beta   90.00000000
_cell_angle_gamma   90.00000000
_symmetry_Int_Tables_number   1
_chemical_formula_structural   DyNp7(B6Os)4
_chemical_formula_sum   'Dy1 Np7 B24 Os4'
_cell_volume   378.73636879
_cell_formula_units_Z   1
loop_
 _symmetry_equiv_pos_site_id
 _symmetry_equiv_pos_as_xyz
  1  'x, y, z'
loop_
 _atom_site_type_symbol
 _atom_site_label
 _atom_site_symmetry_multiplicity
 _atom_site_fract_x
 _atom_site_fract_y
 _atom_site_fract_z
 _atom_site_occupancy
  Dy  Dy0  1  0.000000  0.337907  0.407384  1
  Np  Np1  1  0.000000  0.662277  0.592506  1
  Np  Np2  1  0.000000  0.838147  0.094062  1
  Np  Np3  1  0.000000  0.161015  0.906880  1
  Np  Np4  1  0.000000  0.958117  0.401405  1
  Np  Np5  1  0.000000  0.040924  0.599127  1
  Np  Np6  1  0.000000  0.458961  0.098053  1
  Np  Np7  1  0.000000  0.541360  0.900593  1
  B  B8  1  0.500000  0.552169  0.433174  1
  B  B9  1  0.500000  0.450510  0.568496  1
  B  B10  1  0.500000  0.051648  0.067820  1
  B  B11  1  0.500000  0.948135  0.931696  1
  B  B12  1  0.500000  0.742821  0.424272  1
  B  B13  1  0.500000  0.256016  0.577081  1
  B  B14  1  0.500000  0.243318  0.075977  1
  B  B15  1  0.500000  0.756309  0.923471  1
  B  B16  1  0.500000  0.805652  0.274651  1
  B  B17  1  0.500000  0.193674  0.725906  1
  B  B18  1  0.500000  0.305383  0.225196  1
  B  B19  1  0.500000  0.692931  0.773141  1
  B  B20  1  0.500000  0.646507  0.188810  1
  B  B21  1  0.500000  0.353698  0.811290  1
  B  B22  1  0.500000  0.145872  0.311664  1
  B  B23  1  0.500000  0.852900  0.688027  1
  B  B24  1  0.500000  0.988802  0.220578  1
  B  B25  1  0.500000  0.012216  0.778588  1
  B  B26  1  0.500000  0.489017  0.279317  1
  B  B27  1  0.500000  0.513980  0.720131  1
  B  B28  1  0.500000  0.644808  0.040075  1
  B  B29  1  0.500000  0.355339  0.958973  1
  B  B30  1  0.500000  0.144354  0.460267  1
  B  B31  1  0.500000  0.853449  0.540875  1
  Os  Os32  1  0.000000  0.645474  0.321091  1
  Os  Os33  1  0.000000  0.356673  0.680292  1
  Os  Os34  1  0.000000  0.147181  0.179791  1
  Os  Os35  1  0.000000  0.852460  0.819340  1
