# generated using pymatgen
data_Ba4Sr2Tb2Fe4O15
_symmetry_space_group_name_H-M   'P 1'
_cell_length_a   7.00065479
_cell_length_b   11.76134083
_cell_length_c   11.72236152
_cell_angle_alpha   59.88989761
_cell_angle_beta   89.80468120
_cell_angle_gamma   89.60911138
_symmetry_Int_Tables_number   1
_chemical_formula_structural   Ba4Sr2Tb2Fe4O15
_chemical_formula_sum   'Ba8 Sr4 Tb4 Fe8 O30'
_cell_volume   834.92646970
_cell_formula_units_Z   2
loop_
 _symmetry_equiv_pos_site_id
 _symmetry_equiv_pos_as_xyz
  1  'x, y, z'
loop_
 _atom_site_type_symbol
 _atom_site_label
 _atom_site_symmetry_multiplicity
 _atom_site_fract_x
 _atom_site_fract_y
 _atom_site_fract_z
 _atom_site_occupancy
  Ba  Ba0  1  0.334114  0.172202  0.654221  1
  Ba  Ba1  1  0.329195  0.657001  0.172465  1
  Ba  Ba2  1  0.336708  0.170555  0.172253  1
  Ba  Ba3  1  0.833854  0.826420  0.345802  1
  Ba  Ba4  1  0.836235  0.343091  0.827650  1
  Ba  Ba5  1  0.829391  0.829416  0.827557  1
  Ba  Ba6  1  0.013237  0.336566  0.332668  1
  Ba  Ba7  1  0.513348  0.669399  0.667344  1
  Sr  Sr8  1  0.511922  0.999569  0.000680  1
  Sr  Sr9  1  0.011930  0.000284  0.999310  1
  Sr  Sr10  1  0.665486  0.045886  0.475773  1
  Sr  Sr11  1  0.165337  0.521607  0.524202  1
  Tb  Tb12  1  0.655356  0.478844  0.040935  1
  Tb  Tb13  1  0.665188  0.479230  0.480693  1
  Tb  Tb14  1  0.155176  0.519974  0.958992  1
  Tb  Tb15  1  0.165403  0.960067  0.519300  1
  Fe  Fe16  1  0.838157  0.175212  0.644461  1
  Fe  Fe17  1  0.831086  0.646143  0.173397  1
  Fe  Fe18  1  0.845055  0.178800  0.176079  1
  Fe  Fe19  1  0.338052  0.819586  0.355651  1
  Fe  Fe20  1  0.344867  0.354927  0.823854  1
  Fe  Fe21  1  0.331297  0.819538  0.826627  1
  Fe  Fe22  1  0.472161  0.334592  0.329937  1
  Fe  Fe23  1  0.972284  0.664709  0.669925  1
  O  O24  1  0.490923  0.669534  0.393166  1
  O  O25  1  0.480166  0.395957  0.938745  1
  O  O26  1  0.447131  0.933397  0.664274  1
  O  O27  1  0.489523  0.394011  0.670897  1
  O  O28  1  0.462359  0.938345  0.391446  1
  O  O29  1  0.475312  0.664307  0.937889  1
  O  O30  1  0.962256  0.329779  0.608730  1
  O  O31  1  0.975402  0.602436  0.062051  1
  O  O32  1  0.989899  0.065144  0.328984  1
  O  O33  1  0.947171  0.597782  0.335629  1
  O  O34  1  0.991238  0.062789  0.606933  1
  O  O35  1  0.979385  0.335105  0.061008  1
  O  O36  1  0.662244  0.259416  0.497803  1
  O  O37  1  0.651858  0.504877  0.236733  1
  O  O38  1  0.661442  0.260022  0.235728  1
  O  O39  1  0.162183  0.757203  0.502294  1
  O  O40  1  0.161425  0.495870  0.764348  1
  O  O41  1  0.151774  0.741784  0.763307  1
  O  O42  1  0.327911  0.420726  0.156905  1
  O  O43  1  0.322818  0.168770  0.413254  1
  O  O44  1  0.339558  0.419540  0.413142  1
  O  O45  1  0.827987  0.577949  0.842975  1
  O  O46  1  0.839594  0.832865  0.586767  1
  O  O47  1  0.822816  0.582057  0.586750  1
  O  O48  1  0.241475  0.900329  0.184051  1
  O  O49  1  0.249808  0.183747  0.908826  1
  O  O50  1  0.248889  0.905877  0.914352  1
  O  O51  1  0.741332  0.084304  0.815985  1
  O  O52  1  0.748681  0.820189  0.085794  1
  O  O53  1  0.749802  0.092276  0.091461  1
