# generated using pymatgen
data_PrNd(SI)2
_symmetry_space_group_name_H-M   'P 1'
_cell_length_a   11.60435057
_cell_length_b   11.60435040
_cell_length_c   11.60435100
_cell_angle_alpha   23.16879130
_cell_angle_beta   23.16879319
_cell_angle_gamma   23.16879188
_symmetry_Int_Tables_number   1
_chemical_formula_structural   PrNd(SI)2
_chemical_formula_sum   'Pr1 Nd1 S2 I2'
_cell_volume   212.33805134
_cell_formula_units_Z   1
loop_
 _symmetry_equiv_pos_site_id
 _symmetry_equiv_pos_as_xyz
  1  'x, y, z'
loop_
 _atom_site_type_symbol
 _atom_site_label
 _atom_site_symmetry_multiplicity
 _atom_site_fract_x
 _atom_site_fract_y
 _atom_site_fract_z
 _atom_site_occupancy
  Pr  Pr0  1  0.386571  0.386571  0.386571  1
  Nd  Nd1  1  0.613551  0.613551  0.613551  1
  S  S2  1  0.301828  0.301828  0.301828  1
  S  S3  1  0.697246  0.697246  0.697246  1
  I  I4  1  0.112867  0.112867  0.112867  1
  I  I5  1  0.887936  0.887936  0.887936  1
