# generated using pymatgen
data_Dy7YSc12Si15Ag
_symmetry_space_group_name_H-M   'P 1'
_cell_length_a   7.13031730
_cell_length_b   7.37181261
_cell_length_c   14.07037420
_cell_angle_alpha   89.88186043
_cell_angle_beta   89.61366531
_cell_angle_gamma   90.18404740
_symmetry_Int_Tables_number   1
_chemical_formula_structural   Dy7YSc12Si15Ag
_chemical_formula_sum   'Dy7 Y1 Sc12 Si15 Ag1'
_cell_volume   739.56395181
_cell_formula_units_Z   1
loop_
 _symmetry_equiv_pos_site_id
 _symmetry_equiv_pos_as_xyz
  1  'x, y, z'
loop_
 _atom_site_type_symbol
 _atom_site_label
 _atom_site_symmetry_multiplicity
 _atom_site_fract_x
 _atom_site_fract_y
 _atom_site_fract_z
 _atom_site_occupancy
  Dy  Dy0  1  0.987359  0.825876  0.903701  1
  Dy  Dy1  1  0.487078  0.676428  0.903498  1
  Dy  Dy2  1  0.988306  0.830757  0.597735  1
  Dy  Dy3  1  0.512252  0.324089  0.096862  1
  Dy  Dy4  1  0.009230  0.171729  0.398953  1
  Dy  Dy5  1  0.512495  0.323222  0.399975  1
  Dy  Dy6  1  0.493497  0.677938  0.599910  1
  Y  Y7  1  0.012326  0.175137  0.097779  1
  Sc  Sc8  1  0.162999  0.501459  0.753064  1
  Sc  Sc9  1  0.837796  0.498739  0.250900  1
  Sc  Sc10  1  0.337995  0.000197  0.248885  1
  Sc  Sc11  1  0.664644  0.996258  0.751291  1
  Sc  Sc12  1  0.341146  0.173042  0.626801  1
  Sc  Sc13  1  0.665602  0.823245  0.373902  1
  Sc  Sc14  1  0.167495  0.675351  0.372077  1
  Sc  Sc15  1  0.670075  0.824337  0.124714  1
  Sc  Sc16  1  0.825932  0.325327  0.625295  1
  Sc  Sc17  1  0.328641  0.175202  0.876124  1
  Sc  Sc18  1  0.830141  0.322712  0.875968  1
  Sc  Sc19  1  0.169183  0.676482  0.125084  1
  Si  Si20  1  0.035812  0.121084  0.750032  1
  Si  Si21  1  0.965500  0.882872  0.248968  1
  Si  Si22  1  0.466672  0.616246  0.248328  1
  Si  Si23  1  0.534339  0.385111  0.752030  1
  Si  Si24  1  0.284884  0.873927  0.750836  1
  Si  Si25  1  0.712813  0.127150  0.248573  1
  Si  Si26  1  0.214661  0.371619  0.248781  1
  Si  Si27  1  0.788015  0.627148  0.752241  1
  Si  Si28  1  0.835283  0.537794  0.459184  1
  Si  Si29  1  0.338575  0.962242  0.460722  1
  Si  Si30  1  0.843622  0.535512  0.039094  1
  Si  Si31  1  0.658734  0.036060  0.537948  1
  Si  Si32  1  0.155325  0.464608  0.961658  1
  Si  Si33  1  0.656855  0.035012  0.960601  1
  Si  Si34  1  0.342976  0.964457  0.039815  1
  Ag  Ag35  1  0.161748  0.461632  0.538670  1
