# generated using pymatgen
data_Tm10In8PtAu3
_symmetry_space_group_name_H-M   'P 1'
_cell_length_a   3.60090200
_cell_length_b   8.02468444
_cell_length_c   18.32920000
_cell_angle_alpha   90.06670849
_cell_angle_beta   90.00000000
_cell_angle_gamma   90.00000000
_symmetry_Int_Tables_number   1
_chemical_formula_structural   Tm10In8PtAu3
_chemical_formula_sum   'Tm10 In8 Pt1 Au3'
_cell_volume   529.64207830
_cell_formula_units_Z   1
loop_
 _symmetry_equiv_pos_site_id
 _symmetry_equiv_pos_as_xyz
  1  'x, y, z'
loop_
 _atom_site_type_symbol
 _atom_site_label
 _atom_site_symmetry_multiplicity
 _atom_site_fract_x
 _atom_site_fract_y
 _atom_site_fract_z
 _atom_site_occupancy
  Tm  Tm0  1  0.000000  0.119256  0.418956  1
  Tm  Tm1  1  0.000000  0.879565  0.579536  1
  Tm  Tm2  1  0.000000  0.379517  0.920801  1
  Tm  Tm3  1  0.000000  0.616940  0.084210  1
  Tm  Tm4  1  0.000000  0.255296  0.217428  1
  Tm  Tm5  1  0.000000  0.758450  0.782936  1
  Tm  Tm6  1  0.000000  0.258581  0.717424  1
  Tm  Tm7  1  0.000000  0.733768  0.279663  1
  Tm  Tm8  1  0.000000  0.999609  0.000491  1
  Tm  Tm9  1  0.000000  0.500315  0.499632  1
  In  In10  1  0.500000  0.423627  0.353061  1
  In  In11  1  0.500000  0.577194  0.646167  1
  In  In12  1  0.500000  0.077419  0.853821  1
  In  In13  1  0.500000  0.923906  0.147094  1
  In  In14  1  0.500000  0.290363  0.066387  1
  In  In15  1  0.500000  0.709619  0.935298  1
  In  In16  1  0.500000  0.210510  0.565609  1
  In  In17  1  0.500000  0.789037  0.433049  1
  Pt  Pt18  1  0.500000  0.530991  0.196081  1
  Au  Au19  1  0.500000  0.031258  0.302174  1
  Au  Au20  1  0.500000  0.967293  0.696527  1
  Au  Au21  1  0.500000  0.467486  0.803657  1
