# generated using pymatgen
data_DyHo5Al24(Ir3Os)2
_symmetry_space_group_name_H-M   'P 1'
_cell_length_a   8.83335300
_cell_length_b   8.83147172
_cell_length_c   9.49490800
_cell_angle_alpha   90.00000000
_cell_angle_beta   90.00000000
_cell_angle_gamma   120.00704313
_symmetry_Int_Tables_number   1
_chemical_formula_structural   DyHo5Al24(Ir3Os)2
_chemical_formula_sum   'Dy1 Ho5 Al24 Ir6 Os2'
_cell_volume   641.42995069
_cell_formula_units_Z   1
loop_
 _symmetry_equiv_pos_site_id
 _symmetry_equiv_pos_as_xyz
  1  'x, y, z'
loop_
 _atom_site_type_symbol
 _atom_site_label
 _atom_site_symmetry_multiplicity
 _atom_site_fract_x
 _atom_site_fract_y
 _atom_site_fract_z
 _atom_site_occupancy
  Dy  Dy0  1  0.191942  0.383885  0.250000  1
  Ho  Ho1  1  0.807737  0.615473  0.750000  1
  Ho  Ho2  1  0.615824  0.807960  0.250000  1
  Ho  Ho3  1  0.384482  0.192254  0.750000  1
  Ho  Ho4  1  0.192135  0.807960  0.250000  1
  Ho  Ho5  1  0.807773  0.192254  0.750000  1
  Al  Al6  1  0.333388  0.666777  0.030719  1
  Al  Al7  1  0.666687  0.333373  0.968884  1
  Al  Al8  1  0.666687  0.333373  0.531116  1
  Al  Al9  1  0.333388  0.666777  0.469281  1
  Al  Al10  1  0.163556  0.327111  0.575094  1
  Al  Al11  1  0.836441  0.672882  0.425119  1
  Al  Al12  1  0.672938  0.836464  0.574986  1
  Al  Al13  1  0.836441  0.672882  0.074881  1
  Al  Al14  1  0.327140  0.163499  0.425121  1
  Al  Al15  1  0.163556  0.327111  0.924906  1
  Al  Al16  1  0.163527  0.836464  0.574986  1
  Al  Al17  1  0.327140  0.163499  0.074879  1
  Al  Al18  1  0.836359  0.163499  0.425121  1
  Al  Al19  1  0.672938  0.836464  0.925014  1
  Al  Al20  1  0.836359  0.163499  0.074879  1
  Al  Al21  1  0.163527  0.836464  0.925014  1
  Al  Al22  1  0.562022  0.124043  0.250000  1
  Al  Al23  1  0.437966  0.875932  0.750000  1
  Al  Al24  1  0.875803  0.438017  0.250000  1
  Al  Al25  1  0.124098  0.562012  0.750000  1
  Al  Al26  1  0.562214  0.438017  0.250000  1
  Al  Al27  1  0.437915  0.562012  0.750000  1
  Al  Al28  1  0.999932  0.999863  0.250000  1
  Al  Al29  1  0.000005  0.000009  0.750000  1
  Ir  Ir30  1  0.500003  0.000006  0.999977  1
  Ir  Ir31  1  0.999991  0.500072  0.999956  1
  Ir  Ir32  1  0.500003  0.000006  0.500023  1
  Ir  Ir33  1  0.500081  0.500072  0.999956  1
  Ir  Ir34  1  0.999991  0.500072  0.500044  1
  Ir  Ir35  1  0.500081  0.500072  0.500044  1
  Os  Os36  1  0.999967  0.999934  0.999939  1
  Os  Os37  1  0.999967  0.999934  0.500061  1
