# generated using pymatgen
data_Cs4NpPaI12
_symmetry_space_group_name_H-M   'P 1'
_cell_length_a   8.44608000
_cell_length_b   8.44608000
_cell_length_c   12.18492600
_cell_angle_alpha   90.00000000
_cell_angle_beta   90.00000000
_cell_angle_gamma   90.00000000
_symmetry_Int_Tables_number   1
_chemical_formula_structural   Cs4NpPaI12
_chemical_formula_sum   'Cs4 Np1 Pa1 I12'
_cell_volume   869.22713898
_cell_formula_units_Z   1
loop_
 _symmetry_equiv_pos_site_id
 _symmetry_equiv_pos_as_xyz
  1  'x, y, z'
loop_
 _atom_site_type_symbol
 _atom_site_label
 _atom_site_symmetry_multiplicity
 _atom_site_fract_x
 _atom_site_fract_y
 _atom_site_fract_z
 _atom_site_occupancy
  Cs  Cs0  1  0.500000  0.000000  0.732161  1
  Cs  Cs1  1  0.000000  0.500000  0.267839  1
  Cs  Cs2  1  0.500000  0.000000  0.267839  1
  Cs  Cs3  1  0.000000  0.500000  0.732161  1
  Np  Np4  1  0.500000  0.500000  0.500000  1
  Pa  Pa5  1  0.000000  0.000000  0.000000  1
  I  I6  1  0.000000  0.000000  0.753376  1
  I  I7  1  0.500000  0.500000  0.251352  1
  I  I8  1  0.753655  0.753655  0.500000  1
  I  I9  1  0.250203  0.250203  0.000000  1
  I  I10  1  0.753655  0.246345  0.500000  1
  I  I11  1  0.250203  0.749797  0.000000  1
  I  I12  1  0.000000  0.000000  0.246624  1
  I  I13  1  0.500000  0.500000  0.748648  1
  I  I14  1  0.246345  0.246345  0.500000  1
  I  I15  1  0.749797  0.749797  0.000000  1
  I  I16  1  0.246345  0.753655  0.500000  1
  I  I17  1  0.749797  0.250203  0.000000  1
