# generated using pymatgen
data_Yb4Mn3CrB16
_symmetry_space_group_name_H-M   'P 1'
_cell_length_a   3.34511200
_cell_length_b   5.91715212
_cell_length_c   11.46086990
_cell_angle_alpha   89.98873307
_cell_angle_beta   90.00000000
_cell_angle_gamma   90.00000000
_symmetry_Int_Tables_number   1
_chemical_formula_structural   Yb4Mn3CrB16
_chemical_formula_sum   'Yb4 Mn3 Cr1 B16'
_cell_volume   226.85114300
_cell_formula_units_Z   1
loop_
 _symmetry_equiv_pos_site_id
 _symmetry_equiv_pos_as_xyz
  1  'x, y, z'
loop_
 _atom_site_type_symbol
 _atom_site_label
 _atom_site_symmetry_multiplicity
 _atom_site_fract_x
 _atom_site_fract_y
 _atom_site_fract_z
 _atom_site_occupancy
  Yb  Yb0  1  0.000000  0.124700  0.651306  1
  Yb  Yb1  1  0.000000  0.875031  0.348063  1
  Yb  Yb2  1  0.000000  0.623527  0.848553  1
  Yb  Yb3  1  0.000000  0.377148  0.151749  1
  Mn  Mn4  1  0.000000  0.878092  0.081300  1
  Mn  Mn5  1  0.000000  0.625125  0.580802  1
  Mn  Mn6  1  0.000000  0.374897  0.418388  1
  Cr  Cr7  1  0.000000  0.122297  0.919282  1
  B  B8  1  0.500000  0.362734  0.967303  1
  B  B9  1  0.500000  0.637709  0.033404  1
  B  B10  1  0.500000  0.862212  0.532297  1
  B  B11  1  0.500000  0.137754  0.467513  1
  B  B12  1  0.500000  0.475805  0.690508  1
  B  B13  1  0.500000  0.524415  0.309332  1
  B  B14  1  0.500000  0.976341  0.808845  1
  B  B15  1  0.500000  0.023152  0.191149  1
  B  B16  1  0.500000  0.281754  0.815817  1
  B  B17  1  0.500000  0.719424  0.183415  1
  B  B18  1  0.500000  0.780457  0.683006  1
  B  B19  1  0.500000  0.219300  0.316834  1
  B  B20  1  0.500000  0.386578  0.546697  1
  B  B21  1  0.500000  0.613344  0.452964  1
  B  B22  1  0.500000  0.885121  0.953936  1
  B  B23  1  0.500000  0.113083  0.047539  1
