# generated using pymatgen
data_Dy6NbCo17(Si5P)2
_symmetry_space_group_name_H-M   'P 1'
_cell_length_a   3.77024200
_cell_length_b   10.76308800
_cell_length_c   12.40345100
_cell_angle_alpha   90.00000000
_cell_angle_beta   90.00000000
_cell_angle_gamma   90.00000000
_symmetry_Int_Tables_number   1
_chemical_formula_structural   Dy6NbCo17(Si5P)2
_chemical_formula_sum   'Dy6 Nb1 Co17 Si10 P2'
_cell_volume   503.32517537
_cell_formula_units_Z   1
loop_
 _symmetry_equiv_pos_site_id
 _symmetry_equiv_pos_as_xyz
  1  'x, y, z'
loop_
 _atom_site_type_symbol
 _atom_site_label
 _atom_site_symmetry_multiplicity
 _atom_site_fract_x
 _atom_site_fract_y
 _atom_site_fract_z
 _atom_site_occupancy
  Dy  Dy0  1  0.000000  0.500000  0.527039  1
  Dy  Dy1  1  0.500000  0.000000  0.473515  1
  Dy  Dy2  1  0.500000  0.821761  0.206729  1
  Dy  Dy3  1  0.500000  0.178239  0.206729  1
  Dy  Dy4  1  0.000000  0.679437  0.797625  1
  Dy  Dy5  1  0.000000  0.320563  0.797625  1
  Nb  Nb6  1  0.500000  0.500000  0.151858  1
  Co  Co7  1  0.000000  0.000000  0.845793  1
  Co  Co8  1  0.500000  0.500000  0.702551  1
  Co  Co9  1  0.000000  0.000000  0.302072  1
  Co  Co10  1  0.000000  0.500000  0.980490  1
  Co  Co11  1  0.500000  0.000000  0.014923  1
  Co  Co12  1  0.500000  0.329520  0.989585  1
  Co  Co13  1  0.500000  0.670480  0.989585  1
  Co  Co14  1  0.000000  0.164767  0.001003  1
  Co  Co15  1  0.000000  0.835233  0.001003  1
  Co  Co16  1  0.500000  0.303358  0.431528  1
  Co  Co17  1  0.500000  0.696642  0.431528  1
  Co  Co18  1  0.000000  0.198911  0.571884  1
  Co  Co19  1  0.000000  0.801089  0.571884  1
  Co  Co20  1  0.500000  0.883356  0.706288  1
  Co  Co21  1  0.500000  0.116644  0.706288  1
  Co  Co22  1  0.000000  0.618449  0.295603  1
  Co  Co23  1  0.000000  0.381551  0.295603  1
  Si  Si24  1  0.000000  0.000000  0.114864  1
  Si  Si25  1  0.000000  0.000000  0.660223  1
  Si  Si26  1  0.500000  0.305266  0.616004  1
  Si  Si27  1  0.500000  0.694734  0.616004  1
  Si  Si28  1  0.000000  0.195481  0.387757  1
  Si  Si29  1  0.000000  0.804519  0.387757  1
  Si  Si30  1  0.500000  0.854879  0.889801  1
  Si  Si31  1  0.500000  0.145121  0.889801  1
  Si  Si32  1  0.000000  0.659682  0.101082  1
  Si  Si33  1  0.000000  0.340318  0.101082  1
  P  P34  1  0.500000  0.500000  0.885205  1
  P  P35  1  0.500000  0.500000  0.351689  1
