# generated using pymatgen
data_Nd3PaTlPd4Pb
_symmetry_space_group_name_H-M   'P 1'
_cell_length_a   3.75254400
_cell_length_b   8.01044177
_cell_length_c   8.02935136
_cell_angle_alpha   92.08919483
_cell_angle_beta   90.00000000
_cell_angle_gamma   90.00000000
_symmetry_Int_Tables_number   1
_chemical_formula_structural   Nd3PaTlPd4Pb
_chemical_formula_sum   'Nd3 Pa1 Tl1 Pd4 Pb1'
_cell_volume   241.19813548
_cell_formula_units_Z   1
loop_
 _symmetry_equiv_pos_site_id
 _symmetry_equiv_pos_as_xyz
  1  'x, y, z'
loop_
 _atom_site_type_symbol
 _atom_site_label
 _atom_site_symmetry_multiplicity
 _atom_site_fract_x
 _atom_site_fract_y
 _atom_site_fract_z
 _atom_site_occupancy
  Nd  Nd0  1  0.500000  0.825096  0.322609  1
  Nd  Nd1  1  0.500000  0.324783  0.173458  1
  Nd  Nd2  1  0.500000  0.675773  0.827114  1
  Pa  Pa3  1  0.500000  0.170133  0.671523  1
  Tl  Tl4  1  0.000000  0.998888  0.002080  1
  Pd  Pd5  1  0.000000  0.617403  0.116775  1
  Pd  Pd6  1  0.000000  0.357720  0.858627  1
  Pd  Pd7  1  0.000000  0.894146  0.634813  1
  Pd  Pd8  1  0.000000  0.133327  0.392974  1
  Pb  Pb9  1  0.000000  0.502731  0.500026  1
