# generated using pymatgen
data_Ho4FeOs4Ru3
_symmetry_space_group_name_H-M   'P 1'
_cell_length_a   5.31546259
_cell_length_b   5.17837741
_cell_length_c   8.91035200
_cell_angle_alpha   90.00000000
_cell_angle_beta   90.00000000
_cell_angle_gamma   119.97346870
_symmetry_Int_Tables_number   1
_chemical_formula_structural   Ho4FeOs4Ru3
_chemical_formula_sum   'Ho4 Fe1 Os4 Ru3'
_cell_volume   212.45957251
_cell_formula_units_Z   1
loop_
 _symmetry_equiv_pos_site_id
 _symmetry_equiv_pos_as_xyz
  1  'x, y, z'
loop_
 _atom_site_type_symbol
 _atom_site_label
 _atom_site_symmetry_multiplicity
 _atom_site_fract_x
 _atom_site_fract_y
 _atom_site_fract_z
 _atom_site_occupancy
  Ho  Ho0  1  0.668052  0.335254  0.567135  1
  Ho  Ho1  1  0.330447  0.663664  0.436066  1
  Ho  Ho2  1  0.330447  0.663664  0.063934  1
  Ho  Ho3  1  0.668052  0.335254  0.932865  1
  Fe  Fe4  1  0.165565  0.331280  0.750000  1
  Os  Os5  1  0.174499  0.829202  0.750000  1
  Os  Os6  1  0.656040  0.830739  0.750000  1
  Os  Os7  1  0.835915  0.667107  0.250000  1
  Os  Os8  1  0.832476  0.174058  0.250000  1
  Ru  Ru9  1  0.994840  0.997505  0.501184  1
  Ru  Ru10  1  0.994840  0.997505  0.998816  1
  Ru  Ru11  1  0.348826  0.174766  0.250000  1
