# generated using pymatgen
data_Cs6ErLuBr12
_symmetry_space_group_name_H-M   'P 1'
_cell_length_a   9.96545646
_cell_length_b   9.96181446
_cell_length_c   8.26745900
_cell_angle_alpha   90.00000000
_cell_angle_beta   90.00000000
_cell_angle_gamma   90.03476746
_symmetry_Int_Tables_number   1
_chemical_formula_structural   Cs6ErLuBr12
_chemical_formula_sum   'Cs6 Er1 Lu1 Br12'
_cell_volume   820.74380710
_cell_formula_units_Z   1
loop_
 _symmetry_equiv_pos_site_id
 _symmetry_equiv_pos_as_xyz
  1  'x, y, z'
loop_
 _atom_site_type_symbol
 _atom_site_label
 _atom_site_symmetry_multiplicity
 _atom_site_fract_x
 _atom_site_fract_y
 _atom_site_fract_z
 _atom_site_occupancy
  Cs  Cs0  1  0.000000  0.000000  0.500000  1
  Cs  Cs1  1  0.000000  0.000000  0.000000  1
  Cs  Cs2  1  0.234708  0.584723  0.500000  1
  Cs  Cs3  1  0.765292  0.415277  0.500000  1
  Cs  Cs4  1  0.415320  0.234744  0.000000  1
  Cs  Cs5  1  0.584680  0.765256  0.000000  1
  Er  Er6  1  0.000000  0.500000  0.000000  1
  Lu  Lu7  1  0.500000  0.000000  0.500000  1
  Br  Br8  1  0.689534  0.057822  0.737750  1
  Br  Br9  1  0.310466  0.942178  0.737750  1
  Br  Br10  1  0.941758  0.691154  0.239737  1
  Br  Br11  1  0.058242  0.308846  0.239737  1
  Br  Br12  1  0.310466  0.942178  0.262250  1
  Br  Br13  1  0.689534  0.057822  0.262250  1
  Br  Br14  1  0.058242  0.308846  0.760263  1
  Br  Br15  1  0.941758  0.691154  0.760263  1
  Br  Br16  1  0.570788  0.732604  0.500000  1
  Br  Br17  1  0.429212  0.267396  0.500000  1
  Br  Br18  1  0.269759  0.571372  0.000000  1
  Br  Br19  1  0.730241  0.428628  0.000000  1
