# generated using pymatgen
data_Rb2Hg(ClF)2
_symmetry_space_group_name_H-M   'P 1'
_cell_length_a   8.64748260
_cell_length_b   8.64748250
_cell_length_c   6.86334800
_cell_angle_alpha   90.00000000
_cell_angle_beta   90.00000000
_cell_angle_gamma   133.24478078
_symmetry_Int_Tables_number   1
_chemical_formula_structural   Rb2Hg(ClF)2
_chemical_formula_sum   'Rb4 Hg2 Cl4 F4'
_cell_volume   373.85676946
_cell_formula_units_Z   2
loop_
 _symmetry_equiv_pos_site_id
 _symmetry_equiv_pos_as_xyz
  1  'x, y, z'
loop_
 _atom_site_type_symbol
 _atom_site_label
 _atom_site_symmetry_multiplicity
 _atom_site_fract_x
 _atom_site_fract_y
 _atom_site_fract_z
 _atom_site_occupancy
  Rb  Rb0  1  0.122819  0.877181  0.500000  1
  Rb  Rb1  1  0.622819  0.377181  0.000000  1
  Rb  Rb2  1  0.877181  0.122819  0.500000  1
  Rb  Rb3  1  0.377181  0.622819  0.000000  1
  Hg  Hg4  1  0.000000  0.000000  0.000000  1
  Hg  Hg5  1  0.500000  0.500000  0.500000  1
  Cl  Cl6  1  0.160823  0.839177  0.000000  1
  Cl  Cl7  1  0.839177  0.160823  0.000000  1
  Cl  Cl8  1  0.660823  0.339177  0.500000  1
  Cl  Cl9  1  0.339177  0.660823  0.500000  1
  F  F10  1  0.250604  0.250604  0.250492  1
  F  F11  1  0.749396  0.749396  0.749508  1
  F  F12  1  0.750604  0.750604  0.249508  1
  F  F13  1  0.249396  0.249396  0.750492  1
