# generated using pymatgen
data_LiTm3(B6Os)2
_symmetry_space_group_name_H-M   'P 1'
_cell_length_a   3.56557100
_cell_length_b   8.94853991
_cell_length_c   11.31195927
_cell_angle_alpha   89.86307652
_cell_angle_beta   90.00000000
_cell_angle_gamma   90.00000000
_symmetry_Int_Tables_number   1
_chemical_formula_structural   LiTm3(B6Os)2
_chemical_formula_sum   'Li2 Tm6 B24 Os4'
_cell_volume   360.92574467
_cell_formula_units_Z   2
loop_
 _symmetry_equiv_pos_site_id
 _symmetry_equiv_pos_as_xyz
  1  'x, y, z'
loop_
 _atom_site_type_symbol
 _atom_site_label
 _atom_site_symmetry_multiplicity
 _atom_site_fract_x
 _atom_site_fract_y
 _atom_site_fract_z
 _atom_site_occupancy
  Li  Li0  1  0.000000  0.945270  0.376333  1
  Li  Li1  1  0.000000  0.054730  0.623668  1
  Tm  Tm2  1  0.000000  0.317083  0.415950  1
  Tm  Tm3  1  0.000000  0.682917  0.584050  1
  Tm  Tm4  1  0.000000  0.823860  0.087995  1
  Tm  Tm5  1  0.000000  0.176140  0.912005  1
  Tm  Tm6  1  0.000000  0.442604  0.130925  1
  Tm  Tm7  1  0.000000  0.557396  0.869074  1
  B  B8  1  0.500000  0.555472  0.434137  1
  B  B9  1  0.500000  0.444528  0.565863  1
  B  B10  1  0.500000  0.052542  0.067803  1
  B  B11  1  0.500000  0.947458  0.932197  1
  B  B12  1  0.500000  0.759516  0.418740  1
  B  B13  1  0.500000  0.240484  0.581260  1
  B  B14  1  0.500000  0.248054  0.082412  1
  B  B15  1  0.500000  0.751946  0.917588  1
  B  B16  1  0.500000  0.795886  0.265657  1
  B  B17  1  0.500000  0.204114  0.734343  1
  B  B18  1  0.500000  0.288303  0.237967  1
  B  B19  1  0.500000  0.711696  0.762033  1
  B  B20  1  0.500000  0.632224  0.185984  1
  B  B21  1  0.500000  0.367776  0.814016  1
  B  B22  1  0.500000  0.122570  0.320395  1
  B  B23  1  0.500000  0.877430  0.679605  1
  B  B24  1  0.500000  0.978173  0.215042  1
  B  B25  1  0.500000  0.021827  0.784958  1
  B  B26  1  0.500000  0.481792  0.290021  1
  B  B27  1  0.500000  0.518208  0.709979  1
  B  B28  1  0.500000  0.602993  0.027944  1
  B  B29  1  0.500000  0.397007  0.972056  1
  B  B30  1  0.500000  0.091666  0.474403  1
  B  B31  1  0.500000  0.908334  0.525597  1
  Os  Os32  1  0.000000  0.642929  0.323338  1
  Os  Os33  1  0.000000  0.357071  0.676662  1
  Os  Os34  1  0.000000  0.133962  0.184126  1
  Os  Os35  1  0.000000  0.866038  0.815874  1
