# generated using pymatgen
data_Er8Ti9Re2Si16Pd
_symmetry_space_group_name_H-M   'P 1'
_cell_length_a   6.97501152
_cell_length_b   6.97501205
_cell_length_c   12.73582753
_cell_angle_alpha   90.13038528
_cell_angle_beta   89.86961385
_cell_angle_gamma   89.68040017
_symmetry_Int_Tables_number   1
_chemical_formula_structural   Er8Ti9Re2Si16Pd
_chemical_formula_sum   'Er8 Ti9 Re2 Si16 Pd1'
_cell_volume   619.59519714
_cell_formula_units_Z   1
loop_
 _symmetry_equiv_pos_site_id
 _symmetry_equiv_pos_as_xyz
  1  'x, y, z'
loop_
 _atom_site_type_symbol
 _atom_site_label
 _atom_site_symmetry_multiplicity
 _atom_site_fract_x
 _atom_site_fract_y
 _atom_site_fract_z
 _atom_site_occupancy
  Er  Er0  1  0.340257  0.000322  0.466790  1
  Er  Er1  1  0.498704  0.840909  0.719044  1
  Er  Er2  1  0.500302  0.157863  0.216807  1
  Er  Er3  1  0.840909  0.498704  0.280956  1
  Er  Er4  1  0.157863  0.500302  0.783193  1
  Er  Er5  1  0.658793  0.000056  0.969002  1
  Er  Er6  1  0.000322  0.340257  0.533210  1
  Er  Er7  1  0.000056  0.658793  0.030998  1
  Ti  Ti8  1  0.672484  0.672484  0.500000  1
  Ti  Ti9  1  0.148536  0.004813  0.877298  1
  Ti  Ti10  1  0.496229  0.653369  0.124436  1
  Ti  Ti11  1  0.505628  0.349547  0.626676  1
  Ti  Ti12  1  0.653369  0.496229  0.875564  1
  Ti  Ti13  1  0.349547  0.505628  0.373324  1
  Ti  Ti14  1  0.849841  0.992641  0.374408  1
  Ti  Ti15  1  0.004813  0.148536  0.122702  1
  Ti  Ti16  1  0.992641  0.849841  0.625592  1
  Re  Re17  1  0.173276  0.826908  0.249795  1
  Re  Re18  1  0.826908  0.173276  0.750205  1
  Si  Si19  1  0.200622  0.131234  0.684280  1
  Si  Si20  1  0.372236  0.710690  0.931093  1
  Si  Si21  1  0.631982  0.295562  0.433147  1
  Si  Si22  1  0.710690  0.372236  0.068907  1
  Si  Si23  1  0.295562  0.631982  0.566853  1
  Si  Si24  1  0.799332  0.867952  0.182453  1
  Si  Si25  1  0.131234  0.200622  0.315720  1
  Si  Si26  1  0.867952  0.799332  0.817547  1
  Si  Si27  1  0.289210  0.943148  0.067324  1
  Si  Si28  1  0.546312  0.791215  0.315244  1
  Si  Si29  1  0.453622  0.210174  0.813588  1
  Si  Si30  1  0.791215  0.546312  0.684756  1
  Si  Si31  1  0.210174  0.453622  0.186412  1
  Si  Si32  1  0.707624  0.048625  0.566599  1
  Si  Si33  1  0.943148  0.289210  0.932676  1
  Si  Si34  1  0.048625  0.707624  0.433401  1
  Pd  Pd35  1  0.329985  0.329985  0.000000  1
