# generated using pymatgen
data_Tb8Ti12Si15Sn
_symmetry_space_group_name_H-M   'P 1'
_cell_length_a   7.12964931
_cell_length_b   7.09299009
_cell_length_c   13.05813902
_cell_angle_alpha   89.99091454
_cell_angle_beta   89.73960958
_cell_angle_gamma   89.93757130
_symmetry_Int_Tables_number   1
_chemical_formula_structural   Tb8Ti12Si15Sn
_chemical_formula_sum   'Tb8 Ti12 Si15 Sn1'
_cell_volume   660.34981597
_cell_formula_units_Z   1
loop_
 _symmetry_equiv_pos_site_id
 _symmetry_equiv_pos_as_xyz
  1  'x, y, z'
loop_
 _atom_site_type_symbol
 _atom_site_label
 _atom_site_symmetry_multiplicity
 _atom_site_fract_x
 _atom_site_fract_y
 _atom_site_fract_z
 _atom_site_occupancy
  Tb  Tb0  1  0.342861  0.999614  0.461759  1
  Tb  Tb1  1  0.505239  0.834735  0.718110  1
  Tb  Tb2  1  0.502301  0.160226  0.216602  1
  Tb  Tb3  1  0.840325  0.497428  0.282399  1
  Tb  Tb4  1  0.159700  0.509924  0.785847  1
  Tb  Tb5  1  0.661451  0.996392  0.968494  1
  Tb  Tb6  1  0.993611  0.347587  0.527782  1
  Tb  Tb7  1  0.998455  0.659563  0.034148  1
  Ti  Ti8  1  0.326299  0.327078  0.000940  1
  Ti  Ti9  1  0.173581  0.826280  0.249773  1
  Ti  Ti10  1  0.816639  0.175144  0.751852  1
  Ti  Ti11  1  0.672897  0.673056  0.499634  1
  Ti  Ti12  1  0.152877  0.007881  0.883535  1
  Ti  Ti13  1  0.491251  0.651764  0.126921  1
  Ti  Ti14  1  0.516239  0.352833  0.626539  1
  Ti  Ti15  1  0.654815  0.492355  0.874947  1
  Ti  Ti16  1  0.346983  0.509557  0.372702  1
  Ti  Ti17  1  0.846575  0.991108  0.376229  1
  Ti  Ti18  1  0.009960  0.152644  0.123054  1
  Ti  Ti19  1  0.979709  0.834516  0.618920  1
  Si  Si20  1  0.372070  0.702345  0.936445  1
  Si  Si21  1  0.627209  0.297629  0.433671  1
  Si  Si22  1  0.702724  0.370922  0.065546  1
  Si  Si23  1  0.297490  0.629294  0.564981  1
  Si  Si24  1  0.798013  0.871284  0.185064  1
  Si  Si25  1  0.128597  0.202218  0.314257  1
  Si  Si26  1  0.871510  0.800167  0.815394  1
  Si  Si27  1  0.291558  0.952126  0.066955  1
  Si  Si28  1  0.549073  0.788964  0.313802  1
  Si  Si29  1  0.459251  0.211314  0.819994  1
  Si  Si30  1  0.793156  0.544798  0.686516  1
  Si  Si31  1  0.209884  0.452823  0.185057  1
  Si  Si32  1  0.707774  0.048035  0.564740  1
  Si  Si33  1  0.952492  0.290869  0.935040  1
  Si  Si34  1  0.048110  0.711400  0.432830  1
  Sn  Sn35  1  0.199321  0.126126  0.679518  1
