# generated using pymatgen
data_Sr(SnPd2)2
_symmetry_space_group_name_H-M   'P 1'
_cell_length_a   7.24863916
_cell_length_b   7.24863860
_cell_length_c   7.24863865
_cell_angle_alpha   109.95825622
_cell_angle_beta   109.95825319
_cell_angle_gamma   108.50148464
_symmetry_Int_Tables_number   1
_chemical_formula_structural   Sr(SnPd2)2
_chemical_formula_sum   'Sr2 Sn4 Pd8'
_cell_volume   293.12600858
_cell_formula_units_Z   2
loop_
 _symmetry_equiv_pos_site_id
 _symmetry_equiv_pos_as_xyz
  1  'x, y, z'
loop_
 _atom_site_type_symbol
 _atom_site_label
 _atom_site_symmetry_multiplicity
 _atom_site_fract_x
 _atom_site_fract_y
 _atom_site_fract_z
 _atom_site_occupancy
  Sr  Sr0  1  0.250000  0.250000  0.000000  1
  Sr  Sr1  1  0.750000  0.750000  0.000000  1
  Sn  Sn2  1  0.849322  0.650678  0.500000  1
  Sn  Sn3  1  0.650678  0.150678  0.801357  1
  Sn  Sn4  1  0.349322  0.849322  0.198643  1
  Sn  Sn5  1  0.150678  0.349322  0.500000  1
  Pd  Pd6  1  0.190471  0.983802  0.500000  1
  Pd  Pd7  1  0.690471  0.190471  0.206670  1
  Pd  Pd8  1  0.983802  0.483802  0.793330  1
  Pd  Pd9  1  0.483802  0.690471  0.500000  1
  Pd  Pd10  1  0.516198  0.309529  0.500000  1
  Pd  Pd11  1  0.309529  0.809529  0.793330  1
  Pd  Pd12  1  0.809529  0.016198  0.500000  1
  Pd  Pd13  1  0.016198  0.516198  0.206670  1
