# generated using pymatgen
data_TbHo15Cd4Ni3Os
_symmetry_space_group_name_H-M   'P 1'
_cell_length_a   9.55598034
_cell_length_b   9.55598008
_cell_length_c   9.55598139
_cell_angle_alpha   59.58165217
_cell_angle_beta   59.58165160
_cell_angle_gamma   59.58165206
_symmetry_Int_Tables_number   1
_chemical_formula_structural   TbHo15Cd4Ni3Os
_chemical_formula_sum   'Tb1 Ho15 Cd4 Ni3 Os1'
_cell_volume   611.16860689
_cell_formula_units_Z   1
loop_
 _symmetry_equiv_pos_site_id
 _symmetry_equiv_pos_as_xyz
  1  'x, y, z'
loop_
 _atom_site_type_symbol
 _atom_site_label
 _atom_site_symmetry_multiplicity
 _atom_site_fract_x
 _atom_site_fract_y
 _atom_site_fract_z
 _atom_site_occupancy
  Tb  Tb0  1  0.347304  0.347304  0.347304  1
  Ho  Ho1  1  0.351904  0.351904  0.952284  1
  Ho  Ho2  1  0.351904  0.952284  0.351904  1
  Ho  Ho3  1  0.952284  0.351904  0.351904  1
  Ho  Ho4  1  0.810848  0.187899  0.187899  1
  Ho  Ho5  1  0.186948  0.811319  0.811319  1
  Ho  Ho6  1  0.187899  0.810848  0.187899  1
  Ho  Ho7  1  0.811319  0.186948  0.811319  1
  Ho  Ho8  1  0.187899  0.187899  0.810848  1
  Ho  Ho9  1  0.811319  0.811319  0.186948  1
  Ho  Ho10  1  0.935699  0.566343  0.566343  1
  Ho  Ho11  1  0.556831  0.939259  0.939259  1
  Ho  Ho12  1  0.566343  0.935699  0.566343  1
  Ho  Ho13  1  0.939259  0.556831  0.939259  1
  Ho  Ho14  1  0.566343  0.566343  0.935699  1
  Ho  Ho15  1  0.939259  0.939259  0.556831  1
  Cd  Cd16  1  0.580399  0.580399  0.580399  1
  Cd  Cd17  1  0.579987  0.579987  0.255291  1
  Cd  Cd18  1  0.579987  0.255291  0.579987  1
  Cd  Cd19  1  0.255291  0.579987  0.579987  1
  Ni  Ni20  1  0.141118  0.141118  0.575065  1
  Ni  Ni21  1  0.141118  0.575065  0.141118  1
  Ni  Ni22  1  0.575065  0.141118  0.141118  1
  Os  Os23  1  0.143672  0.143672  0.143672  1
