# generated using pymatgen
data_Ce7ErF30
_symmetry_space_group_name_H-M   'P 1'
_cell_length_a   8.59838626
_cell_length_b   8.59838586
_cell_length_c   8.58404100
_cell_angle_alpha   79.65645832
_cell_angle_beta   79.65646558
_cell_angle_gamma   100.25321960
_symmetry_Int_Tables_number   1
_chemical_formula_structural   Ce7ErF30
_chemical_formula_sum   'Ce7 Er1 F30'
_cell_volume   599.51016631
_cell_formula_units_Z   1
loop_
 _symmetry_equiv_pos_site_id
 _symmetry_equiv_pos_as_xyz
  1  'x, y, z'
loop_
 _atom_site_type_symbol
 _atom_site_label
 _atom_site_symmetry_multiplicity
 _atom_site_fract_x
 _atom_site_fract_y
 _atom_site_fract_z
 _atom_site_occupancy
  Ce  Ce0  1  0.749577  0.250423  0.250000  1
  Ce  Ce1  1  0.250053  0.749947  0.750000  1
  Ce  Ce2  1  0.753720  0.678633  0.673533  1
  Ce  Ce3  1  0.321367  0.246280  0.826467  1
  Ce  Ce4  1  0.248940  0.322205  0.321900  1
  Ce  Ce5  1  0.677795  0.751060  0.178100  1
  Ce  Ce6  1  0.821656  0.178344  0.750000  1
  Er  Er7  1  0.177912  0.822088  0.250000  1
  F  F8  1  0.322095  0.353158  0.049399  1
  F  F9  1  0.945766  0.817135  0.158079  1
  F  F10  1  0.852813  0.449638  0.679315  1
  F  F11  1  0.447693  0.841023  0.184962  1
  F  F12  1  0.820013  0.950456  0.650430  1
  F  F13  1  0.346653  0.318810  0.553540  1
  F  F14  1  0.681190  0.653347  0.946459  1
  F  F15  1  0.049544  0.179987  0.849570  1
  F  F16  1  0.158977  0.552307  0.315038  1
  F  F17  1  0.550362  0.147187  0.820685  1
  F  F18  1  0.182865  0.054234  0.341921  1
  F  F19  1  0.646842  0.677905  0.450601  1
  F  F20  1  0.774342  0.284544  0.987482  1
  F  F21  1  0.011011  0.277229  0.213691  1
  F  F22  1  0.784836  0.510526  0.223308  1
  F  F23  1  0.512098  0.782735  0.721003  1
  F  F24  1  0.276333  0.011964  0.715077  1
  F  F25  1  0.273590  0.778131  0.490396  1
  F  F26  1  0.221869  0.726410  0.009604  1
  F  F27  1  0.988036  0.723667  0.784923  1
  F  F28  1  0.217265  0.487902  0.778997  1
  F  F29  1  0.489474  0.215164  0.276692  1
  F  F30  1  0.722771  0.988989  0.286309  1
  F  F31  1  0.715456  0.225658  0.512518  1
  F  F32  1  0.470769  0.529231  0.250000  1
  F  F33  1  0.750458  0.966255  0.964921  1
  F  F34  1  0.033745  0.249542  0.535079  1
  F  F35  1  0.250360  0.036388  0.035308  1
  F  F36  1  0.963612  0.749640  0.464692  1
  F  F37  1  0.538141  0.461859  0.750000  1
