# generated using pymatgen
data_Er3AgRu2
_symmetry_space_group_name_H-M   'P 1'
_cell_length_a   3.39512700
_cell_length_b   3.39512700
_cell_length_c   10.84875900
_cell_angle_alpha   90.00000000
_cell_angle_beta   90.00000000
_cell_angle_gamma   90.00000000
_symmetry_Int_Tables_number   1
_chemical_formula_structural   Er3AgRu2
_chemical_formula_sum   'Er3 Ag1 Ru2'
_cell_volume   125.05242284
_cell_formula_units_Z   1
loop_
 _symmetry_equiv_pos_site_id
 _symmetry_equiv_pos_as_xyz
  1  'x, y, z'
loop_
 _atom_site_type_symbol
 _atom_site_label
 _atom_site_symmetry_multiplicity
 _atom_site_fract_x
 _atom_site_fract_y
 _atom_site_fract_z
 _atom_site_occupancy
  Er  Er0  1  0.500000  0.500000  0.000000  1
  Er  Er1  1  0.500000  0.500000  0.305942  1
  Er  Er2  1  0.500000  0.500000  0.694059  1
  Ag  Ag3  1  0.000000  0.000000  0.500000  1
  Ru  Ru4  1  0.000000  0.000000  0.162605  1
  Ru  Ru5  1  0.000000  0.000000  0.837395  1
