# generated using pymatgen
data_Ce2Dy5Er(AlRu)8
_symmetry_space_group_name_H-M   'P 1'
_cell_length_a   4.02895200
_cell_length_b   7.12355585
_cell_length_c   15.93255591
_cell_angle_alpha   90.76223353
_cell_angle_beta   90.00000000
_cell_angle_gamma   90.00000000
_symmetry_Int_Tables_number   1
_chemical_formula_structural   Ce2Dy5Er(AlRu)8
_chemical_formula_sum   'Ce2 Dy5 Er1 Al8 Ru8'
_cell_volume   457.23129274
_cell_formula_units_Z   1
loop_
 _symmetry_equiv_pos_site_id
 _symmetry_equiv_pos_as_xyz
  1  'x, y, z'
loop_
 _atom_site_type_symbol
 _atom_site_label
 _atom_site_symmetry_multiplicity
 _atom_site_fract_x
 _atom_site_fract_y
 _atom_site_fract_z
 _atom_site_occupancy
  Ce  Ce0  1  0.750000  0.327420  0.064409  1
  Ce  Ce1  1  0.250000  0.537271  0.720130  1
  Dy  Dy2  1  0.250000  0.161885  0.560947  1
  Dy  Dy3  1  0.750000  0.842459  0.437535  1
  Dy  Dy4  1  0.750000  0.467247  0.282036  1
  Dy  Dy5  1  0.250000  0.660656  0.938556  1
  Dy  Dy6  1  0.250000  0.039954  0.781709  1
  Er  Er7  1  0.750000  0.959507  0.219333  1
  Al  Al8  1  0.750000  0.503315  0.561501  1
  Al  Al9  1  0.750000  0.362168  0.853253  1
  Al  Al10  1  0.750000  0.991858  0.935063  1
  Al  Al11  1  0.750000  0.872312  0.650761  1
  Al  Al12  1  0.250000  0.500800  0.435365  1
  Al  Al13  1  0.250000  0.988467  0.065509  1
  Al  Al14  1  0.250000  0.638205  0.153152  1
  Al  Al15  1  0.250000  0.132880  0.346188  1
  Ru  Ru16  1  0.750000  0.736164  0.807845  1
  Ru  Ru17  1  0.250000  0.232880  0.941019  1
  Ru  Ru18  1  0.750000  0.263412  0.433498  1
  Ru  Ru19  1  0.250000  0.755778  0.314573  1
  Ru  Ru20  1  0.750000  0.761288  0.065554  1
  Ru  Ru21  1  0.750000  0.262929  0.686629  1
  Ru  Ru22  1  0.250000  0.263485  0.179410  1
  Ru  Ru23  1  0.250000  0.737659  0.566027  1
