# generated using pymatgen
data_Dy5Er(Sc2Pb3)2
_symmetry_space_group_name_H-M   'P 1'
_cell_length_a   8.90486300
_cell_length_b   8.89944112
_cell_length_c   6.36777600
_cell_angle_alpha   90.00000000
_cell_angle_beta   90.00000000
_cell_angle_gamma   120.02015921
_symmetry_Int_Tables_number   1
_chemical_formula_structural   Dy5Er(Sc2Pb3)2
_chemical_formula_sum   'Dy5 Er1 Sc4 Pb6'
_cell_volume   436.93831376
_cell_formula_units_Z   1
loop_
 _symmetry_equiv_pos_site_id
 _symmetry_equiv_pos_as_xyz
  1  'x, y, z'
loop_
 _atom_site_type_symbol
 _atom_site_label
 _atom_site_symmetry_multiplicity
 _atom_site_fract_x
 _atom_site_fract_y
 _atom_site_fract_z
 _atom_site_occupancy
  Dy  Dy0  1  0.238228  0.000000  0.250000  1
  Dy  Dy1  1  0.237931  0.238051  0.750000  1
  Dy  Dy2  1  0.999881  0.761949  0.750000  1
  Dy  Dy3  1  0.999876  0.237957  0.250000  1
  Dy  Dy4  1  0.761919  0.762043  0.250000  1
  Er  Er5  1  0.761830  0.000000  0.750000  1
  Sc  Sc6  1  0.333373  0.666680  0.999962  1
  Sc  Sc7  1  0.666694  0.333320  0.500038  1
  Sc  Sc8  1  0.666694  0.333320  0.999962  1
  Sc  Sc9  1  0.333373  0.666680  0.500038  1
  Pb  Pb10  1  0.600342  0.000000  0.250000  1
  Pb  Pb11  1  0.600617  0.601140  0.750000  1
  Pb  Pb12  1  0.999477  0.398860  0.750000  1
  Pb  Pb13  1  0.999996  0.600354  0.250000  1
  Pb  Pb14  1  0.399641  0.399646  0.250000  1
  Pb  Pb15  1  0.400125  0.000000  0.750000  1
