# generated using pymatgen
data_Ti3Mn4NbAs4
_symmetry_space_group_name_H-M   'P 1'
_cell_length_a   3.61996500
_cell_length_b   6.37267574
_cell_length_c   7.51917143
_cell_angle_alpha   89.80565412
_cell_angle_beta   90.00000000
_cell_angle_gamma   90.00000000
_symmetry_Int_Tables_number   1
_chemical_formula_structural   Ti3Mn4NbAs4
_chemical_formula_sum   'Ti3 Mn4 Nb1 As4'
_cell_volume   173.45773873
_cell_formula_units_Z   1
loop_
 _symmetry_equiv_pos_site_id
 _symmetry_equiv_pos_as_xyz
  1  'x, y, z'
loop_
 _atom_site_type_symbol
 _atom_site_label
 _atom_site_symmetry_multiplicity
 _atom_site_fract_x
 _atom_site_fract_y
 _atom_site_fract_z
 _atom_site_occupancy
  Ti  Ti0  1  0.250000  0.535667  0.674448  1
  Ti  Ti1  1  0.750000  0.460715  0.326639  1
  Ti  Ti2  1  0.250000  0.038233  0.826360  1
  Mn  Mn3  1  0.750000  0.867503  0.558821  1
  Mn  Mn4  1  0.250000  0.134761  0.441643  1
  Mn  Mn5  1  0.750000  0.364785  0.940218  1
  Mn  Mn6  1  0.250000  0.636968  0.058577  1
  Nb  Nb7  1  0.750000  0.961238  0.172150  1
  As  As8  1  0.250000  0.262770  0.133057  1
  As  As9  1  0.750000  0.741800  0.862597  1
  As  As10  1  0.250000  0.750898  0.371789  1
  As  As11  1  0.750000  0.244663  0.633702  1
