# generated using pymatgen
data_Er5In5Ir
_symmetry_space_group_name_H-M   'P 1'
_cell_length_a   3.59488700
_cell_length_b   8.32182127
_cell_length_c   18.44700784
_cell_angle_alpha   88.96655269
_cell_angle_beta   90.00000000
_cell_angle_gamma   90.00000000
_symmetry_Int_Tables_number   1
_chemical_formula_structural   Er5In5Ir
_chemical_formula_sum   'Er10 In10 Ir2'
_cell_volume   551.77105024
_cell_formula_units_Z   2
loop_
 _symmetry_equiv_pos_site_id
 _symmetry_equiv_pos_as_xyz
  1  'x, y, z'
loop_
 _atom_site_type_symbol
 _atom_site_label
 _atom_site_symmetry_multiplicity
 _atom_site_fract_x
 _atom_site_fract_y
 _atom_site_fract_z
 _atom_site_occupancy
  Er  Er0  1  0.000000  0.500000  0.500000  1
  Er  Er1  1  0.000000  0.000000  0.000000  1
  Er  Er2  1  0.000000  0.702210  0.276344  1
  Er  Er3  1  0.000000  0.297790  0.723656  1
  Er  Er4  1  0.000000  0.732850  0.786597  1
  Er  Er5  1  0.000000  0.267150  0.213403  1
  Er  Er6  1  0.000000  0.614247  0.083704  1
  Er  Er7  1  0.000000  0.385753  0.916296  1
  Er  Er8  1  0.000000  0.874457  0.574062  1
  Er  Er9  1  0.000000  0.125543  0.425938  1
  In  In10  1  0.500000  0.707850  0.935011  1
  In  In11  1  0.500000  0.292150  0.064989  1
  In  In12  1  0.500000  0.789250  0.430645  1
  In  In13  1  0.500000  0.210750  0.569355  1
  In  In14  1  0.500000  0.581234  0.646643  1
  In  In15  1  0.500000  0.418766  0.353357  1
  In  In16  1  0.500000  0.914222  0.145377  1
  In  In17  1  0.500000  0.085778  0.854623  1
  In  In18  1  0.500000  0.982344  0.699147  1
  In  In19  1  0.500000  0.017656  0.300853  1
  Ir  Ir20  1  0.500000  0.521204  0.193947  1
  Ir  Ir21  1  0.500000  0.478796  0.806053  1
