# generated using pymatgen
data_LiHf3(Co4P3)2
_symmetry_space_group_name_H-M   'P 1'
_cell_length_a   11.90738361
_cell_length_b   11.95707601
_cell_length_c   3.63026100
_cell_angle_alpha   90.00000000
_cell_angle_beta   90.00000000
_cell_angle_gamma   120.13815202
_symmetry_Int_Tables_number   1
_chemical_formula_structural   LiHf3(Co4P3)2
_chemical_formula_sum   'Li2 Hf6 Co16 P12'
_cell_volume   446.99590616
_cell_formula_units_Z   2
loop_
 _symmetry_equiv_pos_site_id
 _symmetry_equiv_pos_as_xyz
  1  'x, y, z'
loop_
 _atom_site_type_symbol
 _atom_site_label
 _atom_site_symmetry_multiplicity
 _atom_site_fract_x
 _atom_site_fract_y
 _atom_site_fract_z
 _atom_site_occupancy
  Li  Li0  1  0.444065  0.443146  0.000000  1
  Li  Li1  1  0.555935  0.999080  0.000000  1
  Hf  Hf2  1  0.814643  0.813276  0.500000  1
  Hf  Hf3  1  0.000000  0.179957  0.500000  1
  Hf  Hf4  1  0.333893  0.664805  0.000000  1
  Hf  Hf5  1  0.666107  0.330910  0.000000  1
  Hf  Hf6  1  0.000000  0.556270  0.000000  1
  Hf  Hf7  1  0.185357  0.998633  0.500000  1
  Co  Co8  1  0.624737  0.822644  0.000000  1
  Co  Co9  1  0.375263  0.197906  0.000000  1
  Co  Co10  1  0.000000  0.722646  0.500000  1
  Co  Co11  1  0.283283  0.283395  0.500000  1
  Co  Co12  1  0.871851  0.351918  0.500000  1
  Co  Co13  1  0.716717  0.000112  0.500000  1
  Co  Co14  1  0.819367  0.629499  0.000000  1
  Co  Co15  1  0.180633  0.810132  0.000000  1
  Co  Co16  1  0.357125  0.872676  0.500000  1
  Co  Co17  1  0.128149  0.480067  0.500000  1
  Co  Co18  1  0.642875  0.515551  0.500000  1
  Co  Co19  1  0.000000  0.002946  0.000000  1
  Co  Co20  1  0.518875  0.647125  0.500000  1
  Co  Co21  1  0.481125  0.128249  0.500000  1
  Co  Co22  1  0.200221  0.376024  0.000000  1
  Co  Co23  1  0.799779  0.175803  0.000000  1
  P  P24  1  0.000000  0.344384  0.000000  1
  P  P25  1  0.824457  0.515516  0.500000  1
  P  P26  1  0.682574  0.167021  0.500000  1
  P  P27  1  0.178645  0.177413  0.000000  1
  P  P28  1  0.636602  0.640904  0.000000  1
  P  P29  1  0.821355  0.998768  0.000000  1
  P  P30  1  0.516518  0.831052  0.500000  1
  P  P31  1  0.175543  0.691058  0.500000  1
  P  P32  1  0.363398  0.004303  0.000000  1
  P  P33  1  0.483482  0.314535  0.500000  1
  P  P34  1  0.000000  0.827827  0.000000  1
  P  P35  1  0.317426  0.484446  0.500000  1
