# generated using pymatgen
data_Pr4TmP12Ir11Ru8
_symmetry_space_group_name_H-M   'P 1'
_cell_length_a   12.71396516
_cell_length_b   12.68816858
_cell_length_c   4.01353700
_cell_angle_alpha   90.00000000
_cell_angle_beta   90.00000000
_cell_angle_gamma   120.02969115
_symmetry_Int_Tables_number   1
_chemical_formula_structural   Pr4TmP12Ir11Ru8
_chemical_formula_sum   'Pr4 Tm1 P12 Ir11 Ru8'
_cell_volume   560.54159694
_cell_formula_units_Z   1
loop_
 _symmetry_equiv_pos_site_id
 _symmetry_equiv_pos_as_xyz
  1  'x, y, z'
loop_
 _atom_site_type_symbol
 _atom_site_label
 _atom_site_symmetry_multiplicity
 _atom_site_fract_x
 _atom_site_fract_y
 _atom_site_fract_z
 _atom_site_occupancy
  Pr  Pr0  1  0.667181  0.331717  0.000000  1
  Pr  Pr1  1  0.812716  0.001099  0.500000  1
  Pr  Pr2  1  0.185178  0.186417  0.500000  1
  Pr  Pr3  1  0.998818  0.813286  0.500000  1
  Tm  Tm4  1  0.334618  0.669154  0.000000  1
  P  P5  1  0.631068  0.999217  0.000000  1
  P  P6  1  0.366456  0.365678  0.000000  1
  P  P7  1  0.999503  0.632709  0.000000  1
  P  P8  1  0.689105  0.519197  0.500000  1
  P  P9  1  0.830983  0.306966  0.500000  1
  P  P10  1  0.315797  0.831445  0.500000  1
  P  P11  1  0.517448  0.692640  0.500000  1
  P  P12  1  0.181125  0.998961  0.000000  1
  P  P13  1  0.815654  0.817034  0.000000  1
  P  P14  1  0.998423  0.184759  0.000000  1
  P  P15  1  0.478473  0.166276  0.500000  1
  P  P16  1  0.173251  0.483760  0.500000  1
  Ir  Ir17  1  0.619274  0.799865  0.000000  1
  Ir  Ir18  1  0.184794  0.381911  0.000000  1
  Ir  Ir19  1  0.376978  0.179875  0.000000  1
  Ir  Ir20  1  0.195467  0.817313  0.000000  1
  Ir  Ir21  1  0.801773  0.620570  0.000000  1
  Ir  Ir22  1  0.874278  0.509636  0.500000  1
  Ir  Ir23  1  0.489335  0.361463  0.500000  1
  Ir  Ir24  1  0.636017  0.126272  0.500000  1
  Ir  Ir25  1  0.134868  0.640018  0.500000  1
  Ir  Ir26  1  0.364013  0.495286  0.500000  1
  Ir  Ir27  1  0.998774  0.000112  0.000000  1
  Ru  Ru28  1  0.508764  0.870315  0.500000  1
  Ru  Ru29  1  0.708273  0.708572  0.500000  1
  Ru  Ru30  1  0.004007  0.292849  0.500000  1
  Ru  Ru31  1  0.449310  0.997757  0.000000  1
  Ru  Ru32  1  0.546818  0.545689  0.000000  1
  Ru  Ru33  1  0.003660  0.455065  0.000000  1
  Ru  Ru34  1  0.819806  0.198975  0.000000  1
  Ru  Ru35  1  0.287992  0.998138  0.500000  1
