# generated using pymatgen
data_Ba5Ti(I3O2)2
_symmetry_space_group_name_H-M   'P 1'
_cell_length_a   9.72205185
_cell_length_b   9.72205068
_cell_length_c   12.90800768
_cell_angle_alpha   82.53922117
_cell_angle_beta   82.53922950
_cell_angle_gamma   114.54827270
_symmetry_Int_Tables_number   1
_chemical_formula_structural   Ba5Ti(I3O2)2
_chemical_formula_sum   'Ba10 Ti2 I12 O8'
_cell_volume   1077.27966846
_cell_formula_units_Z   2
loop_
 _symmetry_equiv_pos_site_id
 _symmetry_equiv_pos_as_xyz
  1  'x, y, z'
loop_
 _atom_site_type_symbol
 _atom_site_label
 _atom_site_symmetry_multiplicity
 _atom_site_fract_x
 _atom_site_fract_y
 _atom_site_fract_z
 _atom_site_occupancy
  Ba  Ba0  1  0.673526  0.443438  0.507345  1
  Ba  Ba1  1  0.779761  0.220239  0.250000  1
  Ba  Ba2  1  0.749356  0.904730  0.634441  1
  Ba  Ba3  1  0.095270  0.250644  0.865559  1
  Ba  Ba4  1  0.326474  0.556562  0.492655  1
  Ba  Ba5  1  0.220239  0.779761  0.750000  1
  Ba  Ba6  1  0.904730  0.749356  0.134441  1
  Ba  Ba7  1  0.250644  0.095270  0.365559  1
  Ba  Ba8  1  0.443438  0.673526  0.007345  1
  Ba  Ba9  1  0.556562  0.326474  0.992655  1
  Ti  Ti10  1  0.430893  0.569107  0.750000  1
  Ti  Ti11  1  0.569107  0.430893  0.250000  1
  I  I12  1  0.222053  0.152647  0.639250  1
  I  I13  1  0.021309  0.721767  0.547701  1
  I  I14  1  0.721767  0.021309  0.047701  1
  I  I15  1  0.777947  0.847353  0.360750  1
  I  I16  1  0.847353  0.777947  0.860750  1
  I  I17  1  0.750067  0.249933  0.750000  1
  I  I18  1  0.978691  0.278233  0.452299  1
  I  I19  1  0.152647  0.222053  0.139250  1
  I  I20  1  0.249933  0.750067  0.250000  1
  I  I21  1  0.000000  0.500000  0.000000  1
  I  I22  1  0.278233  0.978691  0.952299  1
  I  I23  1  0.500000  0.000000  0.500000  1
  O  O24  1  0.402628  0.440443  0.878155  1
  O  O25  1  0.240284  0.519042  0.717949  1
  O  O26  1  0.559557  0.597372  0.621845  1
  O  O27  1  0.519042  0.240284  0.217949  1
  O  O28  1  0.480958  0.759716  0.782051  1
  O  O29  1  0.440443  0.402628  0.378155  1
  O  O30  1  0.759716  0.480958  0.282051  1
  O  O31  1  0.597372  0.559557  0.121845  1
