# generated using pymatgen
data_TbY4IrRh2
_symmetry_space_group_name_H-M   'P 1'
_cell_length_a   10.96103400
_cell_length_b   10.96103400
_cell_length_c   6.40221200
_cell_angle_alpha   90.00000000
_cell_angle_beta   90.00000000
_cell_angle_gamma   90.00000000
_symmetry_Int_Tables_number   1
_chemical_formula_structural   TbY4IrRh2
_chemical_formula_sum   'Tb4 Y16 Ir4 Rh8'
_cell_volume   769.18906375
_cell_formula_units_Z   4
loop_
 _symmetry_equiv_pos_site_id
 _symmetry_equiv_pos_as_xyz
  1  'x, y, z'
loop_
 _atom_site_type_symbol
 _atom_site_label
 _atom_site_symmetry_multiplicity
 _atom_site_fract_x
 _atom_site_fract_y
 _atom_site_fract_z
 _atom_site_occupancy
  Tb  Tb0  1  0.000000  0.000000  0.500000  1
  Tb  Tb1  1  0.000000  0.000000  0.000000  1
  Tb  Tb2  1  0.500000  0.500000  0.000000  1
  Tb  Tb3  1  0.500000  0.500000  0.500000  1
  Y  Y4  1  0.291518  0.090310  0.379147  1
  Y  Y5  1  0.291518  0.909690  0.879147  1
  Y  Y6  1  0.708482  0.090310  0.879147  1
  Y  Y7  1  0.708482  0.909690  0.379147  1
  Y  Y8  1  0.587930  0.790013  0.879952  1
  Y  Y9  1  0.587930  0.209987  0.379952  1
  Y  Y10  1  0.412070  0.790013  0.379952  1
  Y  Y11  1  0.412070  0.209987  0.879952  1
  Y  Y12  1  0.209987  0.412070  0.620048  1
  Y  Y13  1  0.209987  0.587930  0.120048  1
  Y  Y14  1  0.790013  0.412070  0.120048  1
  Y  Y15  1  0.790013  0.587930  0.620048  1
  Y  Y16  1  0.909690  0.708482  0.120853  1
  Y  Y17  1  0.909690  0.291518  0.620853  1
  Y  Y18  1  0.090310  0.708482  0.620853  1
  Y  Y19  1  0.090310  0.291518  0.120853  1
  Ir  Ir20  1  0.654367  0.345633  0.750000  1
  Ir  Ir21  1  0.654367  0.654367  0.250000  1
  Ir  Ir22  1  0.345633  0.345633  0.250000  1
  Ir  Ir23  1  0.345633  0.654367  0.750000  1
  Rh  Rh24  1  0.847001  0.152999  0.250000  1
  Rh  Rh25  1  0.847001  0.847001  0.750000  1
  Rh  Rh26  1  0.152999  0.152999  0.750000  1
  Rh  Rh27  1  0.152999  0.847001  0.250000  1
  Rh  Rh28  1  0.500000  0.000000  0.125776  1
  Rh  Rh29  1  0.500000  0.000000  0.625776  1
  Rh  Rh30  1  0.000000  0.500000  0.874224  1
  Rh  Rh31  1  0.000000  0.500000  0.374224  1
