# generated using pymatgen
data_Tb4DyGa2Bi
_symmetry_space_group_name_H-M   'P 1'
_cell_length_a   8.78812296
_cell_length_b   8.78812729
_cell_length_c   8.78813481
_cell_angle_alpha   124.94057897
_cell_angle_beta   124.94058042
_cell_angle_gamma   81.63635551
_symmetry_Int_Tables_number   1
_chemical_formula_structural   Tb4DyGa2Bi
_chemical_formula_sum   'Tb8 Dy2 Ga4 Bi2'
_cell_volume   438.93387172
_cell_formula_units_Z   2
loop_
 _symmetry_equiv_pos_site_id
 _symmetry_equiv_pos_as_xyz
  1  'x, y, z'
loop_
 _atom_site_type_symbol
 _atom_site_label
 _atom_site_symmetry_multiplicity
 _atom_site_fract_x
 _atom_site_fract_y
 _atom_site_fract_z
 _atom_site_occupancy
  Tb  Tb0  1  0.293243  0.793243  0.805156  1
  Tb  Tb1  1  0.793243  0.988088  0.500001  1
  Tb  Tb2  1  0.488088  0.293243  0.500000  1
  Tb  Tb3  1  0.206757  0.011912  0.499999  1
  Tb  Tb4  1  0.511912  0.706757  0.500000  1
  Tb  Tb5  1  0.011911  0.511911  0.805156  1
  Tb  Tb6  1  0.706757  0.206757  0.194844  1
  Tb  Tb7  1  0.988089  0.488089  0.194844  1
  Dy  Dy8  1  0.500000  0.500000  0.000000  1
  Dy  Dy9  1  0.000000  0.000000  0.000000  1
  Ga  Ga10  1  0.351311  0.851311  0.202623  1
  Ga  Ga11  1  0.851311  0.648689  0.500000  1
  Ga  Ga12  1  0.148689  0.351311  0.500000  1
  Ga  Ga13  1  0.648689  0.148689  0.797377  1
  Bi  Bi14  1  0.750000  0.750000  0.000000  1
  Bi  Bi15  1  0.250000  0.250000  0.000000  1
