# generated using pymatgen
data_SmPaBiN2
_symmetry_space_group_name_H-M   'P 1'
_cell_length_a   7.38358603
_cell_length_b   7.38358567
_cell_length_c   7.38358516
_cell_angle_alpha   148.66186832
_cell_angle_beta   148.66187125
_cell_angle_gamma   44.90926071
_symmetry_Int_Tables_number   1
_chemical_formula_structural   SmPaBiN2
_chemical_formula_sum   'Sm1 Pa1 Bi1 N2'
_cell_volume   108.54415936
_cell_formula_units_Z   1
loop_
 _symmetry_equiv_pos_site_id
 _symmetry_equiv_pos_as_xyz
  1  'x, y, z'
loop_
 _atom_site_type_symbol
 _atom_site_label
 _atom_site_symmetry_multiplicity
 _atom_site_fract_x
 _atom_site_fract_y
 _atom_site_fract_z
 _atom_site_occupancy
  Sm  Sm0  1  0.335801  0.335801  0.000000  1
  Pa  Pa1  1  0.674978  0.674978  0.000000  1
  Bi  Bi2  1  0.004150  0.004150  0.000000  1
  N  N3  1  0.242537  0.742537  0.500000  1
  N  N4  1  0.742537  0.242537  0.500000  1
