# generated using pymatgen
data_TbYHo2(ReC2)2
_symmetry_space_group_name_H-M   'P 1'
_cell_length_a   5.12175100
_cell_length_b   6.58594600
_cell_length_c   9.86079300
_cell_angle_alpha   90.00000000
_cell_angle_beta   90.00000000
_cell_angle_gamma   90.00000000
_symmetry_Int_Tables_number   1
_chemical_formula_structural   TbYHo2(ReC2)2
_chemical_formula_sum   'Tb2 Y2 Ho4 Re4 C8'
_cell_volume   332.62008368
_cell_formula_units_Z   2
loop_
 _symmetry_equiv_pos_site_id
 _symmetry_equiv_pos_as_xyz
  1  'x, y, z'
loop_
 _atom_site_type_symbol
 _atom_site_label
 _atom_site_symmetry_multiplicity
 _atom_site_fract_x
 _atom_site_fract_y
 _atom_site_fract_z
 _atom_site_occupancy
  Tb  Tb0  1  0.250000  0.467015  0.784245  1
  Tb  Tb1  1  0.750000  0.032985  0.284245  1
  Y  Y2  1  0.250000  0.966795  0.715920  1
  Y  Y3  1  0.750000  0.533205  0.215920  1
  Ho  Ho4  1  0.250000  0.821434  0.057044  1
  Ho  Ho5  1  0.750000  0.678566  0.557044  1
  Ho  Ho6  1  0.250000  0.321927  0.443038  1
  Ho  Ho7  1  0.750000  0.178073  0.943038  1
  Re  Re8  1  0.250000  0.279231  0.133618  1
  Re  Re9  1  0.750000  0.220769  0.633618  1
  Re  Re10  1  0.250000  0.779325  0.366262  1
  Re  Re11  1  0.750000  0.720675  0.866262  1
  C  C12  1  0.250000  0.175246  0.951032  1
  C  C13  1  0.750000  0.824258  0.049015  1
  C  C14  1  0.250000  0.675742  0.549015  1
  C  C15  1  0.750000  0.324754  0.451032  1
  C  C16  1  0.250000  0.046700  0.258976  1
  C  C17  1  0.750000  0.453300  0.758976  1
  C  C18  1  0.250000  0.546541  0.240849  1
  C  C19  1  0.750000  0.953459  0.740849  1
