# generated using pymatgen
data_Li4Pr(ThSn2)2
_symmetry_space_group_name_H-M   'P 1'
_cell_length_a   8.80024912
_cell_length_b   8.80024800
_cell_length_c   8.80025045
_cell_angle_alpha   148.71412516
_cell_angle_beta   131.35412791
_cell_angle_gamma   58.98262570
_symmetry_Int_Tables_number   1
_chemical_formula_structural   Li4Pr(ThSn2)2
_chemical_formula_sum   'Li4 Pr1 Th2 Sn4'
_cell_volume   263.53332958
_cell_formula_units_Z   1
loop_
 _symmetry_equiv_pos_site_id
 _symmetry_equiv_pos_as_xyz
  1  'x, y, z'
loop_
 _atom_site_type_symbol
 _atom_site_label
 _atom_site_symmetry_multiplicity
 _atom_site_fract_x
 _atom_site_fract_y
 _atom_site_fract_z
 _atom_site_occupancy
  Li  Li0  1  0.643108  0.328685  0.314423  1
  Li  Li1  1  0.357719  0.670823  0.686897  1
  Li  Li2  1  0.014261  0.328685  0.685577  1
  Li  Li3  1  0.983928  0.670823  0.313103  1
  Pr  Pr4  1  0.627534  0.127534  0.500000  1
  Th  Th5  1  0.373727  0.873727  0.500000  1
  Th  Th6  1  0.999569  0.999569  0.000000  1
  Sn  Sn7  1  0.216542  0.216542  0.000000  1
  Sn  Sn8  1  0.786244  0.786244  0.000000  1
  Sn  Sn9  1  0.700863  0.498684  0.202179  1
  Sn  Sn10  1  0.296506  0.498684  0.797821  1
