# generated using pymatgen
data_Ba12GaFe3O19
_symmetry_space_group_name_H-M   'P 1'
_cell_length_a   7.89888606
_cell_length_b   7.88494122
_cell_length_c   10.53630100
_cell_angle_alpha   89.63831575
_cell_angle_beta   89.86154213
_cell_angle_gamma   97.01891282
_symmetry_Int_Tables_number   1
_chemical_formula_structural   Ba12GaFe3O19
_chemical_formula_sum   'Ba12 Ga1 Fe3 O19'
_cell_volume   651.29038852
_cell_formula_units_Z   1
loop_
 _symmetry_equiv_pos_site_id
 _symmetry_equiv_pos_as_xyz
  1  'x, y, z'
loop_
 _atom_site_type_symbol
 _atom_site_label
 _atom_site_symmetry_multiplicity
 _atom_site_fract_x
 _atom_site_fract_y
 _atom_site_fract_z
 _atom_site_occupancy
  Ba  Ba0  1  0.733126  0.250920  0.488530  1
  Ba  Ba1  1  0.271323  0.751919  0.018255  1
  Ba  Ba2  1  0.737363  0.265137  0.002301  1
  Ba  Ba3  1  0.257232  0.735854  0.494617  1
  Ba  Ba4  1  0.580122  0.577171  0.249199  1
  Ba  Ba5  1  0.068103  0.069700  0.762286  1
  Ba  Ba6  1  0.423100  0.425371  0.753518  1
  Ba  Ba7  1  0.928260  0.928352  0.237232  1
  Ba  Ba8  1  0.745409  0.751620  0.930308  1
  Ba  Ba9  1  0.263508  0.255997  0.423878  1
  Ba  Ba10  1  0.254234  0.251707  0.073944  1
  Ba  Ba11  1  0.735691  0.739945  0.572388  1
  Ga  Ga12  1  0.503170  0.003026  0.255391  1
  Fe  Fe13  1  0.998468  0.500303  0.744409  1
  Fe  Fe14  1  0.002435  0.499937  0.258092  1
  Fe  Fe15  1  0.495509  0.998406  0.741398  1
  O  O16  1  0.263601  0.959684  0.274531  1
  O  O17  1  0.769539  0.473068  0.775470  1
  O  O18  1  0.539771  0.242412  0.242326  1
  O  O19  1  0.031207  0.728530  0.703044  1
  O  O20  1  0.932217  0.640321  0.388777  1
  O  O21  1  0.422964  0.119049  0.882278  1
  O  O22  1  0.884117  0.572268  0.115436  1
  O  O23  1  0.350850  0.060717  0.610221  1
  O  O24  1  0.241273  0.535651  0.239646  1
  O  O25  1  0.734370  0.043064  0.707068  1
  O  O26  1  0.964752  0.260282  0.294454  1
  O  O27  1  0.464440  0.760787  0.762300  1
  O  O28  1  0.582925  0.893224  0.113267  1
  O  O29  1  0.096643  0.390767  0.616084  1
  O  O30  1  0.630729  0.926535  0.390277  1
  O  O31  1  0.090845  0.397764  0.878465  1
  O  O32  1  0.490183  0.505031  0.000728  1
  O  O33  1  0.006569  0.993995  0.998561  1
  O  O34  1  0.505952  0.491489  0.501313  1
