# generated using pymatgen
data_Ca10MgReN10
_symmetry_space_group_name_H-M   'P 1'
_cell_length_a   6.94605014
_cell_length_b   6.94604979
_cell_length_c   8.91869053
_cell_angle_alpha   81.18857459
_cell_angle_beta   81.18857392
_cell_angle_gamma   60.44239323
_symmetry_Int_Tables_number   1
_chemical_formula_structural   Ca10MgReN10
_chemical_formula_sum   'Ca10 Mg1 Re1 N10'
_cell_volume   368.37699697
_cell_formula_units_Z   1
loop_
 _symmetry_equiv_pos_site_id
 _symmetry_equiv_pos_as_xyz
  1  'x, y, z'
loop_
 _atom_site_type_symbol
 _atom_site_label
 _atom_site_symmetry_multiplicity
 _atom_site_fract_x
 _atom_site_fract_y
 _atom_site_fract_z
 _atom_site_occupancy
  Ca  Ca0  1  0.883084  0.366792  0.833120  1
  Ca  Ca1  1  0.874111  0.874111  0.818344  1
  Ca  Ca2  1  0.738084  0.738084  0.532723  1
  Ca  Ca3  1  0.738278  0.263998  0.522332  1
  Ca  Ca4  1  0.614851  0.139022  0.138307  1
  Ca  Ca5  1  0.366792  0.883084  0.833120  1
  Ca  Ca6  1  0.263998  0.738278  0.522332  1
  Ca  Ca7  1  0.249716  0.249716  0.503588  1
  Ca  Ca8  1  0.136805  0.136805  0.161994  1
  Ca  Ca9  1  0.139022  0.614851  0.138307  1
  Mg  Mg10  1  0.372924  0.372924  0.781018  1
  Re  Re11  1  0.629164  0.629164  0.228434  1
  N  N12  1  0.899425  0.472809  0.314637  1
  N  N13  1  0.987841  0.987841  0.026618  1
  N  N14  1  0.674119  0.674119  0.022421  1
  N  N15  1  0.553750  0.553750  0.685911  1
  N  N16  1  0.472809  0.899425  0.314637  1
  N  N17  1  0.556442  0.069059  0.659044  1
  N  N18  1  0.472580  0.472580  0.294723  1
  N  N19  1  0.304597  0.304597  0.007051  1
  N  N20  1  0.064836  0.064836  0.648102  1
  N  N21  1  0.069059  0.556442  0.659044  1
