# generated using pymatgen
data_HoZr4Pd15
_symmetry_space_group_name_H-M   'P 1'
_cell_length_a   4.05400500
_cell_length_b   4.05400500
_cell_length_c   20.27490700
_cell_angle_alpha   90.00000000
_cell_angle_beta   90.00000000
_cell_angle_gamma   90.00000000
_symmetry_Int_Tables_number   1
_chemical_formula_structural   HoZr4Pd15
_chemical_formula_sum   'Ho1 Zr4 Pd15'
_cell_volume   333.21721540
_cell_formula_units_Z   1
loop_
 _symmetry_equiv_pos_site_id
 _symmetry_equiv_pos_as_xyz
  1  'x, y, z'
loop_
 _atom_site_type_symbol
 _atom_site_label
 _atom_site_symmetry_multiplicity
 _atom_site_fract_x
 _atom_site_fract_y
 _atom_site_fract_z
 _atom_site_occupancy
  Ho  Ho0  1  0.000000  0.000000  0.000000  1
  Zr  Zr1  1  0.000000  0.000000  0.198553  1
  Zr  Zr2  1  0.000000  0.000000  0.399294  1
  Zr  Zr3  1  0.000000  0.000000  0.600706  1
  Zr  Zr4  1  0.000000  0.000000  0.801447  1
  Pd  Pd5  1  0.500000  0.500000  0.000000  1
  Pd  Pd6  1  0.500000  0.500000  0.201883  1
  Pd  Pd7  1  0.500000  0.500000  0.400468  1
  Pd  Pd8  1  0.500000  0.500000  0.599532  1
  Pd  Pd9  1  0.500000  0.500000  0.798117  1
  Pd  Pd10  1  0.500000  0.000000  0.103213  1
  Pd  Pd11  1  0.500000  0.000000  0.300679  1
  Pd  Pd12  1  0.500000  0.000000  0.500000  1
  Pd  Pd13  1  0.500000  0.000000  0.699321  1
  Pd  Pd14  1  0.500000  0.000000  0.896787  1
  Pd  Pd15  1  0.000000  0.500000  0.103213  1
  Pd  Pd16  1  0.000000  0.500000  0.300679  1
  Pd  Pd17  1  0.000000  0.500000  0.500000  1
  Pd  Pd18  1  0.000000  0.500000  0.699321  1
  Pd  Pd19  1  0.000000  0.500000  0.896787  1
