# generated using pymatgen
data_CeRhF7
_symmetry_space_group_name_H-M   'P 1'
_cell_length_a   5.72183200
_cell_length_b   5.99370228
_cell_length_c   8.18907584
_cell_angle_alpha   78.78193020
_cell_angle_beta   90.00000000
_cell_angle_gamma   90.00000000
_symmetry_Int_Tables_number   1
_chemical_formula_structural   CeRhF7
_chemical_formula_sum   'Ce2 Rh2 F14'
_cell_volume   275.47816008
_cell_formula_units_Z   2
loop_
 _symmetry_equiv_pos_site_id
 _symmetry_equiv_pos_as_xyz
  1  'x, y, z'
loop_
 _atom_site_type_symbol
 _atom_site_label
 _atom_site_symmetry_multiplicity
 _atom_site_fract_x
 _atom_site_fract_y
 _atom_site_fract_z
 _atom_site_occupancy
  Ce  Ce0  1  0.245561  0.832750  0.195753  1
  Ce  Ce1  1  0.745561  0.167250  0.804247  1
  Rh  Rh2  1  0.753140  0.308610  0.272377  1
  Rh  Rh3  1  0.253140  0.691390  0.727623  1
  F  F4  1  0.468069  0.432216  0.731773  1
  F  F5  1  0.039206  0.955739  0.709505  1
  F  F6  1  0.992468  0.469473  0.738457  1
  F  F7  1  0.029776  0.106202  0.287714  1
  F  F8  1  0.968069  0.567784  0.268227  1
  F  F9  1  0.422727  0.053447  0.979861  1
  F  F10  1  0.922727  0.946553  0.020139  1
  F  F11  1  0.249169  0.736435  0.481283  1
  F  F12  1  0.529776  0.893798  0.712286  1
  F  F13  1  0.539206  0.044261  0.290495  1
  F  F14  1  0.492468  0.530527  0.261543  1
  F  F15  1  0.749169  0.263565  0.518717  1
  F  F16  1  0.759686  0.366291  0.025681  1
  F  F17  1  0.259686  0.633709  0.974319  1
