# generated using pymatgen
data_Sc12Co3Si12Os
_symmetry_space_group_name_H-M   'P 1'
_cell_length_a   4.00798900
_cell_length_b   10.07436150
_cell_length_c   11.63397518
_cell_angle_alpha   89.78013257
_cell_angle_beta   90.00000000
_cell_angle_gamma   90.00000000
_symmetry_Int_Tables_number   1
_chemical_formula_structural   Sc12Co3Si12Os
_chemical_formula_sum   'Sc12 Co3 Si12 Os1'
_cell_volume   469.75237769
_cell_formula_units_Z   1
loop_
 _symmetry_equiv_pos_site_id
 _symmetry_equiv_pos_as_xyz
  1  'x, y, z'
loop_
 _atom_site_type_symbol
 _atom_site_label
 _atom_site_symmetry_multiplicity
 _atom_site_fract_x
 _atom_site_fract_y
 _atom_site_fract_z
 _atom_site_occupancy
  Sc  Sc0  1  0.250000  0.879924  0.022545  1
  Sc  Sc1  1  0.250000  0.617782  0.522946  1
  Sc  Sc2  1  0.750000  0.122736  0.977951  1
  Sc  Sc3  1  0.750000  0.379589  0.474630  1
  Sc  Sc4  1  0.250000  0.919565  0.603066  1
  Sc  Sc5  1  0.250000  0.579138  0.101238  1
  Sc  Sc6  1  0.750000  0.079561  0.399930  1
  Sc  Sc7  1  0.750000  0.420834  0.901722  1
  Sc  Sc8  1  0.250000  0.652055  0.799185  1
  Sc  Sc9  1  0.250000  0.842374  0.300114  1
  Sc  Sc10  1  0.750000  0.342373  0.200195  1
  Sc  Sc11  1  0.750000  0.165106  0.699711  1
  Co  Co12  1  0.250000  0.388714  0.675154  1
  Co  Co13  1  0.250000  0.111077  0.177535  1
  Co  Co14  1  0.750000  0.609789  0.322944  1
  Si  Si15  1  0.250000  0.015853  0.820903  1
  Si  Si16  1  0.250000  0.493556  0.320732  1
  Si  Si17  1  0.750000  0.993962  0.179826  1
  Si  Si18  1  0.750000  0.502501  0.678317  1
  Si  Si19  1  0.250000  0.257110  0.838572  1
  Si  Si20  1  0.250000  0.247442  0.337325  1
  Si  Si21  1  0.750000  0.747601  0.163144  1
  Si  Si22  1  0.750000  0.745993  0.657931  1
  Si  Si23  1  0.250000  0.198797  0.545373  1
  Si  Si24  1  0.250000  0.301578  0.047071  1
  Si  Si25  1  0.750000  0.799364  0.452706  1
  Si  Si26  1  0.750000  0.695594  0.956288  1
  Os  Os27  1  0.750000  0.890029  0.822949  1
