# generated using pymatgen
data_Dy6Er2Ti11Si16Pt
_symmetry_space_group_name_H-M   'P 1'
_cell_length_a   7.05269085
_cell_length_b   7.05177576
_cell_length_c   12.84755605
_cell_angle_alpha   90.15843135
_cell_angle_beta   89.83510076
_cell_angle_gamma   89.67513361
_symmetry_Int_Tables_number   1
_chemical_formula_structural   Dy6Er2Ti11Si16Pt
_chemical_formula_sum   'Dy6 Er2 Ti11 Si16 Pt1'
_cell_volume   638.94489115
_cell_formula_units_Z   1
loop_
 _symmetry_equiv_pos_site_id
 _symmetry_equiv_pos_as_xyz
  1  'x, y, z'
loop_
 _atom_site_type_symbol
 _atom_site_label
 _atom_site_symmetry_multiplicity
 _atom_site_fract_x
 _atom_site_fract_y
 _atom_site_fract_z
 _atom_site_occupancy
  Dy  Dy0  1  0.340978  0.002745  0.467515  1
  Dy  Dy1  1  0.497137  0.842073  0.717867  1
  Dy  Dy2  1  0.500951  0.156782  0.214050  1
  Dy  Dy3  1  0.842447  0.497010  0.282106  1
  Dy  Dy4  1  0.156659  0.501411  0.785406  1
  Dy  Dy5  1  0.655600  0.999253  0.968339  1
  Er  Er6  1  0.001845  0.341291  0.532782  1
  Er  Er7  1  0.999415  0.655758  0.031750  1
  Ti  Ti8  1  0.175661  0.825698  0.248004  1
  Ti  Ti9  1  0.826110  0.175863  0.752067  1
  Ti  Ti10  1  0.672303  0.671871  0.500067  1
  Ti  Ti11  1  0.149884  0.004615  0.877241  1
  Ti  Ti12  1  0.494997  0.653449  0.125256  1
  Ti  Ti13  1  0.507495  0.351036  0.627685  1
  Ti  Ti14  1  0.654343  0.495096  0.875003  1
  Ti  Ti15  1  0.351049  0.507158  0.372156  1
  Ti  Ti16  1  0.850379  0.994151  0.375162  1
  Ti  Ti17  1  0.004698  0.149284  0.122962  1
  Ti  Ti18  1  0.994178  0.850130  0.624948  1
  Si  Si19  1  0.201115  0.133762  0.685739  1
  Si  Si20  1  0.371693  0.708181  0.933092  1
  Si  Si21  1  0.631569  0.294944  0.433458  1
  Si  Si22  1  0.711072  0.373079  0.067360  1
  Si  Si23  1  0.294242  0.630120  0.566714  1
  Si  Si24  1  0.798701  0.866225  0.183403  1
  Si  Si25  1  0.133304  0.202065  0.314190  1
  Si  Si26  1  0.866972  0.798307  0.816468  1
  Si  Si27  1  0.284838  0.942586  0.064137  1
  Si  Si28  1  0.547711  0.790868  0.314539  1
  Si  Si29  1  0.449115  0.210369  0.815914  1
  Si  Si30  1  0.791201  0.547034  0.685319  1
  Si  Si31  1  0.209614  0.449299  0.183519  1
  Si  Si32  1  0.709789  0.049188  0.565246  1
  Si  Si33  1  0.945142  0.286428  0.936096  1
  Si  Si34  1  0.048457  0.708451  0.435131  1
  Pt  Pt35  1  0.329339  0.334422  0.999311  1
