# generated using pymatgen
data_Rb4NpPaTe6
_symmetry_space_group_name_H-M   'P 1'
_cell_length_a   8.29796162
_cell_length_b   8.29796261
_cell_length_c   8.94525158
_cell_angle_alpha   80.97336002
_cell_angle_beta   80.97335848
_cell_angle_gamma   120.05400494
_symmetry_Int_Tables_number   1
_chemical_formula_structural   Rb4NpPaTe6
_chemical_formula_sum   'Rb4 Np1 Pa1 Te6'
_cell_volume   506.15392448
_cell_formula_units_Z   1
loop_
 _symmetry_equiv_pos_site_id
 _symmetry_equiv_pos_as_xyz
  1  'x, y, z'
loop_
 _atom_site_type_symbol
 _atom_site_label
 _atom_site_symmetry_multiplicity
 _atom_site_fract_x
 _atom_site_fract_y
 _atom_site_fract_z
 _atom_site_occupancy
  Rb  Rb0  1  0.500019  0.499981  0.000000  1
  Rb  Rb1  1  0.653929  0.346071  0.500000  1
  Rb  Rb2  1  0.345599  0.654401  0.500000  1
  Rb  Rb3  1  0.000129  0.999871  0.500000  1
  Np  Np4  1  0.167568  0.832432  0.000000  1
  Pa  Pa5  1  0.832172  0.167828  0.000000  1
  Te  Te6  1  0.803030  0.813711  0.201855  1
  Te  Te7  1  0.186289  0.196970  0.798145  1
  Te  Te8  1  0.441677  0.057697  0.204574  1
  Te  Te9  1  0.581990  0.954704  0.795563  1
  Te  Te10  1  0.942303  0.558323  0.795426  1
  Te  Te11  1  0.045296  0.418010  0.204437  1
