# generated using pymatgen
data_Sr3Nd(Al3Pt)6
_symmetry_space_group_name_H-M   'P 1'
_cell_length_a   7.70533350
_cell_length_b   7.70653738
_cell_length_c   9.65745800
_cell_angle_alpha   90.00000000
_cell_angle_beta   90.00000000
_cell_angle_gamma   119.53675914
_symmetry_Int_Tables_number   1
_chemical_formula_structural   Sr3Nd(Al3Pt)6
_chemical_formula_sum   'Sr3 Nd1 Al18 Pt6'
_cell_volume   498.94488462
_cell_formula_units_Z   1
loop_
 _symmetry_equiv_pos_site_id
 _symmetry_equiv_pos_as_xyz
  1  'x, y, z'
loop_
 _atom_site_type_symbol
 _atom_site_label
 _atom_site_symmetry_multiplicity
 _atom_site_fract_x
 _atom_site_fract_y
 _atom_site_fract_z
 _atom_site_occupancy
  Sr  Sr0  1  0.004092  0.328929  0.750000  1
  Sr  Sr1  1  0.669900  0.995742  0.250000  1
  Sr  Sr2  1  0.330301  0.005366  0.750000  1
  Nd  Nd3  1  0.996535  0.669862  0.250000  1
  Al  Al4  1  0.134182  0.131252  0.250000  1
  Al  Al5  1  0.864796  0.864346  0.750000  1
  Al  Al6  1  0.001970  0.334948  0.075529  1
  Al  Al7  1  0.997893  0.665368  0.927187  1
  Al  Al8  1  0.997893  0.665368  0.572813  1
  Al  Al9  1  0.334327  0.001821  0.424411  1
  Al  Al10  1  0.001970  0.334948  0.424471  1
  Al  Al11  1  0.665167  0.997225  0.573103  1
  Al  Al12  1  0.665167  0.997225  0.926897  1
  Al  Al13  1  0.334327  0.001821  0.075589  1
  Al  Al14  1  0.334685  0.334805  0.549566  1
  Al  Al15  1  0.666505  0.665882  0.446777  1
  Al  Al16  1  0.666505  0.665882  0.053223  1
  Al  Al17  1  0.334685  0.334805  0.950434  1
  Al  Al18  1  0.337016  0.542294  0.250000  1
  Al  Al19  1  0.659461  0.457997  0.750000  1
  Al  Al20  1  0.546394  0.345336  0.250000  1
  Al  Al21  1  0.456455  0.659231  0.750000  1
  Pt  Pt22  1  0.670868  0.329955  0.000597  1
  Pt  Pt23  1  0.329260  0.670564  0.000944  1
  Pt  Pt24  1  0.329260  0.670564  0.499056  1
  Pt  Pt25  1  0.670868  0.329955  0.499403  1
  Pt  Pt26  1  0.999760  0.999253  0.000988  1
  Pt  Pt27  1  0.999760  0.999253  0.499012  1
