# generated using pymatgen
data_ErZrTa3Si4
_symmetry_space_group_name_H-M   'P 1'
_cell_length_a   6.94775133
_cell_length_b   6.94804312
_cell_length_c   12.85583470
_cell_angle_alpha   89.96366404
_cell_angle_beta   90.04638308
_cell_angle_gamma   89.88066414
_symmetry_Int_Tables_number   1
_chemical_formula_structural   ErZrTa3Si4
_chemical_formula_sum   'Er4 Zr4 Ta12 Si16'
_cell_volume   620.59158011
_cell_formula_units_Z   4
loop_
 _symmetry_equiv_pos_site_id
 _symmetry_equiv_pos_as_xyz
  1  'x, y, z'
loop_
 _atom_site_type_symbol
 _atom_site_label
 _atom_site_symmetry_multiplicity
 _atom_site_fract_x
 _atom_site_fract_y
 _atom_site_fract_z
 _atom_site_occupancy
  Er  Er0  1  0.997982  0.658561  0.031716  1
  Er  Er1  1  0.003125  0.338904  0.530693  1
  Er  Er2  1  0.660099  0.997662  0.969847  1
  Er  Er3  1  0.161257  0.502554  0.780593  1
  Zr  Zr4  1  0.842364  0.502099  0.282515  1
  Zr  Zr5  1  0.498313  0.159648  0.219135  1
  Zr  Zr6  1  0.503731  0.844629  0.717374  1
  Zr  Zr7  1  0.344025  0.997269  0.468111  1
  Ta  Ta8  1  0.347977  0.507026  0.374872  1
  Ta  Ta9  1  0.845916  0.996714  0.373446  1
  Ta  Ta10  1  0.005693  0.153596  0.128351  1
  Ta  Ta11  1  0.992473  0.847705  0.623829  1
  Ta  Ta12  1  0.651194  0.492500  0.875160  1
  Ta  Ta13  1  0.503352  0.345964  0.622066  1
  Ta  Ta14  1  0.494791  0.651379  0.126816  1
  Ta  Ta15  1  0.154034  0.003602  0.873187  1
  Ta  Ta16  1  0.667908  0.672300  0.499187  1
  Ta  Ta17  1  0.828164  0.167091  0.749008  1
  Ta  Ta18  1  0.169570  0.831245  0.251158  1
  Ta  Ta19  1  0.330460  0.329409  0.001357  1
  Si  Si20  1  0.044280  0.704634  0.436167  1
  Si  Si21  1  0.956080  0.294719  0.936765  1
  Si  Si22  1  0.700776  0.045529  0.562672  1
  Si  Si23  1  0.202563  0.455205  0.187379  1
  Si  Si24  1  0.794232  0.543132  0.685925  1
  Si  Si25  1  0.455829  0.200841  0.813338  1
  Si  Si26  1  0.544354  0.799720  0.313829  1
  Si  Si27  1  0.297244  0.956603  0.064604  1
  Si  Si28  1  0.863069  0.794126  0.818031  1
  Si  Si29  1  0.136770  0.206765  0.321574  1
  Si  Si30  1  0.792255  0.866437  0.181384  1
  Si  Si31  1  0.296315  0.639063  0.570343  1
  Si  Si32  1  0.705194  0.363771  0.073056  1
  Si  Si33  1  0.633348  0.293793  0.426826  1
  Si  Si34  1  0.366379  0.705244  0.930696  1
  Si  Si35  1  0.208887  0.130562  0.678987  1
