# generated using pymatgen
data_Ho8SnPd23Pt
_symmetry_space_group_name_H-M   'P 1'
_cell_length_a   8.38147600
_cell_length_b   8.37336100
_cell_length_c   8.37336100
_cell_angle_alpha   90.00000000
_cell_angle_beta   90.00000000
_cell_angle_gamma   90.00000000
_symmetry_Int_Tables_number   1
_chemical_formula_structural   Ho8SnPd23Pt
_chemical_formula_sum   'Ho8 Sn1 Pd23 Pt1'
_cell_volume   587.65188882
_cell_formula_units_Z   1
loop_
 _symmetry_equiv_pos_site_id
 _symmetry_equiv_pos_as_xyz
  1  'x, y, z'
loop_
 _atom_site_type_symbol
 _atom_site_label
 _atom_site_symmetry_multiplicity
 _atom_site_fract_x
 _atom_site_fract_y
 _atom_site_fract_z
 _atom_site_occupancy
  Ho  Ho0  1  0.252800  0.253246  0.253246  1
  Ho  Ho1  1  0.747214  0.747165  0.747165  1
  Ho  Ho2  1  0.747214  0.747165  0.252835  1
  Ho  Ho3  1  0.747214  0.252835  0.747165  1
  Ho  Ho4  1  0.252800  0.253246  0.746754  1
  Ho  Ho5  1  0.252800  0.746754  0.253246  1
  Ho  Ho6  1  0.252800  0.746754  0.746754  1
  Ho  Ho7  1  0.747214  0.252835  0.252835  1
  Sn  Sn8  1  0.000110  0.000000  0.000000  1
  Pd  Pd9  1  0.265250  0.500000  0.000000  1
  Pd  Pd10  1  0.734697  0.500000  0.000000  1
  Pd  Pd11  1  0.999977  0.265194  0.500000  1
  Pd  Pd12  1  0.500071  0.265179  0.000000  1
  Pd  Pd13  1  0.999977  0.734806  0.500000  1
  Pd  Pd14  1  0.500071  0.734821  0.000000  1
  Pd  Pd15  1  0.500071  0.000000  0.265179  1
  Pd  Pd16  1  0.265250  0.000000  0.500000  1
  Pd  Pd17  1  0.500071  0.000000  0.734821  1
  Pd  Pd18  1  0.734697  0.000000  0.500000  1
  Pd  Pd19  1  0.999977  0.500000  0.265194  1
  Pd  Pd20  1  0.999977  0.500000  0.734806  1
  Pd  Pd21  1  0.744868  0.500000  0.500000  1
  Pd  Pd22  1  0.500007  0.255140  0.500000  1
  Pd  Pd23  1  0.500007  0.744860  0.500000  1
  Pd  Pd24  1  0.500007  0.500000  0.255140  1
  Pd  Pd25  1  0.500007  0.500000  0.744860  1
  Pd  Pd26  1  0.307832  0.000000  0.000000  1
  Pd  Pd27  1  0.692294  0.000000  0.000000  1
  Pd  Pd28  1  0.999926  0.307713  0.000000  1
  Pd  Pd29  1  0.999926  0.692287  0.000000  1
  Pd  Pd30  1  0.999926  0.000000  0.307713  1
  Pd  Pd31  1  0.999926  0.000000  0.692287  1
  Pt  Pt32  1  0.255025  0.500000  0.500000  1
