# generated using pymatgen
data_Th5Ti(GePd)6
_symmetry_space_group_name_H-M   'P 1'
_cell_length_a   4.44141000
_cell_length_b   7.67611530
_cell_length_c   22.65634400
_cell_angle_alpha   90.09829562
_cell_angle_beta   90.00000000
_cell_angle_gamma   90.00000000
_symmetry_Int_Tables_number   1
_chemical_formula_structural   Th5Ti(GePd)6
_chemical_formula_sum   'Th10 Ti2 Ge12 Pd12'
_cell_volume   772.41650701
_cell_formula_units_Z   2
loop_
 _symmetry_equiv_pos_site_id
 _symmetry_equiv_pos_as_xyz
  1  'x, y, z'
loop_
 _atom_site_type_symbol
 _atom_site_label
 _atom_site_symmetry_multiplicity
 _atom_site_fract_x
 _atom_site_fract_y
 _atom_site_fract_z
 _atom_site_occupancy
  Th  Th0  1  0.250000  0.751426  0.347302  1
  Th  Th1  1  0.750000  0.248574  0.652698  1
  Th  Th2  1  0.750000  0.249533  0.173938  1
  Th  Th3  1  0.250000  0.750467  0.826062  1
  Th  Th4  1  0.250000  0.754651  0.174055  1
  Th  Th5  1  0.750000  0.245349  0.825945  1
  Th  Th6  1  0.750000  0.252910  0.347789  1
  Th  Th7  1  0.250000  0.747090  0.652211  1
  Th  Th8  1  0.250000  0.746571  0.000159  1
  Th  Th9  1  0.750000  0.253429  0.999841  1
  Ti  Ti10  1  0.750000  0.248086  0.500639  1
  Ti  Ti11  1  0.250000  0.751914  0.499361  1
  Ge  Ge12  1  0.250000  0.084575  0.081591  1
  Ge  Ge13  1  0.750000  0.915425  0.918409  1
  Ge  Ge14  1  0.750000  0.584357  0.432048  1
  Ge  Ge15  1  0.250000  0.415643  0.567952  1
  Ge  Ge16  1  0.250000  0.086432  0.259653  1
  Ge  Ge17  1  0.750000  0.913568  0.740347  1
  Ge  Ge18  1  0.750000  0.585770  0.258455  1
  Ge  Ge19  1  0.250000  0.414230  0.741545  1
  Ge  Ge20  1  0.250000  0.085805  0.432576  1
  Ge  Ge21  1  0.750000  0.914195  0.567424  1
  Ge  Ge22  1  0.750000  0.584108  0.083679  1
  Ge  Ge23  1  0.250000  0.415892  0.916321  1
  Pd  Pd24  1  0.250000  0.419724  0.261847  1
  Pd  Pd25  1  0.750000  0.580276  0.738153  1
  Pd  Pd26  1  0.750000  0.919295  0.263420  1
  Pd  Pd27  1  0.250000  0.080705  0.736580  1
  Pd  Pd28  1  0.250000  0.419494  0.446410  1
  Pd  Pd29  1  0.750000  0.580506  0.553590  1
  Pd  Pd30  1  0.750000  0.918377  0.090095  1
  Pd  Pd31  1  0.250000  0.081623  0.909905  1
  Pd  Pd32  1  0.250000  0.417775  0.092531  1
  Pd  Pd33  1  0.750000  0.582225  0.907469  1
  Pd  Pd34  1  0.750000  0.917940  0.444744  1
  Pd  Pd35  1  0.250000  0.082060  0.555256  1
