# generated using pymatgen
data_Cs2KHoAs2
_symmetry_space_group_name_H-M   'P 1'
_cell_length_a   9.89889447
_cell_length_b   9.89889373
_cell_length_c   9.89889456
_cell_angle_alpha   132.18954738
_cell_angle_beta   66.74859779
_cell_angle_gamma   136.31773855
_symmetry_Int_Tables_number   1
_chemical_formula_structural   Cs2KHoAs2
_chemical_formula_sum   'Cs4 K2 Ho2 As4'
_cell_volume   488.46666632
_cell_formula_units_Z   2
loop_
 _symmetry_equiv_pos_site_id
 _symmetry_equiv_pos_as_xyz
  1  'x, y, z'
loop_
 _atom_site_type_symbol
 _atom_site_label
 _atom_site_symmetry_multiplicity
 _atom_site_fract_x
 _atom_site_fract_y
 _atom_site_fract_z
 _atom_site_occupancy
  Cs  Cs0  1  0.815718  0.236212  0.051930  1
  Cs  Cs1  1  0.684282  0.736212  0.420494  1
  Cs  Cs2  1  0.315718  0.263788  0.579507  1
  Cs  Cs3  1  0.184282  0.763788  0.948070  1
  K  K4  1  0.749999  0.249999  0.500000  1
  K  K5  1  0.249999  0.749999  0.500000  1
  Ho  Ho6  1  0.249999  0.249999  0.000000  1
  Ho  Ho7  1  0.750000  0.750000  0.000000  1
  As  As8  1  0.409119  0.695550  0.104668  1
  As  As9  1  0.090881  0.195549  0.286430  1
  As  As10  1  0.909119  0.804451  0.713570  1
  As  As11  1  0.590881  0.304451  0.895332  1
