# generated using pymatgen
data_KLaTiS4
_symmetry_space_group_name_H-M   'P 1'
_cell_length_a   6.89387262
_cell_length_b   6.83231700
_cell_length_c   8.87110731
_cell_angle_alpha   90.00000000
_cell_angle_beta   107.88191285
_cell_angle_gamma   90.00000000
_symmetry_Int_Tables_number   1
_chemical_formula_structural   KLaTiS4
_chemical_formula_sum   'K2 La2 Ti2 S8'
_cell_volume   397.65388755
_cell_formula_units_Z   2
loop_
 _symmetry_equiv_pos_site_id
 _symmetry_equiv_pos_as_xyz
  1  'x, y, z'
loop_
 _atom_site_type_symbol
 _atom_site_label
 _atom_site_symmetry_multiplicity
 _atom_site_fract_x
 _atom_site_fract_y
 _atom_site_fract_z
 _atom_site_occupancy
  K  K0  1  0.280064  0.028344  0.067967  1
  K  K1  1  0.719935  0.528345  0.932032  1
  La  La2  1  0.773900  0.503952  0.447589  1
  La  La3  1  0.226100  0.003951  0.552412  1
  Ti  Ti4  1  0.221821  0.534200  0.316566  1
  Ti  Ti5  1  0.778178  0.034201  0.683433  1
  S  S6  1  0.425934  0.537857  0.161746  1
  S  S7  1  0.985698  0.773988  0.275250  1
  S  S8  1  0.016047  0.266930  0.292784  1
  S  S9  1  0.578346  0.087729  0.433611  1
  S  S10  1  0.421653  0.587728  0.566388  1
  S  S11  1  0.983954  0.766930  0.707217  1
  S  S12  1  0.014301  0.273987  0.724750  1
  S  S13  1  0.574066  0.037857  0.838253  1
