# generated using pymatgen
data_Pa3InCo6
_symmetry_space_group_name_H-M   'P 1'
_cell_length_a   5.33990100
_cell_length_b   7.33929200
_cell_length_c   8.36843600
_cell_angle_alpha   90.00000000
_cell_angle_beta   90.00000000
_cell_angle_gamma   90.00000000
_symmetry_Int_Tables_number   1
_chemical_formula_structural   Pa3InCo6
_chemical_formula_sum   'Pa6 In2 Co12'
_cell_volume   327.96815095
_cell_formula_units_Z   2
loop_
 _symmetry_equiv_pos_site_id
 _symmetry_equiv_pos_as_xyz
  1  'x, y, z'
loop_
 _atom_site_type_symbol
 _atom_site_label
 _atom_site_symmetry_multiplicity
 _atom_site_fract_x
 _atom_site_fract_y
 _atom_site_fract_z
 _atom_site_occupancy
  Pa  Pa0  1  0.750000  0.895099  0.855903  1
  Pa  Pa1  1  0.750000  0.395099  0.644097  1
  Pa  Pa2  1  0.250000  0.099240  0.147569  1
  Pa  Pa3  1  0.250000  0.599240  0.352431  1
  Pa  Pa4  1  0.750000  0.939471  0.413512  1
  Pa  Pa5  1  0.750000  0.439471  0.086488  1
  In  In6  1  0.250000  0.066921  0.610598  1
  In  In7  1  0.250000  0.566921  0.889402  1
  Co  Co8  1  0.750000  0.581244  0.364413  1
  Co  Co9  1  0.750000  0.081244  0.135587  1
  Co  Co10  1  0.250000  0.420263  0.607246  1
  Co  Co11  1  0.250000  0.920263  0.892754  1
  Co  Co12  1  0.997387  0.261560  0.372782  1
  Co  Co13  1  0.502613  0.761560  0.127218  1
  Co  Co14  1  0.498197  0.737322  0.613765  1
  Co  Co15  1  0.001803  0.237322  0.886235  1
  Co  Co16  1  0.001803  0.737322  0.613765  1
  Co  Co17  1  0.498197  0.237322  0.886235  1
  Co  Co18  1  0.502613  0.261560  0.372782  1
  Co  Co19  1  0.997387  0.761560  0.127218  1
