# generated using pymatgen
data_Ho10In8CuPt2Rh
_symmetry_space_group_name_H-M   'P 1'
_cell_length_a   3.62146100
_cell_length_b   8.10148182
_cell_length_c   18.15818045
_cell_angle_alpha   89.99963276
_cell_angle_beta   90.00000000
_cell_angle_gamma   90.00000000
_symmetry_Int_Tables_number   1
_chemical_formula_structural   Ho10In8CuPt2Rh
_chemical_formula_sum   'Ho10 In8 Cu1 Pt2 Rh1'
_cell_volume   532.74649589
_cell_formula_units_Z   1
loop_
 _symmetry_equiv_pos_site_id
 _symmetry_equiv_pos_as_xyz
  1  'x, y, z'
loop_
 _atom_site_type_symbol
 _atom_site_label
 _atom_site_symmetry_multiplicity
 _atom_site_fract_x
 _atom_site_fract_y
 _atom_site_fract_z
 _atom_site_occupancy
  Ho  Ho0  1  0.000000  0.117944  0.415044  1
  Ho  Ho1  1  0.000000  0.885386  0.586172  1
  Ho  Ho2  1  0.000000  0.383473  0.915287  1
  Ho  Ho3  1  0.000000  0.617949  0.084620  1
  Ho  Ho4  1  0.000000  0.245904  0.220042  1
  Ho  Ho5  1  0.000000  0.760485  0.778388  1
  Ho  Ho6  1  0.000000  0.250794  0.720370  1
  Ho  Ho7  1  0.000000  0.735847  0.280354  1
  Ho  Ho8  1  0.000000  0.999169  0.000331  1
  Ho  Ho9  1  0.000000  0.499183  0.499575  1
  In  In10  1  0.500000  0.420193  0.351939  1
  In  In11  1  0.500000  0.578394  0.648032  1
  In  In12  1  0.500000  0.073953  0.850325  1
  In  In13  1  0.500000  0.925003  0.151615  1
  In  In14  1  0.500000  0.292020  0.066786  1
  In  In15  1  0.500000  0.709259  0.933396  1
  In  In16  1  0.500000  0.207868  0.567739  1
  In  In17  1  0.500000  0.794102  0.431897  1
  Cu  Cu18  1  0.500000  0.023877  0.302325  1
  Pt  Pt19  1  0.500000  0.476433  0.803432  1
  Pt  Pt20  1  0.500000  0.525558  0.197313  1
  Rh  Rh21  1  0.500000  0.977208  0.695018  1
