# generated using pymatgen
data_Tb2Co3B8Os5
_symmetry_space_group_name_H-M   'P 1'
_cell_length_a   3.96699768
_cell_length_b   7.32946596
_cell_length_c   7.27567697
_cell_angle_alpha   89.17414187
_cell_angle_beta   90.01316155
_cell_angle_gamma   89.75927364
_symmetry_Int_Tables_number   1
_chemical_formula_structural   Tb2Co3B8Os5
_chemical_formula_sum   'Tb2 Co3 B8 Os5'
_cell_volume   211.52354679
_cell_formula_units_Z   1
loop_
 _symmetry_equiv_pos_site_id
 _symmetry_equiv_pos_as_xyz
  1  'x, y, z'
loop_
 _atom_site_type_symbol
 _atom_site_label
 _atom_site_symmetry_multiplicity
 _atom_site_fract_x
 _atom_site_fract_y
 _atom_site_fract_z
 _atom_site_occupancy
  Tb  Tb0  1  0.327003  0.248642  0.250668  1
  Tb  Tb1  1  0.852932  0.757021  0.749929  1
  Co  Co2  1  0.128111  0.363854  0.623201  1
  Co  Co3  1  0.124047  0.118483  0.862826  1
  Co  Co4  1  0.624623  0.126909  0.623332  1
  B  B5  1  0.348229  0.923540  0.019842  1
  B  B6  1  0.348100  0.572679  0.477220  1
  B  B7  1  0.851273  0.526881  0.082319  1
  B  B8  1  0.847797  0.979697  0.423748  1
  B  B9  1  0.628420  0.089106  0.935507  1
  B  B10  1  0.629896  0.404786  0.563497  1
  B  B11  1  0.127566  0.446805  0.913440  1
  B  B12  1  0.129793  0.065492  0.589539  1
  Os  Os13  1  0.624429  0.368343  0.868791  1
  Os  Os14  1  0.851722  0.593954  0.364316  1
  Os  Os15  1  0.852262  0.909136  0.143054  1
  Os  Os16  1  0.352085  0.858667  0.410502  1
  Os  Os17  1  0.351713  0.646005  0.098271  1
