# generated using pymatgen
data_ThAl2PdPt2
_symmetry_space_group_name_H-M   'P 1'
_cell_length_a   4.31704900
_cell_length_b   6.93764642
_cell_length_c   7.44178500
_cell_angle_alpha   90.09889037
_cell_angle_beta   90.00000000
_cell_angle_gamma   90.00000000
_symmetry_Int_Tables_number   1
_chemical_formula_structural   ThAl2PdPt2
_chemical_formula_sum   'Th2 Al4 Pd2 Pt4'
_cell_volume   222.88231597
_cell_formula_units_Z   2
loop_
 _symmetry_equiv_pos_site_id
 _symmetry_equiv_pos_as_xyz
  1  'x, y, z'
loop_
 _atom_site_type_symbol
 _atom_site_label
 _atom_site_symmetry_multiplicity
 _atom_site_fract_x
 _atom_site_fract_y
 _atom_site_fract_z
 _atom_site_occupancy
  Th  Th0  1  0.750000  0.999755  0.750105  1
  Th  Th1  1  0.250000  0.000245  0.249895  1
  Al  Al2  1  0.250000  0.647184  0.916408  1
  Al  Al3  1  0.750000  0.352816  0.083592  1
  Al  Al4  1  0.750000  0.647672  0.416316  1
  Al  Al5  1  0.250000  0.352328  0.583684  1
  Pd  Pd6  1  0.250000  0.500166  0.250048  1
  Pd  Pd7  1  0.750000  0.499834  0.749952  1
  Pt  Pt8  1  0.250000  0.735077  0.583404  1
  Pt  Pt9  1  0.750000  0.264923  0.416596  1
  Pt  Pt10  1  0.750000  0.735415  0.083309  1
  Pt  Pt11  1  0.250000  0.264585  0.916691  1
