# generated using pymatgen
data_Tm8Nb(IO8)3
_symmetry_space_group_name_H-M   'P 1'
_cell_length_a   5.46083740
_cell_length_b   7.66766927
_cell_length_c   11.59214300
_cell_angle_alpha   76.15714283
_cell_angle_beta   90.12691283
_cell_angle_gamma   89.81209694
_symmetry_Int_Tables_number   1
_chemical_formula_structural   Tm8Nb(IO8)3
_chemical_formula_sum   'Tm8 Nb1 I3 O24'
_cell_volume   471.28248885
_cell_formula_units_Z   1
loop_
 _symmetry_equiv_pos_site_id
 _symmetry_equiv_pos_as_xyz
  1  'x, y, z'
loop_
 _atom_site_type_symbol
 _atom_site_label
 _atom_site_symmetry_multiplicity
 _atom_site_fract_x
 _atom_site_fract_y
 _atom_site_fract_z
 _atom_site_occupancy
  Tm  Tm0  1  0.739194  0.977288  0.752033  1
  Tm  Tm1  1  0.254278  0.022846  0.251079  1
  Tm  Tm2  1  0.199686  0.777144  0.587321  1
  Tm  Tm3  1  0.821547  0.806316  0.069087  1
  Tm  Tm4  1  0.683876  0.508781  0.756383  1
  Tm  Tm5  1  0.306936  0.496749  0.245929  1
  Tm  Tm6  1  0.176301  0.195280  0.924309  1
  Tm  Tm7  1  0.811150  0.221250  0.416515  1
  Nb  Nb8  1  0.252930  0.714531  0.891324  1
  I  I9  1  0.746278  0.734578  0.381363  1
  I  I10  1  0.253513  0.266311  0.620687  1
  I  I11  1  0.736502  0.291503  0.106292  1
  O  O12  1  0.018981  0.939276  0.893149  1
  O  O13  1  0.531140  0.852084  0.927650  1
  O  O14  1  0.933630  0.947360  0.391913  1
  O  O15  1  0.477293  0.776438  0.722115  1
  O  O16  1  0.460055  0.837958  0.433966  1
  O  O17  1  0.980913  0.710706  0.760816  1
  O  O18  1  0.579258  0.822507  0.229020  1
  O  O19  1  0.860749  0.642919  0.537813  1
  O  O20  1  0.354743  0.478745  0.882724  1
  O  O21  1  0.025005  0.701183  0.284099  1
  O  O22  1  0.381273  0.493959  0.622942  1
  O  O23  1  0.837406  0.354757  0.935235  1
  O  O24  1  0.135011  0.632718  0.055610  1
  O  O25  1  0.620781  0.506783  0.378130  1
  O  O26  1  0.978467  0.295341  0.721585  1
  O  O27  1  0.610241  0.524385  0.104025  1
  O  O28  1  0.132249  0.365841  0.469105  1
  O  O29  1  0.427159  0.179254  0.770193  1
  O  O30  1  0.060291  0.279266  0.261812  1
  O  O31  1  0.534826  0.162844  0.565060  1
  O  O32  1  0.543631  0.226483  0.273780  1
  O  O33  1  0.063725  0.052104  0.608021  1
  O  O34  1  0.461822  0.163371  0.068276  1
  O  O35  1  0.009158  0.041144  0.100637  1
