# generated using pymatgen
data_Y5Si2SnO
_symmetry_space_group_name_H-M   'P 1'
_cell_length_a   8.78942156
_cell_length_b   8.78942316
_cell_length_c   8.78942300
_cell_angle_alpha   126.23410407
_cell_angle_beta   126.23409557
_cell_angle_gamma   79.50372014
_symmetry_Int_Tables_number   1
_chemical_formula_structural   Y5Si2SnO
_chemical_formula_sum   'Y10 Si4 Sn2 O2'
_cell_volume   426.94159688
_cell_formula_units_Z   2
loop_
 _symmetry_equiv_pos_site_id
 _symmetry_equiv_pos_as_xyz
  1  'x, y, z'
loop_
 _atom_site_type_symbol
 _atom_site_label
 _atom_site_symmetry_multiplicity
 _atom_site_fract_x
 _atom_site_fract_y
 _atom_site_fract_z
 _atom_site_occupancy
  Y  Y0  1  0.492478  0.290964  0.500000  1
  Y  Y1  1  0.790964  0.992478  0.500000  1
  Y  Y2  1  0.992478  0.492478  0.201514  1
  Y  Y3  1  0.290964  0.790964  0.798486  1
  Y  Y4  1  0.510111  0.711618  0.500000  1
  Y  Y5  1  0.211618  0.010111  0.500000  1
  Y  Y6  1  0.010111  0.510111  0.798493  1
  Y  Y7  1  0.711618  0.211618  0.201507  1
  Y  Y8  1  0.501268  0.501268  0.000000  1
  Y  Y9  1  0.001268  0.001268  0.000000  1
  Si  Si10  1  0.150447  0.352107  0.500000  1
  Si  Si11  1  0.852107  0.650447  0.500000  1
  Si  Si12  1  0.650447  0.150447  0.798338  1
  Si  Si13  1  0.352107  0.852107  0.201662  1
  Sn  Sn14  1  0.751119  0.751119  0.000000  1
  Sn  Sn15  1  0.251119  0.251119  0.000000  1
  O  O16  1  0.751305  0.251305  0.500000  1
  O  O17  1  0.251305  0.751305  0.500000  1
