# generated using pymatgen
data_CaDy2Ho5(B6Ru)4
_symmetry_space_group_name_H-M   'P 1'
_cell_length_a   3.65561000
_cell_length_b   9.13575770
_cell_length_c   11.52493801
_cell_angle_alpha   89.89942599
_cell_angle_beta   90.00000000
_cell_angle_gamma   90.00000000
_symmetry_Int_Tables_number   1
_chemical_formula_structural   CaDy2Ho5(B6Ru)4
_chemical_formula_sum   'Ca1 Dy2 Ho5 B24 Ru4'
_cell_volume   384.89507854
_cell_formula_units_Z   1
loop_
 _symmetry_equiv_pos_site_id
 _symmetry_equiv_pos_as_xyz
  1  'x, y, z'
loop_
 _atom_site_type_symbol
 _atom_site_label
 _atom_site_symmetry_multiplicity
 _atom_site_fract_x
 _atom_site_fract_y
 _atom_site_fract_z
 _atom_site_occupancy
  Ca  Ca0  1  0.000000  0.322816  0.413881  1
  Dy  Dy1  1  0.000000  0.675706  0.585067  1
  Dy  Dy2  1  0.000000  0.822829  0.086307  1
  Ho  Ho3  1  0.000000  0.177760  0.914582  1
  Ho  Ho4  1  0.000000  0.943971  0.371074  1
  Ho  Ho5  1  0.000000  0.057861  0.628317  1
  Ho  Ho6  1  0.000000  0.442977  0.129437  1
  Ho  Ho7  1  0.000000  0.556102  0.872223  1
  B  B8  1  0.500000  0.554672  0.432533  1
  B  B9  1  0.500000  0.446141  0.567943  1
  B  B10  1  0.500000  0.053383  0.066433  1
  B  B11  1  0.500000  0.945888  0.932416  1
  B  B12  1  0.500000  0.748500  0.419152  1
  B  B13  1  0.500000  0.252166  0.581533  1
  B  B14  1  0.500000  0.247450  0.080136  1
  B  B15  1  0.500000  0.751894  0.919540  1
  B  B16  1  0.500000  0.791484  0.266024  1
  B  B17  1  0.500000  0.209596  0.734444  1
  B  B18  1  0.500000  0.289727  0.232942  1
  B  B19  1  0.500000  0.709320  0.766466  1
  B  B20  1  0.500000  0.632240  0.185762  1
  B  B21  1  0.500000  0.368287  0.815324  1
  B  B22  1  0.500000  0.130834  0.313535  1
  B  B23  1  0.500000  0.868494  0.685295  1
  B  B24  1  0.500000  0.983362  0.211695  1
  B  B25  1  0.500000  0.016515  0.787407  1
  B  B26  1  0.500000  0.484489  0.287375  1
  B  B27  1  0.500000  0.516333  0.713013  1
  B  B28  1  0.500000  0.608229  0.030084  1
  B  B29  1  0.500000  0.391773  0.970481  1
  B  B30  1  0.500000  0.103980  0.471180  1
  B  B31  1  0.500000  0.894542  0.529161  1
  Ru  Ru32  1  0.000000  0.640084  0.320224  1
  Ru  Ru33  1  0.000000  0.361908  0.680912  1
  Ru  Ru34  1  0.000000  0.136470  0.177046  1
  Ru  Ru35  1  0.000000  0.862215  0.821057  1
