# generated using pymatgen
data_YbTh(Al5Fe)4
_symmetry_space_group_name_H-M   'P 1'
_cell_length_a   6.78820808
_cell_length_b   6.78820702
_cell_length_c   9.01505400
_cell_angle_alpha   90.00000000
_cell_angle_beta   90.00000000
_cell_angle_gamma   97.28160255
_symmetry_Int_Tables_number   1
_chemical_formula_structural   YbTh(Al5Fe)4
_chemical_formula_sum   'Yb1 Th1 Al20 Fe4'
_cell_volume   412.06132550
_cell_formula_units_Z   1
loop_
 _symmetry_equiv_pos_site_id
 _symmetry_equiv_pos_as_xyz
  1  'x, y, z'
loop_
 _atom_site_type_symbol
 _atom_site_label
 _atom_site_symmetry_multiplicity
 _atom_site_fract_x
 _atom_site_fract_y
 _atom_site_fract_z
 _atom_site_occupancy
  Yb  Yb0  1  0.123074  0.876926  0.750000  1
  Th  Th1  1  0.875696  0.124304  0.250000  1
  Al  Al2  1  0.229522  0.226623  0.502153  1
  Al  Al3  1  0.773377  0.770478  0.997847  1
  Al  Al4  1  0.773377  0.770478  0.502153  1
  Al  Al5  1  0.229522  0.226623  0.997847  1
  Al  Al6  1  0.374730  0.625270  0.546469  1
  Al  Al7  1  0.623431  0.376569  0.050283  1
  Al  Al8  1  0.585029  0.866056  0.750000  1
  Al  Al9  1  0.410759  0.133404  0.250000  1
  Al  Al10  1  0.866596  0.589241  0.250000  1
  Al  Al11  1  0.133944  0.414971  0.750000  1
  Al  Al12  1  0.476682  0.219757  0.750000  1
  Al  Al13  1  0.519010  0.777684  0.250000  1
  Al  Al14  1  0.222316  0.480990  0.250000  1
  Al  Al15  1  0.780243  0.523318  0.750000  1
  Al  Al16  1  0.159406  0.840594  0.403276  1
  Al  Al17  1  0.838715  0.161285  0.899999  1
  Al  Al18  1  0.838715  0.161285  0.600001  1
  Al  Al19  1  0.159406  0.840594  0.096724  1
  Al  Al20  1  0.374730  0.625270  0.953531  1
  Al  Al21  1  0.623431  0.376569  0.449717  1
  Fe  Fe22  1  0.999853  0.495707  0.499242  1
  Fe  Fe23  1  0.999853  0.495707  0.000758  1
  Fe  Fe24  1  0.504293  0.000147  0.499242  1
  Fe  Fe25  1  0.504293  0.000147  0.000758  1
