# generated using pymatgen
data_Ce2Co4AsP3
_symmetry_space_group_name_H-M   'P 1'
_cell_length_a   4.02452400
_cell_length_b   4.02452400
_cell_length_c   9.10676200
_cell_angle_alpha   90.00000000
_cell_angle_beta   90.00000000
_cell_angle_gamma   90.00000000
_symmetry_Int_Tables_number   1
_chemical_formula_structural   Ce2Co4AsP3
_chemical_formula_sum   'Ce2 Co4 As1 P3'
_cell_volume   147.50034290
_cell_formula_units_Z   1
loop_
 _symmetry_equiv_pos_site_id
 _symmetry_equiv_pos_as_xyz
  1  'x, y, z'
loop_
 _atom_site_type_symbol
 _atom_site_label
 _atom_site_symmetry_multiplicity
 _atom_site_fract_x
 _atom_site_fract_y
 _atom_site_fract_z
 _atom_site_occupancy
  Ce  Ce0  1  0.000000  0.500000  0.243274  1
  Ce  Ce1  1  0.500000  0.000000  0.751870  1
  Co  Co2  1  0.500000  0.000000  0.102993  1
  Co  Co3  1  0.000000  0.000000  0.509539  1
  Co  Co4  1  0.500000  0.500000  0.509539  1
  Co  Co5  1  0.000000  0.500000  0.888356  1
  As  As6  1  0.500000  0.000000  0.365702  1
  P  P7  1  0.000000  0.000000  0.996531  1
  P  P8  1  0.500000  0.500000  0.996531  1
  P  P9  1  0.000000  0.500000  0.635665  1
