# generated using pymatgen
data_Tb4Tm3Lu(ReB6)4
_symmetry_space_group_name_H-M   'P 1'
_cell_length_a   3.66464900
_cell_length_b   9.13840201
_cell_length_c   11.53282301
_cell_angle_alpha   90.00504423
_cell_angle_beta   90.00000000
_cell_angle_gamma   90.00000000
_symmetry_Int_Tables_number   1
_chemical_formula_structural   Tb4Tm3Lu(ReB6)4
_chemical_formula_sum   'Tb4 Tm3 Lu1 Re4 B24'
_cell_volume   386.22312101
_cell_formula_units_Z   1
loop_
 _symmetry_equiv_pos_site_id
 _symmetry_equiv_pos_as_xyz
  1  'x, y, z'
loop_
 _atom_site_type_symbol
 _atom_site_label
 _atom_site_symmetry_multiplicity
 _atom_site_fract_x
 _atom_site_fract_y
 _atom_site_fract_z
 _atom_site_occupancy
  Tb  Tb0  1  0.000000  0.323218  0.414078  1
  Tb  Tb1  1  0.000000  0.676765  0.586102  1
  Tb  Tb2  1  0.000000  0.823095  0.085904  1
  Tb  Tb3  1  0.000000  0.176871  0.913992  1
  Tm  Tm4  1  0.000000  0.943456  0.370063  1
  Tm  Tm5  1  0.000000  0.056602  0.630103  1
  Tm  Tm6  1  0.000000  0.443524  0.129563  1
  Lu  Lu7  1  0.000000  0.556686  0.869804  1
  Re  Re8  1  0.000000  0.639434  0.319921  1
  Re  Re9  1  0.000000  0.360823  0.680345  1
  Re  Re10  1  0.000000  0.139483  0.179943  1
  Re  Re11  1  0.000000  0.859990  0.820027  1
  B  B12  1  0.500000  0.553754  0.432496  1
  B  B13  1  0.500000  0.446307  0.567749  1
  B  B14  1  0.500000  0.053719  0.067489  1
  B  B15  1  0.500000  0.945952  0.932428  1
  B  B16  1  0.500000  0.750418  0.418080  1
  B  B17  1  0.500000  0.249719  0.582066  1
  B  B18  1  0.500000  0.250473  0.081872  1
  B  B19  1  0.500000  0.748854  0.918061  1
  B  B20  1  0.500000  0.792888  0.265297  1
  B  B21  1  0.500000  0.207366  0.734794  1
  B  B22  1  0.500000  0.292949  0.234609  1
  B  B23  1  0.500000  0.706571  0.765509  1
  B  B24  1  0.500000  0.630413  0.184939  1
  B  B25  1  0.500000  0.370113  0.815272  1
  B  B26  1  0.500000  0.130483  0.314926  1
  B  B27  1  0.500000  0.869336  0.685186  1
  B  B28  1  0.500000  0.982361  0.212519  1
  B  B29  1  0.500000  0.017508  0.787559  1
  B  B30  1  0.500000  0.482281  0.287404  1
  B  B31  1  0.500000  0.517984  0.712943  1
  B  B32  1  0.500000  0.598129  0.026584  1
  B  B33  1  0.500000  0.402462  0.972258  1
  B  B34  1  0.500000  0.098404  0.472775  1
  B  B35  1  0.500000  0.901608  0.527334  1
