# generated using pymatgen
data_Ac2Tb(InPt)3
_symmetry_space_group_name_H-M   'P 1'
_cell_length_a   7.88174622
_cell_length_b   7.88174662
_cell_length_c   4.17164700
_cell_angle_alpha   90.00000000
_cell_angle_beta   90.00000000
_cell_angle_gamma   120.20180249
_symmetry_Int_Tables_number   1
_chemical_formula_structural   Ac2Tb(InPt)3
_chemical_formula_sum   'Ac2 Tb1 In3 Pt3'
_cell_volume   223.97336105
_cell_formula_units_Z   1
loop_
 _symmetry_equiv_pos_site_id
 _symmetry_equiv_pos_as_xyz
  1  'x, y, z'
loop_
 _atom_site_type_symbol
 _atom_site_label
 _atom_site_symmetry_multiplicity
 _atom_site_fract_x
 _atom_site_fract_y
 _atom_site_fract_z
 _atom_site_occupancy
  Ac  Ac0  1  0.411347  0.999550  0.000000  1
  Ac  Ac1  1  0.999550  0.411347  0.000000  1
  Tb  Tb2  1  0.593177  0.593177  0.000000  1
  In  In3  1  0.255401  0.255401  0.500000  1
  In  In4  1  0.988522  0.751472  0.500000  1
  In  In5  1  0.751472  0.988522  0.500000  1
  Pt  Pt6  1  0.992596  0.992596  0.000000  1
  Pt  Pt7  1  0.662782  0.345152  0.500000  1
  Pt  Pt8  1  0.345152  0.662782  0.500000  1
