# generated using pymatgen
data_Mn3Nb2B3W
_symmetry_space_group_name_H-M   'P 1'
_cell_length_a   6.10333629
_cell_length_b   6.10333658
_cell_length_c   3.06226700
_cell_angle_alpha   90.00000000
_cell_angle_beta   90.00000000
_cell_angle_gamma   119.76542500
_symmetry_Int_Tables_number   1
_chemical_formula_structural   Mn3Nb2B3W
_chemical_formula_sum   'Mn3 Nb2 B3 W1'
_cell_volume   99.02161786
_cell_formula_units_Z   1
loop_
 _symmetry_equiv_pos_site_id
 _symmetry_equiv_pos_as_xyz
  1  'x, y, z'
loop_
 _atom_site_type_symbol
 _atom_site_label
 _atom_site_symmetry_multiplicity
 _atom_site_fract_x
 _atom_site_fract_y
 _atom_site_fract_z
 _atom_site_occupancy
  Mn  Mn0  1  0.755538  0.755538  0.000000  1
  Mn  Mn1  1  0.245666  0.003040  0.000000  1
  Mn  Mn2  1  0.003040  0.245666  0.000000  1
  Nb  Nb3  1  0.589637  0.997874  0.500000  1
  Nb  Nb4  1  0.997874  0.589637  0.500000  1
  B  B5  1  0.658833  0.334430  0.000000  1
  B  B6  1  0.334430  0.658833  0.000000  1
  B  B7  1  0.005370  0.005370  0.500000  1
  W  W8  1  0.409613  0.409613  0.500000  1
