# generated using pymatgen
data_Ac4Ag5Sb8
_symmetry_space_group_name_H-M   'P 1'
_cell_length_a   11.81752100
_cell_length_b   11.81752054
_cell_length_c   6.51390100
_cell_angle_alpha   90.00000000
_cell_angle_beta   90.00000000
_cell_angle_gamma   147.39270699
_symmetry_Int_Tables_number   1
_chemical_formula_structural   Ac4Ag5Sb8
_chemical_formula_sum   'Ac4 Ag5 Sb8'
_cell_volume   490.21248431
_cell_formula_units_Z   1
loop_
 _symmetry_equiv_pos_site_id
 _symmetry_equiv_pos_as_xyz
  1  'x, y, z'
loop_
 _atom_site_type_symbol
 _atom_site_label
 _atom_site_symmetry_multiplicity
 _atom_site_fract_x
 _atom_site_fract_y
 _atom_site_fract_z
 _atom_site_occupancy
  Ac  Ac0  1  0.622297  0.377703  0.000000  1
  Ac  Ac1  1  0.122887  0.877113  0.500000  1
  Ac  Ac2  1  0.878995  0.121005  0.500000  1
  Ac  Ac3  1  0.379620  0.620380  0.000000  1
  Ag  Ag4  1  0.982883  0.485002  0.236020  1
  Ag  Ag5  1  0.514998  0.017117  0.763980  1
  Ag  Ag6  1  0.514998  0.017117  0.236020  1
  Ag  Ag7  1  0.982883  0.485002  0.763980  1
  Ag  Ag8  1  0.438335  0.561665  0.500000  1
  Sb  Sb9  1  0.835387  0.164613  0.000000  1
  Sb  Sb10  1  0.317001  0.682999  0.500000  1
  Sb  Sb11  1  0.667700  0.332300  0.500000  1
  Sb  Sb12  1  0.169145  0.830855  0.000000  1
  Sb  Sb13  1  0.773075  0.766542  0.768545  1
  Sb  Sb14  1  0.233458  0.226925  0.231455  1
  Sb  Sb15  1  0.773075  0.766542  0.231455  1
  Sb  Sb16  1  0.233458  0.226925  0.768545  1
