# generated using pymatgen
data_Li2Dy5Ho3(Sc5Si8)2
_symmetry_space_group_name_H-M   'P 1'
_cell_length_a   6.99377122
_cell_length_b   7.39490232
_cell_length_c   13.99518244
_cell_angle_alpha   90.00317576
_cell_angle_beta   90.02839944
_cell_angle_gamma   89.95307070
_symmetry_Int_Tables_number   1
_chemical_formula_structural   Li2Dy5Ho3(Sc5Si8)2
_chemical_formula_sum   'Li2 Dy5 Ho3 Sc10 Si16'
_cell_volume   723.80608131
_cell_formula_units_Z   1
loop_
 _symmetry_equiv_pos_site_id
 _symmetry_equiv_pos_as_xyz
  1  'x, y, z'
loop_
 _atom_site_type_symbol
 _atom_site_label
 _atom_site_symmetry_multiplicity
 _atom_site_fract_x
 _atom_site_fract_y
 _atom_site_fract_z
 _atom_site_occupancy
  Li  Li0  1  0.159827  0.506489  0.749977  1
  Li  Li1  1  0.840200  0.493470  0.250041  1
  Dy  Dy2  1  0.010323  0.183906  0.098356  1
  Dy  Dy3  1  0.989700  0.816132  0.901626  1
  Dy  Dy4  1  0.484689  0.674261  0.902512  1
  Dy  Dy5  1  0.989717  0.816124  0.598327  1
  Dy  Dy6  1  0.515301  0.325747  0.097497  1
  Ho  Ho7  1  0.010426  0.184053  0.401543  1
  Ho  Ho8  1  0.515252  0.325663  0.402427  1
  Ho  Ho9  1  0.484742  0.674311  0.597538  1
  Sc  Sc10  1  0.341813  0.002973  0.250088  1
  Sc  Sc11  1  0.658082  0.997088  0.749952  1
  Sc  Sc12  1  0.325891  0.181791  0.626046  1
  Sc  Sc13  1  0.674095  0.818279  0.373917  1
  Sc  Sc14  1  0.165378  0.675039  0.373025  1
  Sc  Sc15  1  0.674130  0.818313  0.126134  1
  Sc  Sc16  1  0.834663  0.324918  0.626956  1
  Sc  Sc17  1  0.325874  0.181696  0.873886  1
  Sc  Sc18  1  0.834730  0.324944  0.872973  1
  Sc  Sc19  1  0.165273  0.675059  0.127042  1
  Si  Si20  1  0.029202  0.101567  0.749956  1
  Si  Si21  1  0.970856  0.898636  0.250120  1
  Si  Si22  1  0.465177  0.613445  0.250107  1
  Si  Si23  1  0.534864  0.386536  0.749915  1
  Si  Si24  1  0.287491  0.879920  0.749907  1
  Si  Si25  1  0.712695  0.120157  0.250227  1
  Si  Si26  1  0.220822  0.373054  0.250221  1
  Si  Si27  1  0.778981  0.626754  0.749877  1
  Si  Si28  1  0.160191  0.461220  0.533115  1
  Si  Si29  1  0.839777  0.538310  0.466751  1
  Si  Si30  1  0.343340  0.966873  0.461186  1
  Si  Si31  1  0.840176  0.538652  0.033132  1
  Si  Si32  1  0.656495  0.033285  0.538747  1
  Si  Si33  1  0.159812  0.461342  0.966873  1
  Si  Si34  1  0.656562  0.033320  0.961230  1
  Si  Si35  1  0.343454  0.966674  0.038773  1
