# generated using pymatgen
data_La8Sc12Si13Ge3
_symmetry_space_group_name_H-M   'P 1'
_cell_length_a   7.33878289
_cell_length_b   7.62225904
_cell_length_c   14.38040187
_cell_angle_alpha   89.97567311
_cell_angle_beta   89.53726335
_cell_angle_gamma   90.03606164
_symmetry_Int_Tables_number   1
_chemical_formula_structural   La8Sc12Si13Ge3
_chemical_formula_sum   'La8 Sc12 Si13 Ge3'
_cell_volume   804.38595081
_cell_formula_units_Z   1
loop_
 _symmetry_equiv_pos_site_id
 _symmetry_equiv_pos_as_xyz
  1  'x, y, z'
loop_
 _atom_site_type_symbol
 _atom_site_label
 _atom_site_symmetry_multiplicity
 _atom_site_fract_x
 _atom_site_fract_y
 _atom_site_fract_z
 _atom_site_occupancy
  La  La0  1  0.010559  0.171114  0.097459  1
  La  La1  1  0.989033  0.828929  0.902425  1
  La  La2  1  0.489823  0.670743  0.902426  1
  La  La3  1  0.991236  0.829115  0.599397  1
  La  La4  1  0.510165  0.329718  0.097410  1
  La  La5  1  0.006094  0.171397  0.401247  1
  La  La6  1  0.507112  0.327028  0.400489  1
  La  La7  1  0.493664  0.673147  0.599910  1
  Sc  Sc8  1  0.161835  0.494158  0.751872  1
  Sc  Sc9  1  0.837984  0.505481  0.248592  1
  Sc  Sc10  1  0.338260  0.994874  0.248090  1
  Sc  Sc11  1  0.661833  0.005626  0.749683  1
  Sc  Sc12  1  0.337790  0.173014  0.627442  1
  Sc  Sc13  1  0.663944  0.828121  0.373066  1
  Sc  Sc14  1  0.165553  0.672585  0.373055  1
  Sc  Sc15  1  0.668391  0.824312  0.124993  1
  Sc  Sc16  1  0.834017  0.325294  0.626570  1
  Sc  Sc17  1  0.332266  0.175465  0.874945  1
  Sc  Sc18  1  0.832292  0.324116  0.875120  1
  Sc  Sc19  1  0.167450  0.675702  0.125005  1
  Si  Si20  1  0.037536  0.128284  0.751070  1
  Si  Si21  1  0.963219  0.871811  0.249076  1
  Si  Si22  1  0.462865  0.628611  0.249068  1
  Si  Si23  1  0.537716  0.372103  0.751190  1
  Si  Si24  1  0.292259  0.886090  0.751072  1
  Si  Si25  1  0.707116  0.114196  0.248909  1
  Si  Si26  1  0.206559  0.385803  0.249166  1
  Si  Si27  1  0.793522  0.613018  0.750894  1
  Si  Si28  1  0.849677  0.536630  0.039887  1
  Si  Si29  1  0.658520  0.040720  0.541497  1
  Si  Si30  1  0.150539  0.463495  0.960146  1
  Si  Si31  1  0.649925  0.036831  0.960406  1
  Si  Si32  1  0.350040  0.963184  0.039581  1
  Ge  Ge33  1  0.163465  0.457617  0.542310  1
  Ge  Ge34  1  0.837122  0.543041  0.457729  1
  Ge  Ge35  1  0.340622  0.958627  0.458804  1
