# generated using pymatgen
data_Sr7Ti2Os2O19
_symmetry_space_group_name_H-M   'P 1'
_cell_length_a   7.48123224
_cell_length_b   7.48123162
_cell_length_c   10.52406730
_cell_angle_alpha   82.38042820
_cell_angle_beta   82.38043752
_cell_angle_gamma   44.28113262
_symmetry_Int_Tables_number   1
_chemical_formula_structural   Sr7Ti2Os2O19
_chemical_formula_sum   'Sr7 Ti2 Os2 O19'
_cell_volume   407.00614760
_cell_formula_units_Z   1
loop_
 _symmetry_equiv_pos_site_id
 _symmetry_equiv_pos_as_xyz
  1  'x, y, z'
loop_
 _atom_site_type_symbol
 _atom_site_label
 _atom_site_symmetry_multiplicity
 _atom_site_fract_x
 _atom_site_fract_y
 _atom_site_fract_z
 _atom_site_occupancy
  Sr  Sr0  1  0.857187  0.857187  0.952209  1
  Sr  Sr1  1  0.416568  0.416568  0.159010  1
  Sr  Sr2  1  0.795984  0.795984  0.594920  1
  Sr  Sr3  1  0.218018  0.218018  0.419405  1
  Sr  Sr4  1  0.585264  0.585264  0.838260  1
  Sr  Sr5  1  0.141609  0.141609  0.040868  1
  Sr  Sr6  1  0.480268  0.480268  0.499298  1
  Ti  Ti7  1  0.955232  0.955232  0.312762  1
  Ti  Ti8  1  0.316108  0.316108  0.791196  1
  Os  Os9  1  0.665308  0.665308  0.226260  1
  Os  Os10  1  0.032632  0.032632  0.673234  1
  O  O11  1  0.703071  0.164543  0.710292  1
  O  O12  1  0.164543  0.703071  0.710292  1
  O  O13  1  0.402823  0.402823  0.926882  1
  O  O14  1  0.958736  0.958736  0.136620  1
  O  O15  1  0.626941  0.126763  0.369071  1
  O  O16  1  0.126763  0.626941  0.369071  1
  O  O17  1  0.305491  0.305491  0.611810  1
  O  O18  1  0.990890  0.485224  0.853526  1
  O  O19  1  0.485224  0.990890  0.853526  1
  O  O20  1  0.521942  0.985250  0.158575  1
  O  O21  1  0.985250  0.521942  0.158575  1
  O  O22  1  0.704520  0.704520  0.385425  1
  O  O23  1  0.362561  0.884734  0.629111  1
  O  O24  1  0.884734  0.362561  0.629111  1
  O  O25  1  0.050338  0.050338  0.845505  1
  O  O26  1  0.603448  0.603448  0.073709  1
  O  O27  1  0.819972  0.331471  0.286465  1
  O  O28  1  0.331471  0.819972  0.286465  1
  O  O29  1  0.007104  0.007104  0.498544  1
