# generated using pymatgen
data_Sm7Sc(Si3Pt)4
_symmetry_space_group_name_H-M   'P 1'
_cell_length_a   8.19462500
_cell_length_b   8.20315594
_cell_length_c   8.38851600
_cell_angle_alpha   90.00000000
_cell_angle_beta   90.00000000
_cell_angle_gamma   120.03443623
_symmetry_Int_Tables_number   1
_chemical_formula_structural   Sm7Sc(Si3Pt)4
_chemical_formula_sum   'Sm7 Sc1 Si12 Pt4'
_cell_volume   488.17441552
_cell_formula_units_Z   1
loop_
 _symmetry_equiv_pos_site_id
 _symmetry_equiv_pos_as_xyz
  1  'x, y, z'
loop_
 _atom_site_type_symbol
 _atom_site_label
 _atom_site_symmetry_multiplicity
 _atom_site_fract_x
 _atom_site_fract_y
 _atom_site_fract_z
 _atom_site_occupancy
  Sm  Sm0  1  0.000341  0.000171  0.250000  1
  Sm  Sm1  1  0.999879  0.999941  0.750000  1
  Sm  Sm2  1  0.500613  0.499344  0.250000  1
  Sm  Sm3  1  0.500613  0.001270  0.250000  1
  Sm  Sm4  1  0.998848  0.499423  0.250000  1
  Sm  Sm5  1  0.499358  0.500897  0.750000  1
  Sm  Sm6  1  0.499358  0.998461  0.750000  1
  Sc  Sc7  1  0.000043  0.500021  0.750000  1
  Si  Si8  1  0.164801  0.833032  0.501796  1
  Si  Si9  1  0.164801  0.331771  0.501796  1
  Si  Si10  1  0.667600  0.833801  0.498971  1
  Si  Si11  1  0.835303  0.166986  0.503271  1
  Si  Si12  1  0.835303  0.668317  0.503271  1
  Si  Si13  1  0.332575  0.166288  0.500626  1
  Si  Si14  1  0.835303  0.166986  0.996729  1
  Si  Si15  1  0.835303  0.668317  0.996729  1
  Si  Si16  1  0.332575  0.166288  0.999374  1
  Si  Si17  1  0.164801  0.833032  0.998204  1
  Si  Si18  1  0.164801  0.331771  0.998204  1
  Si  Si19  1  0.667600  0.833801  0.001029  1
  Pt  Pt20  1  0.330778  0.665389  0.505628  1
  Pt  Pt21  1  0.669310  0.334654  0.506780  1
  Pt  Pt22  1  0.669310  0.334654  0.993220  1
  Pt  Pt23  1  0.330778  0.665389  0.994372  1
