# generated using pymatgen
data_ErHfTlPtF14
_symmetry_space_group_name_H-M   'P 1'
_cell_length_a   5.60162400
_cell_length_b   8.88625064
_cell_length_c   12.05275255
_cell_angle_alpha   62.82430320
_cell_angle_beta   90.00000000
_cell_angle_gamma   90.00000000
_symmetry_Int_Tables_number   1
_chemical_formula_structural   ErHfTlPtF14
_chemical_formula_sum   'Er2 Hf2 Tl2 Pt2 F28'
_cell_volume   533.72616925
_cell_formula_units_Z   2
loop_
 _symmetry_equiv_pos_site_id
 _symmetry_equiv_pos_as_xyz
  1  'x, y, z'
loop_
 _atom_site_type_symbol
 _atom_site_label
 _atom_site_symmetry_multiplicity
 _atom_site_fract_x
 _atom_site_fract_y
 _atom_site_fract_z
 _atom_site_occupancy
  Er  Er0  1  0.241451  0.186065  0.237287  1
  Er  Er1  1  0.741451  0.813935  0.262713  1
  Hf  Hf2  1  0.756935  0.272472  0.958628  1
  Hf  Hf3  1  0.256935  0.727528  0.541372  1
  Tl  Tl4  1  0.757722  0.814222  0.767517  1
  Tl  Tl5  1  0.257722  0.185778  0.732483  1
  Pt  Pt6  1  0.240206  0.726042  0.045926  1
  Pt  Pt7  1  0.740206  0.273958  0.454074  1
  F  F8  1  0.428510  0.696959  0.919479  1
  F  F9  1  0.928510  0.303041  0.580521  1
  F  F10  1  0.541207  0.288973  0.083696  1
  F  F11  1  0.041207  0.711027  0.416304  1
  F  F12  1  0.438273  0.281385  0.536353  1
  F  F13  1  0.938273  0.718615  0.963647  1
  F  F14  1  0.555019  0.724397  0.449268  1
  F  F15  1  0.055019  0.275603  0.050732  1
  F  F16  1  0.773934  0.526360  0.861583  1
  F  F17  1  0.273934  0.473640  0.638417  1
  F  F18  1  0.223734  0.477368  0.144408  1
  F  F19  1  0.723734  0.522632  0.355592  1
  F  F20  1  0.758711  0.021378  0.057886  1
  F  F21  1  0.258711  0.978622  0.442114  1
  F  F22  1  0.248169  0.973532  0.954919  1
  F  F23  1  0.748169  0.026468  0.545081  1
  F  F24  1  0.977204  0.728508  0.645186  1
  F  F25  1  0.477204  0.271492  0.854814  1
  F  F26  1  0.031260  0.275997  0.361594  1
  F  F27  1  0.531260  0.724003  0.138406  1
  F  F28  1  0.052727  0.744763  0.177914  1
  F  F29  1  0.552727  0.255237  0.322086  1
  F  F30  1  0.962626  0.254820  0.826450  1
  F  F31  1  0.462626  0.745180  0.673550  1
  F  F32  1  0.422301  0.971830  0.233864  1
  F  F33  1  0.922301  0.028170  0.266136  1
  F  F34  1  0.590011  0.033041  0.769700  1
  F  F35  1  0.090011  0.966959  0.730300  1
