# generated using pymatgen
data_Er20Zn3Cd3Ru2
_symmetry_space_group_name_H-M   'P 1'
_cell_length_a   9.43717300
_cell_length_b   9.43717277
_cell_length_c   9.61437900
_cell_angle_alpha   90.00000000
_cell_angle_beta   90.00000000
_cell_angle_gamma   120.00000432
_symmetry_Int_Tables_number   1
_chemical_formula_structural   Er20Zn3Cd3Ru2
_chemical_formula_sum   'Er20 Zn3 Cd3 Ru2'
_cell_volume   741.54186200
_cell_formula_units_Z   1
loop_
 _symmetry_equiv_pos_site_id
 _symmetry_equiv_pos_as_xyz
  1  'x, y, z'
loop_
 _atom_site_type_symbol
 _atom_site_label
 _atom_site_symmetry_multiplicity
 _atom_site_fract_x
 _atom_site_fract_y
 _atom_site_fract_z
 _atom_site_occupancy
  Er  Er0  1  0.000000  0.000000  0.474711  1
  Er  Er1  1  0.000000  0.000000  0.025289  1
  Er  Er2  1  0.207972  0.792028  0.438885  1
  Er  Er3  1  0.207972  0.415944  0.438885  1
  Er  Er4  1  0.584056  0.792028  0.438885  1
  Er  Er5  1  0.791033  0.208967  0.556803  1
  Er  Er6  1  0.791033  0.582065  0.556803  1
  Er  Er7  1  0.417935  0.208967  0.556803  1
  Er  Er8  1  0.791033  0.208967  0.943197  1
  Er  Er9  1  0.791033  0.582065  0.943197  1
  Er  Er10  1  0.417935  0.208967  0.943197  1
  Er  Er11  1  0.207972  0.792028  0.061115  1
  Er  Er12  1  0.207972  0.415944  0.061115  1
  Er  Er13  1  0.584056  0.792028  0.061115  1
  Er  Er14  1  0.541672  0.458328  0.250000  1
  Er  Er15  1  0.541672  0.083343  0.250000  1
  Er  Er16  1  0.916657  0.458328  0.250000  1
  Er  Er17  1  0.458789  0.541211  0.750000  1
  Er  Er18  1  0.458789  0.917577  0.750000  1
  Er  Er19  1  0.082423  0.541211  0.750000  1
  Zn  Zn20  1  0.878314  0.121686  0.250000  1
  Zn  Zn21  1  0.878314  0.756629  0.250000  1
  Zn  Zn22  1  0.243371  0.121686  0.250000  1
  Cd  Cd23  1  0.110548  0.889452  0.750000  1
  Cd  Cd24  1  0.110548  0.221095  0.750000  1
  Cd  Cd25  1  0.778905  0.889452  0.750000  1
  Ru  Ru26  1  0.333333  0.666667  0.250000  1
  Ru  Ru27  1  0.666667  0.333333  0.750000  1
