# generated using pymatgen
data_MgNi20(SnP3)2
_symmetry_space_group_name_H-M   'P 1'
_cell_length_a   7.87097895
_cell_length_b   7.87097841
_cell_length_c   7.87097800
_cell_angle_alpha   60.00000173
_cell_angle_beta   60.00000400
_cell_angle_gamma   60.00000040
_symmetry_Int_Tables_number   1
_chemical_formula_structural   MgNi20(SnP3)2
_chemical_formula_sum   'Mg1 Ni20 Sn2 P6'
_cell_volume   344.80312484
_cell_formula_units_Z   1
loop_
 _symmetry_equiv_pos_site_id
 _symmetry_equiv_pos_as_xyz
  1  'x, y, z'
loop_
 _atom_site_type_symbol
 _atom_site_label
 _atom_site_symmetry_multiplicity
 _atom_site_fract_x
 _atom_site_fract_y
 _atom_site_fract_z
 _atom_site_occupancy
  Mg  Mg0  1  0.000000  0.000000  0.000000  1
  Ni  Ni1  1  0.383632  0.383632  0.849105  1
  Ni  Ni2  1  0.616369  0.616369  0.616368  1
  Ni  Ni3  1  0.000000  0.348376  0.000000  1
  Ni  Ni4  1  0.348376  0.000000  0.000000  1
  Ni  Ni5  1  0.000000  0.348376  0.651624  1
  Ni  Ni6  1  0.849105  0.383632  0.383631  1
  Ni  Ni7  1  0.348376  0.000000  0.651624  1
  Ni  Ni8  1  0.000000  0.000000  0.348376  1
  Ni  Ni9  1  0.651624  0.348376  0.000000  1
  Ni  Ni10  1  0.000000  0.651624  0.348376  1
  Ni  Ni11  1  0.000000  0.000000  0.651624  1
  Ni  Ni12  1  0.348376  0.651624  0.000000  1
  Ni  Ni13  1  0.651624  0.000000  0.000000  1
  Ni  Ni14  1  0.000000  0.651624  0.000000  1
  Ni  Ni15  1  0.383632  0.849106  0.383632  1
  Ni  Ni16  1  0.616368  0.616369  0.150894  1
  Ni  Ni17  1  0.616368  0.150895  0.616368  1
  Ni  Ni18  1  0.150895  0.616369  0.616369  1
  Ni  Ni19  1  0.383631  0.383632  0.383631  1
  Ni  Ni20  1  0.651624  0.000000  0.348376  1
  Sn  Sn21  1  0.250000  0.250000  0.250000  1
  Sn  Sn22  1  0.750000  0.750000  0.750000  1
  P  P23  1  0.264058  0.264058  0.735942  1
  P  P24  1  0.735942  0.735942  0.264058  1
  P  P25  1  0.735942  0.264058  0.264058  1
  P  P26  1  0.264058  0.735942  0.735942  1
  P  P27  1  0.264058  0.735942  0.264058  1
  P  P28  1  0.735942  0.264058  0.735942  1
