# generated using pymatgen
data_Ho5Si3P9Ir19
_symmetry_space_group_name_H-M   'P 1'
_cell_length_a   12.81009603
_cell_length_b   12.70539061
_cell_length_c   3.95520600
_cell_angle_alpha   90.00000000
_cell_angle_beta   90.00000000
_cell_angle_gamma   119.89152111
_symmetry_Int_Tables_number   1
_chemical_formula_structural   Ho5Si3P9Ir19
_chemical_formula_sum   'Ho5 Si3 P9 Ir19'
_cell_volume   558.10233427
_cell_formula_units_Z   1
loop_
 _symmetry_equiv_pos_site_id
 _symmetry_equiv_pos_as_xyz
  1  'x, y, z'
loop_
 _atom_site_type_symbol
 _atom_site_label
 _atom_site_symmetry_multiplicity
 _atom_site_fract_x
 _atom_site_fract_y
 _atom_site_fract_z
 _atom_site_occupancy
  Ho  Ho0  1  0.662882  0.332302  0.000000  1
  Ho  Ho1  1  0.335204  0.667410  0.000000  1
  Ho  Ho2  1  0.819564  0.817496  0.500000  1
  Ho  Ho3  1  0.181433  0.999464  0.500000  1
  Ho  Ho4  1  0.997440  0.182959  0.500000  1
  Si  Si5  1  0.677910  0.162196  0.500000  1
  Si  Si6  1  0.641154  0.639933  0.000000  1
  Si  Si7  1  0.360276  0.998796  0.000000  1
  P  P8  1  0.832657  0.516827  0.500000  1
  P  P9  1  0.480996  0.321301  0.500000  1
  P  P10  1  0.180930  0.695894  0.500000  1
  P  P11  1  0.517302  0.823254  0.500000  1
  P  P12  1  0.307523  0.483697  0.500000  1
  P  P13  1  0.998027  0.356544  0.000000  1
  P  P14  1  0.173387  0.180661  0.000000  1
  P  P15  1  0.819733  0.996173  0.000000  1
  P  P16  1  0.003608  0.822172  0.000000  1
  Ir  Ir17  1  0.811045  0.179824  0.000000  1
  Ir  Ir18  1  0.824986  0.627800  0.000000  1
  Ir  Ir19  1  0.360679  0.187204  0.000000  1
  Ir  Ir20  1  0.180346  0.797891  0.000000  1
  Ir  Ir21  1  0.620038  0.818029  0.000000  1
  Ir  Ir22  1  0.190773  0.378263  0.000000  1
  Ir  Ir23  1  0.469745  0.442908  0.000000  1
  Ir  Ir24  1  0.558853  0.027194  0.000000  1
  Ir  Ir25  1  0.991463  0.533036  0.000000  1
  Ir  Ir26  1  0.282593  0.286771  0.500000  1
  Ir  Ir27  1  0.717345  0.996596  0.500000  1
  Ir  Ir28  1  0.002175  0.715856  0.500000  1
  Ir  Ir29  1  0.862020  0.355170  0.500000  1
  Ir  Ir30  1  0.648890  0.513964  0.500000  1
  Ir  Ir31  1  0.482292  0.137968  0.500000  1
  Ir  Ir32  1  0.370467  0.878027  0.500000  1
  Ir  Ir33  1  0.506765  0.629907  0.500000  1
  Ir  Ir34  1  0.130228  0.497498  0.500000  1
  Ir  Ir35  1  0.999270  0.999016  0.000000  1
