# generated using pymatgen
data_Yb14TlSnN8
_symmetry_space_group_name_H-M   'P 1'
_cell_length_a   3.45064100
_cell_length_b   11.63666523
_cell_length_c   11.13689000
_cell_angle_alpha   90.32502198
_cell_angle_beta   90.00000000
_cell_angle_gamma   90.00000000
_symmetry_Int_Tables_number   1
_chemical_formula_structural   Yb14TlSnN8
_chemical_formula_sum   'Yb14 Tl1 Sn1 N8'
_cell_volume   447.18297525
_cell_formula_units_Z   1
loop_
 _symmetry_equiv_pos_site_id
 _symmetry_equiv_pos_as_xyz
  1  'x, y, z'
loop_
 _atom_site_type_symbol
 _atom_site_label
 _atom_site_symmetry_multiplicity
 _atom_site_fract_x
 _atom_site_fract_y
 _atom_site_fract_z
 _atom_site_occupancy
  Yb  Yb0  1  0.500374  0.654460  0.253753  1
  Yb  Yb1  1  0.500374  0.345540  0.746247  1
  Yb  Yb2  1  0.501237  0.159751  0.251645  1
  Yb  Yb3  1  0.501237  0.840249  0.748355  1
  Yb  Yb4  1  0.500344  0.500000  0.000000  1
  Yb  Yb5  1  0.501081  0.000000  0.500000  1
  Yb  Yb6  1  0.000733  0.921471  0.262582  1
  Yb  Yb7  1  0.000733  0.078529  0.737418  1
  Yb  Yb8  1  0.999974  0.419528  0.239825  1
  Yb  Yb9  1  0.999974  0.580472  0.760175  1
  Yb  Yb10  1  0.000417  0.759941  0.486380  1
  Yb  Yb11  1  0.000417  0.240059  0.513620  1
  Yb  Yb12  1  0.000103  0.264118  0.009264  1
  Yb  Yb13  1  0.000103  0.735882  0.990736  1
  Tl  Tl14  1  0.496033  0.000000  0.000000  1
  Sn  Sn15  1  0.492342  0.500000  0.500000  1
  N  N16  1  0.000283  0.595563  0.134791  1
  N  N17  1  0.000283  0.404437  0.865209  1
  N  N18  1  0.001339  0.098885  0.368291  1
  N  N19  1  0.001339  0.901115  0.631709  1
  N  N20  1  0.500673  0.829846  0.359897  1
  N  N21  1  0.500673  0.170154  0.640103  1
  N  N22  1  0.499968  0.327495  0.134846  1
  N  N23  1  0.499968  0.672505  0.865154  1
