# generated using pymatgen
data_Y2Ho3Zr3Pt4
_symmetry_space_group_name_H-M   'P 1'
_cell_length_a   4.73562700
_cell_length_b   7.11428009
_cell_length_c   8.36082271
_cell_angle_alpha   89.47807281
_cell_angle_beta   90.00000000
_cell_angle_gamma   90.00000000
_symmetry_Int_Tables_number   1
_chemical_formula_structural   Y2Ho3Zr3Pt4
_chemical_formula_sum   'Y2 Ho3 Zr3 Pt4'
_cell_volume   281.66925322
_cell_formula_units_Z   1
loop_
 _symmetry_equiv_pos_site_id
 _symmetry_equiv_pos_as_xyz
  1  'x, y, z'
loop_
 _atom_site_type_symbol
 _atom_site_label
 _atom_site_symmetry_multiplicity
 _atom_site_fract_x
 _atom_site_fract_y
 _atom_site_fract_z
 _atom_site_occupancy
  Y  Y0  1  0.250000  0.989961  0.324982  1
  Y  Y1  1  0.250000  0.481460  0.171173  1
  Ho  Ho2  1  0.750000  0.647112  0.417588  1
  Ho  Ho3  1  0.750000  0.017781  0.681251  1
  Ho  Ho4  1  0.750000  0.514530  0.822137  1
  Zr  Zr5  1  0.250000  0.855636  0.922014  1
  Zr  Zr6  1  0.250000  0.353614  0.580224  1
  Zr  Zr7  1  0.750000  0.147799  0.079769  1
  Pt  Pt8  1  0.250000  0.230821  0.905670  1
  Pt  Pt9  1  0.250000  0.735955  0.604537  1
  Pt  Pt10  1  0.750000  0.770492  0.081920  1
  Pt  Pt11  1  0.750000  0.254840  0.408733  1
