# generated using pymatgen
data_Sr3CaGePd7
_symmetry_space_group_name_H-M   'P 1'
_cell_length_a   9.31557510
_cell_length_b   9.31557542
_cell_length_c   9.31557500
_cell_angle_alpha   35.61702198
_cell_angle_beta   35.61702218
_cell_angle_gamma   35.61701611
_symmetry_Int_Tables_number   1
_chemical_formula_structural   Sr3CaGePd7
_chemical_formula_sum   'Sr3 Ca1 Ge1 Pd7'
_cell_volume   245.06071399
_cell_formula_units_Z   1
loop_
 _symmetry_equiv_pos_site_id
 _symmetry_equiv_pos_as_xyz
  1  'x, y, z'
loop_
 _atom_site_type_symbol
 _atom_site_label
 _atom_site_symmetry_multiplicity
 _atom_site_fract_x
 _atom_site_fract_y
 _atom_site_fract_z
 _atom_site_occupancy
  Sr  Sr0  1  0.565545  0.565545  0.565545  1
  Sr  Sr1  1  0.438462  0.438462  0.438462  1
  Sr  Sr2  1  0.935712  0.935712  0.935712  1
  Ca  Ca3  1  0.062302  0.062302  0.062302  1
  Ge  Ge4  1  0.749556  0.749556  0.749556  1
  Pd  Pd5  1  0.249753  0.249753  0.249753  1
  Pd  Pd6  1  0.009589  0.502799  0.502799  1
  Pd  Pd7  1  0.489058  0.997213  0.997213  1
  Pd  Pd8  1  0.502799  0.009589  0.502799  1
  Pd  Pd9  1  0.997213  0.489058  0.997213  1
  Pd  Pd10  1  0.502799  0.502799  0.009589  1
  Pd  Pd11  1  0.997213  0.997213  0.489058  1
