# generated using pymatgen
data_Th2B2IrPt7
_symmetry_space_group_name_H-M   'P 1'
_cell_length_a   5.47663719
_cell_length_b   5.44010003
_cell_length_c   7.78070400
_cell_angle_alpha   90.00000000
_cell_angle_beta   90.00000000
_cell_angle_gamma   119.77955866
_symmetry_Int_Tables_number   1
_chemical_formula_structural   Th2B2IrPt7
_chemical_formula_sum   'Th2 B2 Ir1 Pt7'
_cell_volume   201.20131125
_cell_formula_units_Z   1
loop_
 _symmetry_equiv_pos_site_id
 _symmetry_equiv_pos_as_xyz
  1  'x, y, z'
loop_
 _atom_site_type_symbol
 _atom_site_label
 _atom_site_symmetry_multiplicity
 _atom_site_fract_x
 _atom_site_fract_y
 _atom_site_fract_z
 _atom_site_occupancy
  Th  Th0  1  0.000000  0.000000  0.502197  1
  Th  Th1  1  0.000000  0.000000  0.994872  1
  B  B2  1  0.670149  0.335074  0.502229  1
  B  B3  1  0.329851  0.664926  0.502229  1
  Ir  Ir4  1  0.000000  0.500000  0.694366  1
  Pt  Pt5  1  0.677120  0.338559  0.999562  1
  Pt  Pt6  1  0.500000  0.500000  0.299037  1
  Pt  Pt7  1  0.500000  0.000000  0.299037  1
  Pt  Pt8  1  0.500000  0.000000  0.703696  1
  Pt  Pt9  1  0.500000  0.500000  0.703696  1
  Pt  Pt10  1  0.322880  0.661441  0.999562  1
  Pt  Pt11  1  0.000000  0.500000  0.299515  1
