# generated using pymatgen
data_Tb20FeCo3Sb8
_symmetry_space_group_name_H-M   'P 1'
_cell_length_a   7.95029703
_cell_length_b   8.79378800
_cell_length_c   12.25667260
_cell_angle_alpha   90.00000000
_cell_angle_beta   90.05848089
_cell_angle_gamma   90.00000000
_symmetry_Int_Tables_number   1
_chemical_formula_structural   Tb20FeCo3Sb8
_chemical_formula_sum   'Tb20 Fe1 Co3 Sb8'
_cell_volume   856.90308302
_cell_formula_units_Z   1
loop_
 _symmetry_equiv_pos_site_id
 _symmetry_equiv_pos_as_xyz
  1  'x, y, z'
loop_
 _atom_site_type_symbol
 _atom_site_label
 _atom_site_symmetry_multiplicity
 _atom_site_fract_x
 _atom_site_fract_y
 _atom_site_fract_z
 _atom_site_occupancy
  Tb  Tb0  1  0.155741  0.750000  0.204160  1
  Tb  Tb1  1  0.654237  0.250000  0.296781  1
  Tb  Tb2  1  0.845293  0.250000  0.797044  1
  Tb  Tb3  1  0.346290  0.750000  0.702596  1
  Tb  Tb4  1  0.454775  0.750000  0.997159  1
  Tb  Tb5  1  0.953521  0.250000  0.502722  1
  Tb  Tb6  1  0.544564  0.250000  0.002341  1
  Tb  Tb7  1  0.047017  0.750000  0.497257  1
  Tb  Tb8  1  0.620948  0.750000  0.305787  1
  Tb  Tb9  1  0.122313  0.250000  0.193914  1
  Tb  Tb10  1  0.377716  0.250000  0.694392  1
  Tb  Tb11  1  0.878422  0.750000  0.806288  1
  Tb  Tb12  1  0.820842  0.964692  0.065075  1
  Tb  Tb13  1  0.322328  0.033183  0.436008  1
  Tb  Tb14  1  0.178902  0.464546  0.935081  1
  Tb  Tb15  1  0.679166  0.536892  0.564420  1
  Tb  Tb16  1  0.178902  0.035454  0.935081  1
  Tb  Tb17  1  0.679166  0.963108  0.564420  1
  Tb  Tb18  1  0.820842  0.535308  0.065075  1
  Tb  Tb19  1  0.322328  0.466817  0.436008  1
  Fe  Fe20  1  0.428892  0.750000  0.488423  1
  Co  Co21  1  0.933998  0.250000  0.010071  1
  Co  Co22  1  0.568417  0.250000  0.510449  1
  Co  Co23  1  0.066181  0.750000  0.990534  1
  Sb  Sb24  1  0.927421  0.992286  0.326787  1
  Sb  Sb25  1  0.427351  0.008091  0.172662  1
  Sb  Sb26  1  0.072100  0.491965  0.673083  1
  Sb  Sb27  1  0.572728  0.507777  0.826925  1
  Sb  Sb28  1  0.072100  0.008035  0.673083  1
  Sb  Sb29  1  0.572728  0.992223  0.826925  1
  Sb  Sb30  1  0.927421  0.507714  0.326787  1
  Sb  Sb31  1  0.427351  0.491909  0.172662  1
