# generated using pymatgen
data_LaNd2Rh9
_symmetry_space_group_name_H-M   'P 1'
_cell_length_a   5.36029300
_cell_length_b   5.36054909
_cell_length_c   17.71540700
_cell_angle_alpha   90.00000000
_cell_angle_beta   90.00000000
_cell_angle_gamma   119.99977970
_symmetry_Int_Tables_number   1
_chemical_formula_structural   LaNd2Rh9
_chemical_formula_sum   'La2 Nd4 Rh18'
_cell_volume   440.83953700
_cell_formula_units_Z   2
loop_
 _symmetry_equiv_pos_site_id
 _symmetry_equiv_pos_as_xyz
  1  'x, y, z'
loop_
 _atom_site_type_symbol
 _atom_site_label
 _atom_site_symmetry_multiplicity
 _atom_site_fract_x
 _atom_site_fract_y
 _atom_site_fract_z
 _atom_site_occupancy
  La  La0  1  0.333344  0.666672  0.750000  1
  La  La1  1  0.666656  0.333328  0.250000  1
  Nd  Nd2  1  0.333338  0.666674  0.957735  1
  Nd  Nd3  1  0.666662  0.333326  0.042265  1
  Nd  Nd4  1  0.666662  0.333326  0.457735  1
  Nd  Nd5  1  0.333338  0.666674  0.542265  1
  Rh  Rh6  1  0.166782  0.833193  0.373115  1
  Rh  Rh7  1  0.166772  0.333581  0.373095  1
  Rh  Rh8  1  0.666399  0.833209  0.373107  1
  Rh  Rh9  1  0.833218  0.166807  0.626885  1
  Rh  Rh10  1  0.833228  0.666419  0.626905  1
  Rh  Rh11  1  0.333601  0.166791  0.626893  1
  Rh  Rh12  1  0.833218  0.166807  0.873115  1
  Rh  Rh13  1  0.833228  0.666419  0.873095  1
  Rh  Rh14  1  0.333601  0.166791  0.873107  1
  Rh  Rh15  1  0.166782  0.833193  0.126885  1
  Rh  Rh16  1  0.166772  0.333581  0.126905  1
  Rh  Rh17  1  0.666399  0.833209  0.126893  1
  Rh  Rh18  1  0.333318  0.666701  0.250000  1
  Rh  Rh19  1  0.666682  0.333299  0.750000  1
  Rh  Rh20  1  0.000033  0.999953  0.250000  1
  Rh  Rh21  1  0.999967  0.000047  0.750000  1
  Rh  Rh22  1  0.000000  0.000000  0.500000  1
  Rh  Rh23  1  0.000000  0.000000  0.000000  1
