# generated using pymatgen
data_Na6VP3Pb3S16
_symmetry_space_group_name_H-M   'P 1'
_cell_length_a   6.25299973
_cell_length_b   11.61027570
_cell_length_c   11.61027668
_cell_angle_alpha   116.84999891
_cell_angle_beta   100.34208470
_cell_angle_gamma   100.34207896
_symmetry_Int_Tables_number   1
_chemical_formula_structural   Na6VP3Pb3S16
_chemical_formula_sum   'Na6 V1 P3 Pb3 S16'
_cell_volume   706.44226856
_cell_formula_units_Z   1
loop_
 _symmetry_equiv_pos_site_id
 _symmetry_equiv_pos_as_xyz
  1  'x, y, z'
loop_
 _atom_site_type_symbol
 _atom_site_label
 _atom_site_symmetry_multiplicity
 _atom_site_fract_x
 _atom_site_fract_y
 _atom_site_fract_z
 _atom_site_occupancy
  Na  Na0  1  0.345895  0.743368  0.195548  1
  Na  Na1  1  0.602528  0.452179  0.256632  1
  Na  Na2  1  0.602528  0.256632  0.452179  1
  Na  Na3  1  0.150349  0.804452  0.547821  1
  Na  Na4  1  0.345895  0.195548  0.743368  1
  Na  Na5  1  0.150349  0.547821  0.804452  1
  V  V6  1  0.577494  0.000000  0.000000  1
  P  P7  1  0.766775  0.527556  0.000000  1
  P  P8  1  0.239218  0.472443  0.472443  1
  P  P9  1  0.766775  0.000000  0.527556  1
  Pb  Pb10  1  0.978167  0.266374  0.000000  1
  Pb  Pb11  1  0.978167  0.000000  0.266374  1
  Pb  Pb12  1  0.711794  0.733626  0.733626  1
  S  S13  1  0.919461  0.000000  0.000000  1
  S  S14  1  0.532689  0.181567  0.000000  1
  S  S15  1  0.432959  0.496378  0.000000  1
  S  S16  1  0.902676  0.702428  0.000000  1
  S  S17  1  0.966497  0.537605  0.169805  1
  S  S18  1  0.532689  0.000000  0.181567  1
  S  S19  1  0.200247  0.297573  0.297573  1
  S  S20  1  0.796690  0.830195  0.367799  1
  S  S21  1  0.428890  0.632201  0.462395  1
  S  S22  1  0.432959  0.000000  0.496378  1
  S  S23  1  0.936581  0.503622  0.503622  1
  S  S24  1  0.966497  0.169805  0.537605  1
  S  S25  1  0.428890  0.462395  0.632201  1
  S  S26  1  0.902676  0.000000  0.702428  1
  S  S27  1  0.351123  0.818434  0.818434  1
  S  S28  1  0.796690  0.367799  0.830195  1
