# generated using pymatgen
data_CsPr(NbBr3)6
_symmetry_space_group_name_H-M   'P 1'
_cell_length_a   10.96190799
_cell_length_b   10.96190659
_cell_length_c   10.96190689
_cell_angle_alpha   55.47840858
_cell_angle_beta   55.47841258
_cell_angle_gamma   55.47840874
_symmetry_Int_Tables_number   1
_chemical_formula_structural   CsPr(NbBr3)6
_chemical_formula_sum   'Cs1 Pr1 Nb6 Br18'
_cell_volume   833.62325307
_cell_formula_units_Z   1
loop_
 _symmetry_equiv_pos_site_id
 _symmetry_equiv_pos_as_xyz
  1  'x, y, z'
loop_
 _atom_site_type_symbol
 _atom_site_label
 _atom_site_symmetry_multiplicity
 _atom_site_fract_x
 _atom_site_fract_y
 _atom_site_fract_z
 _atom_site_occupancy
  Cs  Cs0  1  0.222717  0.222717  0.222717  1
  Pr  Pr1  1  0.497888  0.497888  0.497888  1
  Nb  Nb2  1  0.810977  0.140249  0.918050  1
  Nb  Nb3  1  0.918050  0.810977  0.140249  1
  Nb  Nb4  1  0.140249  0.918050  0.810977  1
  Nb  Nb5  1  0.190058  0.860212  0.080935  1
  Nb  Nb6  1  0.080935  0.190058  0.860212  1
  Nb  Nb7  1  0.860212  0.080935  0.190058  1
  Br  Br8  1  0.865635  0.405056  0.730495  1
  Br  Br9  1  0.730495  0.865635  0.405056  1
  Br  Br10  1  0.405056  0.730495  0.865635  1
  Br  Br11  1  0.133179  0.595551  0.272393  1
  Br  Br12  1  0.272393  0.133179  0.595551  1
  Br  Br13  1  0.595551  0.272393  0.133179  1
  Br  Br14  1  0.540829  0.336034  0.807386  1
  Br  Br15  1  0.807386  0.540829  0.336034  1
  Br  Br16  1  0.336034  0.807386  0.540829  1
  Br  Br17  1  0.459135  0.667483  0.191342  1
  Br  Br18  1  0.191342  0.459135  0.667483  1
  Br  Br19  1  0.667483  0.191342  0.459135  1
  Br  Br20  1  0.669364  0.937909  0.069068  1
  Br  Br21  1  0.069068  0.669364  0.937909  1
  Br  Br22  1  0.937909  0.069068  0.669364  1
  Br  Br23  1  0.336097  0.059882  0.923215  1
  Br  Br24  1  0.923215  0.336097  0.059882  1
  Br  Br25  1  0.059882  0.923215  0.336097  1
