# generated using pymatgen
data_PrBeRe2C
_symmetry_space_group_name_H-M   'P 1'
_cell_length_a   5.64326949
_cell_length_b   5.64326784
_cell_length_c   7.39005900
_cell_angle_alpha   90.00000000
_cell_angle_beta   90.00000000
_cell_angle_gamma   138.94518777
_symmetry_Int_Tables_number   1
_chemical_formula_structural   PrBeRe2C
_chemical_formula_sum   'Pr2 Be2 Re4 C2'
_cell_volume   154.57161966
_cell_formula_units_Z   2
loop_
 _symmetry_equiv_pos_site_id
 _symmetry_equiv_pos_as_xyz
  1  'x, y, z'
loop_
 _atom_site_type_symbol
 _atom_site_label
 _atom_site_symmetry_multiplicity
 _atom_site_fract_x
 _atom_site_fract_y
 _atom_site_fract_z
 _atom_site_occupancy
  Pr  Pr0  1  0.533597  0.466403  0.250000  1
  Pr  Pr1  1  0.466403  0.533597  0.750000  1
  Be  Be2  1  0.258003  0.741997  0.250000  1
  Be  Be3  1  0.741997  0.258003  0.750000  1
  Re  Re4  1  0.817301  0.182699  0.062410  1
  Re  Re5  1  0.182699  0.817301  0.937590  1
  Re  Re6  1  0.182699  0.817301  0.562410  1
  Re  Re7  1  0.817301  0.182699  0.437590  1
  C  C8  1  0.000000  0.000000  0.000000  1
  C  C9  1  0.000000  0.000000  0.500000  1
