# generated using pymatgen
data_Tb5Ho7Ga2TcNi3
_symmetry_space_group_name_H-M   'P 1'
_cell_length_a   8.33113991
_cell_length_b   8.33118248
_cell_length_c   8.33012608
_cell_angle_alpha   112.82422839
_cell_angle_beta   109.78237944
_cell_angle_gamma   105.88685501
_symmetry_Int_Tables_number   1
_chemical_formula_structural   Tb5Ho7Ga2TcNi3
_chemical_formula_sum   'Tb5 Ho7 Ga2 Tc1 Ni3'
_cell_volume   443.41995330
_cell_formula_units_Z   1
loop_
 _symmetry_equiv_pos_site_id
 _symmetry_equiv_pos_as_xyz
  1  'x, y, z'
loop_
 _atom_site_type_symbol
 _atom_site_label
 _atom_site_symmetry_multiplicity
 _atom_site_fract_x
 _atom_site_fract_y
 _atom_site_fract_z
 _atom_site_occupancy
  Tb  Tb0  1  0.442756  0.248571  0.193690  1
  Tb  Tb1  1  0.572876  0.768196  0.805339  1
  Tb  Tb2  1  0.037148  0.232471  0.805342  1
  Tb  Tb3  1  0.945123  0.750937  0.193689  1
  Tb  Tb4  1  0.185301  0.280957  0.466260  1
  Ho  Ho5  1  0.825730  0.720786  0.546512  1
  Ho  Ho6  1  0.184826  0.719325  0.904145  1
  Ho  Ho7  1  0.825385  0.279021  0.104409  1
  Ho  Ho8  1  0.325673  0.638791  0.307435  1
  Ho  Ho9  1  0.669677  0.361759  0.687334  1
  Ho  Ho10  1  0.325570  0.017649  0.687328  1
  Ho  Ho11  1  0.668646  0.981757  0.307433  1
  Ga  Ga12  1  0.493654  0.499990  0.993640  1
  Ga  Ga13  1  0.016676  0.999255  0.015923  1
  Tc  Tc14  1  0.326387  0.999665  0.326046  1
  Ni  Ni15  1  0.654292  0.000027  0.654318  1
  Ni  Ni16  1  0.118658  0.618936  0.500581  1
  Ni  Ni17  1  0.881623  0.381908  0.500575  1
