# generated using pymatgen
data_K3CoO4
_symmetry_space_group_name_H-M   'P 1'
_cell_length_a   7.72770503
_cell_length_b   7.92954903
_cell_length_c   9.18743900
_cell_angle_alpha   89.99865762
_cell_angle_beta   89.99985057
_cell_angle_gamma   90.00935283
_symmetry_Int_Tables_number   1
_chemical_formula_structural   K3CoO4
_chemical_formula_sum   'K12 Co4 O16'
_cell_volume   562.98067535
_cell_formula_units_Z   4
loop_
 _symmetry_equiv_pos_site_id
 _symmetry_equiv_pos_as_xyz
  1  'x, y, z'
loop_
 _atom_site_type_symbol
 _atom_site_label
 _atom_site_symmetry_multiplicity
 _atom_site_fract_x
 _atom_site_fract_y
 _atom_site_fract_z
 _atom_site_occupancy
  K  K0  1  0.035392  0.281660  0.037913  1
  K  K1  1  0.827680  0.944592  0.249998  1
  K  K2  1  0.172323  0.055409  0.750005  1
  K  K3  1  0.672258  0.444626  0.749999  1
  K  K4  1  0.964606  0.718341  0.962084  1
  K  K5  1  0.464585  0.781684  0.537908  1
  K  K6  1  0.535418  0.218314  0.037909  1
  K  K7  1  0.035393  0.281662  0.462087  1
  K  K8  1  0.964605  0.718337  0.537916  1
  K  K9  1  0.535412  0.218314  0.462097  1
  K  K10  1  0.464585  0.781686  0.962090  1
  K  K11  1  0.327736  0.555375  0.250001  1
  Co  Co12  1  0.270007  0.005512  0.250002  1
  Co  Co13  1  0.770026  0.494465  0.250001  1
  Co  Co14  1  0.229965  0.505544  0.750000  1
  Co  Co15  1  0.729985  0.994482  0.749998  1
  O  O16  1  0.285929  0.222380  0.250004  1
  O  O17  1  0.785912  0.277576  0.249999  1
  O  O18  1  0.214083  0.722438  0.750002  1
  O  O19  1  0.714074  0.777624  0.749996  1
  O  O20  1  0.974268  0.582399  0.250001  1
  O  O21  1  0.474231  0.917657  0.249993  1
  O  O22  1  0.525773  0.082332  0.750005  1
  O  O23  1  0.025714  0.417618  0.749997  1
  O  O24  1  0.811642  0.038172  0.578835  1
  O  O25  1  0.311661  0.461824  0.921216  1
  O  O26  1  0.688364  0.538165  0.421189  1
  O  O27  1  0.188361  0.961823  0.078831  1
  O  O28  1  0.188359  0.961830  0.421170  1
  O  O29  1  0.811639  0.038179  0.921163  1
  O  O30  1  0.311657  0.461821  0.578785  1
  O  O31  1  0.688362  0.538162  0.078808  1
