# generated using pymatgen
data_Tb20Si3Bi8As
_symmetry_space_group_name_H-M   'P 1'
_cell_length_a   12.15934151
_cell_length_b   9.20879900
_cell_length_c   8.09816102
_cell_angle_alpha   90.00000000
_cell_angle_beta   89.81107166
_cell_angle_gamma   90.00000000
_symmetry_Int_Tables_number   1
_chemical_formula_structural   Tb20Si3Bi8As
_chemical_formula_sum   'Tb20 Si3 Bi8 As1'
_cell_volume   906.76990272
_cell_formula_units_Z   1
loop_
 _symmetry_equiv_pos_site_id
 _symmetry_equiv_pos_as_xyz
  1  'x, y, z'
loop_
 _atom_site_type_symbol
 _atom_site_label
 _atom_site_symmetry_multiplicity
 _atom_site_fract_x
 _atom_site_fract_y
 _atom_site_fract_z
 _atom_site_occupancy
  Tb  Tb0  1  0.063204  0.551947  0.819850  1
  Tb  Tb1  1  0.564061  0.949023  0.682491  1
  Tb  Tb2  1  0.936721  0.051786  0.180093  1
  Tb  Tb3  1  0.436486  0.444920  0.319477  1
  Tb  Tb4  1  0.936721  0.448214  0.180093  1
  Tb  Tb5  1  0.436486  0.055080  0.319477  1
  Tb  Tb6  1  0.063204  0.948053  0.819850  1
  Tb  Tb7  1  0.564061  0.550977  0.682491  1
  Tb  Tb8  1  0.001220  0.750000  0.460732  1
  Tb  Tb9  1  0.500291  0.750000  0.036733  1
  Tb  Tb10  1  0.999135  0.250000  0.540201  1
  Tb  Tb11  1  0.498951  0.250000  0.959804  1
  Tb  Tb12  1  0.209681  0.750000  0.162041  1
  Tb  Tb13  1  0.713330  0.750000  0.335797  1
  Tb  Tb14  1  0.788286  0.250000  0.836125  1
  Tb  Tb15  1  0.288509  0.250000  0.663451  1
  Tb  Tb16  1  0.295009  0.750000  0.636992  1
  Tb  Tb17  1  0.795075  0.750000  0.865018  1
  Tb  Tb18  1  0.704063  0.250000  0.364919  1
  Tb  Tb19  1  0.204812  0.250000  0.134799  1
  Si  Si20  1  0.979518  0.750000  0.085367  1
  Si  Si21  1  0.519768  0.250000  0.585028  1
  Si  Si22  1  0.020112  0.250000  0.914432  1
  Bi  Bi23  1  0.326154  0.511020  0.930937  1
  Bi  Bi24  1  0.825711  0.988925  0.568638  1
  Bi  Bi25  1  0.673646  0.010454  0.069517  1
  Bi  Bi26  1  0.174559  0.489592  0.431039  1
  Bi  Bi27  1  0.673646  0.489546  0.069517  1
  Bi  Bi28  1  0.174559  0.010408  0.431039  1
  Bi  Bi29  1  0.326154  0.988980  0.930937  1
  Bi  Bi30  1  0.825711  0.511075  0.568638  1
  As  As31  1  0.481157  0.750000  0.414477  1
