# generated using pymatgen
data_Y14Ho2In4OsRh3
_symmetry_space_group_name_H-M   'P 1'
_cell_length_a   9.67937178
_cell_length_b   9.73316610
_cell_length_c   9.67941203
_cell_angle_alpha   59.98894994
_cell_angle_beta   59.77134696
_cell_angle_gamma   59.98930315
_symmetry_Int_Tables_number   1
_chemical_formula_structural   Y14Ho2In4OsRh3
_chemical_formula_sum   'Y14 Ho2 In4 Os1 Rh3'
_cell_volume   643.58813663
_cell_formula_units_Z   1
loop_
 _symmetry_equiv_pos_site_id
 _symmetry_equiv_pos_as_xyz
  1  'x, y, z'
loop_
 _atom_site_type_symbol
 _atom_site_label
 _atom_site_symmetry_multiplicity
 _atom_site_fract_x
 _atom_site_fract_y
 _atom_site_fract_z
 _atom_site_occupancy
  Y  Y0  1  0.189253  0.189858  0.810597  1
  Y  Y1  1  0.600536  0.601594  0.201149  1
  Y  Y2  1  0.441463  0.056102  0.441456  1
  Y  Y3  1  0.440164  0.441931  0.057460  1
  Y  Y4  1  0.811200  0.189463  0.811206  1
  Y  Y5  1  0.191275  0.812914  0.191272  1
  Y  Y6  1  0.439187  0.056720  0.060524  1
  Y  Y7  1  0.190613  0.813399  0.805880  1
  Y  Y8  1  0.058557  0.439972  0.058551  1
  Y  Y9  1  0.805889  0.813400  0.190608  1
  Y  Y10  1  0.201151  0.601595  0.600532  1
  Y  Y11  1  0.057462  0.441932  0.440161  1
  Y  Y12  1  0.060523  0.056724  0.439187  1
  Y  Y13  1  0.810593  0.189855  0.189253  1
  Ho  Ho14  1  0.600597  0.201910  0.600593  1
  Ho  Ho15  1  0.597150  0.598461  0.597145  1
  In  In16  1  0.832875  0.833849  0.832929  1
  In  In17  1  0.832684  0.833225  0.500815  1
  In  In18  1  0.500814  0.833225  0.832682  1
  In  In19  1  0.832257  0.501105  0.832256  1
  Os  Os20  1  0.392999  0.825017  0.393001  1
  Rh  Rh21  1  0.393941  0.387963  0.393939  1
  Rh  Rh22  1  0.823770  0.389900  0.395037  1
  Rh  Rh23  1  0.395047  0.389891  0.823767  1
