# generated using pymatgen
data_Li3La2PrSi2Ge
_symmetry_space_group_name_H-M   'P 1'
_cell_length_a   7.38099600
_cell_length_b   7.36323796
_cell_length_c   4.42764100
_cell_angle_alpha   90.00000000
_cell_angle_beta   90.00000000
_cell_angle_gamma   120.07982002
_symmetry_Int_Tables_number   1
_chemical_formula_structural   Li3La2PrSi2Ge
_chemical_formula_sum   'Li3 La2 Pr1 Si2 Ge1'
_cell_volume   208.22696278
_cell_formula_units_Z   1
loop_
 _symmetry_equiv_pos_site_id
 _symmetry_equiv_pos_as_xyz
  1  'x, y, z'
loop_
 _atom_site_type_symbol
 _atom_site_label
 _atom_site_symmetry_multiplicity
 _atom_site_fract_x
 _atom_site_fract_y
 _atom_site_fract_z
 _atom_site_occupancy
  Li  Li0  1  0.766119  0.766953  0.500000  1
  Li  Li1  1  0.233992  0.000000  0.500000  1
  Li  Li2  1  0.999166  0.233047  0.500000  1
  La  La3  1  0.000153  0.580337  0.000000  1
  La  La4  1  0.419816  0.419663  0.000000  1
  Pr  Pr5  1  0.582121  0.000000  0.000000  1
  Si  Si6  1  0.334730  0.669033  0.500000  1
  Si  Si7  1  0.665698  0.330967  0.500000  1
  Ge  Ge8  1  0.998205  0.000000  0.000000  1
