# generated using pymatgen
data_La9Nd8Sm3Sn16
_symmetry_space_group_name_H-M   'P 1'
_cell_length_a   8.32004100
_cell_length_b   8.47448808
_cell_length_c   16.03296900
_cell_angle_alpha   90.00752496
_cell_angle_beta   89.99803047
_cell_angle_gamma   90.00169726
_symmetry_Int_Tables_number   1
_chemical_formula_structural   La9Nd8Sm3Sn16
_chemical_formula_sum   'La9 Nd8 Sm3 Sn16'
_cell_volume   1130.45398296
_cell_formula_units_Z   1
loop_
 _symmetry_equiv_pos_site_id
 _symmetry_equiv_pos_as_xyz
  1  'x, y, z'
loop_
 _atom_site_type_symbol
 _atom_site_label
 _atom_site_symmetry_multiplicity
 _atom_site_fract_x
 _atom_site_fract_y
 _atom_site_fract_z
 _atom_site_occupancy
  La  La0  1  0.867812  0.664724  0.879862  1
  La  La1  1  0.518308  0.318774  0.901200  1
  La  La2  1  0.018228  0.180608  0.598759  1
  La  La3  1  0.481572  0.680850  0.400857  1
  La  La4  1  0.981642  0.819222  0.099054  1
  La  La5  1  0.481535  0.680735  0.099190  1
  La  La6  1  0.981652  0.819246  0.400987  1
  La  La7  1  0.518528  0.318946  0.598738  1
  La  La8  1  0.018315  0.180415  0.901254  1
  Nd  Nd9  1  0.367513  0.835519  0.879613  1
  Nd  Nd10  1  0.867249  0.664681  0.620465  1
  Nd  Nd11  1  0.632629  0.164344  0.379217  1
  Nd  Nd12  1  0.132636  0.335531  0.121063  1
  Nd  Nd13  1  0.632502  0.164360  0.120866  1
  Nd  Nd14  1  0.132680  0.335476  0.378858  1
  Nd  Nd15  1  0.367646  0.835477  0.620394  1
  Nd  Nd16  1  0.197559  0.501792  0.750055  1
  Sm  Sm17  1  0.697895  0.998202  0.749971  1
  Sm  Sm18  1  0.801932  0.498245  0.249992  1
  Sm  Sm19  1  0.301754  0.001638  0.249963  1
  Sn  Sn20  1  0.293873  0.035665  0.043113  1
  Sn  Sn21  1  0.794092  0.464455  0.456909  1
  Sn  Sn22  1  0.705994  0.964449  0.543064  1
  Sn  Sn23  1  0.208512  0.535491  0.958479  1
  Sn  Sn24  1  0.704398  0.966600  0.957305  1
  Sn  Sn25  1  0.205993  0.536269  0.541874  1
  Sn  Sn26  1  0.294015  0.035646  0.456830  1
  Sn  Sn27  1  0.793569  0.463383  0.044230  1
  Sn  Sn28  1  0.566633  0.617659  0.749237  1
  Sn  Sn29  1  0.067195  0.885054  0.749479  1
  Sn  Sn30  1  0.433786  0.382385  0.249931  1
  Sn  Sn31  1  0.933519  0.117599  0.249982  1
  Sn  Sn32  1  0.323604  0.140271  0.749917  1
  Sn  Sn33  1  0.821292  0.355918  0.749333  1
  Sn  Sn34  1  0.677167  0.858269  0.249976  1
  Sn  Sn35  1  0.176770  0.642098  0.249979  1
