# generated using pymatgen
data_Hf5ZrTi4Al12Fe6Rh
_symmetry_space_group_name_H-M   'P 1'
_cell_length_a   8.55067003
_cell_length_b   8.53406992
_cell_length_c   8.53407000
_cell_angle_alpha   60.17768855
_cell_angle_beta   59.93563549
_cell_angle_gamma   59.93563267
_symmetry_Int_Tables_number   1
_chemical_formula_structural   Hf5ZrTi4Al12Fe6Rh
_chemical_formula_sum   'Hf5 Zr1 Ti4 Al12 Fe6 Rh1'
_cell_volume   440.50720092
_cell_formula_units_Z   1
loop_
 _symmetry_equiv_pos_site_id
 _symmetry_equiv_pos_as_xyz
  1  'x, y, z'
loop_
 _atom_site_type_symbol
 _atom_site_label
 _atom_site_symmetry_multiplicity
 _atom_site_fract_x
 _atom_site_fract_y
 _atom_site_fract_z
 _atom_site_occupancy
  Hf  Hf0  1  0.704101  0.698696  0.300883  1
  Hf  Hf1  1  0.296321  0.698696  0.300883  1
  Hf  Hf2  1  0.697325  0.302675  0.302675  1
  Hf  Hf3  1  0.296321  0.300883  0.698696  1
  Hf  Hf4  1  0.704101  0.300883  0.698696  1
  Zr  Zr5  1  0.304433  0.695567  0.695567  1
  Ti  Ti6  1  0.881682  0.882186  0.354447  1
  Ti  Ti7  1  0.881682  0.354447  0.882186  1
  Ti  Ti8  1  0.353340  0.878604  0.878604  1
  Ti  Ti9  1  0.889450  0.878604  0.878604  1
  Al  Al10  1  0.118081  0.119535  0.644303  1
  Al  Al11  1  0.118081  0.644303  0.119535  1
  Al  Al12  1  0.646050  0.120637  0.120637  1
  Al  Al13  1  0.112674  0.120637  0.120637  1
  Al  Al14  1  0.667644  0.661199  0.003511  1
  Al  Al15  1  0.667644  0.003511  0.661199  1
  Al  Al16  1  0.001278  0.665480  0.665480  1
  Al  Al17  1  0.667761  0.665480  0.665480  1
  Al  Al18  1  0.330862  0.339001  0.999276  1
  Al  Al19  1  0.330862  0.999276  0.339001  1
  Al  Al20  1  0.000201  0.333197  0.333197  1
  Al  Al21  1  0.333405  0.333197  0.333197  1
  Fe  Fe22  1  0.000795  0.999205  0.999205  1
  Fe  Fe23  1  0.996979  0.998767  0.502395  1
  Fe  Fe24  1  0.501860  0.998767  0.502395  1
  Fe  Fe25  1  0.998602  0.501398  0.501398  1
  Fe  Fe26  1  0.501860  0.502395  0.998767  1
  Fe  Fe27  1  0.996979  0.502395  0.998767  1
  Rh  Rh28  1  0.499624  0.000376  0.000376  1
