# generated using pymatgen
data_Lu2Pa(InPt)3
_symmetry_space_group_name_H-M   'P 1'
_cell_length_a   7.64115666
_cell_length_b   7.64663684
_cell_length_c   3.82132200
_cell_angle_alpha   90.00000000
_cell_angle_beta   90.00000000
_cell_angle_gamma   120.02372103
_symmetry_Int_Tables_number   1
_chemical_formula_structural   Lu2Pa(InPt)3
_chemical_formula_sum   'Lu2 Pa1 In3 Pt3'
_cell_volume   193.31696850
_cell_formula_units_Z   1
loop_
 _symmetry_equiv_pos_site_id
 _symmetry_equiv_pos_as_xyz
  1  'x, y, z'
loop_
 _atom_site_type_symbol
 _atom_site_label
 _atom_site_symmetry_multiplicity
 _atom_site_fract_x
 _atom_site_fract_y
 _atom_site_fract_z
 _atom_site_occupancy
  Lu  Lu0  1  0.597409  0.000714  0.500000  1
  Lu  Lu1  1  0.402591  0.403305  0.500000  1
  Pa  Pa2  1  0.000000  0.592879  0.500000  1
  In  In3  1  0.000000  0.254411  0.000000  1
  In  In4  1  0.270105  0.008607  0.000000  1
  In  In5  1  0.729895  0.738502  0.000000  1
  Pt  Pt6  1  0.000000  0.994087  0.500000  1
  Pt  Pt7  1  0.676723  0.342109  0.000000  1
  Pt  Pt8  1  0.323277  0.665387  0.000000  1
