# generated using pymatgen
data_YHoUFe2Ge7
_symmetry_space_group_name_H-M   'P 1'
_cell_length_a   12.47499887
_cell_length_b   12.47499813
_cell_length_c   4.17888900
_cell_angle_alpha   90.00000000
_cell_angle_beta   90.00000000
_cell_angle_gamma   160.39694690
_symmetry_Int_Tables_number   1
_chemical_formula_structural   YHoUFe2Ge7
_chemical_formula_sum   'Y1 Ho1 U1 Fe2 Ge7'
_cell_volume   218.19090994
_cell_formula_units_Z   1
loop_
 _symmetry_equiv_pos_site_id
 _symmetry_equiv_pos_as_xyz
  1  'x, y, z'
loop_
 _atom_site_type_symbol
 _atom_site_label
 _atom_site_symmetry_multiplicity
 _atom_site_fract_x
 _atom_site_fract_y
 _atom_site_fract_z
 _atom_site_occupancy
  Y  Y0  1  0.684819  0.315181  0.500000  1
  Ho  Ho1  1  0.315361  0.684639  0.500000  1
  U  U2  1  0.999973  0.000027  0.000000  1
  Fe  Fe3  1  0.125274  0.874726  0.000000  1
  Fe  Fe4  1  0.874610  0.125390  0.000000  1
  Ge  Ge5  1  0.500001  0.499999  0.500000  1
  Ge  Ge6  1  0.220284  0.779716  0.000000  1
  Ge  Ge7  1  0.779941  0.220059  0.000000  1
  Ge  Ge8  1  0.413035  0.586965  0.000000  1
  Ge  Ge9  1  0.586804  0.413196  0.000000  1
  Ge  Ge10  1  0.086289  0.913711  0.500000  1
  Ge  Ge11  1  0.913609  0.086391  0.500000  1
