# generated using pymatgen
data_Pr17Y(ErPb8)2
_symmetry_space_group_name_H-M   'P 1'
_cell_length_a   8.44433300
_cell_length_b   8.56242007
_cell_length_c   16.30375800
_cell_angle_alpha   90.00000000
_cell_angle_beta   90.00000000
_cell_angle_gamma   90.00894144
_symmetry_Int_Tables_number   1
_chemical_formula_structural   Pr17Y(ErPb8)2
_chemical_formula_sum   'Pr17 Y1 Er2 Pb16'
_cell_volume   1178.82570399
_cell_formula_units_Z   1
loop_
 _symmetry_equiv_pos_site_id
 _symmetry_equiv_pos_as_xyz
  1  'x, y, z'
loop_
 _atom_site_type_symbol
 _atom_site_label
 _atom_site_symmetry_multiplicity
 _atom_site_fract_x
 _atom_site_fract_y
 _atom_site_fract_z
 _atom_site_occupancy
  Pr  Pr0  1  0.378901  0.841868  0.881411  1
  Pr  Pr1  1  0.876942  0.659213  0.618413  1
  Pr  Pr2  1  0.622209  0.158502  0.380684  1
  Pr  Pr3  1  0.122342  0.341361  0.119911  1
  Pr  Pr4  1  0.622209  0.158502  0.119316  1
  Pr  Pr5  1  0.122342  0.341361  0.380089  1
  Pr  Pr6  1  0.378901  0.841868  0.618589  1
  Pr  Pr7  1  0.876942  0.659213  0.881587  1
  Pr  Pr8  1  0.533361  0.320776  0.899729  1
  Pr  Pr9  1  0.032354  0.176747  0.600527  1
  Pr  Pr10  1  0.466770  0.678115  0.398732  1
  Pr  Pr11  1  0.967149  0.821908  0.100717  1
  Pr  Pr12  1  0.466770  0.678115  0.101268  1
  Pr  Pr13  1  0.967149  0.821908  0.399283  1
  Pr  Pr14  1  0.533361  0.320776  0.600271  1
  Pr  Pr15  1  0.032354  0.176747  0.899473  1
  Pr  Pr16  1  0.208089  0.502311  0.750000  1
  Y  Y17  1  0.790085  0.497205  0.250000  1
  Er  Er18  1  0.709468  0.996087  0.750000  1
  Er  Er19  1  0.290305  0.003184  0.250000  1
  Pb  Pb20  1  0.281332  0.030830  0.046454  1
  Pb  Pb21  1  0.781518  0.469580  0.453677  1
  Pb  Pb22  1  0.719202  0.969626  0.545654  1
  Pb  Pb23  1  0.218646  0.532056  0.956410  1
  Pb  Pb24  1  0.719202  0.969626  0.954346  1
  Pb  Pb25  1  0.218646  0.532056  0.543590  1
  Pb  Pb26  1  0.281332  0.030830  0.453546  1
  Pb  Pb27  1  0.781518  0.469580  0.046323  1
  Pb  Pb28  1  0.576514  0.627531  0.750000  1
  Pb  Pb29  1  0.071114  0.879258  0.750000  1
  Pb  Pb30  1  0.428374  0.374962  0.250000  1
  Pb  Pb31  1  0.928027  0.124190  0.250000  1
  Pb  Pb32  1  0.344172  0.147578  0.750000  1
  Pb  Pb33  1  0.839464  0.345460  0.750000  1
  Pb  Pb34  1  0.656061  0.847374  0.250000  1
  Pb  Pb35  1  0.156881  0.653700  0.250000  1
