# generated using pymatgen
data_SmTm3Cr4F28
_symmetry_space_group_name_H-M   'P 1'
_cell_length_a   5.46695001
_cell_length_b   8.71546163
_cell_length_c   11.64445195
_cell_angle_alpha   63.13515333
_cell_angle_beta   90.11643372
_cell_angle_gamma   89.98459080
_symmetry_Int_Tables_number   1
_chemical_formula_structural   SmTm3Cr4F28
_chemical_formula_sum   'Sm1 Tm3 Cr4 F28'
_cell_volume   494.94234731
_cell_formula_units_Z   1
loop_
 _symmetry_equiv_pos_site_id
 _symmetry_equiv_pos_as_xyz
  1  'x, y, z'
loop_
 _atom_site_type_symbol
 _atom_site_label
 _atom_site_symmetry_multiplicity
 _atom_site_fract_x
 _atom_site_fract_y
 _atom_site_fract_z
 _atom_site_occupancy
  Sm  Sm0  1  0.735162  0.811839  0.265806  1
  Tm  Tm1  1  0.767102  0.812029  0.764973  1
  Tm  Tm2  1  0.267366  0.189353  0.734802  1
  Tm  Tm3  1  0.231581  0.195545  0.233360  1
  Cr  Cr4  1  0.758642  0.276594  0.954365  1
  Cr  Cr5  1  0.257876  0.724909  0.547726  1
  Cr  Cr6  1  0.244401  0.725775  0.039750  1
  Cr  Cr7  1  0.742401  0.270213  0.458205  1
  F  F8  1  0.436196  0.705887  0.918174  1
  F  F9  1  0.937409  0.291192  0.578711  1
  F  F10  1  0.564513  0.294234  0.076104  1
  F  F11  1  0.067749  0.705227  0.424661  1
  F  F12  1  0.454592  0.278501  0.547493  1
  F  F13  1  0.952734  0.719453  0.952258  1
  F  F14  1  0.545190  0.715309  0.461757  1
  F  F15  1  0.046299  0.282392  0.044681  1
  F  F16  1  0.767502  0.512232  0.860263  1
  F  F17  1  0.264591  0.488189  0.641139  1
  F  F18  1  0.232513  0.488790  0.135598  1
  F  F19  1  0.729835  0.505089  0.363302  1
  F  F20  1  0.757632  0.041777  0.044167  1
  F  F21  1  0.256904  0.959064  0.455519  1
  F  F22  1  0.243548  0.960492  0.951193  1
  F  F23  1  0.743047  0.035739  0.548247  1
  F  F24  1  0.975170  0.730207  0.640045  1
  F  F25  1  0.477833  0.270502  0.860307  1
  F  F26  1  0.024159  0.269946  0.363733  1
  F  F27  1  0.526184  0.727203  0.131583  1
  F  F28  1  0.058261  0.742453  0.166737  1
  F  F29  1  0.547188  0.251434  0.332744  1
  F  F30  1  0.953191  0.255132  0.830565  1
  F  F31  1  0.450690  0.745438  0.672260  1
  F  F32  1  0.400347  0.980282  0.226332  1
  F  F33  1  0.913736  0.036814  0.273287  1
  F  F34  1  0.584201  0.024317  0.771893  1
  F  F35  1  0.084254  0.976446  0.728260  1
