# generated using pymatgen
data_TbY3(Ga8Pt3)3
_symmetry_space_group_name_H-M   'P 1'
_cell_length_a   7.51780261
_cell_length_b   7.59264859
_cell_length_c   13.38853571
_cell_angle_alpha   84.77637531
_cell_angle_beta   79.54561448
_cell_angle_gamma   60.20496487
_symmetry_Int_Tables_number   1
_chemical_formula_structural   TbY3(Ga8Pt3)3
_chemical_formula_sum   'Tb1 Y3 Ga24 Pt9'
_cell_volume   652.18534774
_cell_formula_units_Z   1
loop_
 _symmetry_equiv_pos_site_id
 _symmetry_equiv_pos_as_xyz
  1  'x, y, z'
loop_
 _atom_site_type_symbol
 _atom_site_label
 _atom_site_symmetry_multiplicity
 _atom_site_fract_x
 _atom_site_fract_y
 _atom_site_fract_z
 _atom_site_occupancy
  Tb  Tb0  1  0.393231  0.168742  0.811263  1
  Y  Y1  1  0.607160  0.831071  0.188891  1
  Y  Y2  1  0.732574  0.497595  0.811349  1
  Y  Y3  1  0.267633  0.502595  0.188669  1
  Ga  Ga4  1  0.685557  0.833747  0.938811  1
  Ga  Ga5  1  0.314503  0.166136  0.061344  1
  Ga  Ga6  1  0.146176  0.832693  0.558981  1
  Ga  Ga7  1  0.853889  0.167327  0.440957  1
  Ga  Ga8  1  0.478540  0.166837  0.555999  1
  Ga  Ga9  1  0.521495  0.833081  0.443961  1
  Ga  Ga10  1  0.220010  0.165513  0.324709  1
  Ga  Ga11  1  0.780030  0.834461  0.675189  1
  Ga  Ga12  1  0.437671  0.503848  0.674512  1
  Ga  Ga13  1  0.562413  0.496170  0.325425  1
  Ga  Ga14  1  0.106979  0.163389  0.673878  1
  Ga  Ga15  1  0.893047  0.836670  0.326048  1
  Ga  Ga16  1  0.357155  0.498263  0.939022  1
  Ga  Ga17  1  0.642742  0.501914  0.061011  1
  Ga  Ga18  1  0.019277  0.169272  0.944299  1
  Ga  Ga19  1  0.980559  0.830671  0.055813  1
  Ga  Ga20  1  0.186827  0.499271  0.443172  1
  Ga  Ga21  1  0.813132  0.500746  0.556815  1
  Ga  Ga22  1  0.734507  0.163595  0.182252  1
  Ga  Ga23  1  0.265261  0.836469  0.817740  1
  Ga  Ga24  1  0.060935  0.631385  0.817076  1
  Ga  Ga25  1  0.939083  0.368506  0.182931  1
  Ga  Ga26  1  0.856207  0.040252  0.816893  1
  Ga  Ga27  1  0.143675  0.959812  0.183127  1
  Pt  Pt28  1  0.117809  0.495734  0.638679  1
  Pt  Pt29  1  0.882275  0.504327  0.361206  1
  Pt  Pt30  1  0.659922  0.169851  0.999376  1
  Pt  Pt31  1  0.339706  0.830247  0.000727  1
  Pt  Pt32  1  0.540624  0.166773  0.360512  1
  Pt  Pt33  1  0.459359  0.833194  0.639403  1
  Pt  Pt34  1  0.779551  0.171833  0.636842  1
  Pt  Pt35  1  0.220524  0.828124  0.363059  1
  Pt  Pt36  1  0.999957  0.499888  0.000054  1
