# generated using pymatgen
data_NdEu9(Sn5Pd2)4
_symmetry_space_group_name_H-M   'P 1'
_cell_length_a   14.39067100
_cell_length_b   14.40594168
_cell_length_c   4.72960600
_cell_angle_alpha   90.00000000
_cell_angle_beta   90.00000000
_cell_angle_gamma   90.01759925
_symmetry_Int_Tables_number   1
_chemical_formula_structural   NdEu9(Sn5Pd2)4
_chemical_formula_sum   'Nd1 Eu9 Sn20 Pd8'
_cell_volume   980.50009379
_cell_formula_units_Z   1
loop_
 _symmetry_equiv_pos_site_id
 _symmetry_equiv_pos_as_xyz
  1  'x, y, z'
loop_
 _atom_site_type_symbol
 _atom_site_label
 _atom_site_symmetry_multiplicity
 _atom_site_fract_x
 _atom_site_fract_y
 _atom_site_fract_z
 _atom_site_occupancy
  Nd  Nd0  1  0.679843  0.179729  0.500000  1
  Eu  Eu1  1  0.499252  0.500051  0.000000  1
  Eu  Eu2  1  0.999758  0.999437  0.000000  1
  Eu  Eu3  1  0.319197  0.819180  0.500000  1
  Eu  Eu4  1  0.181220  0.318485  0.500000  1
  Eu  Eu5  1  0.818485  0.681106  0.500000  1
  Eu  Eu6  1  0.889127  0.388764  0.500000  1
  Eu  Eu7  1  0.109918  0.609626  0.500000  1
  Eu  Eu8  1  0.391303  0.110285  0.500000  1
  Eu  Eu9  1  0.610027  0.891302  0.500000  1
  Sn  Sn10  1  0.568520  0.068945  0.000000  1
  Sn  Sn11  1  0.431077  0.931402  0.000000  1
  Sn  Sn12  1  0.068339  0.430947  0.000000  1
  Sn  Sn13  1  0.931052  0.568233  0.000000  1
  Sn  Sn14  1  0.651776  0.699221  0.000000  1
  Sn  Sn15  1  0.349098  0.300459  0.000000  1
  Sn  Sn16  1  0.151773  0.800405  0.000000  1
  Sn  Sn17  1  0.846983  0.200252  0.000000  1
  Sn  Sn18  1  0.300405  0.651563  0.000000  1
  Sn  Sn19  1  0.700308  0.346926  0.000000  1
  Sn  Sn20  1  0.199240  0.151891  0.000000  1
  Sn  Sn21  1  0.800522  0.849219  0.000000  1
  Sn  Sn22  1  0.662065  0.499461  0.500000  1
  Sn  Sn23  1  0.337763  0.501073  0.500000  1
  Sn  Sn24  1  0.162810  0.001792  0.500000  1
  Sn  Sn25  1  0.837313  0.000245  0.500000  1
  Sn  Sn26  1  0.501633  0.662745  0.500000  1
  Sn  Sn27  1  0.500327  0.337551  0.500000  1
  Sn  Sn28  1  0.999985  0.162099  0.500000  1
  Sn  Sn29  1  0.001570  0.837892  0.500000  1
  Pd  Pd30  1  0.746116  0.530253  0.000000  1
  Pd  Pd31  1  0.253490  0.468184  0.000000  1
  Pd  Pd32  1  0.246299  0.968584  0.000000  1
  Pd  Pd33  1  0.753606  0.032744  0.000000  1
  Pd  Pd34  1  0.468427  0.746536  0.000000  1
  Pd  Pd35  1  0.532702  0.253836  0.000000  1
  Pd  Pd36  1  0.030362  0.246209  0.000000  1
  Pd  Pd37  1  0.968313  0.753373  0.000000  1
