# generated using pymatgen
data_Cs4Dy9Y3S20
_symmetry_space_group_name_H-M   'P 1'
_cell_length_a   4.01383100
_cell_length_b   12.02776100
_cell_length_c   21.42233200
_cell_angle_alpha   90.00191766
_cell_angle_beta   90.00000000
_cell_angle_gamma   90.00000000
_symmetry_Int_Tables_number   1
_chemical_formula_structural   Cs4Dy9Y3S20
_chemical_formula_sum   'Cs4 Dy9 Y3 S20'
_cell_volume   1034.21448980
_cell_formula_units_Z   1
loop_
 _symmetry_equiv_pos_site_id
 _symmetry_equiv_pos_as_xyz
  1  'x, y, z'
loop_
 _atom_site_type_symbol
 _atom_site_label
 _atom_site_symmetry_multiplicity
 _atom_site_fract_x
 _atom_site_fract_y
 _atom_site_fract_z
 _atom_site_occupancy
  Cs  Cs0  1  0.250000  0.854145  0.093062  1
  Cs  Cs1  1  0.750000  0.145845  0.906938  1
  Cs  Cs2  1  0.750000  0.354156  0.406934  1
  Cs  Cs3  1  0.250000  0.645856  0.593055  1
  Dy  Dy4  1  0.750000  0.702535  0.325441  1
  Dy  Dy5  1  0.250000  0.957903  0.697556  1
  Dy  Dy6  1  0.750000  0.042065  0.302447  1
  Dy  Dy7  1  0.750000  0.457898  0.802437  1
  Dy  Dy8  1  0.250000  0.542085  0.197474  1
  Dy  Dy9  1  0.750000  0.390887  0.052883  1
  Dy  Dy10  1  0.250000  0.609112  0.947107  1
  Dy  Dy11  1  0.250000  0.890870  0.447134  1
  Dy  Dy12  1  0.750000  0.109097  0.552889  1
  Y  Y13  1  0.750000  0.797263  0.825444  1
  Y  Y14  1  0.250000  0.202719  0.174561  1
  Y  Y15  1  0.250000  0.297259  0.674554  1
  S  S16  1  0.250000  0.951425  0.568736  1
  S  S17  1  0.750000  0.048580  0.431271  1
  S  S18  1  0.750000  0.451414  0.931277  1
  S  S19  1  0.250000  0.548584  0.068742  1
  S  S20  1  0.750000  0.761785  0.951590  1
  S  S21  1  0.250000  0.238215  0.048410  1
  S  S22  1  0.250000  0.261795  0.548410  1
  S  S23  1  0.750000  0.738182  0.451459  1
  S  S24  1  0.250000  0.946884  0.824237  1
  S  S25  1  0.750000  0.053124  0.175757  1
  S  S26  1  0.750000  0.446879  0.675767  1
  S  S27  1  0.250000  0.553703  0.324268  1
  S  S28  1  0.750000  0.125820  0.682664  1
  S  S29  1  0.250000  0.873864  0.317329  1
  S  S30  1  0.250000  0.625814  0.817343  1
  S  S31  1  0.750000  0.374197  0.182670  1
  S  S32  1  0.750000  0.689413  0.198746  1
  S  S33  1  0.250000  0.310601  0.801403  1
  S  S34  1  0.250000  0.189422  0.301399  1
  S  S35  1  0.750000  0.810603  0.698604  1
