# generated using pymatgen
data_YNb8FeS16
_symmetry_space_group_name_H-M   'P 1'
_cell_length_a   6.70796600
_cell_length_b   6.70796603
_cell_length_c   12.75968800
_cell_angle_alpha   90.00000000
_cell_angle_beta   90.00000000
_cell_angle_gamma   119.99999985
_symmetry_Int_Tables_number   1
_chemical_formula_structural   YNb8FeS16
_chemical_formula_sum   'Y1 Nb8 Fe1 S16'
_cell_volume   497.22435710
_cell_formula_units_Z   1
loop_
 _symmetry_equiv_pos_site_id
 _symmetry_equiv_pos_as_xyz
  1  'x, y, z'
loop_
 _atom_site_type_symbol
 _atom_site_label
 _atom_site_symmetry_multiplicity
 _atom_site_fract_x
 _atom_site_fract_y
 _atom_site_fract_z
 _atom_site_occupancy
  Y  Y0  1  0.000000  0.000000  0.500000  1
  Nb  Nb1  1  0.000000  0.000000  0.229894  1
  Nb  Nb2  1  0.000000  0.000000  0.770106  1
  Nb  Nb3  1  0.505002  0.010005  0.225547  1
  Nb  Nb4  1  0.989995  0.494998  0.225547  1
  Nb  Nb5  1  0.505002  0.494998  0.225547  1
  Nb  Nb6  1  0.494998  0.989995  0.774453  1
  Nb  Nb7  1  0.010005  0.505002  0.774453  1
  Nb  Nb8  1  0.494998  0.505002  0.774453  1
  Fe  Fe9  1  0.000000  0.000000  0.000000  1
  S  S10  1  0.333333  0.666667  0.899120  1
  S  S11  1  0.666667  0.333333  0.100880  1
  S  S12  1  0.666667  0.333333  0.352472  1
  S  S13  1  0.333333  0.666667  0.647528  1
  S  S14  1  0.169637  0.830363  0.351533  1
  S  S15  1  0.169637  0.339275  0.351533  1
  S  S16  1  0.660725  0.830363  0.351533  1
  S  S17  1  0.830363  0.169637  0.648467  1
  S  S18  1  0.830363  0.660725  0.648467  1
  S  S19  1  0.339275  0.169637  0.648467  1
  S  S20  1  0.836604  0.163396  0.894719  1
  S  S21  1  0.836604  0.673208  0.894719  1
  S  S22  1  0.326792  0.163396  0.894719  1
  S  S23  1  0.163396  0.836604  0.105281  1
  S  S24  1  0.163396  0.326792  0.105281  1
  S  S25  1  0.673208  0.836604  0.105281  1
