# generated using pymatgen
data_Eu2Y3P12Ir10Ru9
_symmetry_space_group_name_H-M   'P 1'
_cell_length_a   12.62928000
_cell_length_b   12.62212134
_cell_length_c   3.99631800
_cell_angle_alpha   90.00000000
_cell_angle_beta   90.00000000
_cell_angle_gamma   120.01875776
_symmetry_Int_Tables_number   1
_chemical_formula_structural   Eu2Y3P12Ir10Ru9
_chemical_formula_sum   'Eu2 Y3 P12 Ir10 Ru9'
_cell_volume   551.59395013
_cell_formula_units_Z   1
loop_
 _symmetry_equiv_pos_site_id
 _symmetry_equiv_pos_as_xyz
  1  'x, y, z'
loop_
 _atom_site_type_symbol
 _atom_site_label
 _atom_site_symmetry_multiplicity
 _atom_site_fract_x
 _atom_site_fract_y
 _atom_site_fract_z
 _atom_site_occupancy
  Eu  Eu0  1  0.000088  0.184085  0.500000  1
  Eu  Eu1  1  0.816003  0.815915  0.500000  1
  Y  Y2  1  0.184572  0.000000  0.500000  1
  Y  Y3  1  0.665992  0.333146  0.000000  1
  Y  Y4  1  0.332845  0.666854  0.000000  1
  P  P5  1  0.000115  0.816214  0.000000  1
  P  P6  1  0.183901  0.183786  0.000000  1
  P  P7  1  0.816015  0.000000  0.000000  1
  P  P8  1  0.691200  0.175501  0.500000  1
  P  P9  1  0.824946  0.516451  0.500000  1
  P  P10  1  0.484164  0.309295  0.500000  1
  P  P11  1  0.174869  0.690705  0.500000  1
  P  P12  1  0.515699  0.824499  0.500000  1
  P  P13  1  0.308496  0.483549  0.500000  1
  P  P14  1  0.000042  0.367547  0.000000  1
  P  P15  1  0.632495  0.632453  0.000000  1
  P  P16  1  0.366865  0.000000  0.000000  1
  Ir  Ir17  1  0.001974  0.549624  0.000000  1
  Ir  Ir18  1  0.452350  0.450376  0.000000  1
  Ir  Ir19  1  0.547602  0.000000  0.000000  1
  Ir  Ir20  1  0.802622  0.182667  0.000000  1
  Ir  Ir21  1  0.818060  0.620171  0.000000  1
  Ir  Ir22  1  0.375575  0.192809  0.000000  1
  Ir  Ir23  1  0.182767  0.807191  0.000000  1
  Ir  Ir24  1  0.619956  0.817333  0.000000  1
  Ir  Ir25  1  0.197890  0.379829  0.000000  1
  Ir  Ir26  1  0.002652  0.000000  0.000000  1
  Ru  Ru27  1  0.001526  0.709918  0.500000  1
  Ru  Ru28  1  0.291608  0.290082  0.500000  1
  Ru  Ru29  1  0.708194  0.000000  0.500000  1
  Ru  Ru30  1  0.873085  0.364792  0.500000  1
  Ru  Ru31  1  0.636437  0.509195  0.500000  1
  Ru  Ru32  1  0.490581  0.127299  0.500000  1
  Ru  Ru33  1  0.363281  0.872701  0.500000  1
  Ru  Ru34  1  0.508291  0.635208  0.500000  1
  Ru  Ru35  1  0.127242  0.490805  0.500000  1
