# generated using pymatgen
data_CaYb(ThH5)2
_symmetry_space_group_name_H-M   'P 1'
_cell_length_a   3.72591800
_cell_length_b   5.58179403
_cell_length_c   15.15913800
_cell_angle_alpha   90.00595356
_cell_angle_beta   90.00000000
_cell_angle_gamma   90.00000000
_symmetry_Int_Tables_number   1
_chemical_formula_structural   CaYb(ThH5)2
_chemical_formula_sum   'Ca2 Yb2 Th4 H20'
_cell_volume   315.26924285
_cell_formula_units_Z   2
loop_
 _symmetry_equiv_pos_site_id
 _symmetry_equiv_pos_as_xyz
  1  'x, y, z'
loop_
 _atom_site_type_symbol
 _atom_site_label
 _atom_site_symmetry_multiplicity
 _atom_site_fract_x
 _atom_site_fract_y
 _atom_site_fract_z
 _atom_site_occupancy
  Ca  Ca0  1  0.761950  0.499222  0.306550  1
  Ca  Ca1  1  0.261950  0.000778  0.693450  1
  Yb  Yb2  1  0.738047  0.500769  0.807107  1
  Yb  Yb3  1  0.238047  0.999231  0.192893  1
  Th  Th4  1  0.231395  0.000534  0.931252  1
  Th  Th5  1  0.731395  0.499466  0.068748  1
  Th  Th6  1  0.268718  0.999744  0.430989  1
  Th  Th7  1  0.768718  0.500256  0.569011  1
  H  H8  1  0.731836  0.745027  0.944119  1
  H  H9  1  0.231836  0.754973  0.055881  1
  H  H10  1  0.768213  0.253688  0.445015  1
  H  H11  1  0.268213  0.246312  0.554985  1
  H  H12  1  0.237779  0.745519  0.814568  1
  H  H13  1  0.737779  0.754481  0.185432  1
  H  H14  1  0.261997  0.253771  0.313747  1
  H  H15  1  0.761997  0.246229  0.686253  1
  H  H16  1  0.737792  0.244242  0.185249  1
  H  H17  1  0.237792  0.255758  0.814751  1
  H  H18  1  0.761991  0.755082  0.686104  1
  H  H19  1  0.261991  0.744918  0.313896  1
  H  H20  1  0.731044  0.000323  0.834906  1
  H  H21  1  0.231044  0.499677  0.165094  1
  H  H22  1  0.769167  0.999583  0.333617  1
  H  H23  1  0.269167  0.500417  0.666383  1
  H  H24  1  0.231863  0.244232  0.056152  1
  H  H25  1  0.731863  0.255768  0.943848  1
  H  H26  1  0.268208  0.754464  0.555224  1
  H  H27  1  0.768208  0.745536  0.444776  1
