# generated using pymatgen
data_ZrTi3(SnRh5)2
_symmetry_space_group_name_H-M   'P 1'
_cell_length_a   5.56306800
_cell_length_b   5.56306726
_cell_length_c   8.08487100
_cell_angle_alpha   89.99933485
_cell_angle_beta   89.99933090
_cell_angle_gamma   96.65603479
_symmetry_Int_Tables_number   1
_chemical_formula_structural   ZrTi3(SnRh5)2
_chemical_formula_sum   'Zr1 Ti3 Sn2 Rh10'
_cell_volume   248.52190228
_cell_formula_units_Z   1
loop_
 _symmetry_equiv_pos_site_id
 _symmetry_equiv_pos_as_xyz
  1  'x, y, z'
loop_
 _atom_site_type_symbol
 _atom_site_label
 _atom_site_symmetry_multiplicity
 _atom_site_fract_x
 _atom_site_fract_y
 _atom_site_fract_z
 _atom_site_occupancy
  Zr  Zr0  1  0.779836  0.220164  0.000000  1
  Ti  Ti1  1  0.786596  0.213404  0.500000  1
  Ti  Ti2  1  0.210661  0.789339  0.000000  1
  Ti  Ti3  1  0.212468  0.787532  0.500000  1
  Sn  Sn4  1  0.498450  0.502883  0.746456  1
  Sn  Sn5  1  0.497117  0.501550  0.253544  1
  Rh  Rh6  1  0.738451  0.729801  0.000121  1
  Rh  Rh7  1  0.739991  0.738863  0.499928  1
  Rh  Rh8  1  0.270199  0.261549  0.999879  1
  Rh  Rh9  1  0.261137  0.260009  0.500072  1
  Rh  Rh10  1  0.496546  0.996091  0.744598  1
  Rh  Rh11  1  0.496429  0.995766  0.255287  1
  Rh  Rh12  1  0.002134  0.998157  0.253805  1
  Rh  Rh13  1  0.001843  0.997866  0.746195  1
  Rh  Rh14  1  0.004234  0.503571  0.744713  1
  Rh  Rh15  1  0.003909  0.503454  0.255402  1
