# generated using pymatgen
data_Li12Tb11Sm(WO6)8
_symmetry_space_group_name_H-M   'P 1'
_cell_length_a   10.73377035
_cell_length_b   10.72504174
_cell_length_c   10.72504603
_cell_angle_alpha   109.47938502
_cell_angle_beta   109.45084279
_cell_angle_gamma   109.45081718
_symmetry_Int_Tables_number   1
_chemical_formula_structural   Li12Tb11Sm(WO6)8
_chemical_formula_sum   'Li12 Tb11 Sm1 W8 O48'
_cell_volume   950.83078299
_cell_formula_units_Z   1
loop_
 _symmetry_equiv_pos_site_id
 _symmetry_equiv_pos_as_xyz
  1  'x, y, z'
loop_
 _atom_site_type_symbol
 _atom_site_label
 _atom_site_symmetry_multiplicity
 _atom_site_fract_x
 _atom_site_fract_y
 _atom_site_fract_z
 _atom_site_occupancy
  Li  Li0  1  0.875076  0.750699  0.125111  1
  Li  Li1  1  0.250000  0.874961  0.124963  1
  Li  Li2  1  0.875074  0.124377  0.249964  1
  Li  Li3  1  0.375149  0.625117  0.250098  1
  Li  Li4  1  0.624926  0.250035  0.375624  1
  Li  Li5  1  0.750001  0.625807  0.375807  1
  Li  Li6  1  0.250000  0.375040  0.625040  1
  Li  Li7  1  0.375151  0.750039  0.625053  1
  Li  Li8  1  0.124851  0.874950  0.749964  1
  Li  Li9  1  0.624922  0.374890  0.749301  1
  Li  Li10  1  0.124852  0.249904  0.874886  1
  Li  Li11  1  0.749999  0.124193  0.874193  1
  Tb  Tb12  1  0.374180  0.249564  0.124814  1
  Tb  Tb13  1  0.624845  0.874908  0.249811  1
  Tb  Tb14  1  0.125819  0.375186  0.250436  1
  Tb  Tb15  1  0.125821  0.750633  0.375384  1
  Tb  Tb16  1  0.250000  0.125001  0.375000  1
  Tb  Tb17  1  0.750001  0.875000  0.625000  1
  Tb  Tb18  1  0.875159  0.250189  0.625092  1
  Tb  Tb19  1  0.374183  0.124617  0.749367  1
  Tb  Tb20  1  0.875157  0.624968  0.750065  1
  Tb  Tb21  1  0.249999  0.624998  0.875000  1
  Tb  Tb22  1  0.624842  0.749935  0.875032  1
  Sm  Sm23  1  0.749999  0.374998  0.125000  1
  W  W24  1  0.999918  0.999787  0.999879  1
  W  W25  1  0.498589  0.998506  0.999101  1
  W  W26  1  0.498593  0.500084  0.999492  1
  W  W27  1  0.001407  0.500510  0.999916  1
  W  W28  1  0.999918  0.000127  0.500036  1
  W  W29  1  0.001409  0.500903  0.501493  1
  W  W30  1  0.500081  0.999961  0.499868  1
  W  W31  1  0.500083  0.500120  0.500211  1
  O  O32  1  0.118919  0.200012  0.026896  1
  O  O33  1  0.910321  0.326085  0.025429  1
  O  O34  1  0.407770  0.880347  0.081240  1
  O  O35  1  0.672845  0.699922  0.081230  1
  O  O36  1  0.672842  0.972923  0.091616  1
  O  O37  1  0.417706  0.619323  0.091382  1
  O  O38  1  0.200018  0.026722  0.118720  1
  O  O39  1  0.920691  0.593565  0.118769  1
  O  O40  1  0.579306  0.198076  0.172871  1
  O  O41  1  0.589680  0.474571  0.173916  1
  O  O42  1  0.026992  0.118640  0.200196  1
  O  O43  1  0.173828  0.581682  0.200476  1
  O  O44  1  0.920694  0.327130  0.301924  1
  O  O45  1  0.381082  0.473105  0.299989  1
  O  O46  1  0.299981  0.918703  0.326704  1
  O  O47  1  0.026990  0.908348  0.326791  1
  O  O48  1  0.473009  0.299802  0.381358  1
  O  O49  1  0.910323  0.584238  0.384892  1
  O  O50  1  0.527016  0.826614  0.408105  1
  O  O51  1  0.881160  0.081476  0.408241  1
  O  O52  1  0.618840  0.091758  0.418522  1
  O  O53  1  0.799917  0.826969  0.418712  1
  O  O54  1  0.299982  0.381280  0.473279  1
  O  O55  1  0.173831  0.592150  0.473358  1
  O  O56  1  0.700082  0.618795  0.527051  1
  O  O57  1  0.827157  0.408385  0.527075  1
  O  O58  1  0.200018  0.173295  0.581297  1
  O  O59  1  0.381082  0.907977  0.581091  1
  O  O60  1  0.118919  0.918905  0.592021  1
  O  O61  1  0.473010  0.173207  0.591650  1
  O  O62  1  0.527017  0.700403  0.618911  1
  O  O63  1  0.092228  0.418762  0.619653  1
  O  O64  1  0.700083  0.081287  0.673029  1
  O  O65  1  0.972986  0.091894  0.673385  1
  O  O66  1  0.082295  0.673678  0.701620  1
  O  O67  1  0.618841  0.527083  0.700318  1
  O  O68  1  0.972982  0.881088  0.799596  1
  O  O69  1  0.827155  0.418771  0.800079  1
  O  O70  1  0.407772  0.527424  0.826534  1
  O  O71  1  0.417703  0.798381  0.826323  1
  O  O72  1  0.082294  0.408618  0.880678  1
  O  O73  1  0.799917  0.972948  0.881204  1
  O  O74  1  0.579308  0.381231  0.906436  1
  O  O75  1  0.326169  0.026644  0.907853  1
  O  O76  1  0.326172  0.299525  0.918318  1
  O  O77  1  0.589675  0.115107  0.915765  1
  O  O78  1  0.092229  0.673467  0.972578  1
  O  O79  1  0.881160  0.799682  0.972918  1
