# generated using pymatgen
data_Pa4Co3NiSn2
_symmetry_space_group_name_H-M   'P 1'
_cell_length_a   7.44976518
_cell_length_b   7.44976518
_cell_length_c   3.51967900
_cell_angle_alpha   90.00000000
_cell_angle_beta   90.00000000
_cell_angle_gamma   90.12140938
_symmetry_Int_Tables_number   1
_chemical_formula_structural   Pa4Co3NiSn2
_chemical_formula_sum   'Pa4 Co3 Ni1 Sn2'
_cell_volume   195.33823070
_cell_formula_units_Z   1
loop_
 _symmetry_equiv_pos_site_id
 _symmetry_equiv_pos_as_xyz
  1  'x, y, z'
loop_
 _atom_site_type_symbol
 _atom_site_label
 _atom_site_symmetry_multiplicity
 _atom_site_fract_x
 _atom_site_fract_y
 _atom_site_fract_z
 _atom_site_occupancy
  Pa  Pa0  1  0.676337  0.170148  0.500000  1
  Pa  Pa1  1  0.329852  0.823663  0.500000  1
  Pa  Pa2  1  0.827122  0.672878  0.500000  1
  Pa  Pa3  1  0.163731  0.336269  0.500000  1
  Co  Co4  1  0.628092  0.871908  0.000000  1
  Co  Co5  1  0.131489  0.630766  0.000000  1
  Co  Co6  1  0.869234  0.368511  0.000000  1
  Ni  Ni7  1  0.371842  0.128158  0.000000  1
  Sn  Sn8  1  0.500703  0.498403  0.000000  1
  Sn  Sn9  1  0.001597  0.999297  0.000000  1
