# generated using pymatgen
data_Cs2IrRh3Se8
_symmetry_space_group_name_H-M   'P 1'
_cell_length_a   6.44468200
_cell_length_b   7.62985439
_cell_length_c   16.72337300
_cell_angle_alpha   89.93106046
_cell_angle_beta   90.00000000
_cell_angle_gamma   90.00000000
_symmetry_Int_Tables_number   1
_chemical_formula_structural   Cs2IrRh3Se8
_chemical_formula_sum   'Cs4 Ir2 Rh6 Se16'
_cell_volume   822.32085554
_cell_formula_units_Z   2
loop_
 _symmetry_equiv_pos_site_id
 _symmetry_equiv_pos_as_xyz
  1  'x, y, z'
loop_
 _atom_site_type_symbol
 _atom_site_label
 _atom_site_symmetry_multiplicity
 _atom_site_fract_x
 _atom_site_fract_y
 _atom_site_fract_z
 _atom_site_occupancy
  Cs  Cs0  1  0.349121  0.000000  0.000000  1
  Cs  Cs1  1  0.650879  0.500000  0.500000  1
  Cs  Cs2  1  0.032230  0.000000  0.500000  1
  Cs  Cs3  1  0.967770  0.500000  0.000000  1
  Ir  Ir4  1  0.500000  0.250000  0.250000  1
  Ir  Ir5  1  0.500000  0.750000  0.750000  1
  Rh  Rh6  1  0.003352  0.996564  0.250869  1
  Rh  Rh7  1  0.003352  0.003436  0.749131  1
  Rh  Rh8  1  0.996648  0.503436  0.249131  1
  Rh  Rh9  1  0.996648  0.496564  0.750869  1
  Rh  Rh10  1  0.500000  0.750000  0.250000  1
  Rh  Rh11  1  0.500000  0.250000  0.750000  1
  Se  Se12  1  0.837827  0.250407  0.325124  1
  Se  Se13  1  0.837827  0.749593  0.674876  1
  Se  Se14  1  0.160734  0.750325  0.173028  1
  Se  Se15  1  0.160734  0.249675  0.826972  1
  Se  Se16  1  0.162173  0.249593  0.174876  1
  Se  Se17  1  0.162173  0.750407  0.825124  1
  Se  Se18  1  0.839266  0.749675  0.326972  1
  Se  Se19  1  0.839266  0.250325  0.673028  1
  Se  Se20  1  0.666612  0.001473  0.174083  1
  Se  Se21  1  0.666612  0.998527  0.825917  1
  Se  Se22  1  0.333388  0.498527  0.325917  1
  Se  Se23  1  0.333388  0.501473  0.674083  1
  Se  Se24  1  0.344435  0.001169  0.326923  1
  Se  Se25  1  0.344435  0.998831  0.673077  1
  Se  Se26  1  0.655565  0.498831  0.173077  1
  Se  Se27  1  0.655565  0.501169  0.826923  1
