# generated using pymatgen
data_SrLi3NdCu9As7
_symmetry_space_group_name_H-M   'P 1'
_cell_length_a   4.05576500
_cell_length_b   9.88825113
_cell_length_c   9.88825000
_cell_angle_alpha   119.99999623
_cell_angle_beta   90.00000000
_cell_angle_gamma   90.00000000
_symmetry_Int_Tables_number   1
_chemical_formula_structural   SrLi3NdCu9As7
_chemical_formula_sum   'Sr1 Li3 Nd1 Cu9 As7'
_cell_volume   343.43326338
_cell_formula_units_Z   1
loop_
 _symmetry_equiv_pos_site_id
 _symmetry_equiv_pos_as_xyz
  1  'x, y, z'
loop_
 _atom_site_type_symbol
 _atom_site_label
 _atom_site_symmetry_multiplicity
 _atom_site_fract_x
 _atom_site_fract_y
 _atom_site_fract_z
 _atom_site_occupancy
  Sr  Sr0  1  0.500000  0.333333  0.666667  1
  Li  Li1  1  0.500000  0.792262  0.895176  1
  Li  Li2  1  0.500000  0.102915  0.207738  1
  Li  Li3  1  0.500000  0.104824  0.897085  1
  Nd  Nd4  1  0.000000  0.666667  0.333333  1
  Cu  Cu5  1  0.000000  0.579088  0.948220  1
  Cu  Cu6  1  0.000000  0.369131  0.420912  1
  Cu  Cu7  1  0.000000  0.051780  0.630869  1
  Cu  Cu8  1  0.000000  0.872553  0.153877  1
  Cu  Cu9  1  0.000000  0.281325  0.127447  1
  Cu  Cu10  1  0.000000  0.846123  0.718675  1
  Cu  Cu11  1  0.500000  0.951478  0.381994  1
  Cu  Cu12  1  0.500000  0.430517  0.048522  1
  Cu  Cu13  1  0.500000  0.618006  0.569483  1
  As  As14  1  0.500000  0.707548  0.117594  1
  As  As15  1  0.500000  0.410047  0.292452  1
  As  As16  1  0.500000  0.882406  0.589953  1
  As  As17  1  0.000000  0.000000  0.000000  1
  As  As18  1  0.000000  0.588302  0.695629  1
  As  As19  1  0.000000  0.107326  0.411698  1
  As  As20  1  0.000000  0.304371  0.892674  1
