# generated using pymatgen
data_YHf3(Al3Rh)6
_symmetry_space_group_name_H-M   'P 1'
_cell_length_a   7.48610590
_cell_length_b   7.47934934
_cell_length_c   9.29033600
_cell_angle_alpha   90.00000000
_cell_angle_beta   90.00000000
_cell_angle_gamma   119.73050540
_symmetry_Int_Tables_number   1
_chemical_formula_structural   YHf3(Al3Rh)6
_chemical_formula_sum   'Y1 Hf3 Al18 Rh6'
_cell_volume   451.70491522
_cell_formula_units_Z   1
loop_
 _symmetry_equiv_pos_site_id
 _symmetry_equiv_pos_as_xyz
  1  'x, y, z'
loop_
 _atom_site_type_symbol
 _atom_site_label
 _atom_site_symmetry_multiplicity
 _atom_site_fract_x
 _atom_site_fract_y
 _atom_site_fract_z
 _atom_site_occupancy
  Y  Y0  1  0.329059  0.006429  0.750000  1
  Hf  Hf1  1  0.993676  0.671572  0.250000  1
  Hf  Hf2  1  0.005894  0.329060  0.750000  1
  Hf  Hf3  1  0.671776  0.994073  0.250000  1
  Al  Al4  1  0.121141  0.122425  0.250000  1
  Al  Al5  1  0.871911  0.876119  0.750000  1
  Al  Al6  1  0.996223  0.334730  0.078510  1
  Al  Al7  1  0.000179  0.661944  0.926253  1
  Al  Al8  1  0.000179  0.661944  0.573747  1
  Al  Al9  1  0.335009  0.997003  0.417517  1
  Al  Al10  1  0.996223  0.334730  0.421490  1
  Al  Al11  1  0.668546  0.003060  0.573875  1
  Al  Al12  1  0.668546  0.003060  0.926125  1
  Al  Al13  1  0.335009  0.997003  0.082483  1
  Al  Al14  1  0.330771  0.333715  0.554149  1
  Al  Al15  1  0.669091  0.669101  0.439049  1
  Al  Al16  1  0.669091  0.669101  0.060951  1
  Al  Al17  1  0.330771  0.333715  0.945851  1
  Al  Al18  1  0.338447  0.554247  0.250000  1
  Al  Al19  1  0.667092  0.451876  0.750000  1
  Al  Al20  1  0.555893  0.339675  0.250000  1
  Al  Al21  1  0.445459  0.655953  0.750000  1
  Rh  Rh22  1  0.673253  0.327949  0.001569  1
  Rh  Rh23  1  0.327961  0.673080  0.002153  1
  Rh  Rh24  1  0.327961  0.673080  0.497847  1
  Rh  Rh25  1  0.673253  0.327949  0.498431  1
  Rh  Rh26  1  0.998794  0.998705  0.001953  1
  Rh  Rh27  1  0.998794  0.998705  0.498047  1
