# generated using pymatgen
data_TbCo4P3Ru
_symmetry_space_group_name_H-M   'P 1'
_cell_length_a   3.70294500
_cell_length_b   10.42601400
_cell_length_c   11.81014800
_cell_angle_alpha   90.00000000
_cell_angle_beta   90.00000000
_cell_angle_gamma   90.00000000
_symmetry_Int_Tables_number   1
_chemical_formula_structural   TbCo4P3Ru
_chemical_formula_sum   'Tb4 Co16 P12 Ru4'
_cell_volume   455.95386905
_cell_formula_units_Z   4
loop_
 _symmetry_equiv_pos_site_id
 _symmetry_equiv_pos_as_xyz
  1  'x, y, z'
loop_
 _atom_site_type_symbol
 _atom_site_label
 _atom_site_symmetry_multiplicity
 _atom_site_fract_x
 _atom_site_fract_y
 _atom_site_fract_z
 _atom_site_occupancy
  Tb  Tb0  1  0.250000  0.586092  0.704149  1
  Tb  Tb1  1  0.250000  0.913908  0.204149  1
  Tb  Tb2  1  0.750000  0.413908  0.295851  1
  Tb  Tb3  1  0.750000  0.086092  0.795851  1
  Co  Co4  1  0.250000  0.408525  0.489860  1
  Co  Co5  1  0.250000  0.091475  0.989860  1
  Co  Co6  1  0.750000  0.591475  0.510140  1
  Co  Co7  1  0.750000  0.908525  0.010140  1
  Co  Co8  1  0.250000  0.221186  0.176769  1
  Co  Co9  1  0.250000  0.278814  0.676769  1
  Co  Co10  1  0.750000  0.778814  0.823231  1
  Co  Co11  1  0.750000  0.721186  0.323231  1
  Co  Co12  1  0.250000  0.887032  0.702315  1
  Co  Co13  1  0.250000  0.612968  0.202315  1
  Co  Co14  1  0.750000  0.112968  0.297685  1
  Co  Co15  1  0.750000  0.387032  0.797685  1
  Co  Co16  1  0.250000  0.465162  0.930765  1
  Co  Co17  1  0.250000  0.034838  0.430765  1
  Co  Co18  1  0.750000  0.534838  0.069235  1
  Co  Co19  1  0.750000  0.965162  0.569235  1
  P  P20  1  0.250000  0.419961  0.111578  1
  P  P21  1  0.250000  0.080039  0.611578  1
  P  P22  1  0.750000  0.580039  0.888422  1
  P  P23  1  0.750000  0.919961  0.388422  1
  P  P24  1  0.250000  0.272321  0.867149  1
  P  P25  1  0.250000  0.227679  0.367149  1
  P  P26  1  0.750000  0.727679  0.132851  1
  P  P27  1  0.750000  0.772321  0.632851  1
  P  P28  1  0.250000  0.596259  0.390385  1
  P  P29  1  0.250000  0.903741  0.890385  1
  P  P30  1  0.750000  0.403741  0.609615  1
  P  P31  1  0.750000  0.096259  0.109615  1
  Ru  Ru32  1  0.250000  0.716627  0.992175  1
  Ru  Ru33  1  0.250000  0.783373  0.492175  1
  Ru  Ru34  1  0.750000  0.283373  0.007825  1
  Ru  Ru35  1  0.750000  0.216627  0.507825  1
