# generated using pymatgen
data_YbMo2(P2O7)2
_symmetry_space_group_name_H-M   'P 1'
_cell_length_a   5.09620659
_cell_length_b   7.05581427
_cell_length_c   8.48966600
_cell_angle_alpha   91.70723726
_cell_angle_beta   91.81566207
_cell_angle_gamma   106.94042709
_symmetry_Int_Tables_number   1
_chemical_formula_structural   YbMo2(P2O7)2
_chemical_formula_sum   'Yb1 Mo2 P4 O14'
_cell_volume   291.63439506
_cell_formula_units_Z   1
loop_
 _symmetry_equiv_pos_site_id
 _symmetry_equiv_pos_as_xyz
  1  'x, y, z'
loop_
 _atom_site_type_symbol
 _atom_site_label
 _atom_site_symmetry_multiplicity
 _atom_site_fract_x
 _atom_site_fract_y
 _atom_site_fract_z
 _atom_site_occupancy
  Yb  Yb0  1  0.687186  0.992042  0.028512  1
  Mo  Mo1  1  0.493495  0.001791  0.502277  1
  Mo  Mo2  1  0.000961  0.505232  0.996823  1
  P  P3  1  0.478674  0.366071  0.235066  1
  P  P4  1  0.516197  0.630514  0.763544  1
  P  P5  1  0.875822  0.768745  0.295055  1
  P  P6  1  0.109505  0.226154  0.706883  1
  O  O7  1  0.686501  0.905768  0.296253  1
  O  O8  1  0.307632  0.100845  0.701540  1
  O  O9  1  0.885845  0.186958  0.579556  1
  O  O10  1  0.106194  0.810877  0.416757  1
  O  O11  1  0.240452  0.438582  0.181170  1
  O  O12  1  0.758230  0.556720  0.808243  1
  O  O13  1  0.003384  0.224610  0.879217  1
  O  O14  1  0.955220  0.771150  0.117717  1
  O  O15  1  0.278171  0.455538  0.677678  1
  O  O16  1  0.698597  0.546940  0.331305  1
  O  O17  1  0.637217  0.304674  0.096431  1
  O  O18  1  0.386949  0.698487  0.913047  1
  O  O19  1  0.596740  0.797577  0.651745  1
  O  O20  1  0.391930  0.200924  0.347483  1
