# generated using pymatgen
data_La2Y(Ga2Ni3)3
_symmetry_space_group_name_H-M   'P 1'
_cell_length_a   4.09980700
_cell_length_b   8.89666945
_cell_length_c   8.95484483
_cell_angle_alpha   119.78532860
_cell_angle_beta   90.00000000
_cell_angle_gamma   90.00000000
_symmetry_Int_Tables_number   1
_chemical_formula_structural   La2Y(Ga2Ni3)3
_chemical_formula_sum   'La2 Y1 Ga6 Ni9'
_cell_volume   283.47512716
_cell_formula_units_Z   1
loop_
 _symmetry_equiv_pos_site_id
 _symmetry_equiv_pos_as_xyz
  1  'x, y, z'
loop_
 _atom_site_type_symbol
 _atom_site_label
 _atom_site_symmetry_multiplicity
 _atom_site_fract_x
 _atom_site_fract_y
 _atom_site_fract_z
 _atom_site_occupancy
  La  La0  1  0.500000  0.332804  0.665921  1
  La  La1  1  0.500000  0.666884  0.334079  1
  Y  Y2  1  0.000000  0.998035  0.000000  1
  Ga  Ga3  1  0.000000  0.524659  0.000000  1
  Ga  Ga4  1  0.000000  0.476065  0.474912  1
  Ga  Ga5  1  0.000000  0.001153  0.525088  1
  Ga  Ga6  1  0.500000  0.265201  0.000000  1
  Ga  Ga7  1  0.500000  0.734647  0.734680  1
  Ga  Ga8  1  0.500000  0.999966  0.265320  1
  Ni  Ni9  1  0.000000  0.168559  0.366275  1
  Ni  Ni10  1  0.000000  0.198041  0.831929  1
  Ni  Ni11  1  0.000000  0.631274  0.799062  1
  Ni  Ni12  1  0.000000  0.802283  0.633725  1
  Ni  Ni13  1  0.000000  0.366112  0.168071  1
  Ni  Ni14  1  0.000000  0.832212  0.200938  1
  Ni  Ni15  1  0.500000  0.713823  0.000000  1
  Ni  Ni16  1  0.500000  0.287461  0.286735  1
  Ni  Ni17  1  0.500000  0.000724  0.713265  1
