# generated using pymatgen
data_PaVBr6
_symmetry_space_group_name_H-M   'P 1'
_cell_length_a   6.89749926
_cell_length_b   6.87427049
_cell_length_c   7.12104953
_cell_angle_alpha   90.14644102
_cell_angle_beta   90.30291587
_cell_angle_gamma   120.27970562
_symmetry_Int_Tables_number   1
_chemical_formula_structural   PaVBr6
_chemical_formula_sum   'Pa1 V1 Br6'
_cell_volume   291.57342412
_cell_formula_units_Z   1
loop_
 _symmetry_equiv_pos_site_id
 _symmetry_equiv_pos_as_xyz
  1  'x, y, z'
loop_
 _atom_site_type_symbol
 _atom_site_label
 _atom_site_symmetry_multiplicity
 _atom_site_fract_x
 _atom_site_fract_y
 _atom_site_fract_z
 _atom_site_occupancy
  Pa  Pa0  1  0.666674  0.333598  0.999979  1
  V  V1  1  0.333528  0.666747  0.999993  1
  Br  Br2  1  0.638481  0.661030  0.221697  1
  Br  Br3  1  0.023096  0.362962  0.221235  1
  Br  Br4  1  0.340712  0.977977  0.221634  1
  Br  Br5  1  0.636726  0.976878  0.778330  1
  Br  Br6  1  0.022009  0.659408  0.778511  1
  Br  Br7  1  0.338771  0.361395  0.778622  1
