# generated using pymatgen
data_EuHo2Er(ZnSn)4
_symmetry_space_group_name_H-M   'P 1'
_cell_length_a   4.53947100
_cell_length_b   4.53947144
_cell_length_c   15.89894700
_cell_angle_alpha   90.00000000
_cell_angle_beta   90.00000000
_cell_angle_gamma   119.99998952
_symmetry_Int_Tables_number   1
_chemical_formula_structural   EuHo2Er(ZnSn)4
_chemical_formula_sum   'Eu1 Ho2 Er1 Zn4 Sn4'
_cell_volume   283.73281904
_cell_formula_units_Z   1
loop_
 _symmetry_equiv_pos_site_id
 _symmetry_equiv_pos_as_xyz
  1  'x, y, z'
loop_
 _atom_site_type_symbol
 _atom_site_label
 _atom_site_symmetry_multiplicity
 _atom_site_fract_x
 _atom_site_fract_y
 _atom_site_fract_z
 _atom_site_occupancy
  Eu  Eu0  1  0.000000  0.000000  0.999982  1
  Ho  Ho1  1  0.000000  0.000000  0.256870  1
  Ho  Ho2  1  0.000000  0.000000  0.500371  1
  Er  Er3  1  0.000000  0.000000  0.743086  1
  Zn  Zn4  1  0.333333  0.666667  0.169916  1
  Zn  Zn5  1  0.666667  0.333333  0.829361  1
  Zn  Zn6  1  0.666667  0.333333  0.656954  1
  Zn  Zn7  1  0.333333  0.666667  0.343437  1
  Sn  Sn8  1  0.333333  0.666667  0.609097  1
  Sn  Sn9  1  0.666667  0.333333  0.391487  1
  Sn  Sn10  1  0.666667  0.333333  0.123575  1
  Sn  Sn11  1  0.333333  0.666667  0.875866  1
