# generated using pymatgen
data_Dy4Y8ZnCo4Sn
_symmetry_space_group_name_H-M   'P 1'
_cell_length_a   8.33111095
_cell_length_b   8.33179242
_cell_length_c   8.33111168
_cell_angle_alpha   111.88767120
_cell_angle_beta   109.20248871
_cell_angle_gamma   107.35247956
_symmetry_Int_Tables_number   1
_chemical_formula_structural   Dy4Y8ZnCo4Sn
_chemical_formula_sum   'Dy4 Y8 Zn1 Co4 Sn1'
_cell_volume   444.47673077
_cell_formula_units_Z   1
loop_
 _symmetry_equiv_pos_site_id
 _symmetry_equiv_pos_as_xyz
  1  'x, y, z'
loop_
 _atom_site_type_symbol
 _atom_site_label
 _atom_site_symmetry_multiplicity
 _atom_site_fract_x
 _atom_site_fract_y
 _atom_site_fract_z
 _atom_site_occupancy
  Dy  Dy0  1  0.324029  0.636412  0.312383  1
  Dy  Dy1  1  0.675971  0.363588  0.687617  1
  Dy  Dy2  1  0.324015  0.011591  0.687576  1
  Dy  Dy3  1  0.675985  0.988409  0.312424  1
  Y  Y4  1  0.428379  0.228658  0.199767  1
  Y  Y5  1  0.571621  0.771342  0.800233  1
  Y  Y6  1  0.028890  0.228658  0.800280  1
  Y  Y7  1  0.971110  0.771342  0.199720  1
  Y  Y8  1  0.181421  0.283475  0.464901  1
  Y  Y9  1  0.818579  0.716525  0.535099  1
  Y  Y10  1  0.181427  0.716525  0.897946  1
  Y  Y11  1  0.818573  0.283475  0.102054  1
  Zn  Zn12  1  0.000000  0.000000  0.000000  1
  Co  Co13  1  0.347123  0.000000  0.347123  1
  Co  Co14  1  0.652877  0.000000  0.652877  1
  Co  Co15  1  0.114096  0.614086  0.499990  1
  Co  Co16  1  0.885904  0.385914  0.500010  1
  Sn  Sn17  1  0.500000  0.500000  0.000000  1
