# generated using pymatgen
data_KCuWS4
_symmetry_space_group_name_H-M   'P 1'
_cell_length_a   6.77770259
_cell_length_b   6.77770378
_cell_length_c   6.77770328
_cell_angle_alpha   132.05977894
_cell_angle_beta   106.85233200
_cell_angle_gamma   92.30324938
_symmetry_Int_Tables_number   1
_chemical_formula_structural   KCuWS4
_chemical_formula_sum   'K1 Cu1 W1 S4'
_cell_volume   208.84910144
_cell_formula_units_Z   1
loop_
 _symmetry_equiv_pos_site_id
 _symmetry_equiv_pos_as_xyz
  1  'x, y, z'
loop_
 _atom_site_type_symbol
 _atom_site_label
 _atom_site_symmetry_multiplicity
 _atom_site_fract_x
 _atom_site_fract_y
 _atom_site_fract_z
 _atom_site_occupancy
  K  K0  1  0.500000  0.000000  0.500000  1
  Cu  Cu1  1  0.000000  0.500000  0.500000  1
  W  W2  1  0.000000  0.000000  0.000000  1
  S  S3  1  0.978894  0.374091  0.079497  1
  S  S4  1  0.294594  0.899398  0.920503  1
  S  S5  1  0.021106  0.100602  0.395197  1
  S  S6  1  0.705406  0.625909  0.604803  1
