# generated using pymatgen
data_TbNiHgPt3
_symmetry_space_group_name_H-M   'P 1'
_cell_length_a   5.20272880
_cell_length_b   5.20272868
_cell_length_c   5.20272916
_cell_angle_alpha   62.65096216
_cell_angle_beta   62.65096078
_cell_angle_gamma   62.65096191
_symmetry_Int_Tables_number   1
_chemical_formula_structural   TbNiHgPt3
_chemical_formula_sum   'Tb1 Ni1 Hg1 Pt3'
_cell_volume   105.45780962
_cell_formula_units_Z   1
loop_
 _symmetry_equiv_pos_site_id
 _symmetry_equiv_pos_as_xyz
  1  'x, y, z'
loop_
 _atom_site_type_symbol
 _atom_site_label
 _atom_site_symmetry_multiplicity
 _atom_site_fract_x
 _atom_site_fract_y
 _atom_site_fract_z
 _atom_site_occupancy
  Tb  Tb0  1  0.249358  0.249358  0.249358  1
  Ni  Ni1  1  0.626367  0.626367  0.626367  1
  Hg  Hg2  1  0.997988  0.997988  0.997988  1
  Pt  Pt3  1  0.625717  0.625717  0.124852  1
  Pt  Pt4  1  0.625717  0.124852  0.625717  1
  Pt  Pt5  1  0.124852  0.625717  0.625717  1
