# generated using pymatgen
data_PuAgO4
_symmetry_space_group_name_H-M   'P 1'
_cell_length_a   5.03863751
_cell_length_b   5.03863898
_cell_length_c   6.96679200
_cell_angle_alpha   90.00013133
_cell_angle_beta   89.99986688
_cell_angle_gamma   86.92431552
_symmetry_Int_Tables_number   1
_chemical_formula_structural   PuAgO4
_chemical_formula_sum   'Pu2 Ag2 O8'
_cell_volume   176.61726806
_cell_formula_units_Z   2
loop_
 _symmetry_equiv_pos_site_id
 _symmetry_equiv_pos_as_xyz
  1  'x, y, z'
loop_
 _atom_site_type_symbol
 _atom_site_label
 _atom_site_symmetry_multiplicity
 _atom_site_fract_x
 _atom_site_fract_y
 _atom_site_fract_z
 _atom_site_occupancy
  Pu  Pu0  1  0.499191  0.500810  0.250001  1
  Pu  Pu1  1  0.500808  0.499193  0.750000  1
  Ag  Ag2  1  0.000001  0.999999  0.999978  1
  Ag  Ag3  1  0.000001  0.999999  0.500022  1
  O  O4  1  0.245491  0.249105  0.250000  1
  O  O5  1  0.750895  0.754509  0.250000  1
  O  O6  1  0.249195  0.245581  0.750000  1
  O  O7  1  0.754419  0.750805  0.750000  1
  O  O8  1  0.316521  0.683479  0.998987  1
  O  O9  1  0.316521  0.683479  0.501013  1
  O  O10  1  0.683479  0.316521  0.498945  1
  O  O11  1  0.683479  0.316521  0.001056  1
