# generated using pymatgen
data_UTa2Br15
_symmetry_space_group_name_H-M   'P 1'
_cell_length_a   14.77317040
_cell_length_b   14.77147584
_cell_length_c   6.91533323
_cell_angle_alpha   89.31946206
_cell_angle_beta   89.34114062
_cell_angle_gamma   85.71629454
_symmetry_Int_Tables_number   1
_chemical_formula_structural   UTa2Br15
_chemical_formula_sum   'U2 Ta4 Br30'
_cell_volume   1504.66750505
_cell_formula_units_Z   2
loop_
 _symmetry_equiv_pos_site_id
 _symmetry_equiv_pos_as_xyz
  1  'x, y, z'
loop_
 _atom_site_type_symbol
 _atom_site_label
 _atom_site_symmetry_multiplicity
 _atom_site_fract_x
 _atom_site_fract_y
 _atom_site_fract_z
 _atom_site_occupancy
  U  U0  1  0.602909  0.397165  0.500100  1
  U  U1  1  0.269684  0.063816  0.021839  1
  Ta  Ta2  1  0.390249  0.610302  0.499675  1
  Ta  Ta3  1  0.056816  0.276326  0.020952  1
  Ta  Ta4  1  0.727519  0.938827  0.978741  1
  Ta  Ta5  1  0.938242  0.728230  0.978746  1
  Br  Br6  1  0.111916  0.122703  0.810428  1
  Br  Br7  1  0.880102  0.879494  0.178313  1
  Br  Br8  1  0.303687  0.923231  0.792874  1
  Br  Br9  1  0.929844  0.302482  0.803199  1
  Br  Br10  1  0.703285  0.065447  0.199491  1
  Br  Br11  1  0.065681  0.703217  0.199786  1
  Br  Br12  1  0.167284  0.967140  0.251338  1
  Br  Br13  1  0.979341  0.169992  0.234227  1
  Br  Br14  1  0.831326  0.020791  0.764414  1
  Br  Br15  1  0.021898  0.830433  0.764019  1
  Br  Br16  1  0.410114  0.029585  0.250469  1
  Br  Br17  1  0.030495  0.404250  0.237182  1
  Br  Br18  1  0.600684  0.963207  0.758445  1
  Br  Br19  1  0.963144  0.600691  0.758192  1
  Br  Br20  1  0.210599  0.221370  0.233081  1
  Br  Br21  1  0.786996  0.786515  0.778828  1
  Br  Br22  1  0.501233  0.300815  0.280450  1
  Br  Br23  1  0.312345  0.503623  0.296168  1
  Br  Br24  1  0.496499  0.687325  0.703924  1
  Br  Br25  1  0.699306  0.499338  0.719439  1
  Br  Br26  1  0.366219  0.166022  0.792429  1
  Br  Br27  1  0.164151  0.354271  0.808856  1
  Br  Br28  1  0.645916  0.834583  0.192719  1
  Br  Br29  1  0.835622  0.644755  0.192977  1
  Br  Br30  1  0.743902  0.362878  0.266440  1
  Br  Br31  1  0.363964  0.737695  0.277497  1
  Br  Br32  1  0.262428  0.636296  0.721885  1
  Br  Br33  1  0.637665  0.256310  0.733224  1
  Br  Br34  1  0.544005  0.555159  0.283353  1
  Br  Br35  1  0.444928  0.455713  0.716301  1
