# generated using pymatgen
data_Tb4HfMg3Ir4
_symmetry_space_group_name_H-M   'P 1'
_cell_length_a   4.19738000
_cell_length_b   7.12307964
_cell_length_c   8.54993900
_cell_angle_alpha   91.72863208
_cell_angle_beta   90.00000000
_cell_angle_gamma   90.00000000
_symmetry_Int_Tables_number   1
_chemical_formula_structural   Tb4HfMg3Ir4
_chemical_formula_sum   'Tb4 Hf1 Mg3 Ir4'
_cell_volume   255.51206812
_cell_formula_units_Z   1
loop_
 _symmetry_equiv_pos_site_id
 _symmetry_equiv_pos_as_xyz
  1  'x, y, z'
loop_
 _atom_site_type_symbol
 _atom_site_label
 _atom_site_symmetry_multiplicity
 _atom_site_fract_x
 _atom_site_fract_y
 _atom_site_fract_z
 _atom_site_occupancy
  Tb  Tb0  1  0.250000  0.958824  0.322343  1
  Tb  Tb1  1  0.250000  0.478100  0.169882  1
  Tb  Tb2  1  0.750000  0.023349  0.682363  1
  Tb  Tb3  1  0.750000  0.540253  0.830116  1
  Hf  Hf4  1  0.250000  0.364534  0.559133  1
  Mg  Mg5  1  0.250000  0.866067  0.939837  1
  Mg  Mg6  1  0.750000  0.640928  0.432899  1
  Mg  Mg7  1  0.750000  0.142211  0.061078  1
  Ir  Ir8  1  0.250000  0.248029  0.860866  1
  Ir  Ir9  1  0.250000  0.731398  0.623438  1
  Ir  Ir10  1  0.750000  0.759460  0.126142  1
  Ir  Ir11  1  0.750000  0.246846  0.391903  1
