# generated using pymatgen
data_PrSm3(Rh2O7)2
_symmetry_space_group_name_H-M   'P 1'
_cell_length_a   7.35509522
_cell_length_b   7.35509545
_cell_length_c   7.35509636
_cell_angle_alpha   59.88719997
_cell_angle_beta   59.88719863
_cell_angle_gamma   59.88718939
_symmetry_Int_Tables_number   1
_chemical_formula_structural   PrSm3(Rh2O7)2
_chemical_formula_sum   'Pr1 Sm3 Rh4 O14'
_cell_volume   280.63190322
_cell_formula_units_Z   1
loop_
 _symmetry_equiv_pos_site_id
 _symmetry_equiv_pos_as_xyz
  1  'x, y, z'
loop_
 _atom_site_type_symbol
 _atom_site_label
 _atom_site_symmetry_multiplicity
 _atom_site_fract_x
 _atom_site_fract_y
 _atom_site_fract_z
 _atom_site_occupancy
  Pr  Pr0  1  0.125000  0.125000  0.125000  1
  Sm  Sm1  1  0.125000  0.625000  0.125000  1
  Sm  Sm2  1  0.625000  0.125000  0.125000  1
  Sm  Sm3  1  0.125000  0.125000  0.625000  1
  Rh  Rh4  1  0.625000  0.625000  0.625000  1
  Rh  Rh5  1  0.625000  0.625000  0.125000  1
  Rh  Rh6  1  0.125000  0.625000  0.625000  1
  Rh  Rh7  1  0.625000  0.125000  0.625000  1
  O  O8  1  0.252029  0.252029  0.252029  1
  O  O9  1  0.292524  0.704443  0.292524  1
  O  O10  1  0.957476  0.957476  0.545557  1
  O  O11  1  0.541386  0.958646  0.541386  1
  O  O12  1  0.708614  0.708614  0.291354  1
  O  O13  1  0.958646  0.541386  0.541386  1
  O  O14  1  0.708614  0.291354  0.708614  1
  O  O15  1  0.292524  0.292524  0.704443  1
  O  O16  1  0.704443  0.292524  0.292524  1
  O  O17  1  0.291354  0.708614  0.708614  1
  O  O18  1  0.957476  0.545557  0.957476  1
  O  O19  1  0.541386  0.541386  0.958646  1
  O  O20  1  0.997971  0.997971  0.997971  1
  O  O21  1  0.545557  0.957476  0.957476  1
