# generated using pymatgen
data_Li4Ho2ThSn4
_symmetry_space_group_name_H-M   'P 1'
_cell_length_a   8.63859758
_cell_length_b   8.63859819
_cell_length_c   8.63859892
_cell_angle_alpha   148.68307950
_cell_angle_beta   131.82374501
_cell_angle_gamma   58.59080728
_symmetry_Int_Tables_number   1
_chemical_formula_structural   Li4Ho2ThSn4
_chemical_formula_sum   'Li4 Ho2 Th1 Sn4'
_cell_volume   247.72946865
_cell_formula_units_Z   1
loop_
 _symmetry_equiv_pos_site_id
 _symmetry_equiv_pos_as_xyz
  1  'x, y, z'
loop_
 _atom_site_type_symbol
 _atom_site_label
 _atom_site_symmetry_multiplicity
 _atom_site_fract_x
 _atom_site_fract_y
 _atom_site_fract_z
 _atom_site_occupancy
  Li  Li0  1  0.981486  0.672544  0.308941  1
  Li  Li1  1  0.013633  0.326058  0.687575  1
  Li  Li2  1  0.363604  0.672544  0.691059  1
  Li  Li3  1  0.638483  0.326058  0.312425  1
  Ho  Ho4  1  0.001590  0.001590  0.000000  1
  Ho  Ho5  1  0.627715  0.127715  0.500000  1
  Th  Th6  1  0.373162  0.873162  0.500000  1
  Sn  Sn7  1  0.704818  0.500408  0.204410  1
  Sn  Sn8  1  0.295997  0.500408  0.795590  1
  Sn  Sn9  1  0.212787  0.212787  0.000000  1
  Sn  Sn10  1  0.786725  0.786725  0.000000  1
