# generated using pymatgen
data_Li2Nd18Si15Rh
_symmetry_space_group_name_H-M   'P 1'
_cell_length_a   7.51008700
_cell_length_b   8.00057181
_cell_length_c   15.14708600
_cell_angle_alpha   90.00000000
_cell_angle_beta   90.00000000
_cell_angle_gamma   89.87248293
_symmetry_Int_Tables_number   1
_chemical_formula_structural   Li2Nd18Si15Rh
_chemical_formula_sum   'Li2 Nd18 Si15 Rh1'
_cell_volume   910.11026253
_cell_formula_units_Z   1
loop_
 _symmetry_equiv_pos_site_id
 _symmetry_equiv_pos_as_xyz
  1  'x, y, z'
loop_
 _atom_site_type_symbol
 _atom_site_label
 _atom_site_symmetry_multiplicity
 _atom_site_fract_x
 _atom_site_fract_y
 _atom_site_fract_z
 _atom_site_occupancy
  Li  Li0  1  0.150454  0.528653  0.750000  1
  Li  Li1  1  0.650901  0.974330  0.750000  1
  Nd  Nd2  1  0.817759  0.321419  0.628591  1
  Nd  Nd3  1  0.460474  0.694649  0.894183  1
  Nd  Nd4  1  0.960751  0.807009  0.895006  1
  Nd  Nd5  1  0.195292  0.676914  0.124752  1
  Nd  Nd6  1  0.682909  0.816951  0.120774  1
  Nd  Nd7  1  0.316471  0.181688  0.870368  1
  Nd  Nd8  1  0.195292  0.676914  0.375248  1
  Nd  Nd9  1  0.028398  0.183413  0.094056  1
  Nd  Nd10  1  0.316471  0.181688  0.629632  1
  Nd  Nd11  1  0.839105  0.487483  0.250000  1
  Nd  Nd12  1  0.359785  0.021355  0.250000  1
  Nd  Nd13  1  0.526978  0.316792  0.408834  1
  Nd  Nd14  1  0.817759  0.321419  0.871409  1
  Nd  Nd15  1  0.960751  0.807009  0.604994  1
  Nd  Nd16  1  0.460474  0.694649  0.605817  1
  Nd  Nd17  1  0.028398  0.183413  0.405944  1
  Nd  Nd18  1  0.682909  0.816951  0.379226  1
  Nd  Nd19  1  0.526978  0.316792  0.091166  1
  Si  Si20  1  0.242836  0.372269  0.250000  1
  Si  Si21  1  0.865444  0.524579  0.462843  1
  Si  Si22  1  0.513320  0.423791  0.750000  1
  Si  Si23  1  0.644059  0.031252  0.959666  1
  Si  Si24  1  0.010962  0.076232  0.750000  1
  Si  Si25  1  0.749594  0.628030  0.750000  1
  Si  Si26  1  0.752139  0.119219  0.250000  1
  Si  Si27  1  0.359729  0.977526  0.463587  1
  Si  Si28  1  0.980244  0.899941  0.250000  1
  Si  Si29  1  0.359729  0.977526  0.036413  1
  Si  Si30  1  0.644059  0.031252  0.540334  1
  Si  Si31  1  0.148519  0.470462  0.962205  1
  Si  Si32  1  0.148519  0.470462  0.537795  1
  Si  Si33  1  0.865444  0.524579  0.037157  1
  Si  Si34  1  0.248139  0.874569  0.750000  1
  Rh  Rh35  1  0.488955  0.588818  0.250000  1
