# generated using pymatgen
data_BaHf(NiAs)2
_symmetry_space_group_name_H-M   'P 1'
_cell_length_a   4.07595000
_cell_length_b   8.07779536
_cell_length_c   7.20931763
_cell_angle_alpha   91.58951552
_cell_angle_beta   90.00000000
_cell_angle_gamma   90.00000000
_symmetry_Int_Tables_number   1
_chemical_formula_structural   BaHf(NiAs)2
_chemical_formula_sum   'Ba2 Hf2 Ni4 As4'
_cell_volume   237.27321194
_cell_formula_units_Z   2
loop_
 _symmetry_equiv_pos_site_id
 _symmetry_equiv_pos_as_xyz
  1  'x, y, z'
loop_
 _atom_site_type_symbol
 _atom_site_label
 _atom_site_symmetry_multiplicity
 _atom_site_fract_x
 _atom_site_fract_y
 _atom_site_fract_z
 _atom_site_occupancy
  Ba  Ba0  1  0.250000  0.499306  0.240145  1
  Ba  Ba1  1  0.750000  0.500694  0.759855  1
  Hf  Hf2  1  0.750000  0.008186  0.716441  1
  Hf  Hf3  1  0.250000  0.991814  0.283559  1
  Ni  Ni4  1  0.250000  0.887064  0.925172  1
  Ni  Ni5  1  0.750000  0.112936  0.074828  1
  Ni  Ni6  1  0.750000  0.802134  0.421306  1
  Ni  Ni7  1  0.250000  0.197866  0.578694  1
  As  As8  1  0.250000  0.780876  0.595633  1
  As  As9  1  0.750000  0.219124  0.404367  1
  As  As10  1  0.750000  0.797023  0.087182  1
  As  As11  1  0.250000  0.202977  0.912818  1
