# generated using pymatgen
data_Zr10Sb6P
_symmetry_space_group_name_H-M   'P 1'
_cell_length_a   5.85789700
_cell_length_b   8.54230753
_cell_length_c   8.54228200
_cell_angle_alpha   120.00010505
_cell_angle_beta   89.99964899
_cell_angle_gamma   90.00068820
_symmetry_Int_Tables_number   1
_chemical_formula_structural   Zr10Sb6P
_chemical_formula_sum   'Zr10 Sb6 P1'
_cell_volume   370.18686925
_cell_formula_units_Z   1
loop_
 _symmetry_equiv_pos_site_id
 _symmetry_equiv_pos_as_xyz
  1  'x, y, z'
loop_
 _atom_site_type_symbol
 _atom_site_label
 _atom_site_symmetry_multiplicity
 _atom_site_fract_x
 _atom_site_fract_y
 _atom_site_fract_z
 _atom_site_occupancy
  Zr  Zr0  1  0.500000  0.333334  0.666669  1
  Zr  Zr1  1  0.500000  0.666665  0.333331  1
  Zr  Zr2  1  0.000000  0.666665  0.333329  1
  Zr  Zr3  1  0.000000  0.333336  0.666671  1
  Zr  Zr4  1  0.755720  0.251463  0.000000  1
  Zr  Zr5  1  0.755721  0.748539  0.748537  1
  Zr  Zr6  1  0.755721  0.000001  0.251463  1
  Zr  Zr7  1  0.244280  0.748537  0.000000  1
  Zr  Zr8  1  0.244279  0.251463  0.251463  1
  Zr  Zr9  1  0.244279  0.000000  0.748537  1
  Sb  Sb10  1  0.752461  0.606432  0.000000  1
  Sb  Sb11  1  0.752464  0.393566  0.393565  1
  Sb  Sb12  1  0.752464  0.000000  0.606435  1
  Sb  Sb13  1  0.247539  0.393568  0.000000  1
  Sb  Sb14  1  0.247536  0.606434  0.606435  1
  Sb  Sb15  1  0.247536  0.000000  0.393565  1
  P  P16  1  0.499999  0.000001  0.000000  1
