# generated using pymatgen
data_Lu4MgSc(B2Rh5)2
_symmetry_space_group_name_H-M   'P 1'
_cell_length_a   9.57546000
_cell_length_b   9.57546000
_cell_length_c   3.17927400
_cell_angle_alpha   90.00000000
_cell_angle_beta   90.00000000
_cell_angle_gamma   90.00000000
_symmetry_Int_Tables_number   1
_chemical_formula_structural   Lu4MgSc(B2Rh5)2
_chemical_formula_sum   'Lu4 Mg1 Sc1 B4 Rh10'
_cell_volume   291.50583426
_cell_formula_units_Z   1
loop_
 _symmetry_equiv_pos_site_id
 _symmetry_equiv_pos_as_xyz
  1  'x, y, z'
loop_
 _atom_site_type_symbol
 _atom_site_label
 _atom_site_symmetry_multiplicity
 _atom_site_fract_x
 _atom_site_fract_y
 _atom_site_fract_z
 _atom_site_occupancy
  Lu  Lu0  1  0.672818  0.176273  0.000000  1
  Lu  Lu1  1  0.327182  0.823727  0.000000  1
  Lu  Lu2  1  0.176273  0.327182  0.000000  1
  Lu  Lu3  1  0.823727  0.672818  0.000000  1
  Mg  Mg4  1  0.500000  0.500000  0.000000  1
  Sc  Sc5  1  0.000000  0.000000  0.000000  1
  B  B6  1  0.125030  0.619824  0.000000  1
  B  B7  1  0.874970  0.380176  0.000000  1
  B  B8  1  0.619824  0.874970  0.000000  1
  B  B9  1  0.380176  0.125030  0.000000  1
  Rh  Rh10  1  0.500000  0.000000  0.500000  1
  Rh  Rh11  1  0.000000  0.500000  0.500000  1
  Rh  Rh12  1  0.223974  0.071751  0.500000  1
  Rh  Rh13  1  0.776026  0.928249  0.500000  1
  Rh  Rh14  1  0.071751  0.776026  0.500000  1
  Rh  Rh15  1  0.721980  0.428739  0.500000  1
  Rh  Rh16  1  0.928249  0.223974  0.500000  1
  Rh  Rh17  1  0.278020  0.571261  0.500000  1
  Rh  Rh18  1  0.571261  0.721980  0.500000  1
  Rh  Rh19  1  0.428739  0.278020  0.500000  1
