# generated using pymatgen
data_AcPr2BiO7
_symmetry_space_group_name_H-M   'P 1'
_cell_length_a   6.82080887
_cell_length_b   6.85467481
_cell_length_c   8.03424000
_cell_angle_alpha   106.88869604
_cell_angle_beta   89.88868962
_cell_angle_gamma   98.29226281
_symmetry_Int_Tables_number   1
_chemical_formula_structural   AcPr2BiO7
_chemical_formula_sum   'Ac2 Pr4 Bi2 O14'
_cell_volume   355.36082530
_cell_formula_units_Z   2
loop_
 _symmetry_equiv_pos_site_id
 _symmetry_equiv_pos_as_xyz
  1  'x, y, z'
loop_
 _atom_site_type_symbol
 _atom_site_label
 _atom_site_symmetry_multiplicity
 _atom_site_fract_x
 _atom_site_fract_y
 _atom_site_fract_z
 _atom_site_occupancy
  Ac  Ac0  1  0.748080  0.489178  0.622416  1
  Ac  Ac1  1  0.251920  0.510822  0.377584  1
  Pr  Pr2  1  0.463965  0.003412  0.252006  1
  Pr  Pr3  1  0.536035  0.996588  0.747994  1
  Pr  Pr4  1  0.268087  0.535936  0.884157  1
  Pr  Pr5  1  0.731913  0.464064  0.115843  1
  Bi  Bi6  1  0.000000  0.000000  0.500000  1
  Bi  Bi7  1  0.000000  0.000000  0.000000  1
  O  O8  1  0.446853  0.645963  0.160656  1
  O  O9  1  0.553147  0.354037  0.839344  1
  O  O10  1  0.293805  0.928624  0.955317  1
  O  O11  1  0.706195  0.071376  0.044683  1
  O  O12  1  0.291764  0.932457  0.511932  1
  O  O13  1  0.708236  0.067543  0.488068  1
  O  O14  1  0.552589  0.361511  0.340002  1
  O  O15  1  0.447411  0.638489  0.659998  1
  O  O16  1  0.926179  0.676034  0.956033  1
  O  O17  1  0.073821  0.323966  0.043967  1
  O  O18  1  0.078549  0.327931  0.618375  1
  O  O19  1  0.921451  0.672069  0.381625  1
  O  O20  1  0.890522  0.918823  0.729419  1
  O  O21  1  0.109478  0.081177  0.270581  1
