# generated using pymatgen
data_Pr3TlPd3Au2
_symmetry_space_group_name_H-M   'P 1'
_cell_length_a   7.80466200
_cell_length_b   7.72224655
_cell_length_c   3.93910300
_cell_angle_alpha   90.00000000
_cell_angle_beta   90.00000000
_cell_angle_gamma   119.65129012
_symmetry_Int_Tables_number   1
_chemical_formula_structural   Pr3TlPd3Au2
_chemical_formula_sum   'Pr3 Tl1 Pd3 Au2'
_cell_volume   206.31987678
_cell_formula_units_Z   1
loop_
 _symmetry_equiv_pos_site_id
 _symmetry_equiv_pos_as_xyz
  1  'x, y, z'
loop_
 _atom_site_type_symbol
 _atom_site_label
 _atom_site_symmetry_multiplicity
 _atom_site_fract_x
 _atom_site_fract_y
 _atom_site_fract_z
 _atom_site_occupancy
  Pr  Pr0  1  0.406469  0.394339  0.500000  1
  Pr  Pr1  1  0.593531  0.987870  0.500000  1
  Pr  Pr2  1  0.000000  0.622710  0.500000  1
  Tl  Tl3  1  0.000000  0.263533  0.000000  1
  Pd  Pd4  1  0.669685  0.330893  0.000000  1
  Pd  Pd5  1  0.330315  0.661210  0.000000  1
  Pd  Pd6  1  0.000000  0.006435  0.500000  1
  Au  Au7  1  0.731500  0.732255  0.000000  1
  Au  Au8  1  0.268500  0.000754  0.000000  1
