# generated using pymatgen
data_HfZr2Rh5
_symmetry_space_group_name_H-M   'P 1'
_cell_length_a   4.31809300
_cell_length_b   5.64335400
_cell_length_c   10.95886000
_cell_angle_alpha   90.00000000
_cell_angle_beta   90.00000000
_cell_angle_gamma   90.00000000
_symmetry_Int_Tables_number   1
_chemical_formula_structural   HfZr2Rh5
_chemical_formula_sum   'Hf2 Zr4 Rh10'
_cell_volume   267.05128023
_cell_formula_units_Z   2
loop_
 _symmetry_equiv_pos_site_id
 _symmetry_equiv_pos_as_xyz
  1  'x, y, z'
loop_
 _atom_site_type_symbol
 _atom_site_label
 _atom_site_symmetry_multiplicity
 _atom_site_fract_x
 _atom_site_fract_y
 _atom_site_fract_z
 _atom_site_occupancy
  Hf  Hf0  1  0.000000  0.500000  0.500000  1
  Hf  Hf1  1  0.000000  0.000000  0.000000  1
  Zr  Zr2  1  0.500000  0.156855  0.645785  1
  Zr  Zr3  1  0.500000  0.843145  0.354215  1
  Zr  Zr4  1  0.500000  0.656855  0.854215  1
  Zr  Zr5  1  0.500000  0.343145  0.145785  1
  Rh  Rh6  1  0.500000  0.181535  0.893157  1
  Rh  Rh7  1  0.500000  0.818465  0.106843  1
  Rh  Rh8  1  0.500000  0.681535  0.606843  1
  Rh  Rh9  1  0.500000  0.318465  0.393157  1
  Rh  Rh10  1  0.000000  0.399302  0.742698  1
  Rh  Rh11  1  0.000000  0.600698  0.257302  1
  Rh  Rh12  1  0.000000  0.000000  0.500000  1
  Rh  Rh13  1  0.000000  0.500000  0.000000  1
  Rh  Rh14  1  0.000000  0.100698  0.242698  1
  Rh  Rh15  1  0.000000  0.899302  0.757302  1
