# generated using pymatgen
data_Li4DyP12Ir18Ru
_symmetry_space_group_name_H-M   'P 1'
_cell_length_a   12.56731899
_cell_length_b   12.62962526
_cell_length_c   3.91780000
_cell_angle_alpha   90.00000000
_cell_angle_beta   90.00000000
_cell_angle_gamma   120.16254775
_symmetry_Int_Tables_number   1
_chemical_formula_structural   Li4DyP12Ir18Ru
_chemical_formula_sum   'Li4 Dy1 P12 Ir18 Ru1'
_cell_volume   537.64092073
_cell_formula_units_Z   1
loop_
 _symmetry_equiv_pos_site_id
 _symmetry_equiv_pos_as_xyz
  1  'x, y, z'
loop_
 _atom_site_type_symbol
 _atom_site_label
 _atom_site_symmetry_multiplicity
 _atom_site_fract_x
 _atom_site_fract_y
 _atom_site_fract_z
 _atom_site_occupancy
  Li  Li0  1  0.332263  0.667578  0.500000  1
  Li  Li1  1  0.667191  0.331209  0.500000  1
  Li  Li2  1  0.002609  0.825194  0.000000  1
  Li  Li3  1  0.176073  0.174538  0.000000  1
  Dy  Dy4  1  0.823436  0.999765  0.000000  1
  P  P5  1  0.999308  0.636108  0.500000  1
  P  P6  1  0.357400  0.357732  0.500000  1
  P  P7  1  0.640406  0.999807  0.500000  1
  P  P8  1  0.509270  0.688285  0.000000  1
  P  P9  1  0.310627  0.823540  0.000000  1
  P  P10  1  0.172293  0.488937  0.000000  1
  P  P11  1  0.489260  0.179332  0.000000  1
  P  P12  1  0.686807  0.510676  0.000000  1
  P  P13  1  0.827924  0.316085  0.000000  1
  P  P14  1  0.008257  0.181609  0.500000  1
  P  P15  1  0.824216  0.816231  0.500000  1
  P  P16  1  0.180874  0.999739  0.500000  1
  Ir  Ir17  1  0.509892  0.870681  0.000000  1
  Ir  Ir18  1  0.127200  0.639899  0.000000  1
  Ir  Ir19  1  0.357452  0.493549  0.000000  1
  Ir  Ir20  1  0.487332  0.361819  0.000000  1
  Ir  Ir21  1  0.869115  0.510406  0.000000  1
  Ir  Ir22  1  0.642268  0.135762  0.000000  1
  Ir  Ir23  1  0.537722  0.544617  0.500000  1
  Ir  Ir24  1  0.460096  0.002625  0.500000  1
  Ir  Ir25  1  0.999806  0.289029  0.000000  1
  Ir  Ir26  1  0.706705  0.707886  0.000000  1
  Ir  Ir27  1  0.292304  0.000660  0.000000  1
  Ir  Ir28  1  0.625641  0.805394  0.500000  1
  Ir  Ir29  1  0.194120  0.817753  0.500000  1
  Ir  Ir30  1  0.182801  0.377760  0.500000  1
  Ir  Ir31  1  0.378384  0.182879  0.500000  1
  Ir  Ir32  1  0.803664  0.621114  0.500000  1
  Ir  Ir33  1  0.820825  0.191466  0.500000  1
  Ir  Ir34  1  0.000297  0.998809  0.500000  1
  Ru  Ru35  1  0.996163  0.451525  0.500000  1
