# generated using pymatgen
data_U5PaSb8(PtRh)3
_symmetry_space_group_name_H-M   'P 1'
_cell_length_a   8.39041165
_cell_length_b   8.38230466
_cell_length_c   8.39346335
_cell_angle_alpha   109.40655628
_cell_angle_beta   109.48154062
_cell_angle_gamma   109.52306984
_symmetry_Int_Tables_number   1
_chemical_formula_structural   U5PaSb8(PtRh)3
_chemical_formula_sum   'U5 Pa1 Sb8 Pt3 Rh3'
_cell_volume   454.44260891
_cell_formula_units_Z   1
loop_
 _symmetry_equiv_pos_site_id
 _symmetry_equiv_pos_as_xyz
  1  'x, y, z'
loop_
 _atom_site_type_symbol
 _atom_site_label
 _atom_site_symmetry_multiplicity
 _atom_site_fract_x
 _atom_site_fract_y
 _atom_site_fract_z
 _atom_site_occupancy
  U  U0  1  0.619755  0.747536  0.376537  1
  U  U1  1  0.250950  0.122556  0.871541  1
  U  U2  1  0.749171  0.377791  0.627829  1
  U  U3  1  0.129984  0.875865  0.251542  1
  U  U4  1  0.368758  0.620188  0.744790  1
  Pa  Pa5  1  0.880298  0.256077  0.128760  1
  Sb  Sb6  1  0.674052  0.501557  0.996693  1
  Sb  Sb7  1  0.494280  0.995137  0.671266  1
  Sb  Sb8  1  0.004213  0.680151  0.503361  1
  Sb  Sb9  1  0.824588  0.819467  0.821771  1
  Sb  Sb10  1  0.495294  0.996008  0.174985  1
  Sb  Sb11  1  0.180094  0.505412  0.001918  1
  Sb  Sb12  1  0.002780  0.176623  0.503378  1
  Sb  Sb13  1  0.325564  0.325072  0.326882  1
  Pt  Pt14  1  0.752526  0.882046  0.123611  1
  Pt  Pt15  1  0.628124  0.372519  0.248061  1
  Pt  Pt16  1  0.876147  0.128385  0.757134  1
  Rh  Rh17  1  0.375547  0.249504  0.625793  1
  Rh  Rh18  1  0.124619  0.749987  0.873940  1
  Rh  Rh19  1  0.243255  0.618116  0.370210  1
