# generated using pymatgen
data_ScNb5(GaRu2)6
_symmetry_space_group_name_H-M   'P 1'
_cell_length_a   4.39504100
_cell_length_b   6.24370200
_cell_length_c   13.15445000
_cell_angle_alpha   90.00000000
_cell_angle_beta   90.00017837
_cell_angle_gamma   90.00000000
_symmetry_Int_Tables_number   1
_chemical_formula_structural   ScNb5(GaRu2)6
_chemical_formula_sum   'Sc1 Nb5 Ga6 Ru12'
_cell_volume   360.97555451
_cell_formula_units_Z   1
loop_
 _symmetry_equiv_pos_site_id
 _symmetry_equiv_pos_as_xyz
  1  'x, y, z'
loop_
 _atom_site_type_symbol
 _atom_site_label
 _atom_site_symmetry_multiplicity
 _atom_site_fract_x
 _atom_site_fract_y
 _atom_site_fract_z
 _atom_site_occupancy
  Sc  Sc0  1  0.500315  0.499999  0.833347  1
  Nb  Nb1  1  0.999987  0.000000  0.997911  1
  Nb  Nb2  1  0.499707  0.499999  0.165228  1
  Nb  Nb3  1  0.999712  0.000000  0.333362  1
  Nb  Nb4  1  0.500000  0.499999  0.501450  1
  Nb  Nb5  1  0.000277  0.000000  0.668738  1
  Ga  Ga6  1  0.000004  0.499999  0.998499  1
  Ga  Ga7  1  0.499843  0.000000  0.166377  1
  Ga  Ga8  1  0.999858  0.499999  0.333328  1
  Ga  Ga9  1  0.499995  0.000000  0.500297  1
  Ga  Ga10  1  0.000150  0.499999  0.668180  1
  Ga  Ga11  1  0.500128  0.000000  0.833330  1
  Ru  Ru12  1  0.499994  0.247180  0.002830  1
  Ru  Ru13  1  0.499994  0.752821  0.002830  1
  Ru  Ru14  1  0.999761  0.250881  0.167543  1
  Ru  Ru15  1  0.999761  0.749118  0.167543  1
  Ru  Ru16  1  0.499776  0.249309  0.333354  1
  Ru  Ru17  1  0.499776  0.750692  0.333354  1
  Ru  Ru18  1  0.999994  0.250823  0.499110  1
  Ru  Ru19  1  0.999994  0.749176  0.499110  1
  Ru  Ru20  1  0.500235  0.247159  0.663850  1
  Ru  Ru21  1  0.500235  0.752842  0.663850  1
  Ru  Ru22  1  0.000252  0.244816  0.833290  1
  Ru  Ru23  1  0.000252  0.755183  0.833290  1
