# generated using pymatgen
data_Tb2PrSiPd5
_symmetry_space_group_name_H-M   'P 1'
_cell_length_a   8.33679429
_cell_length_b   8.33679465
_cell_length_c   8.33679376
_cell_angle_alpha   127.51615131
_cell_angle_beta   126.27475935
_cell_angle_gamma   78.42542839
_symmetry_Int_Tables_number   1
_chemical_formula_structural   Tb2PrSiPd5
_chemical_formula_sum   'Tb4 Pr2 Si2 Pd10'
_cell_volume   358.77971831
_cell_formula_units_Z   2
loop_
 _symmetry_equiv_pos_site_id
 _symmetry_equiv_pos_as_xyz
  1  'x, y, z'
loop_
 _atom_site_type_symbol
 _atom_site_label
 _atom_site_symmetry_multiplicity
 _atom_site_fract_x
 _atom_site_fract_y
 _atom_site_fract_z
 _atom_site_occupancy
  Tb  Tb0  1  0.222998  0.450084  0.772913  1
  Tb  Tb1  1  0.777002  0.549916  0.227087  1
  Tb  Tb2  1  0.822829  0.049916  0.772913  1
  Tb  Tb3  1  0.177171  0.950084  0.227087  1
  Pr  Pr4  1  0.383393  0.250000  0.133393  1
  Pr  Pr5  1  0.616607  0.750000  0.866607  1
  Si  Si6  1  0.784351  0.250000  0.534351  1
  Si  Si7  1  0.215649  0.750000  0.465649  1
  Pd  Pd8  1  0.163238  0.401957  0.357879  1
  Pd  Pd9  1  0.836762  0.194642  0.238719  1
  Pd  Pd10  1  0.455922  0.098043  0.761281  1
  Pd  Pd11  1  0.544078  0.305358  0.642121  1
  Pd  Pd12  1  0.000000  0.500000  0.000000  1
  Pd  Pd13  1  0.000000  0.000000  0.500000  1
  Pd  Pd14  1  0.455922  0.694642  0.357879  1
  Pd  Pd15  1  0.544078  0.901957  0.238719  1
  Pd  Pd16  1  0.163238  0.805358  0.761281  1
  Pd  Pd17  1  0.836762  0.598043  0.642121  1
