# generated using pymatgen
data_TaTi2Co4Si4Mo
_symmetry_space_group_name_H-M   'P 1'
_cell_length_a   3.64727500
_cell_length_b   6.14704502
_cell_length_c   6.97563123
_cell_angle_alpha   89.63618247
_cell_angle_beta   90.00000000
_cell_angle_gamma   90.00000000
_symmetry_Int_Tables_number   1
_chemical_formula_structural   TaTi2Co4Si4Mo
_chemical_formula_sum   'Ta1 Ti2 Co4 Si4 Mo1'
_cell_volume   156.39024563
_cell_formula_units_Z   1
loop_
 _symmetry_equiv_pos_site_id
 _symmetry_equiv_pos_as_xyz
  1  'x, y, z'
loop_
 _atom_site_type_symbol
 _atom_site_label
 _atom_site_symmetry_multiplicity
 _atom_site_fract_x
 _atom_site_fract_y
 _atom_site_fract_z
 _atom_site_occupancy
  Ta  Ta0  1  0.750000  0.477087  0.318490  1
  Ti  Ti1  1  0.250000  0.520689  0.685766  1
  Ti  Ti2  1  0.750000  0.977808  0.180290  1
  Co  Co3  1  0.250000  0.644642  0.065063  1
  Co  Co4  1  0.750000  0.362465  0.936702  1
  Co  Co5  1  0.250000  0.144274  0.435160  1
  Co  Co6  1  0.750000  0.855215  0.559278  1
  Si  Si7  1  0.750000  0.731221  0.878917  1
  Si  Si8  1  0.250000  0.774823  0.383459  1
  Si  Si9  1  0.750000  0.222030  0.624608  1
  Si  Si10  1  0.250000  0.268646  0.111684  1
  Mo  Mo11  1  0.250000  0.021100  0.820582  1
