# generated using pymatgen
data_Y5Tm3Cu3Si12Pd
_symmetry_space_group_name_H-M   'P 1'
_cell_length_a   8.03786623
_cell_length_b   8.02878341
_cell_length_c   8.09221201
_cell_angle_alpha   89.99776830
_cell_angle_beta   90.01426172
_cell_angle_gamma   120.07611760
_symmetry_Int_Tables_number   1
_chemical_formula_structural   Y5Tm3Cu3Si12Pd
_chemical_formula_sum   'Y5 Tm3 Cu3 Si12 Pd1'
_cell_volume   451.91292715
_cell_formula_units_Z   1
loop_
 _symmetry_equiv_pos_site_id
 _symmetry_equiv_pos_as_xyz
  1  'x, y, z'
loop_
 _atom_site_type_symbol
 _atom_site_label
 _atom_site_symmetry_multiplicity
 _atom_site_fract_x
 _atom_site_fract_y
 _atom_site_fract_z
 _atom_site_occupancy
  Y  Y0  1  0.999047  0.499552  0.750833  1
  Y  Y1  1  0.501002  0.499032  0.249087  1
  Y  Y2  1  0.500478  0.499519  0.750892  1
  Y  Y3  1  0.999966  0.000042  0.249041  1
  Y  Y4  1  0.000006  0.000065  0.750946  1
  Tm  Tm5  1  0.500675  0.001380  0.249431  1
  Tm  Tm6  1  0.500186  0.000442  0.750523  1
  Tm  Tm7  1  0.998609  0.499344  0.249388  1
  Cu  Cu8  1  0.333312  0.667993  0.002820  1
  Cu  Cu9  1  0.666668  0.331785  0.000717  1
  Cu  Cu10  1  0.666657  0.331761  0.498922  1
  Si  Si11  1  0.169486  0.339357  0.000805  1
  Si  Si12  1  0.831035  0.661543  0.001100  1
  Si  Si13  1  0.660531  0.830637  0.999900  1
  Si  Si14  1  0.830863  0.661669  0.499251  1
  Si  Si15  1  0.338423  0.168708  0.000222  1
  Si  Si16  1  0.166394  0.333065  0.498892  1
  Si  Si17  1  0.169904  0.830449  0.000744  1
  Si  Si18  1  0.338025  0.168946  0.500057  1
  Si  Si19  1  0.830616  0.168896  0.001130  1
  Si  Si20  1  0.667675  0.834056  0.499833  1
  Si  Si21  1  0.831133  0.168780  0.499228  1
  Si  Si22  1  0.165944  0.834237  0.498929  1
  Pd  Pd23  1  0.333364  0.668743  0.497307  1
