# generated using pymatgen
data_NaHg3Te2F10
_symmetry_space_group_name_H-M   'P 1'
_cell_length_a   5.56487100
_cell_length_b   11.13262038
_cell_length_c   11.78613126
_cell_angle_alpha   66.77649942
_cell_angle_beta   90.00000000
_cell_angle_gamma   90.00000000
_symmetry_Int_Tables_number   1
_chemical_formula_structural   NaHg3Te2F10
_chemical_formula_sum   'Na2 Hg6 Te4 F20'
_cell_volume   671.00668791
_cell_formula_units_Z   2
loop_
 _symmetry_equiv_pos_site_id
 _symmetry_equiv_pos_as_xyz
  1  'x, y, z'
loop_
 _atom_site_type_symbol
 _atom_site_label
 _atom_site_symmetry_multiplicity
 _atom_site_fract_x
 _atom_site_fract_y
 _atom_site_fract_z
 _atom_site_occupancy
  Na  Na0  1  0.556011  0.511656  0.267487  1
  Na  Na1  1  0.056011  0.488344  0.732513  1
  Hg  Hg2  1  0.592772  0.892976  0.655069  1
  Hg  Hg3  1  0.092772  0.107024  0.344931  1
  Hg  Hg4  1  0.615705  0.996617  0.998922  1
  Hg  Hg5  1  0.115705  0.003383  0.001078  1
  Hg  Hg6  1  0.593329  0.100236  0.348236  1
  Hg  Hg7  1  0.093329  0.899764  0.651764  1
  Te  Te8  1  0.018549  0.621019  0.014928  1
  Te  Te9  1  0.518549  0.378981  0.985072  1
  Te  Te10  1  0.605637  0.315494  0.585306  1
  Te  Te11  1  0.105637  0.684506  0.414694  1
  F  F12  1  0.842208  0.220496  0.536732  1
  F  F13  1  0.342208  0.779504  0.463268  1
  F  F14  1  0.260300  0.741356  0.018037  1
  F  F15  1  0.760300  0.258644  0.981963  1
  F  F16  1  0.878266  0.647225  0.161877  1
  F  F17  1  0.378266  0.352775  0.838123  1
  F  F18  1  0.854799  0.785985  0.905027  1
  F  F19  1  0.354799  0.214015  0.094973  1
  F  F20  1  0.502624  0.132462  0.692994  1
  F  F21  1  0.002624  0.867538  0.307006  1
  F  F22  1  0.369758  0.681098  0.299353  1
  F  F23  1  0.869758  0.318902  0.700647  1
  F  F24  1  0.773828  0.470272  0.453211  1
  F  F25  1  0.273828  0.529728  0.546789  1
  F  F26  1  0.262570  0.495018  0.132784  1
  F  F27  1  0.762570  0.504982  0.867216  1
  F  F28  1  0.436161  0.311935  0.433167  1
  F  F29  1  0.936161  0.688065  0.566833  1
  F  F30  1  0.221385  0.619276  0.869669  1
  F  F31  1  0.721385  0.380724  0.130331  1
