# generated using pymatgen
data_Tb16ZnIn3Ir4
_symmetry_space_group_name_H-M   'P 1'
_cell_length_a   9.65530445
_cell_length_b   9.66156691
_cell_length_c   9.65514511
_cell_angle_alpha   60.19921414
_cell_angle_beta   60.18541527
_cell_angle_gamma   60.19873453
_symmetry_Int_Tables_number   1
_chemical_formula_structural   Tb16ZnIn3Ir4
_chemical_formula_sum   'Tb16 Zn1 In3 Ir4'
_cell_volume   639.68398293
_cell_formula_units_Z   1
loop_
 _symmetry_equiv_pos_site_id
 _symmetry_equiv_pos_as_xyz
  1  'x, y, z'
loop_
 _atom_site_type_symbol
 _atom_site_label
 _atom_site_symmetry_multiplicity
 _atom_site_fract_x
 _atom_site_fract_y
 _atom_site_fract_z
 _atom_site_occupancy
  Tb  Tb0  1  0.099821  0.701114  0.099839  1
  Tb  Tb1  1  0.941243  0.941740  0.558280  1
  Tb  Tb2  1  0.941449  0.558605  0.941437  1
  Tb  Tb3  1  0.312390  0.682713  0.312385  1
  Tb  Tb4  1  0.941904  0.558773  0.558633  1
  Tb  Tb5  1  0.312282  0.312035  0.682944  1
  Tb  Tb6  1  0.099181  0.099195  0.099182  1
  Tb  Tb7  1  0.558634  0.558769  0.941897  1
  Tb  Tb8  1  0.099948  0.099680  0.701206  1
  Tb  Tb9  1  0.688548  0.310318  0.688535  1
  Tb  Tb10  1  0.688556  0.688721  0.310294  1
  Tb  Tb11  1  0.682929  0.312053  0.312295  1
  Tb  Tb12  1  0.310300  0.688722  0.688544  1
  Tb  Tb13  1  0.558717  0.942176  0.558712  1
  Tb  Tb14  1  0.701203  0.099669  0.099956  1
  Tb  Tb15  1  0.558298  0.941740  0.941230  1
  Zn  Zn16  1  0.333710  0.333659  0.333710  1
  In  In17  1  0.004890  0.333146  0.333100  1
  In  In18  1  0.333122  0.004917  0.333119  1
  In  In19  1  0.333102  0.333146  0.004885  1
  Ir  Ir20  1  0.891635  0.891317  0.891650  1
  Ir  Ir21  1  0.890874  0.890647  0.326472  1
  Ir  Ir22  1  0.326470  0.890646  0.890885  1
  Ir  Ir23  1  0.890793  0.326499  0.890808  1
