# generated using pymatgen
data_TbGd3BI5
_symmetry_space_group_name_H-M   'P 1'
_cell_length_a   9.67527093
_cell_length_b   9.67527269
_cell_length_c   8.60968300
_cell_angle_alpha   102.41166096
_cell_angle_beta   102.41165719
_cell_angle_gamma   24.53517824
_symmetry_Int_Tables_number   1
_chemical_formula_structural   TbGd3BI5
_chemical_formula_sum   'Tb1 Gd3 B1 I5'
_cell_volume   326.48006819
_cell_formula_units_Z   1
loop_
 _symmetry_equiv_pos_site_id
 _symmetry_equiv_pos_as_xyz
  1  'x, y, z'
loop_
 _atom_site_type_symbol
 _atom_site_label
 _atom_site_symmetry_multiplicity
 _atom_site_fract_x
 _atom_site_fract_y
 _atom_site_fract_z
 _atom_site_occupancy
  Tb  Tb0  1  0.637081  0.637081  0.070206  1
  Gd  Gd1  1  0.999420  0.999420  0.198610  1
  Gd  Gd2  1  0.001163  0.001163  0.801553  1
  Gd  Gd3  1  0.361994  0.361994  0.929428  1
  B  B4  1  0.500641  0.500641  0.000135  1
  I  I5  1  0.827158  0.827158  0.176831  1
  I  I6  1  0.166797  0.166797  0.344563  1
  I  I7  1  0.500153  0.500153  0.500139  1
  I  I8  1  0.833062  0.833062  0.653738  1
  I  I9  1  0.172529  0.172529  0.824797  1
