# generated using pymatgen
data_Yb12Y8Si15Hg
_symmetry_space_group_name_H-M   'P 1'
_cell_length_a   7.46764154
_cell_length_b   7.79828158
_cell_length_c   15.20804100
_cell_angle_alpha   89.39938222
_cell_angle_beta   90.67780801
_cell_angle_gamma   90.23576490
_symmetry_Int_Tables_number   1
_chemical_formula_structural   Yb12Y8Si15Hg
_chemical_formula_sum   'Yb12 Y8 Si15 Hg1'
_cell_volume   885.51911025
_cell_formula_units_Z   1
loop_
 _symmetry_equiv_pos_site_id
 _symmetry_equiv_pos_as_xyz
  1  'x, y, z'
loop_
 _atom_site_type_symbol
 _atom_site_label
 _atom_site_symmetry_multiplicity
 _atom_site_fract_x
 _atom_site_fract_y
 _atom_site_fract_z
 _atom_site_occupancy
  Yb  Yb0  1  0.981062  0.818408  0.401497  1
  Yb  Yb1  1  0.470511  0.683776  0.096244  1
  Yb  Yb2  1  0.509596  0.317886  0.596432  1
  Yb  Yb3  1  0.028564  0.184580  0.904187  1
  Yb  Yb4  1  0.030000  0.177903  0.595790  1
  Yb  Yb5  1  0.529569  0.317823  0.903849  1
  Yb  Yb6  1  0.474386  0.678348  0.403568  1
  Yb  Yb7  1  0.971113  0.815577  0.096273  1
  Yb  Yb8  1  0.350867  0.021660  0.752762  1
  Yb  Yb9  1  0.851313  0.485143  0.751939  1
  Yb  Yb10  1  0.149343  0.518812  0.250019  1
  Yb  Yb11  1  0.647065  0.977532  0.249180  1
  Y  Y12  1  0.315588  0.175582  0.120078  1
  Y  Y13  1  0.821204  0.317116  0.372934  1
  Y  Y14  1  0.185366  0.678889  0.880143  1
  Y  Y15  1  0.676442  0.832768  0.628526  1
  Y  Y16  1  0.320419  0.176794  0.376549  1
  Y  Y17  1  0.815150  0.322448  0.119896  1
  Y  Y18  1  0.189264  0.677502  0.620923  1
  Y  Y19  1  0.686534  0.825405  0.880073  1
  Si  Si20  1  0.359572  0.968128  0.961773  1
  Si  Si21  1  0.648611  0.028565  0.464147  1
  Si  Si22  1  0.140623  0.467326  0.039164  1
  Si  Si23  1  0.152627  0.460918  0.459873  1
  Si  Si24  1  0.641020  0.032893  0.038658  1
  Si  Si25  1  0.359412  0.967413  0.536533  1
  Si  Si26  1  0.860237  0.532841  0.961433  1
  Si  Si27  1  0.976943  0.885809  0.751201  1
  Si  Si28  1  0.473952  0.618075  0.753898  1
  Si  Si29  1  0.525251  0.381813  0.246266  1
  Si  Si30  1  0.024783  0.112419  0.249197  1
  Si  Si31  1  0.245831  0.395884  0.751896  1
  Si  Si32  1  0.749766  0.110946  0.751208  1
  Si  Si33  1  0.252929  0.892588  0.248815  1
  Si  Si34  1  0.751850  0.603567  0.248178  1
  Hg  Hg35  1  0.833235  0.536863  0.536896  1
