# generated using pymatgen
data_Ho3Tm3LuCo17P12
_symmetry_space_group_name_H-M   'P 1'
_cell_length_a   3.70506600
_cell_length_b   10.58199801
_cell_length_c   12.29360401
_cell_angle_alpha   90.00416245
_cell_angle_beta   90.00000000
_cell_angle_gamma   90.00000000
_symmetry_Int_Tables_number   1
_chemical_formula_structural   Ho3Tm3LuCo17P12
_chemical_formula_sum   'Ho3 Tm3 Lu1 Co17 P12'
_cell_volume   481.99534371
_cell_formula_units_Z   1
loop_
 _symmetry_equiv_pos_site_id
 _symmetry_equiv_pos_as_xyz
  1  'x, y, z'
loop_
 _atom_site_type_symbol
 _atom_site_label
 _atom_site_symmetry_multiplicity
 _atom_site_fract_x
 _atom_site_fract_y
 _atom_site_fract_z
 _atom_site_occupancy
  Ho  Ho0  1  0.000000  0.500012  0.531156  1
  Ho  Ho1  1  0.500000  0.000014  0.477539  1
  Ho  Ho2  1  0.500000  0.822808  0.207764  1
  Tm  Tm3  1  0.500000  0.177326  0.207727  1
  Tm  Tm4  1  0.000000  0.682815  0.795585  1
  Tm  Tm5  1  0.000000  0.317253  0.795526  1
  Lu  Lu6  1  0.500000  0.499664  0.154614  1
  Co  Co7  1  0.000000  0.000075  0.834589  1
  Co  Co8  1  0.500000  0.499910  0.704031  1
  Co  Co9  1  0.000000  0.000914  0.295038  1
  Co  Co10  1  0.000000  0.499579  0.982020  1
  Co  Co11  1  0.500000  0.000373  0.012921  1
  Co  Co12  1  0.500000  0.324645  0.986833  1
  Co  Co13  1  0.500000  0.674986  0.986533  1
  Co  Co14  1  0.000000  0.160368  0.999047  1
  Co  Co15  1  0.000000  0.840096  0.999053  1
  Co  Co16  1  0.500000  0.293234  0.436004  1
  Co  Co17  1  0.500000  0.706695  0.436488  1
  Co  Co18  1  0.000000  0.201358  0.571131  1
  Co  Co19  1  0.000000  0.798692  0.571482  1
  Co  Co20  1  0.500000  0.880255  0.707606  1
  Co  Co21  1  0.500000  0.119702  0.707475  1
  Co  Co22  1  0.000000  0.622846  0.301650  1
  Co  Co23  1  0.000000  0.376273  0.300750  1
  P  P24  1  0.500000  0.499822  0.881616  1
  P  P25  1  0.000000  0.000711  0.115776  1
  P  P26  1  0.500000  0.500093  0.364193  1
  P  P27  1  0.000000  0.999990  0.653599  1
  P  P28  1  0.500000  0.308859  0.619418  1
  P  P29  1  0.500000  0.691072  0.619683  1
  P  P30  1  0.000000  0.187832  0.386430  1
  P  P31  1  0.000000  0.812275  0.387183  1
  P  P32  1  0.500000  0.852828  0.886823  1
  P  P33  1  0.500000  0.147310  0.886625  1
  P  P34  1  0.000000  0.667649  0.097508  1
  P  P35  1  0.000000  0.331668  0.098586  1
