# generated using pymatgen
data_TbYAg(P3Pd10)2
_symmetry_space_group_name_H-M   'P 1'
_cell_length_a   8.66335654
_cell_length_b   8.66335652
_cell_length_c   8.66335600
_cell_angle_alpha   60.00000199
_cell_angle_beta   60.00000206
_cell_angle_gamma   59.99999910
_symmetry_Int_Tables_number   1
_chemical_formula_structural   TbYAg(P3Pd10)2
_chemical_formula_sum   'Tb1 Y1 Ag1 P6 Pd20'
_cell_volume   459.77308987
_cell_formula_units_Z   1
loop_
 _symmetry_equiv_pos_site_id
 _symmetry_equiv_pos_as_xyz
  1  'x, y, z'
loop_
 _atom_site_type_symbol
 _atom_site_label
 _atom_site_symmetry_multiplicity
 _atom_site_fract_x
 _atom_site_fract_y
 _atom_site_fract_z
 _atom_site_occupancy
  Tb  Tb0  1  0.750000  0.750000  0.750000  1
  Y  Y1  1  0.250000  0.250000  0.250000  1
  Ag  Ag2  1  0.000000  0.000000  0.000000  1
  P  P3  1  0.737971  0.262029  0.262029  1
  P  P4  1  0.262029  0.737971  0.737971  1
  P  P5  1  0.262029  0.737971  0.262029  1
  P  P6  1  0.737971  0.262029  0.737971  1
  P  P7  1  0.262029  0.262029  0.737971  1
  P  P8  1  0.737971  0.737971  0.262029  1
  Pd  Pd9  1  0.385027  0.385027  0.385027  1
  Pd  Pd10  1  0.614990  0.614990  0.614990  1
  Pd  Pd11  1  0.385027  0.385027  0.844920  1
  Pd  Pd12  1  0.385027  0.844920  0.385027  1
  Pd  Pd13  1  0.614990  0.614990  0.155030  1
  Pd  Pd14  1  0.614990  0.155030  0.614990  1
  Pd  Pd15  1  0.844920  0.385027  0.385027  1
  Pd  Pd16  1  0.155030  0.614990  0.614990  1
  Pd  Pd17  1  0.345217  0.999987  0.999987  1
  Pd  Pd18  1  0.654808  0.999987  0.999987  1
  Pd  Pd19  1  0.999987  0.345217  0.654808  1
  Pd  Pd20  1  0.999987  0.654808  0.345217  1
  Pd  Pd21  1  0.999987  0.345217  0.999987  1
  Pd  Pd22  1  0.654808  0.999987  0.345217  1
  Pd  Pd23  1  0.999987  0.654808  0.999987  1
  Pd  Pd24  1  0.345217  0.999987  0.654808  1
  Pd  Pd25  1  0.999987  0.999987  0.345217  1
  Pd  Pd26  1  0.999987  0.999987  0.654808  1
  Pd  Pd27  1  0.654808  0.345217  0.999987  1
  Pd  Pd28  1  0.345217  0.654808  0.999987  1
