# generated using pymatgen
data_Tb8Re3B24Ir
_symmetry_space_group_name_H-M   'P 1'
_cell_length_a   3.69457600
_cell_length_b   9.20913078
_cell_length_c   11.59248282
_cell_angle_alpha   90.14908993
_cell_angle_beta   90.00000000
_cell_angle_gamma   90.00000000
_symmetry_Int_Tables_number   1
_chemical_formula_structural   Tb8Re3B24Ir
_chemical_formula_sum   'Tb8 Re3 B24 Ir1'
_cell_volume   394.41937104
_cell_formula_units_Z   1
loop_
 _symmetry_equiv_pos_site_id
 _symmetry_equiv_pos_as_xyz
  1  'x, y, z'
loop_
 _atom_site_type_symbol
 _atom_site_label
 _atom_site_symmetry_multiplicity
 _atom_site_fract_x
 _atom_site_fract_y
 _atom_site_fract_z
 _atom_site_occupancy
  Tb  Tb0  1  0.000000  0.319329  0.415486  1
  Tb  Tb1  1  0.000000  0.677672  0.591342  1
  Tb  Tb2  1  0.000000  0.827627  0.081700  1
  Tb  Tb3  1  0.000000  0.176413  0.912538  1
  Tb  Tb4  1  0.000000  0.944394  0.370192  1
  Tb  Tb5  1  0.000000  0.055718  0.628972  1
  Tb  Tb6  1  0.000000  0.441077  0.128521  1
  Tb  Tb7  1  0.000000  0.556446  0.871591  1
  Re  Re8  1  0.000000  0.362647  0.677198  1
  Re  Re9  1  0.000000  0.138622  0.179850  1
  Re  Re10  1  0.000000  0.861446  0.821127  1
  B  B11  1  0.500000  0.554012  0.433341  1
  B  B12  1  0.500000  0.446488  0.567000  1
  B  B13  1  0.500000  0.053581  0.066901  1
  B  B14  1  0.500000  0.946607  0.932535  1
  B  B15  1  0.500000  0.748730  0.419863  1
  B  B16  1  0.500000  0.251301  0.581140  1
  B  B17  1  0.500000  0.248311  0.081362  1
  B  B18  1  0.500000  0.752202  0.918789  1
  B  B19  1  0.500000  0.791043  0.265840  1
  B  B20  1  0.500000  0.208708  0.733548  1
  B  B21  1  0.500000  0.291297  0.234328  1
  B  B22  1  0.500000  0.708293  0.766412  1
  B  B23  1  0.500000  0.632495  0.185072  1
  B  B24  1  0.500000  0.368477  0.813444  1
  B  B25  1  0.500000  0.131807  0.314119  1
  B  B26  1  0.500000  0.867507  0.686129  1
  B  B27  1  0.500000  0.984527  0.211967  1
  B  B28  1  0.500000  0.015895  0.787166  1
  B  B29  1  0.500000  0.484199  0.287932  1
  B  B30  1  0.500000  0.516894  0.712302  1
  B  B31  1  0.500000  0.605242  0.029827  1
  B  B32  1  0.500000  0.395604  0.971390  1
  B  B33  1  0.500000  0.104113  0.470515  1
  B  B34  1  0.500000  0.893468  0.528890  1
  Ir  Ir35  1  0.000000  0.637808  0.321669  1
