# generated using pymatgen
data_Y4ErSnPb3
_symmetry_space_group_name_H-M   'P 1'
_cell_length_a   8.16867700
_cell_length_b   8.23645000
_cell_length_c   15.63918000
_cell_angle_alpha   90.00000000
_cell_angle_beta   90.00000000
_cell_angle_gamma   90.00000000
_symmetry_Int_Tables_number   1
_chemical_formula_structural   Y4ErSnPb3
_chemical_formula_sum   'Y16 Er4 Sn4 Pb12'
_cell_volume   1052.21810061
_cell_formula_units_Z   4
loop_
 _symmetry_equiv_pos_site_id
 _symmetry_equiv_pos_as_xyz
  1  'x, y, z'
loop_
 _atom_site_type_symbol
 _atom_site_label
 _atom_site_symmetry_multiplicity
 _atom_site_fract_x
 _atom_site_fract_y
 _atom_site_fract_z
 _atom_site_occupancy
  Y  Y0  1  0.377109  0.838972  0.877030  1
  Y  Y1  1  0.877109  0.661028  0.622970  1
  Y  Y2  1  0.622891  0.161028  0.377030  1
  Y  Y3  1  0.122891  0.338972  0.122970  1
  Y  Y4  1  0.622891  0.161028  0.122970  1
  Y  Y5  1  0.122891  0.338972  0.377030  1
  Y  Y6  1  0.377109  0.838972  0.622970  1
  Y  Y7  1  0.877109  0.661028  0.877030  1
  Y  Y8  1  0.535516  0.326060  0.899030  1
  Y  Y9  1  0.035516  0.173940  0.600970  1
  Y  Y10  1  0.464484  0.673940  0.399030  1
  Y  Y11  1  0.964484  0.826060  0.100970  1
  Y  Y12  1  0.464484  0.673940  0.100970  1
  Y  Y13  1  0.964484  0.826060  0.399030  1
  Y  Y14  1  0.535516  0.326060  0.600970  1
  Y  Y15  1  0.035516  0.173940  0.899030  1
  Er  Er16  1  0.210458  0.507736  0.750000  1
  Er  Er17  1  0.710458  0.992264  0.750000  1
  Er  Er18  1  0.789542  0.492264  0.250000  1
  Er  Er19  1  0.289542  0.007736  0.250000  1
  Sn  Sn20  1  0.572865  0.624265  0.750000  1
  Sn  Sn21  1  0.072865  0.875735  0.750000  1
  Sn  Sn22  1  0.427135  0.375735  0.250000  1
  Sn  Sn23  1  0.927135  0.124265  0.250000  1
  Pb  Pb24  1  0.282625  0.032069  0.042373  1
  Pb  Pb25  1  0.782625  0.467931  0.457627  1
  Pb  Pb26  1  0.717375  0.967931  0.542373  1
  Pb  Pb27  1  0.217375  0.532069  0.957627  1
  Pb  Pb28  1  0.717375  0.967931  0.957627  1
  Pb  Pb29  1  0.217375  0.532069  0.542373  1
  Pb  Pb30  1  0.282625  0.032069  0.457627  1
  Pb  Pb31  1  0.782625  0.467931  0.042373  1
  Pb  Pb32  1  0.345814  0.153071  0.750000  1
  Pb  Pb33  1  0.845814  0.346929  0.750000  1
  Pb  Pb34  1  0.654186  0.846929  0.250000  1
  Pb  Pb35  1  0.154186  0.653071  0.250000  1
