# generated using pymatgen
data_Zr3GaP
_symmetry_space_group_name_H-M   'P 1'
_cell_length_a   7.16171800
_cell_length_b   7.16988900
_cell_length_c   3.66381900
_cell_angle_alpha   90.00000000
_cell_angle_beta   90.00000000
_cell_angle_gamma   90.00000000
_symmetry_Int_Tables_number   1
_chemical_formula_structural   Zr3GaP
_chemical_formula_sum   'Zr6 Ga2 P2'
_cell_volume   188.13242735
_cell_formula_units_Z   2
loop_
 _symmetry_equiv_pos_site_id
 _symmetry_equiv_pos_as_xyz
  1  'x, y, z'
loop_
 _atom_site_type_symbol
 _atom_site_label
 _atom_site_symmetry_multiplicity
 _atom_site_fract_x
 _atom_site_fract_y
 _atom_site_fract_z
 _atom_site_occupancy
  Zr  Zr0  1  0.002592  0.006805  0.000000  1
  Zr  Zr1  1  0.502592  0.493195  0.000000  1
  Zr  Zr2  1  0.669866  0.181367  0.500000  1
  Zr  Zr3  1  0.169866  0.318633  0.500000  1
  Zr  Zr4  1  0.824848  0.660318  0.500000  1
  Zr  Zr5  1  0.324848  0.839682  0.500000  1
  Ga  Ga6  1  0.628301  0.873024  0.000000  1
  Ga  Ga7  1  0.128301  0.626976  0.000000  1
  P  P8  1  0.874393  0.374485  0.000000  1
  P  P9  1  0.374393  0.125515  0.000000  1
