# generated using pymatgen
data_YSc19(NiAg3)2
_symmetry_space_group_name_H-M   'P 1'
_cell_length_a   8.83407346
_cell_length_b   8.84286052
_cell_length_c   9.02142600
_cell_angle_alpha   90.00000000
_cell_angle_beta   90.00000000
_cell_angle_gamma   120.03290687
_symmetry_Int_Tables_number   1
_chemical_formula_structural   YSc19(NiAg3)2
_chemical_formula_sum   'Y1 Sc19 Ni2 Ag6'
_cell_volume   610.12033476
_cell_formula_units_Z   1
loop_
 _symmetry_equiv_pos_site_id
 _symmetry_equiv_pos_as_xyz
  1  'x, y, z'
loop_
 _atom_site_type_symbol
 _atom_site_label
 _atom_site_symmetry_multiplicity
 _atom_site_fract_x
 _atom_site_fract_y
 _atom_site_fract_z
 _atom_site_occupancy
  Y  Y0  1  0.085120  0.542560  0.750000  1
  Sc  Sc1  1  0.999120  0.999560  0.499445  1
  Sc  Sc2  1  0.999120  0.999560  0.000555  1
  Sc  Sc3  1  0.542894  0.457040  0.250000  1
  Sc  Sc4  1  0.542894  0.085856  0.250000  1
  Sc  Sc5  1  0.916094  0.458047  0.250000  1
  Sc  Sc6  1  0.462224  0.542734  0.750000  1
  Sc  Sc7  1  0.462224  0.919489  0.750000  1
  Sc  Sc8  1  0.210322  0.794123  0.436409  1
  Sc  Sc9  1  0.210322  0.416200  0.436409  1
  Sc  Sc10  1  0.580419  0.790210  0.439354  1
  Sc  Sc11  1  0.787050  0.205565  0.557868  1
  Sc  Sc12  1  0.787050  0.581484  0.557868  1
  Sc  Sc13  1  0.417904  0.208952  0.559860  1
  Sc  Sc14  1  0.787050  0.205565  0.942132  1
  Sc  Sc15  1  0.787050  0.581484  0.942132  1
  Sc  Sc16  1  0.417904  0.208952  0.940140  1
  Sc  Sc17  1  0.210322  0.794123  0.063591  1
  Sc  Sc18  1  0.210322  0.416200  0.063591  1
  Sc  Sc19  1  0.580419  0.790210  0.060646  1
  Ni  Ni20  1  0.332408  0.666205  0.250000  1
  Ni  Ni21  1  0.666199  0.333099  0.750000  1
  Ag  Ag22  1  0.882867  0.115144  0.250000  1
  Ag  Ag23  1  0.882867  0.767722  0.250000  1
  Ag  Ag24  1  0.231861  0.115930  0.250000  1
  Ag  Ag25  1  0.119686  0.891081  0.750000  1
  Ag  Ag26  1  0.119686  0.228605  0.750000  1
  Ag  Ag27  1  0.768600  0.884301  0.750000  1
