# generated using pymatgen
data_YZr2TcF15
_symmetry_space_group_name_H-M   'P 1'
_cell_length_a   8.17322156
_cell_length_b   8.17322125
_cell_length_c   8.14794932
_cell_angle_alpha   79.81368183
_cell_angle_beta   79.81368032
_cell_angle_gamma   99.96142213
_symmetry_Int_Tables_number   1
_chemical_formula_structural   YZr2TcF15
_chemical_formula_sum   'Y2 Zr4 Tc2 F30'
_cell_volume   515.41778921
_cell_formula_units_Z   2
loop_
 _symmetry_equiv_pos_site_id
 _symmetry_equiv_pos_as_xyz
  1  'x, y, z'
loop_
 _atom_site_type_symbol
 _atom_site_label
 _atom_site_symmetry_multiplicity
 _atom_site_fract_x
 _atom_site_fract_y
 _atom_site_fract_z
 _atom_site_occupancy
  Y  Y0  1  0.177941  0.822059  0.250000  1
  Y  Y1  1  0.822059  0.177941  0.750000  1
  Zr  Zr2  1  0.746865  0.677515  0.673353  1
  Zr  Zr3  1  0.322485  0.253135  0.826647  1
  Zr  Zr4  1  0.253135  0.322485  0.326647  1
  Zr  Zr5  1  0.677515  0.746865  0.173353  1
  Tc  Tc6  1  0.749952  0.250048  0.250000  1
  Tc  Tc7  1  0.250048  0.749952  0.750000  1
  F  F8  1  0.313636  0.350254  0.054775  1
  F  F9  1  0.934634  0.810536  0.152619  1
  F  F10  1  0.844526  0.461448  0.685369  1
  F  F11  1  0.461448  0.844526  0.185369  1
  F  F12  1  0.810536  0.934634  0.652619  1
  F  F13  1  0.350254  0.313636  0.554774  1
  F  F14  1  0.686364  0.649746  0.945225  1
  F  F15  1  0.065366  0.189464  0.847381  1
  F  F16  1  0.155474  0.538552  0.314631  1
  F  F17  1  0.538552  0.155474  0.814631  1
  F  F18  1  0.189464  0.065366  0.347381  1
  F  F19  1  0.649746  0.686364  0.445225  1
  F  F20  1  0.773688  0.281865  0.002603  1
  F  F21  1  0.997647  0.273650  0.217326  1
  F  F22  1  0.778674  0.500341  0.225115  1
  F  F23  1  0.500341  0.778674  0.725115  1
  F  F24  1  0.273650  0.997647  0.717326  1
  F  F25  1  0.281865  0.773688  0.502603  1
  F  F26  1  0.226312  0.718135  0.997397  1
  F  F27  1  0.002353  0.726350  0.782674  1
  F  F28  1  0.221326  0.499659  0.774885  1
  F  F29  1  0.499659  0.221326  0.274885  1
  F  F30  1  0.726350  0.002353  0.282674  1
  F  F31  1  0.718135  0.226312  0.497397  1
  F  F32  1  0.467915  0.532085  0.250000  1
  F  F33  1  0.746977  0.954617  0.972005  1
  F  F34  1  0.045383  0.253023  0.527995  1
  F  F35  1  0.253023  0.045383  0.027995  1
  F  F36  1  0.954617  0.746977  0.472005  1
  F  F37  1  0.532085  0.467915  0.750000  1
