# generated using pymatgen
data_La16In3HgOs4
_symmetry_space_group_name_H-M   'P 1'
_cell_length_a   10.09305052
_cell_length_b   10.07876094
_cell_length_c   10.07876200
_cell_angle_alpha   59.99999651
_cell_angle_beta   60.04681924
_cell_angle_gamma   60.04682140
_symmetry_Int_Tables_number   1
_chemical_formula_structural   La16In3HgOs4
_chemical_formula_sum   'La16 In3 Hg1 Os4'
_cell_volume   725.48553028
_cell_formula_units_Z   1
loop_
 _symmetry_equiv_pos_site_id
 _symmetry_equiv_pos_as_xyz
  1  'x, y, z'
loop_
 _atom_site_type_symbol
 _atom_site_label
 _atom_site_symmetry_multiplicity
 _atom_site_fract_x
 _atom_site_fract_y
 _atom_site_fract_z
 _atom_site_occupancy
  La  La0  1  0.941909  0.943068  0.557512  1
  La  La1  1  0.555055  0.943097  0.558753  1
  La  La2  1  0.555055  0.943097  0.943097  1
  La  La3  1  0.690170  0.690859  0.309486  1
  La  La4  1  0.154496  0.154406  0.536691  1
  La  La5  1  0.309462  0.690168  0.690168  1
  La  La6  1  0.154496  0.154406  0.154406  1
  La  La7  1  0.536129  0.154624  0.154624  1
  La  La8  1  0.309462  0.690168  0.310202  1
  La  La9  1  0.309462  0.310202  0.690168  1
  La  La10  1  0.690170  0.309486  0.690859  1
  La  La11  1  0.941909  0.557512  0.557512  1
  La  La12  1  0.555055  0.558753  0.943097  1
  La  La13  1  0.154496  0.536691  0.154406  1
  La  La14  1  0.690170  0.309486  0.309486  1
  La  La15  1  0.941909  0.557512  0.943068  1
  In  In16  1  0.920890  0.920869  0.920869  1
  In  In17  1  0.920890  0.920869  0.237373  1
  In  In18  1  0.920890  0.237373  0.920869  1
  Hg  Hg19  1  0.247998  0.917334  0.917334  1
  Os  Os20  1  0.913975  0.362009  0.362009  1
  Os  Os21  1  0.361986  0.362384  0.913247  1
  Os  Os22  1  0.361986  0.913247  0.362384  1
  Os  Os23  1  0.361986  0.362384  0.362384  1
