# generated using pymatgen
data_Tb3ZnCd(HgAu)2
_symmetry_space_group_name_H-M   'P 1'
_cell_length_a   7.93186024
_cell_length_b   7.93186038
_cell_length_c   3.78737800
_cell_angle_alpha   90.00000000
_cell_angle_beta   90.00000000
_cell_angle_gamma   120.28343238
_symmetry_Int_Tables_number   1
_chemical_formula_structural   Tb3ZnCd(HgAu)2
_chemical_formula_sum   'Tb3 Zn1 Cd1 Hg2 Au2'
_cell_volume   205.76520223
_cell_formula_units_Z   1
loop_
 _symmetry_equiv_pos_site_id
 _symmetry_equiv_pos_as_xyz
  1  'x, y, z'
loop_
 _atom_site_type_symbol
 _atom_site_label
 _atom_site_symmetry_multiplicity
 _atom_site_fract_x
 _atom_site_fract_y
 _atom_site_fract_z
 _atom_site_occupancy
  Tb  Tb0  1  0.590990  0.006187  0.000000  1
  Tb  Tb1  1  0.006187  0.590990  0.000000  1
  Tb  Tb2  1  0.402656  0.402656  0.000000  1
  Zn  Zn3  1  0.997288  0.997288  0.000000  1
  Cd  Cd4  1  0.742706  0.742706  0.500000  1
  Hg  Hg5  1  0.256872  0.995076  0.500000  1
  Hg  Hg6  1  0.995076  0.256872  0.500000  1
  Au  Au7  1  0.341249  0.666977  0.500000  1
  Au  Au8  1  0.666977  0.341249  0.500000  1
