# generated using pymatgen
data_Tb7Dy(ThRh)6
_symmetry_space_group_name_H-M   'P 1'
_cell_length_a   9.92116600
_cell_length_b   9.81442350
_cell_length_c   6.36785107
_cell_angle_alpha   90.16466839
_cell_angle_beta   90.00000000
_cell_angle_gamma   120.36044166
_symmetry_Int_Tables_number   1
_chemical_formula_structural   Tb7Dy(ThRh)6
_chemical_formula_sum   'Tb7 Dy1 Th6 Rh6'
_cell_volume   535.00737164
_cell_formula_units_Z   1
loop_
 _symmetry_equiv_pos_site_id
 _symmetry_equiv_pos_as_xyz
  1  'x, y, z'
loop_
 _atom_site_type_symbol
 _atom_site_label
 _atom_site_symmetry_multiplicity
 _atom_site_fract_x
 _atom_site_fract_y
 _atom_site_fract_z
 _atom_site_occupancy
  Tb  Tb0  1  0.872893  0.745787  0.737838  1
  Tb  Tb1  1  0.539123  0.462182  0.444854  1
  Tb  Tb2  1  0.923059  0.462182  0.444854  1
  Tb  Tb3  1  0.537858  0.075716  0.443439  1
  Tb  Tb4  1  0.462073  0.540106  0.939376  1
  Tb  Tb5  1  0.078033  0.540106  0.939376  1
  Tb  Tb6  1  0.461169  0.922338  0.939782  1
  Dy  Dy7  1  0.332943  0.665886  0.461978  1
  Th  Th8  1  0.666489  0.332976  0.963528  1
  Th  Th9  1  0.127576  0.870572  0.241573  1
  Th  Th10  1  0.742996  0.870572  0.241573  1
  Th  Th11  1  0.128406  0.256813  0.240112  1
  Th  Th12  1  0.869748  0.124854  0.737678  1
  Th  Th13  1  0.255106  0.124854  0.737678  1
  Rh  Rh14  1  0.814602  0.185008  0.193858  1
  Rh  Rh15  1  0.370408  0.185008  0.193858  1
  Rh  Rh16  1  0.814585  0.629167  0.199275  1
  Rh  Rh17  1  0.192331  0.820885  0.692507  1
  Rh  Rh18  1  0.628553  0.820885  0.692507  1
  Rh  Rh19  1  0.182050  0.364102  0.700920  1
