# generated using pymatgen
data_La2LuBiO7
_symmetry_space_group_name_H-M   'P 1'
_cell_length_a   7.80448078
_cell_length_b   7.80448072
_cell_length_c   7.76450800
_cell_angle_alpha   60.16928250
_cell_angle_beta   60.16928274
_cell_angle_gamma   60.65744213
_symmetry_Int_Tables_number   1
_chemical_formula_structural   La2LuBiO7
_chemical_formula_sum   'La4 Lu2 Bi2 O14'
_cell_volume   336.91167973
_cell_formula_units_Z   2
loop_
 _symmetry_equiv_pos_site_id
 _symmetry_equiv_pos_as_xyz
  1  'x, y, z'
loop_
 _atom_site_type_symbol
 _atom_site_label
 _atom_site_symmetry_multiplicity
 _atom_site_fract_x
 _atom_site_fract_y
 _atom_site_fract_z
 _atom_site_occupancy
  La  La0  1  0.625000  0.125000  0.125000  1
  La  La1  1  0.125000  0.125000  0.125000  1
  La  La2  1  0.125000  0.625000  0.125000  1
  La  La3  1  0.125000  0.125000  0.625000  1
  Lu  Lu4  1  0.625000  0.625000  0.125000  1
  Lu  Lu5  1  0.625000  0.625000  0.625000  1
  Bi  Bi6  1  0.625000  0.125000  0.625000  1
  Bi  Bi7  1  0.125000  0.625000  0.625000  1
  O  O8  1  0.719677  0.282506  0.293613  1
  O  O9  1  0.722164  0.722164  0.277836  1
  O  O10  1  0.282506  0.719677  0.293613  1
  O  O11  1  0.003370  0.003370  0.996630  1
  O  O12  1  0.719677  0.282506  0.704204  1
  O  O13  1  0.967494  0.530323  0.545796  1
  O  O14  1  0.282506  0.719677  0.704204  1
  O  O15  1  0.530323  0.967494  0.545796  1
  O  O16  1  0.246630  0.246630  0.253370  1
  O  O17  1  0.967494  0.530323  0.956387  1
  O  O18  1  0.527836  0.527836  0.972164  1
  O  O19  1  0.957049  0.957049  0.542951  1
  O  O20  1  0.530323  0.967494  0.956387  1
  O  O21  1  0.292951  0.292951  0.707049  1
