# generated using pymatgen
data_Sc8V11Si16Ni
_symmetry_space_group_name_H-M   'P 1'
_cell_length_a   6.63132806
_cell_length_b   6.63132806
_cell_length_c   12.24307045
_cell_angle_alpha   90.17425057
_cell_angle_beta   89.82574943
_cell_angle_gamma   89.77851220
_symmetry_Int_Tables_number   1
_chemical_formula_structural   Sc8V11Si16Ni
_chemical_formula_sum   'Sc8 V11 Si16 Ni1'
_cell_volume   538.37402495
_cell_formula_units_Z   1
loop_
 _symmetry_equiv_pos_site_id
 _symmetry_equiv_pos_as_xyz
  1  'x, y, z'
loop_
 _atom_site_type_symbol
 _atom_site_label
 _atom_site_symmetry_multiplicity
 _atom_site_fract_x
 _atom_site_fract_y
 _atom_site_fract_z
 _atom_site_occupancy
  Sc  Sc0  1  0.001010  0.662871  0.029949  1
  Sc  Sc1  1  0.837844  0.500575  0.279659  1
  Sc  Sc2  1  0.162327  0.499426  0.780088  1
  Sc  Sc3  1  0.500575  0.837844  0.720341  1
  Sc  Sc4  1  0.499426  0.162327  0.219912  1
  Sc  Sc5  1  0.998714  0.337473  0.530317  1
  Sc  Sc6  1  0.662871  0.001010  0.970051  1
  Sc  Sc7  1  0.337473  0.998714  0.469683  1
  V  V8  1  0.168813  0.831649  0.248767  1
  V  V9  1  0.831649  0.168813  0.751233  1
  V  V10  1  0.667971  0.667971  0.500000  1
  V  V11  1  0.003722  0.154619  0.125744  1
  V  V12  1  0.343787  0.505788  0.375491  1
  V  V13  1  0.661014  0.494862  0.877084  1
  V  V14  1  0.505788  0.343787  0.624509  1
  V  V15  1  0.494862  0.661014  0.122916  1
  V  V16  1  0.992609  0.844511  0.626962  1
  V  V17  1  0.154619  0.003722  0.874256  1
  V  V18  1  0.844511  0.992609  0.373038  1
  Si  Si19  1  0.290979  0.958740  0.063503  1
  Si  Si20  1  0.539353  0.794058  0.314586  1
  Si  Si21  1  0.458284  0.207688  0.816044  1
  Si  Si22  1  0.794058  0.539353  0.685414  1
  Si  Si23  1  0.207688  0.458284  0.183956  1
  Si  Si24  1  0.705667  0.040192  0.564604  1
  Si  Si25  1  0.958740  0.290979  0.936497  1
  Si  Si26  1  0.040192  0.705667  0.435396  1
  Si  Si27  1  0.704177  0.372870  0.069770  1
  Si  Si28  1  0.131295  0.203477  0.319208  1
  Si  Si29  1  0.869450  0.796356  0.819362  1
  Si  Si30  1  0.203477  0.131295  0.680792  1
  Si  Si31  1  0.796356  0.869450  0.180638  1
  Si  Si32  1  0.296203  0.630521  0.570190  1
  Si  Si33  1  0.372870  0.704177  0.930230  1
  Si  Si34  1  0.630521  0.296203  0.429810  1
  Ni  Ni35  1  0.331106  0.331106  0.000000  1
