# generated using pymatgen
data_Hf16Ni4Mo3Pt
_symmetry_space_group_name_H-M   'P 1'
_cell_length_a   8.67145383
_cell_length_b   8.67145338
_cell_length_c   8.67145428
_cell_angle_alpha   60.08582376
_cell_angle_beta   60.08581672
_cell_angle_gamma   60.08582469
_symmetry_Int_Tables_number   1
_chemical_formula_structural   Hf16Ni4Mo3Pt
_chemical_formula_sum   'Hf16 Ni4 Mo3 Pt1'
_cell_volume   461.96015601
_cell_formula_units_Z   1
loop_
 _symmetry_equiv_pos_site_id
 _symmetry_equiv_pos_as_xyz
  1  'x, y, z'
loop_
 _atom_site_type_symbol
 _atom_site_label
 _atom_site_symmetry_multiplicity
 _atom_site_fract_x
 _atom_site_fract_y
 _atom_site_fract_z
 _atom_site_occupancy
  Hf  Hf0  1  0.689409  0.103550  0.103550  1
  Hf  Hf1  1  0.103550  0.689409  0.103550  1
  Hf  Hf2  1  0.103550  0.103550  0.689409  1
  Hf  Hf3  1  0.103388  0.103388  0.103388  1
  Hf  Hf4  1  0.315669  0.315669  0.689516  1
  Hf  Hf5  1  0.684931  0.684931  0.315562  1
  Hf  Hf6  1  0.315669  0.689516  0.315669  1
  Hf  Hf7  1  0.684931  0.315562  0.684931  1
  Hf  Hf8  1  0.689516  0.315669  0.315669  1
  Hf  Hf9  1  0.315562  0.684931  0.684931  1
  Hf  Hf10  1  0.952552  0.952552  0.546444  1
  Hf  Hf11  1  0.550560  0.550560  0.948425  1
  Hf  Hf12  1  0.952552  0.546444  0.952552  1
  Hf  Hf13  1  0.550560  0.948425  0.550560  1
  Hf  Hf14  1  0.546444  0.952552  0.952552  1
  Hf  Hf15  1  0.948425  0.550560  0.550560  1
  Ni  Ni16  1  0.323303  0.891024  0.891024  1
  Ni  Ni17  1  0.891024  0.323303  0.891024  1
  Ni  Ni18  1  0.891024  0.891024  0.323303  1
  Ni  Ni19  1  0.891878  0.891878  0.891878  1
  Mo  Mo20  1  0.996743  0.333008  0.333008  1
  Mo  Mo21  1  0.333008  0.996743  0.333008  1
  Mo  Mo22  1  0.333008  0.333008  0.996743  1
  Pt  Pt23  1  0.332743  0.332743  0.332743  1
