# generated using pymatgen
data_Dy2Er2Al24Pt8Rh
_symmetry_space_group_name_H-M   'P 1'
_cell_length_a   7.51987027
_cell_length_b   7.51919945
_cell_length_c   13.16196726
_cell_angle_alpha   84.56142941
_cell_angle_beta   100.90158186
_cell_angle_gamma   119.79381376
_symmetry_Int_Tables_number   1
_chemical_formula_structural   Dy2Er2Al24Pt8Rh
_chemical_formula_sum   'Dy2 Er2 Al24 Pt8 Rh1'
_cell_volume   634.19482139
_cell_formula_units_Z   1
loop_
 _symmetry_equiv_pos_site_id
 _symmetry_equiv_pos_as_xyz
  1  'x, y, z'
loop_
 _atom_site_type_symbol
 _atom_site_label
 _atom_site_symmetry_multiplicity
 _atom_site_fract_x
 _atom_site_fract_y
 _atom_site_fract_z
 _atom_site_occupancy
  Dy  Dy0  1  0.731844  0.998585  0.191145  1
  Dy  Dy1  1  0.268156  0.001415  0.808855  1
  Er  Er2  1  0.062206  0.668026  0.191297  1
  Er  Er3  1  0.937794  0.331974  0.808703  1
  Al  Al4  1  0.810321  0.871447  0.817956  1
  Al  Al5  1  0.189679  0.128553  0.182044  1
  Al  Al6  1  0.982146  0.669196  0.945484  1
  Al  Al7  1  0.017854  0.330804  0.054516  1
  Al  Al8  1  0.398531  0.663372  0.817064  1
  Al  Al9  1  0.601469  0.336628  0.182936  1
  Al  Al10  1  0.882148  0.664838  0.671907  1
  Al  Al11  1  0.117852  0.335162  0.328093  1
  Al  Al12  1  0.603234  0.458815  0.816686  1
  Al  Al13  1  0.396766  0.541185  0.183314  1
  Al  Al14  1  0.229984  0.339846  0.669788  1
  Al  Al15  1  0.770016  0.660154  0.330212  1
  Al  Al16  1  0.853036  0.333203  0.559011  1
  Al  Al17  1  0.185753  0.999299  0.558841  1
  Al  Al18  1  0.814247  0.000701  0.441159  1
  Al  Al19  1  0.348234  0.998967  0.054757  1
  Al  Al20  1  0.651766  0.001033  0.945243  1
  Al  Al21  1  0.556853  0.992915  0.671921  1
  Al  Al22  1  0.443147  0.007085  0.328079  1
  Al  Al23  1  0.521239  0.667865  0.561811  1
  Al  Al24  1  0.478761  0.332135  0.438189  1
  Al  Al25  1  0.687445  0.671856  0.045584  1
  Al  Al26  1  0.312555  0.328144  0.954416  1
  Al  Al27  1  0.146964  0.666797  0.440989  1
  Pt  Pt28  1  0.328405  0.671439  0.000068  1
  Pt  Pt29  1  0.546273  0.324875  0.637228  1
  Pt  Pt30  1  0.453727  0.675125  0.362772  1
  Pt  Pt31  1  0.887350  0.007952  0.638617  1
  Pt  Pt32  1  0.112650  0.992048  0.361383  1
  Pt  Pt33  1  0.671595  0.328561  0.999932  1
  Pt  Pt34  1  0.203836  0.666310  0.638479  1
  Pt  Pt35  1  0.796164  0.333690  0.361521  1
  Rh  Rh36  1  0.000000  0.000000  0.000000  1
