# generated using pymatgen
data_BaFe3CoSb12
_symmetry_space_group_name_H-M   'P 1'
_cell_length_a   7.98149512
_cell_length_b   7.98149519
_cell_length_c   7.98149517
_cell_angle_alpha   109.42011541
_cell_angle_beta   109.42012073
_cell_angle_gamma   109.42011066
_symmetry_Int_Tables_number   1
_chemical_formula_structural   BaFe3CoSb12
_chemical_formula_sum   'Ba1 Fe3 Co1 Sb12'
_cell_volume   392.14790149
_cell_formula_units_Z   1
loop_
 _symmetry_equiv_pos_site_id
 _symmetry_equiv_pos_as_xyz
  1  'x, y, z'
loop_
 _atom_site_type_symbol
 _atom_site_label
 _atom_site_symmetry_multiplicity
 _atom_site_fract_x
 _atom_site_fract_y
 _atom_site_fract_z
 _atom_site_occupancy
  Ba  Ba0  1  0.000000  0.000000  0.000000  1
  Fe  Fe1  1  0.000000  0.000000  0.500000  1
  Fe  Fe2  1  0.500000  0.000000  0.000000  1
  Fe  Fe3  1  0.000000  0.500000  0.000000  1
  Co  Co4  1  0.500000  0.500000  0.500000  1
  Sb  Sb5  1  0.337809  0.173933  0.835846  1
  Sb  Sb6  1  0.662191  0.826067  0.164154  1
  Sb  Sb7  1  0.662294  0.498290  0.837708  1
  Sb  Sb8  1  0.337706  0.501710  0.162292  1
  Sb  Sb9  1  0.173933  0.835846  0.337809  1
  Sb  Sb10  1  0.826067  0.164154  0.662191  1
  Sb  Sb11  1  0.498290  0.837708  0.662294  1
  Sb  Sb12  1  0.501710  0.162292  0.337706  1
  Sb  Sb13  1  0.835846  0.337809  0.173933  1
  Sb  Sb14  1  0.164154  0.662191  0.826067  1
  Sb  Sb15  1  0.837708  0.662294  0.498290  1
  Sb  Sb16  1  0.162292  0.337706  0.501710  1
