# generated using pymatgen
data_Pr20Ir3Ru4Rh5
_symmetry_space_group_name_H-M   'P 1'
_cell_length_a   11.23715700
_cell_length_b   11.23715700
_cell_length_c   6.65568700
_cell_angle_alpha   89.99938815
_cell_angle_beta   89.99938815
_cell_angle_gamma   89.95812372
_symmetry_Int_Tables_number   1
_chemical_formula_structural   Pr20Ir3Ru4Rh5
_chemical_formula_sum   'Pr20 Ir3 Ru4 Rh5'
_cell_volume   840.43798214
_cell_formula_units_Z   1
loop_
 _symmetry_equiv_pos_site_id
 _symmetry_equiv_pos_as_xyz
  1  'x, y, z'
loop_
 _atom_site_type_symbol
 _atom_site_label
 _atom_site_symmetry_multiplicity
 _atom_site_fract_x
 _atom_site_fract_y
 _atom_site_fract_z
 _atom_site_occupancy
  Pr  Pr0  1  0.293430  0.088818  0.379175  1
  Pr  Pr1  1  0.293472  0.910616  0.878818  1
  Pr  Pr2  1  0.706299  0.087744  0.878415  1
  Pr  Pr3  1  0.706364  0.910709  0.378626  1
  Pr  Pr4  1  0.587149  0.792044  0.880673  1
  Pr  Pr5  1  0.586892  0.206926  0.378261  1
  Pr  Pr6  1  0.412475  0.792366  0.380377  1
  Pr  Pr7  1  0.410739  0.206944  0.880728  1
  Pr  Pr8  1  0.207960  0.412857  0.619320  1
  Pr  Pr9  1  0.207629  0.587524  0.119617  1
  Pr  Pr10  1  0.793080  0.413109  0.121735  1
  Pr  Pr11  1  0.793057  0.589268  0.619251  1
  Pr  Pr12  1  0.911176  0.706570  0.120799  1
  Pr  Pr13  1  0.912259  0.293703  0.621571  1
  Pr  Pr14  1  0.089390  0.706534  0.621160  1
  Pr  Pr15  1  0.089292  0.293643  0.121368  1
  Pr  Pr16  1  0.999947  0.000046  0.500064  1
  Pr  Pr17  1  0.999950  0.000048  0.999932  1
  Pr  Pr18  1  0.500119  0.499753  0.999413  1
  Pr  Pr19  1  0.500255  0.499881  0.500585  1
  Ir  Ir20  1  0.653061  0.652684  0.250126  1
  Ir  Ir21  1  0.347314  0.346940  0.249869  1
  Ir  Ir22  1  0.346271  0.653731  0.749993  1
  Ru  Ru23  1  0.500423  0.000566  0.117088  1
  Ru  Ru24  1  0.500375  0.000795  0.617287  1
  Ru  Ru25  1  0.999218  0.499649  0.882727  1
  Ru  Ru26  1  0.999443  0.499601  0.383017  1
  Rh  Rh27  1  0.847260  0.152747  0.250013  1
  Rh  Rh28  1  0.847335  0.847477  0.749826  1
  Rh  Rh29  1  0.152478  0.152598  0.750177  1
  Rh  Rh30  1  0.152101  0.847911  0.249972  1
  Rh  Rh31  1  0.653790  0.346196  0.750016  1
