# generated using pymatgen
data_Er2Th(SnRh)3
_symmetry_space_group_name_H-M   'P 1'
_cell_length_a   7.55784531
_cell_length_b   7.63661561
_cell_length_c   3.90576100
_cell_angle_alpha   90.00000000
_cell_angle_beta   90.00000000
_cell_angle_gamma   120.34537751
_symmetry_Int_Tables_number   1
_chemical_formula_structural   Er2Th(SnRh)3
_chemical_formula_sum   'Er2 Th1 Sn3 Rh3'
_cell_volume   194.54193269
_cell_formula_units_Z   1
loop_
 _symmetry_equiv_pos_site_id
 _symmetry_equiv_pos_as_xyz
  1  'x, y, z'
loop_
 _atom_site_type_symbol
 _atom_site_label
 _atom_site_symmetry_multiplicity
 _atom_site_fract_x
 _atom_site_fract_y
 _atom_site_fract_z
 _atom_site_occupancy
  Er  Er0  1  0.406427  0.406458  0.500000  1
  Er  Er1  1  0.593573  0.000031  0.500000  1
  Th  Th2  1  0.000000  0.586433  0.500000  1
  Sn  Sn3  1  0.729889  0.742119  0.000000  1
  Sn  Sn4  1  0.270111  0.012229  0.000000  1
  Sn  Sn5  1  0.000000  0.246273  0.000000  1
  Rh  Rh6  1  0.679107  0.346047  0.000000  1
  Rh  Rh7  1  0.320893  0.666941  0.000000  1
  Rh  Rh8  1  0.000000  0.993469  0.500000  1
