# generated using pymatgen
data_Tb11TmTc4
_symmetry_space_group_name_H-M   'P 1'
_cell_length_a   6.28891228
_cell_length_b   7.40646267
_cell_length_c   9.24291333
_cell_angle_alpha   90.04979457
_cell_angle_beta   89.82400956
_cell_angle_gamma   89.95664323
_symmetry_Int_Tables_number   1
_chemical_formula_structural   Tb11TmTc4
_chemical_formula_sum   'Tb11 Tm1 Tc4'
_cell_volume   430.51958964
_cell_formula_units_Z   1
loop_
 _symmetry_equiv_pos_site_id
 _symmetry_equiv_pos_as_xyz
  1  'x, y, z'
loop_
 _atom_site_type_symbol
 _atom_site_label
 _atom_site_symmetry_multiplicity
 _atom_site_fract_x
 _atom_site_fract_y
 _atom_site_fract_z
 _atom_site_occupancy
  Tb  Tb0  1  0.163259  0.175544  0.436683  1
  Tb  Tb1  1  0.663378  0.324576  0.563177  1
  Tb  Tb2  1  0.837828  0.824191  0.937416  1
  Tb  Tb3  1  0.663803  0.324254  0.937744  1
  Tb  Tb4  1  0.834923  0.824045  0.563189  1
  Tb  Tb5  1  0.335317  0.675859  0.435556  1
  Tb  Tb6  1  0.165162  0.176668  0.063059  1
  Tb  Tb7  1  0.872310  0.542912  0.248538  1
  Tb  Tb8  1  0.626934  0.040766  0.249471  1
  Tb  Tb9  1  0.128277  0.458379  0.750800  1
  Tb  Tb10  1  0.371624  0.957725  0.750968  1
  Tm  Tm11  1  0.337354  0.674613  0.062966  1
  Tc  Tc12  1  0.042472  0.885566  0.248150  1
  Tc  Tc13  1  0.460345  0.386944  0.250018  1
  Tc  Tc14  1  0.959182  0.114044  0.749196  1
  Tc  Tc15  1  0.537830  0.613913  0.753069  1
