# generated using pymatgen
data_RbPr(SmB12)2
_symmetry_space_group_name_H-M   'P 1'
_cell_length_a   7.18524000
_cell_length_b   7.18523998
_cell_length_c   5.89933800
_cell_angle_alpha   90.00000000
_cell_angle_beta   90.00000000
_cell_angle_gamma   109.27865333
_symmetry_Int_Tables_number   1
_chemical_formula_structural   RbPr(SmB12)2
_chemical_formula_sum   'Rb1 Pr1 Sm2 B24'
_cell_volume   287.49008842
_cell_formula_units_Z   1
loop_
 _symmetry_equiv_pos_site_id
 _symmetry_equiv_pos_as_xyz
  1  'x, y, z'
loop_
 _atom_site_type_symbol
 _atom_site_label
 _atom_site_symmetry_multiplicity
 _atom_site_fract_x
 _atom_site_fract_y
 _atom_site_fract_z
 _atom_site_occupancy
  Rb  Rb0  1  0.750095  0.249905  0.500000  1
  Pr  Pr1  1  0.998463  0.001537  0.000000  1
  Sm  Sm2  1  0.501132  0.498868  0.000000  1
  Sm  Sm3  1  0.250892  0.749108  0.500000  1
  B  B4  1  0.176611  0.326954  0.648505  1
  B  B5  1  0.926957  0.576449  0.149734  1
  B  B6  1  0.673046  0.823389  0.648505  1
  B  B7  1  0.423551  0.073043  0.149734  1
  B  B8  1  0.176611  0.326954  0.351495  1
  B  B9  1  0.926957  0.576449  0.850266  1
  B  B10  1  0.673046  0.823389  0.351495  1
  B  B11  1  0.423551  0.073043  0.850266  1
  B  B12  1  0.401051  0.398308  0.500000  1
  B  B13  1  0.150511  0.650813  0.000000  1
  B  B14  1  0.897988  0.900594  0.500000  1
  B  B15  1  0.648138  0.148151  0.000000  1
  B  B16  1  0.324365  0.174036  0.648484  1
  B  B17  1  0.077018  0.427714  0.149761  1
  B  B18  1  0.825964  0.675635  0.648484  1
  B  B19  1  0.572286  0.922982  0.149761  1
  B  B20  1  0.099406  0.102012  0.500000  1
  B  B21  1  0.851849  0.351862  0.000000  1
  B  B22  1  0.601692  0.598949  0.500000  1
  B  B23  1  0.349187  0.849489  0.000000  1
  B  B24  1  0.324365  0.174036  0.351516  1
  B  B25  1  0.077018  0.427714  0.850239  1
  B  B26  1  0.825964  0.675635  0.351516  1
  B  B27  1  0.572286  0.922982  0.850239  1
