# generated using pymatgen
data_NdLu(CuSi)2
_symmetry_space_group_name_H-M   'P 1'
_cell_length_a   4.17918600
_cell_length_b   4.17918566
_cell_length_c   7.46549100
_cell_angle_alpha   90.00000000
_cell_angle_beta   90.00000000
_cell_angle_gamma   119.99997107
_symmetry_Int_Tables_number   1
_chemical_formula_structural   NdLu(CuSi)2
_chemical_formula_sum   'Nd1 Lu1 Cu2 Si2'
_cell_volume   112.92042384
_cell_formula_units_Z   1
loop_
 _symmetry_equiv_pos_site_id
 _symmetry_equiv_pos_as_xyz
  1  'x, y, z'
loop_
 _atom_site_type_symbol
 _atom_site_label
 _atom_site_symmetry_multiplicity
 _atom_site_fract_x
 _atom_site_fract_y
 _atom_site_fract_z
 _atom_site_occupancy
  Nd  Nd0  1  0.000000  0.000000  0.000000  1
  Lu  Lu1  1  0.000000  0.000000  0.500000  1
  Cu  Cu2  1  0.333333  0.666667  0.277136  1
  Cu  Cu3  1  0.666667  0.333333  0.722864  1
  Si  Si4  1  0.666667  0.333333  0.267452  1
  Si  Si5  1  0.333333  0.666667  0.732548  1
