# generated using pymatgen
data_BaSc(TaSe2)8
_symmetry_space_group_name_H-M   'P 1'
_cell_length_a   7.04656902
_cell_length_b   7.04657339
_cell_length_c   14.98776900
_cell_angle_alpha   89.98485192
_cell_angle_beta   90.00392728
_cell_angle_gamma   120.00353429
_symmetry_Int_Tables_number   1
_chemical_formula_structural   BaSc(TaSe2)8
_chemical_formula_sum   'Ba1 Sc1 Ta8 Se16'
_cell_volume   644.47760006
_cell_formula_units_Z   1
loop_
 _symmetry_equiv_pos_site_id
 _symmetry_equiv_pos_as_xyz
  1  'x, y, z'
loop_
 _atom_site_type_symbol
 _atom_site_label
 _atom_site_symmetry_multiplicity
 _atom_site_fract_x
 _atom_site_fract_y
 _atom_site_fract_z
 _atom_site_occupancy
  Ba  Ba0  1  0.000000  0.000000  0.500000  1
  Sc  Sc1  1  0.000000  0.000000  0.000000  1
  Ta  Ta2  1  0.507817  0.492436  0.778095  1
  Ta  Ta3  1  0.015556  0.507653  0.221943  1
  Ta  Ta4  1  0.492182  0.984369  0.221869  1
  Ta  Ta5  1  0.507818  0.015631  0.778131  1
  Ta  Ta6  1  0.984444  0.492347  0.778057  1
  Ta  Ta7  1  0.492183  0.507564  0.221905  1
  Ta  Ta8  1  0.000049  0.000169  0.777825  1
  Ta  Ta9  1  0.999951  0.999831  0.222175  1
  Se  Se10  1  0.830777  0.168961  0.331070  1
  Se  Se11  1  0.830796  0.661388  0.331108  1
  Se  Se12  1  0.338318  0.168963  0.331015  1
  Se  Se13  1  0.660502  0.830294  0.886952  1
  Se  Se14  1  0.169204  0.338612  0.668892  1
  Se  Se15  1  0.169779  0.830409  0.887033  1
  Se  Se16  1  0.169779  0.339470  0.887040  1
  Se  Se17  1  0.830221  0.169591  0.112967  1
  Se  Se18  1  0.339498  0.169706  0.113048  1
  Se  Se19  1  0.661682  0.831037  0.668985  1
  Se  Se20  1  0.333302  0.666585  0.107243  1
  Se  Se21  1  0.666814  0.333616  0.662537  1
  Se  Se22  1  0.666698  0.333415  0.892757  1
  Se  Se23  1  0.333186  0.666384  0.337463  1
  Se  Se24  1  0.830221  0.660530  0.112960  1
  Se  Se25  1  0.169223  0.831039  0.668930  1
