# generated using pymatgen
data_Er14Tm6HgBi11
_symmetry_space_group_name_H-M   'P 1'
_cell_length_a   8.17999381
_cell_length_b   9.43215305
_cell_length_c   11.95285850
_cell_angle_alpha   89.99072358
_cell_angle_beta   89.59391073
_cell_angle_gamma   89.99204597
_symmetry_Int_Tables_number   1
_chemical_formula_structural   Er14Tm6HgBi11
_chemical_formula_sum   'Er14 Tm6 Hg1 Bi11'
_cell_volume   922.19905874
_cell_formula_units_Z   1
loop_
 _symmetry_equiv_pos_site_id
 _symmetry_equiv_pos_as_xyz
  1  'x, y, z'
loop_
 _atom_site_type_symbol
 _atom_site_label
 _atom_site_symmetry_multiplicity
 _atom_site_fract_x
 _atom_site_fract_y
 _atom_site_fract_z
 _atom_site_occupancy
  Er  Er0  1  0.033507  0.249921  0.508489  1
  Er  Er1  1  0.978090  0.750048  0.489299  1
  Er  Er2  1  0.475459  0.749954  0.010577  1
  Er  Er3  1  0.525118  0.250010  0.989730  1
  Er  Er4  1  0.355818  0.250071  0.289826  1
  Er  Er5  1  0.647655  0.749861  0.716406  1
  Er  Er6  1  0.149181  0.749930  0.783749  1
  Er  Er7  1  0.853209  0.250073  0.215050  1
  Er  Er8  1  0.191133  0.250097  0.780127  1
  Er  Er9  1  0.810121  0.749973  0.217206  1
  Er  Er10  1  0.313122  0.749943  0.281655  1
  Er  Er11  1  0.679572  0.250031  0.713412  1
  Er  Er12  1  0.192571  0.065198  0.060324  1
  Er  Er13  1  0.807255  0.934630  0.940952  1
  Tm  Tm14  1  0.307619  0.946002  0.559670  1
  Tm  Tm15  1  0.806912  0.565603  0.940847  1
  Tm  Tm16  1  0.687838  0.069438  0.444052  1
  Tm  Tm17  1  0.192895  0.434514  0.060459  1
  Tm  Tm18  1  0.687820  0.430536  0.444059  1
  Tm  Tm19  1  0.307592  0.554128  0.559688  1
  Hg  Hg20  1  0.405945  0.249987  0.540999  1
  Bi  Bi21  1  0.593734  0.749972  0.457409  1
  Bi  Bi22  1  0.094273  0.749447  0.042883  1
  Bi  Bi23  1  0.906334  0.250594  0.954756  1
  Bi  Bi24  1  0.062667  0.002569  0.323675  1
  Bi  Bi25  1  0.935562  0.996927  0.675350  1
  Bi  Bi26  1  0.435666  0.996779  0.825629  1
  Bi  Bi27  1  0.935755  0.503060  0.675446  1
  Bi  Bi28  1  0.564676  0.003778  0.174523  1
  Bi  Bi29  1  0.062501  0.497456  0.323620  1
  Bi  Bi30  1  0.564536  0.496254  0.174510  1
  Bi  Bi31  1  0.435865  0.503216  0.825623  1
