# generated using pymatgen
data_La13PrPdPt5
_symmetry_space_group_name_H-M   'P 1'
_cell_length_a   6.59109505
_cell_length_b   10.32598255
_cell_length_c   10.33526100
_cell_angle_alpha   119.96543801
_cell_angle_beta   89.99321953
_cell_angle_gamma   90.00171098
_symmetry_Int_Tables_number   1
_chemical_formula_structural   La13PrPdPt5
_chemical_formula_sum   'La13 Pr1 Pd1 Pt5'
_cell_volume   609.38559570
_cell_formula_units_Z   1
loop_
 _symmetry_equiv_pos_site_id
 _symmetry_equiv_pos_as_xyz
  1  'x, y, z'
loop_
 _atom_site_type_symbol
 _atom_site_label
 _atom_site_symmetry_multiplicity
 _atom_site_fract_x
 _atom_site_fract_y
 _atom_site_fract_z
 _atom_site_occupancy
  La  La0  1  0.961816  0.666799  0.333612  1
  La  La1  1  0.247545  0.127003  0.872482  1
  La  La2  1  0.247539  0.745423  0.872441  1
  La  La3  1  0.246683  0.126599  0.253198  1
  La  La4  1  0.747579  0.871542  0.125399  1
  La  La5  1  0.747619  0.253896  0.125407  1
  La  La6  1  0.746801  0.873079  0.746142  1
  La  La7  1  0.439688  0.538006  0.462200  1
  La  La8  1  0.439655  0.924168  0.462174  1
  La  La9  1  0.440757  0.537693  0.075415  1
  La  La10  1  0.941863  0.462368  0.539395  1
  La  La11  1  0.941758  0.077012  0.539371  1
  La  La12  1  0.940285  0.461888  0.923739  1
  Pr  Pr13  1  0.459155  0.334199  0.668379  1
  Pd  Pd14  1  0.691981  0.188007  0.375991  1
  Pt  Pt15  1  0.191315  0.811985  0.188166  1
  Pt  Pt16  1  0.191282  0.376186  0.188201  1
  Pt  Pt17  1  0.191887  0.811507  0.623029  1
  Pt  Pt18  1  0.693377  0.188278  0.812641  1
  Pt  Pt19  1  0.693418  0.624365  0.812616  1
