# generated using pymatgen
data_Pr8Lu12ZnSi15
_symmetry_space_group_name_H-M   'P 1'
_cell_length_a   7.43382259
_cell_length_b   7.73398679
_cell_length_c   14.66644500
_cell_angle_alpha   89.95599463
_cell_angle_beta   89.97725533
_cell_angle_gamma   90.03582394
_symmetry_Int_Tables_number   1
_chemical_formula_structural   Pr8Lu12ZnSi15
_chemical_formula_sum   'Pr8 Lu12 Zn1 Si15'
_cell_volume   843.21869931
_cell_formula_units_Z   1
loop_
 _symmetry_equiv_pos_site_id
 _symmetry_equiv_pos_as_xyz
  1  'x, y, z'
loop_
 _atom_site_type_symbol
 _atom_site_label
 _atom_site_symmetry_multiplicity
 _atom_site_fract_x
 _atom_site_fract_y
 _atom_site_fract_z
 _atom_site_occupancy
  Pr  Pr0  1  0.013717  0.173348  0.400450  1
  Pr  Pr1  1  0.516371  0.324124  0.399929  1
  Pr  Pr2  1  0.484160  0.675357  0.902309  1
  Pr  Pr3  1  0.486135  0.678826  0.599078  1
  Pr  Pr4  1  0.984685  0.826737  0.598992  1
  Pr  Pr5  1  0.984628  0.825742  0.902762  1
  Pr  Pr6  1  0.515054  0.324541  0.097869  1
  Pr  Pr7  1  0.014891  0.174877  0.098309  1
  Lu  Lu8  1  0.329589  0.175223  0.624717  1
  Lu  Lu9  1  0.671250  0.822712  0.375848  1
  Lu  Lu10  1  0.661211  0.993241  0.750459  1
  Lu  Lu11  1  0.173028  0.676803  0.374782  1
  Lu  Lu12  1  0.826195  0.322436  0.876946  1
  Lu  Lu13  1  0.826723  0.324721  0.623716  1
  Lu  Lu14  1  0.840377  0.493964  0.250200  1
  Lu  Lu15  1  0.340089  0.005206  0.248952  1
  Lu  Lu16  1  0.326788  0.176168  0.876876  1
  Lu  Lu17  1  0.172086  0.676760  0.123921  1
  Lu  Lu18  1  0.672979  0.823232  0.123435  1
  Lu  Lu19  1  0.160275  0.505885  0.751682  1
  Zn  Zn20  1  0.155072  0.462603  0.538603  1
  Si  Si21  1  0.281211  0.879340  0.750765  1
  Si  Si22  1  0.467568  0.618959  0.249221  1
  Si  Si23  1  0.033499  0.120396  0.751393  1
  Si  Si24  1  0.533158  0.382157  0.750296  1
  Si  Si25  1  0.966555  0.881118  0.249801  1
  Si  Si26  1  0.716873  0.121213  0.248905  1
  Si  Si27  1  0.848358  0.534139  0.038932  1
  Si  Si28  1  0.347726  0.965772  0.039649  1
  Si  Si29  1  0.150971  0.465329  0.961638  1
  Si  Si30  1  0.651557  0.035516  0.538363  1
  Si  Si31  1  0.347890  0.965453  0.460069  1
  Si  Si32  1  0.847661  0.535749  0.459834  1
  Si  Si33  1  0.782576  0.621160  0.751496  1
  Si  Si34  1  0.217580  0.377472  0.249216  1
  Si  Si35  1  0.651514  0.033719  0.960592  1
