# generated using pymatgen
data_Ba4YNp2O12
_symmetry_space_group_name_H-M   'P 1'
_cell_length_a   10.37145532
_cell_length_b   10.37145524
_cell_length_c   10.37145600
_cell_angle_alpha   33.89099806
_cell_angle_beta   33.89099870
_cell_angle_gamma   33.89099473
_symmetry_Int_Tables_number   1
_chemical_formula_structural   Ba4YNp2O12
_chemical_formula_sum   'Ba4 Y1 Np2 O12'
_cell_volume   309.15043304
_cell_formula_units_Z   1
loop_
 _symmetry_equiv_pos_site_id
 _symmetry_equiv_pos_as_xyz
  1  'x, y, z'
loop_
 _atom_site_type_symbol
 _atom_site_label
 _atom_site_symmetry_multiplicity
 _atom_site_fract_x
 _atom_site_fract_y
 _atom_site_fract_z
 _atom_site_occupancy
  Ba  Ba0  1  0.715120  0.715120  0.715120  1
  Ba  Ba1  1  0.284880  0.284880  0.284880  1
  Ba  Ba2  1  0.862311  0.862311  0.862311  1
  Ba  Ba3  1  0.137689  0.137689  0.137689  1
  Y  Y4  1  0.000000  0.000000  0.000000  1
  Np  Np5  1  0.579879  0.579879  0.579879  1
  Np  Np6  1  0.420121  0.420121  0.420121  1
  O  O7  1  0.217685  0.697832  0.217685  1
  O  O8  1  0.217685  0.217685  0.697832  1
  O  O9  1  0.697832  0.217685  0.217685  1
  O  O10  1  0.782315  0.302168  0.782315  1
  O  O11  1  0.782315  0.782315  0.302168  1
  O  O12  1  0.302168  0.782315  0.782315  1
  O  O13  1  0.379846  0.874450  0.379846  1
  O  O14  1  0.379846  0.379846  0.874450  1
  O  O15  1  0.874450  0.379846  0.379846  1
  O  O16  1  0.620154  0.125550  0.620154  1
  O  O17  1  0.620154  0.620154  0.125550  1
  O  O18  1  0.125550  0.620154  0.620154  1
