# generated using pymatgen
data_EuPRuF
_symmetry_space_group_name_H-M   'P 1'
_cell_length_a   4.04523000
_cell_length_b   4.04523000
_cell_length_c   8.38672200
_cell_angle_alpha   90.00000000
_cell_angle_beta   90.00000000
_cell_angle_gamma   90.00000000
_symmetry_Int_Tables_number   1
_chemical_formula_structural   EuPRuF
_chemical_formula_sum   'Eu2 P2 Ru2 F2'
_cell_volume   137.23936065
_cell_formula_units_Z   2
loop_
 _symmetry_equiv_pos_site_id
 _symmetry_equiv_pos_as_xyz
  1  'x, y, z'
loop_
 _atom_site_type_symbol
 _atom_site_label
 _atom_site_symmetry_multiplicity
 _atom_site_fract_x
 _atom_site_fract_y
 _atom_site_fract_z
 _atom_site_occupancy
  Eu  Eu0  1  0.000000  0.000000  0.175241  1
  Eu  Eu1  1  0.500001  0.500001  0.824760  1
  P  P2  1  0.500001  0.500001  0.358296  1
  P  P3  1  0.000000  0.000000  0.641704  1
  Ru  Ru4  1  0.500001  0.000000  0.499999  1
  Ru  Ru5  1  0.000000  0.500001  0.499999  1
  F  F6  1  0.500001  0.000000  0.000000  1
  F  F7  1  0.000000  0.500001  0.000000  1
