# generated using pymatgen
data_Tb3Ta2B4Ru10W
_symmetry_space_group_name_H-M   'P 1'
_cell_length_a   9.61249994
_cell_length_b   9.60245774
_cell_length_c   3.10828500
_cell_angle_alpha   90.00000000
_cell_angle_beta   90.00000000
_cell_angle_gamma   90.33750107
_symmetry_Int_Tables_number   1
_chemical_formula_structural   Tb3Ta2B4Ru10W
_chemical_formula_sum   'Tb3 Ta2 B4 Ru10 W1'
_cell_volume   286.90099374
_cell_formula_units_Z   1
loop_
 _symmetry_equiv_pos_site_id
 _symmetry_equiv_pos_as_xyz
  1  'x, y, z'
loop_
 _atom_site_type_symbol
 _atom_site_label
 _atom_site_symmetry_multiplicity
 _atom_site_fract_x
 _atom_site_fract_y
 _atom_site_fract_z
 _atom_site_occupancy
  Tb  Tb0  1  0.824125  0.675078  0.000000  1
  Tb  Tb1  1  0.175113  0.323706  0.000000  1
  Tb  Tb2  1  0.325411  0.825966  0.000000  1
  Ta  Ta3  1  0.676781  0.175357  0.000000  1
  Ta  Ta4  1  0.002364  0.998311  0.000000  1
  B  B5  1  0.624012  0.882780  0.000000  1
  B  B6  1  0.381045  0.122571  0.000000  1
  B  B7  1  0.117341  0.619283  0.000000  1
  B  B8  1  0.876699  0.375618  0.000000  1
  Ru  Ru9  1  0.569399  0.718973  0.500000  1
  Ru  Ru10  1  0.442335  0.283457  0.500000  1
  Ru  Ru11  1  0.070061  0.780053  0.500000  1
  Ru  Ru12  1  0.914163  0.213564  0.500000  1
  Ru  Ru13  1  0.283934  0.567245  0.500000  1
  Ru  Ru14  1  0.710628  0.417454  0.500000  1
  Ru  Ru15  1  0.222502  0.071326  0.500000  1
  Ru  Ru16  1  0.780186  0.940497  0.500000  1
  Ru  Ru17  1  0.510129  0.010640  0.500000  1
  Ru  Ru18  1  0.996076  0.495527  0.500000  1
  W  W19  1  0.497695  0.502600  0.000000  1
