# generated using pymatgen
data_La8YLuIn6
_symmetry_space_group_name_H-M   'P 1'
_cell_length_a   6.33542489
_cell_length_b   9.49729938
_cell_length_c   9.49730000
_cell_angle_alpha   83.65040131
_cell_angle_beta   70.57604623
_cell_angle_gamma   70.57605864
_symmetry_Int_Tables_number   1
_chemical_formula_structural   La8YLuIn6
_chemical_formula_sum   'La8 Y1 Lu1 In6'
_cell_volume   508.24901971
_cell_formula_units_Z   1
loop_
 _symmetry_equiv_pos_site_id
 _symmetry_equiv_pos_as_xyz
  1  'x, y, z'
loop_
 _atom_site_type_symbol
 _atom_site_label
 _atom_site_symmetry_multiplicity
 _atom_site_fract_x
 _atom_site_fract_y
 _atom_site_fract_z
 _atom_site_occupancy
  La  La0  1  0.724312  0.863375  0.687077  1
  La  La1  1  0.274935  0.136616  0.312772  1
  La  La2  1  0.775688  0.312923  0.136625  1
  La  La3  1  0.225065  0.687228  0.863384  1
  La  La4  1  0.588259  0.687411  0.136862  1
  La  La5  1  0.412934  0.312604  0.863511  1
  La  La6  1  0.087066  0.136489  0.687396  1
  La  La7  1  0.911741  0.863138  0.312589  1
  Y  Y8  1  0.250000  0.500054  0.499946  1
  Lu  Lu9  1  0.750000  0.500046  0.499954  1
  In  In10  1  0.155018  0.500123  0.189063  1
  In  In11  1  0.844469  0.499927  0.810709  1
  In  In12  1  0.344982  0.810937  0.499877  1
  In  In13  1  0.655531  0.189291  0.500073  1
  In  In14  1  0.250000  0.000071  0.999929  1
  In  In15  1  0.750000  0.999769  0.000231  1
