# generated using pymatgen
data_Tb7Sm(GeI6)2
_symmetry_space_group_name_H-M   'P 1'
_cell_length_a   4.25313700
_cell_length_b   14.14552586
_cell_length_c   14.92215923
_cell_angle_alpha   89.88719648
_cell_angle_beta   90.00000000
_cell_angle_gamma   90.00000000
_symmetry_Int_Tables_number   1
_chemical_formula_structural   Tb7Sm(GeI6)2
_chemical_formula_sum   'Tb7 Sm1 Ge2 I12'
_cell_volume   897.75802768
_cell_formula_units_Z   1
loop_
 _symmetry_equiv_pos_site_id
 _symmetry_equiv_pos_as_xyz
  1  'x, y, z'
loop_
 _atom_site_type_symbol
 _atom_site_label
 _atom_site_symmetry_multiplicity
 _atom_site_fract_x
 _atom_site_fract_y
 _atom_site_fract_z
 _atom_site_occupancy
  Tb  Tb0  1  0.500000  0.114884  0.346581  1
  Tb  Tb1  1  0.500000  0.884865  0.653283  1
  Tb  Tb2  1  0.500000  0.614659  0.152872  1
  Tb  Tb3  1  0.500000  0.385396  0.847203  1
  Tb  Tb4  1  0.000000  0.886823  0.424031  1
  Tb  Tb5  1  0.000000  0.611855  0.924869  1
  Tb  Tb6  1  0.000000  0.388085  0.075112  1
  Sm  Sm7  1  0.000000  0.112920  0.575939  1
  Ge  Ge8  1  0.500000  0.998308  0.498882  1
  Ge  Ge9  1  0.500000  0.500086  0.000127  1
  I  I10  1  0.500000  0.245522  0.161626  1
  I  I11  1  0.500000  0.754218  0.838240  1
  I  I12  1  0.500000  0.745072  0.337888  1
  I  I13  1  0.500000  0.258302  0.663795  1
  I  I14  1  0.000000  0.258693  0.412048  1
  I  I15  1  0.000000  0.742221  0.585490  1
  I  I16  1  0.000000  0.757434  0.085260  1
  I  I17  1  0.000000  0.242550  0.914856  1
  I  I18  1  0.000000  0.999581  0.241237  1
  I  I19  1  0.000000  0.998239  0.760575  1
  I  I20  1  0.000000  0.499539  0.258346  1
  I  I21  1  0.000000  0.500748  0.741740  1
