# generated using pymatgen
data_Li2HgPd4Pb
_symmetry_space_group_name_H-M   'P 1'
_cell_length_a   5.92768529
_cell_length_b   5.92827929
_cell_length_c   7.59549300
_cell_angle_alpha   90.00255457
_cell_angle_beta   89.99852513
_cell_angle_gamma   89.96425770
_symmetry_Int_Tables_number   1
_chemical_formula_structural   Li2HgPd4Pb
_chemical_formula_sum   'Li4 Hg2 Pd8 Pb2'
_cell_volume   266.91296933
_cell_formula_units_Z   2
loop_
 _symmetry_equiv_pos_site_id
 _symmetry_equiv_pos_as_xyz
  1  'x, y, z'
loop_
 _atom_site_type_symbol
 _atom_site_label
 _atom_site_symmetry_multiplicity
 _atom_site_fract_x
 _atom_site_fract_y
 _atom_site_fract_z
 _atom_site_occupancy
  Li  Li0  1  0.250068  0.250004  0.000112  1
  Li  Li1  1  0.750063  0.750007  0.499885  1
  Li  Li2  1  0.249937  0.249993  0.500115  1
  Li  Li3  1  0.749932  0.749995  0.999888  1
  Hg  Hg4  1  0.750037  0.250004  0.999994  1
  Hg  Hg5  1  0.249963  0.749995  0.000006  1
  Pd  Pd6  1  0.499902  0.000026  0.251689  1
  Pd  Pd7  1  0.499893  0.499937  0.251674  1
  Pd  Pd8  1  0.999907  0.999955  0.251715  1
  Pd  Pd9  1  0.999896  0.500065  0.251731  1
  Pd  Pd10  1  0.000091  0.000045  0.748285  1
  Pd  Pd11  1  0.000105  0.499935  0.748270  1
  Pd  Pd12  1  0.500098  0.999974  0.748311  1
  Pd  Pd13  1  0.500107  0.500063  0.748326  1
  Pb  Pb14  1  0.750003  0.249958  0.500021  1
  Pb  Pb15  1  0.249997  0.750042  0.499978  1
