# generated using pymatgen
data_YbHo3Cr2(SbO7)2
_symmetry_space_group_name_H-M   'P 1'
_cell_length_a   7.27360815
_cell_length_b   7.15573311
_cell_length_c   7.32597200
_cell_angle_alpha   89.99986085
_cell_angle_beta   59.76193965
_cell_angle_gamma   120.07893616
_symmetry_Int_Tables_number   1
_chemical_formula_structural   YbHo3Cr2(SbO7)2
_chemical_formula_sum   'Yb1 Ho3 Cr2 Sb2 O14'
_cell_volume   268.32346792
_cell_formula_units_Z   1
loop_
 _symmetry_equiv_pos_site_id
 _symmetry_equiv_pos_as_xyz
  1  'x, y, z'
loop_
 _atom_site_type_symbol
 _atom_site_label
 _atom_site_symmetry_multiplicity
 _atom_site_fract_x
 _atom_site_fract_y
 _atom_site_fract_z
 _atom_site_occupancy
  Yb  Yb0  1  0.500032  0.500010  0.999980  1
  Ho  Ho1  1  0.500002  0.999994  0.999999  1
  Ho  Ho2  1  0.999993  0.999965  0.500005  1
  Ho  Ho3  1  0.999981  0.999954  0.000017  1
  Cr  Cr4  1  0.500050  0.000041  0.499974  1
  Cr  Cr5  1  0.500177  0.500043  0.499931  1
  Sb  Sb6  1  0.999967  0.500006  0.000036  1
  Sb  Sb7  1  0.999951  0.500007  0.500001  1
  O  O8  1  0.241773  0.114517  0.129118  1
  O  O9  1  0.758231  0.885489  0.870886  1
  O  O10  1  0.654196  0.820338  0.422898  1
  O  O11  1  0.834755  0.416517  0.832624  1
  O  O12  1  0.249504  0.836164  0.834766  1
  O  O13  1  0.250559  0.420520  0.421470  1
  O  O14  1  0.250561  0.420518  0.827963  1
  O  O15  1  0.249510  0.836162  0.415721  1
  O  O16  1  0.345710  0.179639  0.577137  1
  O  O17  1  0.165281  0.583476  0.167361  1
  O  O18  1  0.750525  0.163834  0.165211  1
  O  O19  1  0.749351  0.579479  0.578525  1
  O  O20  1  0.749364  0.579489  0.172115  1
  O  O21  1  0.750527  0.163838  0.584263  1
