# generated using pymatgen
data_NaEu2(AgAs)3
_symmetry_space_group_name_H-M   'P 1'
_cell_length_a   7.39369700
_cell_length_b   7.27406083
_cell_length_c   4.39300200
_cell_angle_alpha   90.00000000
_cell_angle_beta   90.00000000
_cell_angle_gamma   120.54556428
_symmetry_Int_Tables_number   1
_chemical_formula_structural   NaEu2(AgAs)3
_chemical_formula_sum   'Na1 Eu2 Ag3 As3'
_cell_volume   203.47766376
_cell_formula_units_Z   1
loop_
 _symmetry_equiv_pos_site_id
 _symmetry_equiv_pos_as_xyz
  1  'x, y, z'
loop_
 _atom_site_type_symbol
 _atom_site_label
 _atom_site_symmetry_multiplicity
 _atom_site_fract_x
 _atom_site_fract_y
 _atom_site_fract_z
 _atom_site_occupancy
  Na  Na0  1  0.587502  0.000000  0.500000  1
  Eu  Eu1  1  0.001106  0.583879  0.500000  1
  Eu  Eu2  1  0.417227  0.416121  0.500000  1
  Ag  Ag3  1  0.994295  0.242018  0.000000  1
  Ag  Ag4  1  0.752277  0.757982  0.000000  1
  Ag  Ag5  1  0.257417  0.000000  0.000000  1
  As  As6  1  0.998387  0.000000  0.500000  1
  As  As7  1  0.326207  0.660628  0.000000  1
  As  As8  1  0.665580  0.339372  0.000000  1
