# generated using pymatgen
data_Lu12TlInFe2Tc
_symmetry_space_group_name_H-M   'P 1'
_cell_length_a   8.19620666
_cell_length_b   8.19890064
_cell_length_c   8.19620713
_cell_angle_alpha   109.08860006
_cell_angle_beta   108.56872573
_cell_angle_gamma   110.75080484
_symmetry_Int_Tables_number   1
_chemical_formula_structural   Lu12TlInFe2Tc
_chemical_formula_sum   'Lu12 Tl1 In1 Fe2 Tc1'
_cell_volume   423.89641194
_cell_formula_units_Z   1
loop_
 _symmetry_equiv_pos_site_id
 _symmetry_equiv_pos_as_xyz
  1  'x, y, z'
loop_
 _atom_site_type_symbol
 _atom_site_label
 _atom_site_symmetry_multiplicity
 _atom_site_fract_x
 _atom_site_fract_y
 _atom_site_fract_z
 _atom_site_occupancy
  Lu  Lu0  1  0.308737  0.307308  0.616412  1
  Lu  Lu1  1  0.691263  0.692692  0.383588  1
  Lu  Lu2  1  0.690897  0.307308  0.998571  1
  Lu  Lu3  1  0.309103  0.692692  0.001429  1
  Lu  Lu4  1  0.192858  0.431895  0.239037  1
  Lu  Lu5  1  0.807142  0.568105  0.760963  1
  Lu  Lu6  1  0.193185  0.953897  0.760713  1
  Lu  Lu7  1  0.954958  0.192164  0.762719  1
  Lu  Lu8  1  0.806815  0.046103  0.239287  1
  Lu  Lu9  1  0.045042  0.807836  0.237281  1
  Lu  Lu10  1  0.429445  0.192164  0.237205  1
  Lu  Lu11  1  0.570555  0.807836  0.762795  1
  Tl  Tl12  1  0.000000  0.500000  0.500000  1
  In  In13  1  0.500000  0.000000  0.500000  1
  Fe  Fe14  1  0.382980  0.381909  0.998929  1
  Fe  Fe15  1  0.617020  0.618091  0.001071  1
  Tc  Tc16  1  0.000000  0.000000  0.000000  1
