# generated using pymatgen
data_Gd7Y3(SiB4)4
_symmetry_space_group_name_H-M   'P 1'
_cell_length_a   7.26420602
_cell_length_b   7.26401402
_cell_length_c   8.18119401
_cell_angle_alpha   90.00138059
_cell_angle_beta   89.99585257
_cell_angle_gamma   90.00842389
_symmetry_Int_Tables_number   1
_chemical_formula_structural   Gd7Y3(SiB4)4
_chemical_formula_sum   'Gd7 Y3 Si4 B16'
_cell_volume   431.69946679
_cell_formula_units_Z   1
loop_
 _symmetry_equiv_pos_site_id
 _symmetry_equiv_pos_as_xyz
  1  'x, y, z'
loop_
 _atom_site_type_symbol
 _atom_site_label
 _atom_site_symmetry_multiplicity
 _atom_site_fract_x
 _atom_site_fract_y
 _atom_site_fract_z
 _atom_site_occupancy
  Gd  Gd0  1  0.680512  0.180548  0.225243  1
  Gd  Gd1  1  0.319631  0.819632  0.775015  1
  Gd  Gd2  1  0.319457  0.819493  0.225283  1
  Gd  Gd3  1  0.819520  0.680479  0.224831  1
  Gd  Gd4  1  0.819430  0.680575  0.775321  1
  Gd  Gd5  1  0.680369  0.180374  0.775011  1
  Gd  Gd6  1  0.180526  0.319476  0.775351  1
  Y  Y7  1  0.180316  0.319677  0.222826  1
  Y  Y8  1  0.000164  0.000192  0.499860  1
  Y  Y9  1  0.499814  0.499833  0.499858  1
  Si  Si10  1  0.114922  0.614197  0.499593  1
  Si  Si11  1  0.885770  0.385056  0.499580  1
  Si  Si12  1  0.385040  0.114977  0.499850  1
  Si  Si13  1  0.614319  0.885708  0.499790  1
  B  B14  1  0.172399  0.039482  0.000096  1
  B  B15  1  0.827812  0.960779  0.000253  1
  B  B16  1  0.960906  0.172431  0.000088  1
  B  B17  1  0.327575  0.539089  0.000092  1
  B  B18  1  0.039222  0.827752  0.000235  1
  B  B19  1  0.672256  0.460778  0.000229  1
  B  B20  1  0.539229  0.672174  0.000259  1
  B  B21  1  0.460522  0.327588  0.000088  1
  B  B22  1  0.090082  0.589940  0.000228  1
  B  B23  1  0.910062  0.409922  0.000243  1
  B  B24  1  0.409868  0.090128  0.999856  1
  B  B25  1  0.590175  0.909825  0.000036  1
  B  B26  1  0.000142  0.000185  0.159941  1
  B  B27  1  0.000138  0.000018  0.840501  1
  B  B28  1  0.499978  0.499878  0.840501  1
  B  B29  1  0.499843  0.499815  0.159942  1
