# generated using pymatgen
data_Er16Hg4Pd3Pt
_symmetry_space_group_name_H-M   'P 1'
_cell_length_a   9.57269019
_cell_length_b   9.56536321
_cell_length_c   9.56536300
_cell_angle_alpha   60.00000417
_cell_angle_beta   60.02532032
_cell_angle_gamma   60.02532071
_symmetry_Int_Tables_number   1
_chemical_formula_structural   Er16Hg4Pd3Pt
_chemical_formula_sum   'Er16 Hg4 Pd3 Pt1'
_cell_volume   619.56667140
_cell_formula_units_Z   1
loop_
 _symmetry_equiv_pos_site_id
 _symmetry_equiv_pos_as_xyz
  1  'x, y, z'
loop_
 _atom_site_type_symbol
 _atom_site_label
 _atom_site_symmetry_multiplicity
 _atom_site_fract_x
 _atom_site_fract_y
 _atom_site_fract_z
 _atom_site_occupancy
  Er  Er0  1  0.358103  0.354352  0.354352  1
  Er  Er1  1  0.358103  0.354352  0.933193  1
  Er  Er2  1  0.358103  0.933193  0.354352  1
  Er  Er3  1  0.926845  0.357718  0.357718  1
  Er  Er4  1  0.810422  0.188975  0.188975  1
  Er  Er5  1  0.189711  0.810462  0.810462  1
  Er  Er6  1  0.189711  0.810462  0.189364  1
  Er  Er7  1  0.810422  0.188975  0.811629  1
  Er  Er8  1  0.189711  0.189364  0.810462  1
  Er  Er9  1  0.810422  0.811629  0.188975  1
  Er  Er10  1  0.935306  0.564880  0.564880  1
  Er  Er11  1  0.565407  0.935147  0.935147  1
  Er  Er12  1  0.565407  0.935147  0.564299  1
  Er  Er13  1  0.935306  0.564880  0.934933  1
  Er  Er14  1  0.565407  0.564299  0.935147  1
  Er  Er15  1  0.935306  0.934933  0.564880  1
  Hg  Hg16  1  0.585729  0.587276  0.587276  1
  Hg  Hg17  1  0.585729  0.587276  0.239720  1
  Hg  Hg18  1  0.585729  0.239720  0.587276  1
  Hg  Hg19  1  0.240194  0.586602  0.586602  1
  Pd  Pd20  1  0.143957  0.146046  0.146046  1
  Pd  Pd21  1  0.143957  0.146046  0.563949  1
  Pd  Pd22  1  0.143957  0.563949  0.146046  1
  Pt  Pt23  1  0.567058  0.144314  0.144314  1
