# generated using pymatgen
data_Tb2DyLu3(Al3Ru)8
_symmetry_space_group_name_H-M   'P 1'
_cell_length_a   8.77158900
_cell_length_b   8.77158883
_cell_length_c   9.58483900
_cell_angle_alpha   90.00000000
_cell_angle_beta   90.00000000
_cell_angle_gamma   119.99999686
_symmetry_Int_Tables_number   1
_chemical_formula_structural   Tb2DyLu3(Al3Ru)8
_chemical_formula_sum   'Tb2 Dy1 Lu3 Al24 Ru8'
_cell_volume   638.66336942
_cell_formula_units_Z   1
loop_
 _symmetry_equiv_pos_site_id
 _symmetry_equiv_pos_as_xyz
  1  'x, y, z'
loop_
 _atom_site_type_symbol
 _atom_site_label
 _atom_site_symmetry_multiplicity
 _atom_site_fract_x
 _atom_site_fract_y
 _atom_site_fract_z
 _atom_site_occupancy
  Tb  Tb0  1  0.806939  0.193061  0.750000  1
  Tb  Tb1  1  0.806939  0.613879  0.750000  1
  Dy  Dy2  1  0.386121  0.193061  0.750000  1
  Lu  Lu3  1  0.194790  0.805210  0.250000  1
  Lu  Lu4  1  0.194790  0.389581  0.250000  1
  Lu  Lu5  1  0.610419  0.805210  0.250000  1
  Al  Al6  1  0.560776  0.439224  0.250000  1
  Al  Al7  1  0.560776  0.121551  0.250000  1
  Al  Al8  1  0.878449  0.439224  0.250000  1
  Al  Al9  1  0.437974  0.562026  0.750000  1
  Al  Al10  1  0.437974  0.875947  0.750000  1
  Al  Al11  1  0.124053  0.562026  0.750000  1
  Al  Al12  1  0.324979  0.162490  0.420896  1
  Al  Al13  1  0.837510  0.162490  0.420896  1
  Al  Al14  1  0.837510  0.675021  0.420896  1
  Al  Al15  1  0.673557  0.836778  0.575592  1
  Al  Al16  1  0.163222  0.836778  0.575592  1
  Al  Al17  1  0.163222  0.326443  0.575592  1
  Al  Al18  1  0.673557  0.836778  0.924408  1
  Al  Al19  1  0.163222  0.836778  0.924408  1
  Al  Al20  1  0.163222  0.326443  0.924408  1
  Al  Al21  1  0.324979  0.162490  0.079104  1
  Al  Al22  1  0.837510  0.162490  0.079104  1
  Al  Al23  1  0.837510  0.675021  0.079104  1
  Al  Al24  1  0.666667  0.333333  0.516953  1
  Al  Al25  1  0.333333  0.666667  0.478096  1
  Al  Al26  1  0.333333  0.666667  0.021904  1
  Al  Al27  1  0.666667  0.333333  0.983047  1
  Al  Al28  1  0.000000  0.000000  0.250000  1
  Al  Al29  1  0.000000  0.000000  0.750000  1
  Ru  Ru30  1  0.000000  0.000000  0.499954  1
  Ru  Ru31  1  0.000000  0.000000  0.000046  1
  Ru  Ru32  1  0.499347  0.500653  0.498393  1
  Ru  Ru33  1  0.499347  0.998694  0.498393  1
  Ru  Ru34  1  0.001306  0.500653  0.498393  1
  Ru  Ru35  1  0.499347  0.500653  0.001607  1
  Ru  Ru36  1  0.499347  0.998694  0.001607  1
  Ru  Ru37  1  0.001306  0.500653  0.001607  1
