# generated using pymatgen
data_Cs6YLuBi4
_symmetry_space_group_name_H-M   'P 1'
_cell_length_a   10.67215280
_cell_length_b   10.67215328
_cell_length_c   10.67215333
_cell_angle_alpha   127.14502910
_cell_angle_beta   70.74388901
_cell_angle_gamma   136.54849571
_symmetry_Int_Tables_number   1
_chemical_formula_structural   Cs6YLuBi4
_chemical_formula_sum   'Cs6 Y1 Lu1 Bi4'
_cell_volume   653.14666083
_cell_formula_units_Z   1
loop_
 _symmetry_equiv_pos_site_id
 _symmetry_equiv_pos_as_xyz
  1  'x, y, z'
loop_
 _atom_site_type_symbol
 _atom_site_label
 _atom_site_symmetry_multiplicity
 _atom_site_fract_x
 _atom_site_fract_y
 _atom_site_fract_z
 _atom_site_occupancy
  Cs  Cs0  1  0.250000  0.250000  0.000000  1
  Cs  Cs1  1  0.750000  0.750000  0.000000  1
  Cs  Cs2  1  0.315452  0.803242  0.118020  1
  Cs  Cs3  1  0.184548  0.302569  0.487790  1
  Cs  Cs4  1  0.814779  0.696759  0.512211  1
  Cs  Cs5  1  0.685221  0.197430  0.881979  1
  Y  Y6  1  0.250000  0.749999  0.499999  1
  Lu  Lu7  1  0.750000  0.250000  0.500000  1
  Bi  Bi8  1  0.903375  0.310471  0.218875  1
  Bi  Bi9  1  0.596625  0.815501  0.407097  1
  Bi  Bi10  1  0.408405  0.189529  0.592903  1
  Bi  Bi11  1  0.091595  0.684499  0.781124  1
