# generated using pymatgen
data_ZrTa5(GaRu2)6
_symmetry_space_group_name_H-M   'P 1'
_cell_length_a   4.39482802
_cell_length_b   6.23112603
_cell_length_c   13.17619601
_cell_angle_alpha   89.99603093
_cell_angle_beta   90.00093480
_cell_angle_gamma   90.01058025
_symmetry_Int_Tables_number   1
_chemical_formula_structural   ZrTa5(GaRu2)6
_chemical_formula_sum   'Zr1 Ta5 Ga6 Ru12'
_cell_volume   360.82652704
_cell_formula_units_Z   1
loop_
 _symmetry_equiv_pos_site_id
 _symmetry_equiv_pos_as_xyz
  1  'x, y, z'
loop_
 _atom_site_type_symbol
 _atom_site_label
 _atom_site_symmetry_multiplicity
 _atom_site_fract_x
 _atom_site_fract_y
 _atom_site_fract_z
 _atom_site_occupancy
  Zr  Zr0  1  0.500051  0.499998  0.833351  1
  Ta  Ta1  1  0.000001  0.999983  0.000385  1
  Ta  Ta2  1  0.499941  0.500009  0.166646  1
  Ta  Ta3  1  0.999940  0.000005  0.333334  1
  Ta  Ta4  1  0.500006  0.499990  0.500063  1
  Ta  Ta5  1  0.000054  0.000020  0.666214  1
  Ga  Ga6  1  0.999987  0.499975  0.999335  1
  Ga  Ga7  1  0.499937  0.000007  0.167977  1
  Ga  Ga8  1  0.999928  0.500013  0.333323  1
  Ga  Ga9  1  0.500001  0.999993  0.498757  1
  Ga  Ga10  1  0.000098  0.500030  0.667286  1
  Ga  Ga11  1  0.500030  0.999971  0.833328  1
  Ru  Ru12  1  0.499917  0.246135  0.004136  1
  Ru  Ru13  1  0.500078  0.753849  0.004140  1
  Ru  Ru14  1  0.000005  0.250842  0.167900  1
  Ru  Ru15  1  0.999891  0.749155  0.167889  1
  Ru  Ru16  1  0.499823  0.249708  0.333404  1
  Ru  Ru17  1  0.500055  0.750311  0.333393  1
  Ru  Ru18  1  0.000079  0.250821  0.498768  1
  Ru  Ru19  1  0.999928  0.749183  0.498761  1
  Ru  Ru20  1  0.499982  0.246228  0.662566  1
  Ru  Ru21  1  0.500142  0.753794  0.662567  1
  Ru  Ru22  1  0.000145  0.241776  0.833233  1
  Ru  Ru23  1  0.999973  0.758212  0.833247  1
