# generated using pymatgen
data_Tb3Lu(MoN3)4
_symmetry_space_group_name_H-M   'P 1'
_cell_length_a   7.33144872
_cell_length_b   7.33144989
_cell_length_c   6.27888600
_cell_angle_alpha   73.57263590
_cell_angle_beta   73.57264135
_cell_angle_gamma   81.49152168
_symmetry_Int_Tables_number   1
_chemical_formula_structural   Tb3Lu(MoN3)4
_chemical_formula_sum   'Tb3 Lu1 Mo4 N12'
_cell_volume   309.65124121
_cell_formula_units_Z   1
loop_
 _symmetry_equiv_pos_site_id
 _symmetry_equiv_pos_as_xyz
  1  'x, y, z'
loop_
 _atom_site_type_symbol
 _atom_site_label
 _atom_site_symmetry_multiplicity
 _atom_site_fract_x
 _atom_site_fract_y
 _atom_site_fract_z
 _atom_site_occupancy
  Tb  Tb0  1  0.706742  0.293258  0.250000  1
  Tb  Tb1  1  0.086842  0.913158  0.250000  1
  Tb  Tb2  1  0.293341  0.706659  0.750000  1
  Lu  Lu3  1  0.911791  0.088209  0.750000  1
  Mo  Mo4  1  0.800879  0.618808  0.771224  1
  Mo  Mo5  1  0.199268  0.379162  0.231263  1
  Mo  Mo6  1  0.620838  0.800732  0.268737  1
  Mo  Mo7  1  0.381192  0.199121  0.728776  1
  N  N8  1  0.215878  0.002489  0.843065  1
  N  N9  1  0.367028  0.347496  0.433789  1
  N  N10  1  0.637045  0.654581  0.563833  1
  N  N11  1  0.626006  0.111720  0.666159  1
  N  N12  1  0.997511  0.784122  0.656935  1
  N  N13  1  0.781959  0.001039  0.145470  1
  N  N14  1  0.111317  0.622800  0.161652  1
  N  N15  1  0.888280  0.373994  0.833841  1
  N  N16  1  0.998961  0.218041  0.354530  1
  N  N17  1  0.345419  0.362955  0.936167  1
  N  N18  1  0.652504  0.632972  0.066211  1
  N  N19  1  0.377200  0.888683  0.338348  1
