# generated using pymatgen
data_Sm2YTeAs2
_symmetry_space_group_name_H-M   'P 1'
_cell_length_a   4.24505500
_cell_length_b   10.55704751
_cell_length_c   7.34352770
_cell_angle_alpha   89.86651634
_cell_angle_beta   90.00000000
_cell_angle_gamma   90.00000000
_symmetry_Int_Tables_number   1
_chemical_formula_structural   Sm2YTeAs2
_chemical_formula_sum   'Sm4 Y2 Te2 As4'
_cell_volume   329.10111694
_cell_formula_units_Z   2
loop_
 _symmetry_equiv_pos_site_id
 _symmetry_equiv_pos_as_xyz
  1  'x, y, z'
loop_
 _atom_site_type_symbol
 _atom_site_label
 _atom_site_symmetry_multiplicity
 _atom_site_fract_x
 _atom_site_fract_y
 _atom_site_fract_z
 _atom_site_occupancy
  Sm  Sm0  1  0.250000  0.804984  0.916284  1
  Sm  Sm1  1  0.750000  0.195016  0.083716  1
  Sm  Sm2  1  0.750000  0.803231  0.416896  1
  Sm  Sm3  1  0.250000  0.196769  0.583104  1
  Y  Y4  1  0.250000  0.500276  0.249242  1
  Y  Y5  1  0.750000  0.499724  0.750758  1
  Te  Te6  1  0.750000  0.000461  0.748747  1
  Te  Te7  1  0.250000  0.999539  0.251253  1
  As  As8  1  0.250000  0.654658  0.584403  1
  As  As9  1  0.750000  0.345342  0.415597  1
  As  As10  1  0.750000  0.655699  0.083155  1
  As  As11  1  0.250000  0.344301  0.916845  1
