# generated using pymatgen
data_Y3Cd3Sn2Hg
_symmetry_space_group_name_H-M   'P 1'
_cell_length_a   7.57342000
_cell_length_b   7.57342027
_cell_length_c   4.55245100
_cell_angle_alpha   90.00000000
_cell_angle_beta   90.00000000
_cell_angle_gamma   119.99999009
_symmetry_Int_Tables_number   1
_chemical_formula_structural   Y3Cd3Sn2Hg
_chemical_formula_sum   'Y3 Cd3 Sn2 Hg1'
_cell_volume   226.13097476
_cell_formula_units_Z   1
loop_
 _symmetry_equiv_pos_site_id
 _symmetry_equiv_pos_as_xyz
  1  'x, y, z'
loop_
 _atom_site_type_symbol
 _atom_site_label
 _atom_site_symmetry_multiplicity
 _atom_site_fract_x
 _atom_site_fract_y
 _atom_site_fract_z
 _atom_site_occupancy
  Y  Y0  1  0.000000  0.585174  0.000000  1
  Y  Y1  1  0.585174  0.000000  0.000000  1
  Y  Y2  1  0.414826  0.414826  0.000000  1
  Cd  Cd3  1  0.000000  0.244361  0.500000  1
  Cd  Cd4  1  0.755639  0.755639  0.500000  1
  Cd  Cd5  1  0.244361  0.000000  0.500000  1
  Sn  Sn6  1  0.333333  0.666667  0.500000  1
  Sn  Sn7  1  0.666667  0.333333  0.500000  1
  Hg  Hg8  1  0.000000  0.000000  0.000000  1
