# generated using pymatgen
data_Lu3In3CuAgAu
_symmetry_space_group_name_H-M   'P 1'
_cell_length_a   7.68905500
_cell_length_b   7.68905565
_cell_length_c   3.80980500
_cell_angle_alpha   90.00000000
_cell_angle_beta   90.00000000
_cell_angle_gamma   119.99999290
_symmetry_Int_Tables_number   1
_chemical_formula_structural   Lu3In3CuAgAu
_chemical_formula_sum   'Lu3 In3 Cu1 Ag1 Au1'
_cell_volume   195.06501334
_cell_formula_units_Z   1
loop_
 _symmetry_equiv_pos_site_id
 _symmetry_equiv_pos_as_xyz
  1  'x, y, z'
loop_
 _atom_site_type_symbol
 _atom_site_label
 _atom_site_symmetry_multiplicity
 _atom_site_fract_x
 _atom_site_fract_y
 _atom_site_fract_z
 _atom_site_occupancy
  Lu  Lu0  1  0.403842  0.005606  0.500000  1
  Lu  Lu1  1  0.994394  0.398236  0.500000  1
  Lu  Lu2  1  0.601764  0.596158  0.500000  1
  In  In3  1  0.746539  0.995677  0.000000  1
  In  In4  1  0.004323  0.750862  0.000000  1
  In  In5  1  0.249138  0.253461  0.000000  1
  Cu  Cu6  1  0.000000  0.000000  0.500000  1
  Ag  Ag7  1  0.333333  0.666667  0.000000  1
  Au  Au8  1  0.666667  0.333333  0.000000  1
