# generated using pymatgen
data_CsKBa2V6Cd4O22
_symmetry_space_group_name_H-M   'P 1'
_cell_length_a   7.10960700
_cell_length_b   10.60699300
_cell_length_c   18.09184100
_cell_angle_alpha   59.01588711
_cell_angle_beta   90.00000000
_cell_angle_gamma   90.00000000
_symmetry_Int_Tables_number   1
_chemical_formula_structural   CsKBa2V6Cd4O22
_chemical_formula_sum   'Cs2 K2 Ba4 V12 Cd8 O44'
_cell_volume   1169.65711921
_cell_formula_units_Z   2
loop_
 _symmetry_equiv_pos_site_id
 _symmetry_equiv_pos_as_xyz
  1  'x, y, z'
loop_
 _atom_site_type_symbol
 _atom_site_label
 _atom_site_symmetry_multiplicity
 _atom_site_fract_x
 _atom_site_fract_y
 _atom_site_fract_z
 _atom_site_occupancy
  Cs  Cs0  1  0.559181  0.519224  0.344455  1
  Cs  Cs1  1  0.940819  0.519224  0.844455  1
  K  K2  1  0.437944  0.475797  0.651555  1
  K  K3  1  0.062056  0.475797  0.151555  1
  Ba  Ba4  1  0.540240  0.723333  0.962748  1
  Ba  Ba5  1  0.959760  0.723333  0.462748  1
  Ba  Ba6  1  0.460516  0.277522  0.037445  1
  Ba  Ba7  1  0.039484  0.277522  0.537445  1
  V  V8  1  0.343660  0.848289  0.133933  1
  V  V9  1  0.156340  0.848289  0.633933  1
  V  V10  1  0.656037  0.155413  0.862531  1
  V  V11  1  0.843963  0.155413  0.362531  1
  V  V12  1  0.033029  0.680783  0.277523  1
  V  V13  1  0.466971  0.680783  0.777523  1
  V  V14  1  0.969390  0.321167  0.719299  1
  V  V15  1  0.530610  0.321167  0.219299  1
  V  V16  1  0.462337  0.767553  0.439498  1
  V  V17  1  0.037663  0.767553  0.939498  1
  V  V18  1  0.535303  0.228686  0.567403  1
  V  V19  1  0.964697  0.228686  0.067403  1
  Cd  Cd20  1  0.831781  0.888010  0.076688  1
  Cd  Cd21  1  0.668219  0.888010  0.576688  1
  Cd  Cd22  1  0.170497  0.116564  0.921219  1
  Cd  Cd23  1  0.329503  0.116564  0.421219  1
  Cd  Cd24  1  0.228984  0.026224  0.258139  1
  Cd  Cd25  1  0.271016  0.026224  0.758139  1
  Cd  Cd26  1  0.772689  0.971263  0.744338  1
  Cd  Cd27  1  0.727311  0.971263  0.244338  1
  O  O28  1  0.307699  0.923714  0.396959  1
  O  O29  1  0.192301  0.923714  0.896959  1
  O  O30  1  0.689544  0.072807  0.607285  1
  O  O31  1  0.810456  0.072807  0.107285  1
  O  O32  1  0.851114  0.689949  0.213516  1
  O  O33  1  0.648886  0.689949  0.713516  1
  O  O34  1  0.151900  0.313324  0.783275  1
  O  O35  1  0.348100  0.313324  0.283275  1
  O  O36  1  0.250410  0.676141  0.223466  1
  O  O37  1  0.249590  0.676141  0.723466  1
  O  O38  1  0.743247  0.326249  0.768324  1
  O  O39  1  0.756753  0.326249  0.268324  1
  O  O40  1  0.158912  0.933604  0.065147  1
  O  O41  1  0.341088  0.933604  0.565147  1
  O  O42  1  0.842731  0.072153  0.931112  1
  O  O43  1  0.657269  0.072153  0.431112  1
  O  O44  1  0.003754  0.537943  0.380029  1
  O  O45  1  0.496246  0.537943  0.880029  1
  O  O46  1  0.004454  0.461823  0.616760  1
  O  O47  1  0.495546  0.461823  0.116760  1
  O  O48  1  0.419835  0.956125  0.174201  1
  O  O49  1  0.080165  0.956125  0.674201  1
  O  O50  1  0.577961  0.041604  0.827055  1
  O  O51  1  0.922039  0.041604  0.327055  1
  O  O52  1  0.027623  0.841211  0.282082  1
  O  O53  1  0.472377  0.841211  0.782082  1
  O  O54  1  0.974669  0.158940  0.716868  1
  O  O55  1  0.525331  0.158940  0.216868  1
  O  O56  1  0.318893  0.620098  0.472439  1
  O  O57  1  0.181107  0.620098  0.972439  1
  O  O58  1  0.680561  0.375990  0.531090  1
  O  O59  1  0.819439  0.375990  0.031090  1
  O  O60  1  0.521419  0.820728  0.079362  1
  O  O61  1  0.978581  0.820728  0.579362  1
  O  O62  1  0.480942  0.185009  0.917276  1
  O  O63  1  0.019058  0.185009  0.417276  1
  O  O64  1  0.599623  0.735178  0.527014  1
  O  O65  1  0.900377  0.735178  0.027014  1
  O  O66  1  0.392234  0.253000  0.483259  1
  O  O67  1  0.107766  0.253000  0.983259  1
  O  O68  1  0.626172  0.779998  0.363275  1
  O  O69  1  0.873828  0.779998  0.863275  1
  O  O70  1  0.377947  0.224585  0.643431  1
  O  O71  1  0.122053  0.224585  0.143431  1
