# generated using pymatgen
data_Ho8Nb11Si16W
_symmetry_space_group_name_H-M   'P 1'
_cell_length_a   7.04196156
_cell_length_b   7.04196208
_cell_length_c   13.02576337
_cell_angle_alpha   89.98639758
_cell_angle_beta   90.01360240
_cell_angle_gamma   89.98708697
_symmetry_Int_Tables_number   1
_chemical_formula_structural   Ho8Nb11Si16W
_chemical_formula_sum   'Ho8 Nb11 Si16 W1'
_cell_volume   645.93747511
_cell_formula_units_Z   1
loop_
 _symmetry_equiv_pos_site_id
 _symmetry_equiv_pos_as_xyz
  1  'x, y, z'
loop_
 _atom_site_type_symbol
 _atom_site_label
 _atom_site_symmetry_multiplicity
 _atom_site_fract_x
 _atom_site_fract_y
 _atom_site_fract_z
 _atom_site_occupancy
  Ho  Ho0  1  0.343074  0.002122  0.467719  1
  Ho  Ho1  1  0.498063  0.841984  0.717009  1
  Ho  Ho2  1  0.502577  0.157346  0.218069  1
  Ho  Ho3  1  0.841984  0.498063  0.282991  1
  Ho  Ho4  1  0.157346  0.502577  0.781931  1
  Ho  Ho5  1  0.657700  0.997651  0.967685  1
  Ho  Ho6  1  0.002122  0.343074  0.532281  1
  Ho  Ho7  1  0.997651  0.657700  0.032315  1
  Nb  Nb8  1  0.327870  0.327870  0.000000  1
  Nb  Nb9  1  0.171870  0.827211  0.250785  1
  Nb  Nb10  1  0.827211  0.171870  0.749215  1
  Nb  Nb11  1  0.152209  0.006752  0.874154  1
  Nb  Nb12  1  0.493816  0.652268  0.124547  1
  Nb  Nb13  1  0.507017  0.347724  0.623590  1
  Nb  Nb14  1  0.652268  0.493816  0.875453  1
  Nb  Nb15  1  0.347724  0.507017  0.376410  1
  Nb  Nb16  1  0.847832  0.993466  0.374592  1
  Nb  Nb17  1  0.006752  0.152209  0.125846  1
  Nb  Nb18  1  0.993466  0.847832  0.625408  1
  Si  Si19  1  0.204087  0.133976  0.682245  1
  Si  Si20  1  0.365389  0.703817  0.932346  1
  Si  Si21  1  0.634699  0.298593  0.432655  1
  Si  Si22  1  0.703817  0.365389  0.067654  1
  Si  Si23  1  0.298593  0.634699  0.567345  1
  Si  Si24  1  0.795906  0.865371  0.182556  1
  Si  Si25  1  0.133976  0.204087  0.317755  1
  Si  Si26  1  0.865371  0.795906  0.817444  1
  Si  Si27  1  0.293715  0.953248  0.063557  1
  Si  Si28  1  0.548284  0.792345  0.315255  1
  Si  Si29  1  0.453283  0.206195  0.813425  1
  Si  Si30  1  0.792345  0.548284  0.684745  1
  Si  Si31  1  0.206195  0.453283  0.186575  1
  Si  Si32  1  0.706155  0.044444  0.563059  1
  Si  Si33  1  0.953248  0.293715  0.936443  1
  Si  Si34  1  0.044444  0.706155  0.436941  1
  W  W35  1  0.671941  0.671941  0.500000  1
