# generated using pymatgen
data_Ti8Mn4Ir3Ru
_symmetry_space_group_name_H-M   'P 1'
_cell_length_a   6.08831800
_cell_length_b   4.30278800
_cell_length_c   8.60915800
_cell_angle_alpha   90.00000000
_cell_angle_beta   89.99973514
_cell_angle_gamma   90.00000000
_symmetry_Int_Tables_number   1
_chemical_formula_structural   Ti8Mn4Ir3Ru
_chemical_formula_sum   'Ti8 Mn4 Ir3 Ru1'
_cell_volume   225.53188778
_cell_formula_units_Z   1
loop_
 _symmetry_equiv_pos_site_id
 _symmetry_equiv_pos_as_xyz
  1  'x, y, z'
loop_
 _atom_site_type_symbol
 _atom_site_label
 _atom_site_symmetry_multiplicity
 _atom_site_fract_x
 _atom_site_fract_y
 _atom_site_fract_z
 _atom_site_occupancy
  Ti  Ti0  1  0.003131  0.749999  0.125004  1
  Ti  Ti1  1  0.496882  0.749999  0.125009  1
  Ti  Ti2  1  0.001529  0.249999  0.372989  1
  Ti  Ti3  1  0.498516  0.249999  0.372997  1
  Ti  Ti4  1  0.499962  0.749999  0.624985  1
  Ti  Ti5  1  0.000006  0.749999  0.624990  1
  Ti  Ti6  1  0.498502  0.249999  0.876997  1
  Ti  Ti7  1  0.001490  0.249999  0.877004  1
  Mn  Mn8  1  0.749968  0.249999  0.125007  1
  Mn  Mn9  1  0.250011  0.749999  0.376547  1
  Mn  Mn10  1  0.750002  0.249999  0.625001  1
  Mn  Mn11  1  0.249991  0.749999  0.873465  1
  Ir  Ir12  1  0.750014  0.749999  0.375034  1
  Ir  Ir13  1  0.249994  0.249999  0.624999  1
  Ir  Ir14  1  0.749990  0.749999  0.874966  1
  Ru  Ru15  1  0.250008  0.249999  0.125007  1
