# generated using pymatgen
data_K8Li4ErTm3As8
_symmetry_space_group_name_H-M   'P 1'
_cell_length_a   10.29922276
_cell_length_b   10.29922226
_cell_length_c   6.71976303
_cell_angle_alpha   90.00790502
_cell_angle_beta   89.99209440
_cell_angle_gamma   98.56608555
_symmetry_Int_Tables_number   1
_chemical_formula_structural   K8Li4ErTm3As8
_chemical_formula_sum   'K8 Li4 Er1 Tm3 As8'
_cell_volume   704.84063181
_cell_formula_units_Z   1
loop_
 _symmetry_equiv_pos_site_id
 _symmetry_equiv_pos_as_xyz
  1  'x, y, z'
loop_
 _atom_site_type_symbol
 _atom_site_label
 _atom_site_symmetry_multiplicity
 _atom_site_fract_x
 _atom_site_fract_y
 _atom_site_fract_z
 _atom_site_occupancy
  K  K0  1  0.567429  0.932556  0.750087  1
  K  K1  1  0.932556  0.567429  0.249913  1
  K  K2  1  0.432635  0.067198  0.249872  1
  K  K3  1  0.067198  0.432635  0.750128  1
  K  K4  1  0.678592  0.321543  0.786765  1
  K  K5  1  0.821569  0.178419  0.286703  1
  K  K6  1  0.321543  0.678592  0.213235  1
  K  K7  1  0.178419  0.821569  0.713297  1
  Li  Li8  1  0.617871  0.617871  0.000000  1
  Li  Li9  1  0.882179  0.882179  0.500000  1
  Li  Li10  1  0.382211  0.382211  0.000000  1
  Li  Li11  1  0.117564  0.117564  0.500000  1
  Er  Er12  1  0.368076  0.368076  0.500000  1
  Tm  Tm13  1  0.868147  0.868147  0.000000  1
  Tm  Tm14  1  0.632122  0.632122  0.500000  1
  Tm  Tm15  1  0.131691  0.131691  0.000000  1
  As  As16  1  0.347532  0.151785  0.750732  1
  As  As17  1  0.151785  0.347532  0.249268  1
  As  As18  1  0.652571  0.847529  0.250007  1
  As  As19  1  0.847529  0.652571  0.749993  1
  As  As20  1  0.905497  0.094361  0.764645  1
  As  As21  1  0.595116  0.405809  0.264202  1
  As  As22  1  0.094361  0.905497  0.235355  1
  As  As23  1  0.405809  0.595116  0.735798  1
