# generated using pymatgen
data_Ce2Er14Cd3HgIr4
_symmetry_space_group_name_H-M   'P 1'
_cell_length_a   9.56908640
_cell_length_b   9.56908697
_cell_length_c   9.60187621
_cell_angle_alpha   59.95009639
_cell_angle_beta   59.95009600
_cell_angle_gamma   59.83055827
_symmetry_Int_Tables_number   1
_chemical_formula_structural   Ce2Er14Cd3HgIr4
_chemical_formula_sum   'Ce2 Er14 Cd3 Hg1 Ir4'
_cell_volume   620.43415195
_cell_formula_units_Z   1
loop_
 _symmetry_equiv_pos_site_id
 _symmetry_equiv_pos_as_xyz
  1  'x, y, z'
loop_
 _atom_site_type_symbol
 _atom_site_label
 _atom_site_symmetry_multiplicity
 _atom_site_fract_x
 _atom_site_fract_y
 _atom_site_fract_z
 _atom_site_occupancy
  Ce  Ce0  1  0.596540  0.596540  0.599300  1
  Ce  Ce1  1  0.597085  0.597085  0.206489  1
  Er  Er2  1  0.602571  0.196316  0.600858  1
  Er  Er3  1  0.196316  0.602571  0.600858  1
  Er  Er4  1  0.061945  0.438214  0.439561  1
  Er  Er5  1  0.438553  0.061556  0.059808  1
  Er  Er6  1  0.438214  0.061945  0.439561  1
  Er  Er7  1  0.061556  0.438553  0.059808  1
  Er  Er8  1  0.437326  0.437326  0.062543  1
  Er  Er9  1  0.061329  0.061329  0.438685  1
  Er  Er10  1  0.187266  0.812769  0.812963  1
  Er  Er11  1  0.812987  0.188518  0.185433  1
  Er  Er12  1  0.812769  0.187266  0.812963  1
  Er  Er13  1  0.188518  0.812987  0.185433  1
  Er  Er14  1  0.813395  0.813395  0.185307  1
  Er  Er15  1  0.189480  0.189480  0.810521  1
  Cd  Cd16  1  0.830916  0.830916  0.506851  1
  Cd  Cd17  1  0.830959  0.503740  0.832259  1
  Cd  Cd18  1  0.503740  0.830959  0.832259  1
  Hg  Hg19  1  0.834232  0.834232  0.832838  1
  Ir  Ir20  1  0.392925  0.392925  0.391630  1
  Ir  Ir21  1  0.392958  0.392958  0.822507  1
  Ir  Ir22  1  0.395522  0.822894  0.390782  1
  Ir  Ir23  1  0.822894  0.395522  0.390782  1
