# generated using pymatgen
data_TbDy3ScOs7
_symmetry_space_group_name_H-M   'P 1'
_cell_length_a   5.40441400
_cell_length_b   5.40441552
_cell_length_c   8.89535000
_cell_angle_alpha   90.00000000
_cell_angle_beta   90.00000000
_cell_angle_gamma   120.00000291
_symmetry_Int_Tables_number   1
_chemical_formula_structural   TbDy3ScOs7
_chemical_formula_sum   'Tb1 Dy3 Sc1 Os7'
_cell_volume   225.00439584
_cell_formula_units_Z   1
loop_
 _symmetry_equiv_pos_site_id
 _symmetry_equiv_pos_as_xyz
  1  'x, y, z'
loop_
 _atom_site_type_symbol
 _atom_site_label
 _atom_site_symmetry_multiplicity
 _atom_site_fract_x
 _atom_site_fract_y
 _atom_site_fract_z
 _atom_site_occupancy
  Tb  Tb0  1  0.333333  0.666667  0.422854  1
  Dy  Dy1  1  0.666667  0.333333  0.577212  1
  Dy  Dy2  1  0.666667  0.333333  0.939668  1
  Dy  Dy3  1  0.333333  0.666667  0.060306  1
  Sc  Sc4  1  0.000000  0.000000  0.500026  1
  Os  Os5  1  0.000000  0.000000  0.000006  1
  Os  Os6  1  0.827487  0.172513  0.244979  1
  Os  Os7  1  0.827487  0.654973  0.244979  1
  Os  Os8  1  0.345027  0.172513  0.244979  1
  Os  Os9  1  0.172493  0.827507  0.754997  1
  Os  Os10  1  0.172493  0.344988  0.754997  1
  Os  Os11  1  0.655012  0.827507  0.754997  1
