# generated using pymatgen
data_Dy15Pa(CdCo)4
_symmetry_space_group_name_H-M   'P 1'
_cell_length_a   9.45011728
_cell_length_b   9.55267049
_cell_length_c   9.45011800
_cell_angle_alpha   60.35450278
_cell_angle_beta   60.00000447
_cell_angle_gamma   60.35450131
_symmetry_Int_Tables_number   1
_chemical_formula_structural   Dy15Pa(CdCo)4
_chemical_formula_sum   'Dy15 Pa1 Cd4 Co4'
_cell_volume   606.44393682
_cell_formula_units_Z   1
loop_
 _symmetry_equiv_pos_site_id
 _symmetry_equiv_pos_as_xyz
  1  'x, y, z'
loop_
 _atom_site_type_symbol
 _atom_site_label
 _atom_site_symmetry_multiplicity
 _atom_site_fract_x
 _atom_site_fract_y
 _atom_site_fract_z
 _atom_site_occupancy
  Dy  Dy0  1  0.687256  0.314810  0.687256  1
  Dy  Dy1  1  0.687256  0.314810  0.310677  1
  Dy  Dy2  1  0.938118  0.563314  0.560450  1
  Dy  Dy3  1  0.541501  0.149998  0.154250  1
  Dy  Dy4  1  0.154250  0.149998  0.541501  1
  Dy  Dy5  1  0.936686  0.934777  0.564269  1
  Dy  Dy6  1  0.311274  0.690004  0.311274  1
  Dy  Dy7  1  0.564269  0.934777  0.936686  1
  Dy  Dy8  1  0.564269  0.934777  0.564269  1
  Dy  Dy9  1  0.687448  0.690004  0.311274  1
  Dy  Dy10  1  0.560450  0.563314  0.938118  1
  Dy  Dy11  1  0.938118  0.563314  0.938118  1
  Dy  Dy12  1  0.311274  0.690004  0.687448  1
  Dy  Dy13  1  0.154250  0.149998  0.154250  1
  Dy  Dy14  1  0.310677  0.314810  0.687256  1
  Pa  Pa15  1  0.164220  0.507339  0.164220  1
  Cd  Cd16  1  0.919574  0.241278  0.919574  1
  Cd  Cd17  1  0.920621  0.916266  0.920621  1
  Cd  Cd18  1  0.920621  0.916266  0.242491  1
  Cd  Cd19  1  0.242491  0.916266  0.920621  1
  Co  Co20  1  0.344986  0.374649  0.935381  1
  Co  Co21  1  0.360024  0.919929  0.360024  1
  Co  Co22  1  0.935381  0.374649  0.344986  1
  Co  Co23  1  0.344986  0.374649  0.344986  1
