# generated using pymatgen
data_Hf3Co8CuP6
_symmetry_space_group_name_H-M   'P 1'
_cell_length_a   11.88785405
_cell_length_b   11.96882630
_cell_length_c   3.61857900
_cell_angle_alpha   90.00000000
_cell_angle_beta   90.00000000
_cell_angle_gamma   120.22558154
_symmetry_Int_Tables_number   1
_chemical_formula_structural   Hf3Co8CuP6
_chemical_formula_sum   'Hf6 Co16 Cu2 P12'
_cell_volume   444.86887874
_cell_formula_units_Z   2
loop_
 _symmetry_equiv_pos_site_id
 _symmetry_equiv_pos_as_xyz
  1  'x, y, z'
loop_
 _atom_site_type_symbol
 _atom_site_label
 _atom_site_symmetry_multiplicity
 _atom_site_fract_x
 _atom_site_fract_y
 _atom_site_fract_z
 _atom_site_occupancy
  Hf  Hf0  1  0.816134  0.814599  0.500000  1
  Hf  Hf1  1  0.000000  0.177888  0.500000  1
  Hf  Hf2  1  0.331088  0.663899  0.000000  1
  Hf  Hf3  1  0.668912  0.332812  0.000000  1
  Hf  Hf4  1  0.000000  0.555740  0.000000  1
  Hf  Hf5  1  0.183866  0.998465  0.500000  1
  Co  Co6  1  0.623928  0.821948  0.000000  1
  Co  Co7  1  0.376072  0.198020  0.000000  1
  Co  Co8  1  0.000000  0.722259  0.500000  1
  Co  Co9  1  0.287073  0.286727  0.500000  1
  Co  Co10  1  0.873127  0.352776  0.500000  1
  Co  Co11  1  0.712927  0.999653  0.500000  1
  Co  Co12  1  0.818467  0.629695  0.000000  1
  Co  Co13  1  0.181533  0.811228  0.000000  1
  Co  Co14  1  0.358895  0.871136  0.500000  1
  Co  Co15  1  0.126873  0.479648  0.500000  1
  Co  Co16  1  0.641105  0.512241  0.500000  1
  Co  Co17  1  0.000000  0.002627  0.000000  1
  Co  Co18  1  0.515710  0.644674  0.500000  1
  Co  Co19  1  0.484290  0.128964  0.500000  1
  Co  Co20  1  0.199879  0.375289  0.000000  1
  Co  Co21  1  0.800121  0.175410  0.000000  1
  Cu  Cu22  1  0.451411  0.449581  0.000000  1
  Cu  Cu23  1  0.548589  0.998170  0.000000  1
  P  P24  1  0.000000  0.343703  0.000000  1
  P  P25  1  0.824980  0.516168  0.500000  1
  P  P26  1  0.685044  0.169508  0.500000  1
  P  P27  1  0.178921  0.177090  0.000000  1
  P  P28  1  0.638641  0.643285  0.000000  1
  P  P29  1  0.821079  0.998169  0.000000  1
  P  P30  1  0.515358  0.828020  0.500000  1
  P  P31  1  0.175020  0.691187  0.500000  1
  P  P32  1  0.361359  0.004645  0.000000  1
  P  P33  1  0.484642  0.312663  0.500000  1
  P  P34  1  0.000000  0.827650  0.000000  1
  P  P35  1  0.314956  0.484462  0.500000  1
