# generated using pymatgen
data_Rb8Hf2Zr4BeBr20
_symmetry_space_group_name_H-M   'P 1'
_cell_length_a   12.10823730
_cell_length_b   12.10823708
_cell_length_c   12.10411600
_cell_angle_alpha   60.01125816
_cell_angle_beta   60.01125875
_cell_angle_gamma   59.97749040
_symmetry_Int_Tables_number   1
_chemical_formula_structural   Rb8Hf2Zr4BeBr20
_chemical_formula_sum   'Rb8 Hf2 Zr4 Be1 Br20'
_cell_volume   1254.81540633
_cell_formula_units_Z   1
loop_
 _symmetry_equiv_pos_site_id
 _symmetry_equiv_pos_as_xyz
  1  'x, y, z'
loop_
 _atom_site_type_symbol
 _atom_site_label
 _atom_site_symmetry_multiplicity
 _atom_site_fract_x
 _atom_site_fract_y
 _atom_site_fract_z
 _atom_site_occupancy
  Rb  Rb0  1  0.360904  0.360904  0.360384  1
  Rb  Rb1  1  0.639096  0.639096  0.639616  1
  Rb  Rb2  1  0.360904  0.360904  0.917807  1
  Rb  Rb3  1  0.360384  0.917807  0.360904  1
  Rb  Rb4  1  0.639096  0.639096  0.082193  1
  Rb  Rb5  1  0.639616  0.082193  0.639096  1
  Rb  Rb6  1  0.917807  0.360384  0.360904  1
  Rb  Rb7  1  0.082193  0.639616  0.639096  1
  Hf  Hf8  1  0.138477  0.138477  0.861523  1
  Hf  Hf9  1  0.861523  0.861523  0.138477  1
  Zr  Zr10  1  0.860784  0.139216  0.139216  1
  Zr  Zr11  1  0.139216  0.860784  0.860784  1
  Zr  Zr12  1  0.139216  0.860784  0.139216  1
  Zr  Zr13  1  0.860784  0.139216  0.860784  1
  Be  Be14  1  0.000000  0.000000  0.000000  1
  Br  Br15  1  0.317324  0.002808  0.997192  1
  Br  Br16  1  0.682676  0.997192  0.002808  1
  Br  Br17  1  0.002808  0.317324  0.682676  1
  Br  Br18  1  0.997192  0.682676  0.317324  1
  Br  Br19  1  0.002808  0.317324  0.997192  1
  Br  Br20  1  0.682676  0.997192  0.317324  1
  Br  Br21  1  0.997192  0.682676  0.002808  1
  Br  Br22  1  0.317324  0.002808  0.682676  1
  Br  Br23  1  0.000000  0.000000  0.319135  1
  Br  Br24  1  0.000000  0.000000  0.680865  1
  Br  Br25  1  0.680865  0.319135  0.000000  1
  Br  Br26  1  0.319135  0.680865  0.000000  1
  Br  Br27  1  0.690265  0.309735  0.309735  1
  Br  Br28  1  0.309735  0.690265  0.690265  1
  Br  Br29  1  0.309735  0.690265  0.309735  1
  Br  Br30  1  0.690265  0.309735  0.690265  1
  Br  Br31  1  0.307465  0.307465  0.692535  1
  Br  Br32  1  0.692535  0.692535  0.307465  1
  Br  Br33  1  0.250000  0.250000  0.250000  1
  Br  Br34  1  0.750000  0.750000  0.750000  1
