# generated using pymatgen
data_TmTl3Pd2Pt2F28
_symmetry_space_group_name_H-M   'P 1'
_cell_length_a   5.43770043
_cell_length_b   8.78190562
_cell_length_c   11.95276700
_cell_angle_alpha   62.73274157
_cell_angle_beta   90.07311464
_cell_angle_gamma   90.02616355
_symmetry_Int_Tables_number   1
_chemical_formula_structural   TmTl3Pd2Pt2F28
_chemical_formula_sum   'Tm1 Tl3 Pd2 Pt2 F28'
_cell_volume   507.35842162
_cell_formula_units_Z   1
loop_
 _symmetry_equiv_pos_site_id
 _symmetry_equiv_pos_as_xyz
  1  'x, y, z'
loop_
 _atom_site_type_symbol
 _atom_site_label
 _atom_site_symmetry_multiplicity
 _atom_site_fract_x
 _atom_site_fract_y
 _atom_site_fract_z
 _atom_site_occupancy
  Tm  Tm0  1  0.737249  0.813069  0.265359  1
  Tl  Tl1  1  0.764376  0.812451  0.761274  1
  Tl  Tl2  1  0.263629  0.186421  0.737597  1
  Tl  Tl3  1  0.235347  0.183641  0.236296  1
  Pd  Pd4  1  0.761143  0.273635  0.957076  1
  Pd  Pd5  1  0.261182  0.726363  0.542305  1
  Pt  Pt6  1  0.237897  0.726255  0.045059  1
  Pt  Pt7  1  0.738059  0.273285  0.455540  1
  F  F8  1  0.426950  0.690101  0.920547  1
  F  F9  1  0.917410  0.303426  0.585865  1
  F  F10  1  0.576612  0.307084  0.083114  1
  F  F11  1  0.071712  0.703476  0.412290  1
  F  F12  1  0.421141  0.274367  0.534491  1
  F  F13  1  0.926455  0.721373  0.963043  1
  F  F14  1  0.569530  0.730892  0.456041  1
  F  F15  1  0.074684  0.277848  0.036615  1
  F  F16  1  0.795298  0.522730  0.854306  1
  F  F17  1  0.298933  0.475990  0.638489  1
  F  F18  1  0.205811  0.476192  0.149760  1
  F  F19  1  0.719948  0.525159  0.359362  1
  F  F20  1  0.751233  0.025047  0.051964  1
  F  F21  1  0.248830  0.974687  0.455562  1
  F  F22  1  0.249256  0.976019  0.954519  1
  F  F23  1  0.745554  0.023419  0.543159  1
  F  F24  1  0.954592  0.713921  0.630026  1
  F  F25  1  0.452701  0.282509  0.870238  1
  F  F26  1  0.051483  0.280649  0.371129  1
  F  F27  1  0.538205  0.723273  0.138349  1
  F  F28  1  0.049479  0.750617  0.177173  1
  F  F29  1  0.568988  0.260578  0.313314  1
  F  F30  1  0.933857  0.254847  0.819042  1
  F  F31  1  0.435591  0.737658  0.682504  1
  F  F32  1  0.406435  0.964851  0.229040  1
  F  F33  1  0.900203  0.031191  0.270492  1
  F  F34  1  0.604239  0.033808  0.772222  1
  F  F35  1  0.105988  0.963166  0.726837  1
