# generated using pymatgen
data_Tb3Ce4Er(AlRh)8
_symmetry_space_group_name_H-M   'P 1'
_cell_length_a   4.20377800
_cell_length_b   7.03211654
_cell_length_c   15.88047121
_cell_angle_alpha   90.04470949
_cell_angle_beta   90.00000000
_cell_angle_gamma   90.00000000
_symmetry_Int_Tables_number   1
_chemical_formula_structural   Tb3Ce4Er(AlRh)8
_chemical_formula_sum   'Tb3 Ce4 Er1 Al8 Rh8'
_cell_volume   469.44972042
_cell_formula_units_Z   1
loop_
 _symmetry_equiv_pos_site_id
 _symmetry_equiv_pos_as_xyz
  1  'x, y, z'
loop_
 _atom_site_type_symbol
 _atom_site_label
 _atom_site_symmetry_multiplicity
 _atom_site_fract_x
 _atom_site_fract_y
 _atom_site_fract_z
 _atom_site_occupancy
  Tb  Tb0  1  0.250000  0.158285  0.559306  1
  Tb  Tb1  1  0.750000  0.841610  0.440512  1
  Tb  Tb2  1  0.250000  0.657981  0.941085  1
  Ce  Ce3  1  0.250000  0.033785  0.780170  1
  Ce  Ce4  1  0.750000  0.966401  0.219763  1
  Ce  Ce5  1  0.250000  0.533908  0.720192  1
  Ce  Ce6  1  0.750000  0.465733  0.279763  1
  Er  Er7  1  0.750000  0.341608  0.059409  1
  Al  Al8  1  0.250000  0.136442  0.353063  1
  Al  Al9  1  0.750000  0.863558  0.646769  1
  Al  Al10  1  0.250000  0.635271  0.146373  1
  Al  Al11  1  0.750000  0.363449  0.853817  1
  Al  Al12  1  0.250000  0.006259  0.060982  1
  Al  Al13  1  0.750000  0.995396  0.939424  1
  Al  Al14  1  0.250000  0.505084  0.438808  1
  Al  Al15  1  0.750000  0.494739  0.561005  1
  Rh  Rh16  1  0.750000  0.273463  0.428608  1
  Rh  Rh17  1  0.250000  0.727001  0.571449  1
  Rh  Rh18  1  0.750000  0.771401  0.070834  1
  Rh  Rh19  1  0.250000  0.227538  0.929840  1
  Rh  Rh20  1  0.750000  0.745958  0.814116  1
  Rh  Rh21  1  0.250000  0.255808  0.184351  1
  Rh  Rh22  1  0.750000  0.245200  0.686190  1
  Rh  Rh23  1  0.250000  0.754122  0.314170  1
