# generated using pymatgen
data_Pr21Cr8Bi7C12
_symmetry_space_group_name_H-M   'P 1'
_cell_length_a   11.66350607
_cell_length_b   11.66348676
_cell_length_c   11.66424800
_cell_angle_alpha   60.00289501
_cell_angle_beta   60.00274559
_cell_angle_gamma   60.00071501
_symmetry_Int_Tables_number   1
_chemical_formula_structural   Pr21Cr8Bi7C12
_chemical_formula_sum   'Pr21 Cr8 Bi7 C12'
_cell_volume   1122.07045320
_cell_formula_units_Z   1
loop_
 _symmetry_equiv_pos_site_id
 _symmetry_equiv_pos_as_xyz
  1  'x, y, z'
loop_
 _atom_site_type_symbol
 _atom_site_label
 _atom_site_symmetry_multiplicity
 _atom_site_fract_x
 _atom_site_fract_y
 _atom_site_fract_z
 _atom_site_occupancy
  Pr  Pr0  1  0.000012  0.999988  0.659408  1
  Pr  Pr1  1  0.999954  0.659427  0.340661  1
  Pr  Pr2  1  0.635240  0.635376  0.635169  1
  Pr  Pr3  1  0.000149  0.340438  0.659260  1
  Pr  Pr4  1  0.659502  0.999947  0.999955  1
  Pr  Pr5  1  0.364739  0.364761  0.905754  1
  Pr  Pr6  1  0.635317  0.094182  0.635226  1
  Pr  Pr7  1  0.659501  0.999897  0.340672  1
  Pr  Pr8  1  0.999933  0.999902  0.340673  1
  Pr  Pr9  1  0.905782  0.364749  0.364749  1
  Pr  Pr10  1  0.000009  0.659417  0.999986  1
  Pr  Pr11  1  0.364742  0.905702  0.364801  1
  Pr  Pr12  1  0.659324  0.340468  0.000096  1
  Pr  Pr13  1  0.000126  0.340460  0.000105  1
  Pr  Pr14  1  0.635233  0.635365  0.094202  1
  Pr  Pr15  1  0.364721  0.364759  0.364774  1
  Pr  Pr16  1  0.340578  0.659378  0.000013  1
  Pr  Pr17  1  0.340574  0.999988  0.999999  1
  Pr  Pr18  1  0.094186  0.635402  0.635180  1
  Pr  Pr19  1  0.340548  0.000028  0.659370  1
  Pr  Pr20  1  0.500011  0.499987  0.499987  1
  Cr  Cr21  1  0.197064  0.408804  0.197056  1
  Cr  Cr22  1  0.802897  0.591308  0.802910  1
  Cr  Cr23  1  0.197046  0.197051  0.197058  1
  Cr  Cr24  1  0.802923  0.803051  0.591118  1
  Cr  Cr25  1  0.197024  0.197111  0.408843  1
  Cr  Cr26  1  0.591130  0.803037  0.802913  1
  Cr  Cr27  1  0.802963  0.803043  0.802898  1
  Cr  Cr28  1  0.408797  0.197060  0.197073  1
  Bi  Bi29  1  0.290177  0.290183  0.709818  1
  Bi  Bi30  1  0.290190  0.709818  0.290163  1
  Bi  Bi31  1  0.290188  0.709814  0.709817  1
  Bi  Bi32  1  0.709837  0.290183  0.290152  1
  Bi  Bi33  1  0.000008  0.999998  0.999992  1
  Bi  Bi34  1  0.709829  0.290188  0.709810  1
  Bi  Bi35  1  0.709836  0.709813  0.290167  1
  C  C36  1  0.394275  0.394270  0.105720  1
  C  C37  1  0.394244  0.105675  0.394385  1
  C  C38  1  0.605708  0.894283  0.894356  1
  C  C39  1  0.394308  0.105654  0.105691  1
  C  C40  1  0.894306  0.894250  0.605719  1
  C  C41  1  0.894320  0.605821  0.605495  1
  C  C42  1  0.605476  0.605762  0.894371  1
  C  C43  1  0.894347  0.605806  0.894355  1
  C  C44  1  0.105740  0.394237  0.394299  1
  C  C45  1  0.605721  0.894249  0.605691  1
  C  C46  1  0.105700  0.105669  0.394363  1
  C  C47  1  0.105765  0.394235  0.105728  1
