# generated using pymatgen
data_Tb5YbSi24Os3Ru5
_symmetry_space_group_name_H-M   'P 1'
_cell_length_a   10.13871254
_cell_length_b   10.13871250
_cell_length_c   8.15384102
_cell_angle_alpha   89.99953826
_cell_angle_beta   89.99954201
_cell_angle_gamma   132.52685004
_symmetry_Int_Tables_number   1
_chemical_formula_structural   Tb5YbSi24Os3Ru5
_chemical_formula_sum   'Tb5 Yb1 Si24 Os3 Ru5'
_cell_volume   617.69226442
_cell_formula_units_Z   1
loop_
 _symmetry_equiv_pos_site_id
 _symmetry_equiv_pos_as_xyz
  1  'x, y, z'
loop_
 _atom_site_type_symbol
 _atom_site_label
 _atom_site_symmetry_multiplicity
 _atom_site_fract_x
 _atom_site_fract_y
 _atom_site_fract_z
 _atom_site_occupancy
  Tb  Tb0  1  0.999970  0.000030  0.000000  1
  Tb  Tb1  1  0.501852  0.002070  0.749836  1
  Tb  Tb2  1  0.997930  0.498148  0.250164  1
  Tb  Tb3  1  0.498158  0.997929  0.249954  1
  Tb  Tb4  1  0.002071  0.501842  0.750046  1
  Yb  Yb5  1  0.500064  0.499936  0.500000  1
  Si  Si6  1  0.796475  0.203525  0.500000  1
  Si  Si7  1  0.296228  0.703772  0.000000  1
  Si  Si8  1  0.203627  0.796373  0.500000  1
  Si  Si9  1  0.704235  0.295765  0.000000  1
  Si  Si10  1  0.333853  0.333539  0.831719  1
  Si  Si11  1  0.666461  0.666147  0.168281  1
  Si  Si12  1  0.168678  0.168801  0.334124  1
  Si  Si13  1  0.831199  0.831322  0.665876  1
  Si  Si14  1  0.122180  0.889183  0.727938  1
  Si  Si15  1  0.110817  0.877820  0.272062  1
  Si  Si16  1  0.611399  0.379239  0.229260  1
  Si  Si17  1  0.620761  0.388601  0.770740  1
  Si  Si18  1  0.877409  0.110764  0.271197  1
  Si  Si19  1  0.889236  0.122591  0.728803  1
  Si  Si20  1  0.389668  0.621754  0.770285  1
  Si  Si21  1  0.378246  0.610332  0.229715  1
  Si  Si22  1  0.345981  0.114567  0.505698  1
  Si  Si23  1  0.885433  0.654019  0.494302  1
  Si  Si24  1  0.388343  0.155969  0.004291  1
  Si  Si25  1  0.844031  0.611657  0.995709  1
  Si  Si26  1  0.654186  0.885488  0.494161  1
  Si  Si27  1  0.114512  0.345814  0.505839  1
  Si  Si28  1  0.612846  0.845535  0.994651  1
  Si  Si29  1  0.154465  0.387154  0.005349  1
  Os  Os30  1  0.670924  0.329076  0.500000  1
  Os  Os31  1  0.170185  0.829815  0.000000  1
  Os  Os32  1  0.329108  0.670892  0.500000  1
  Ru  Ru33  1  0.829663  0.170337  0.000000  1
  Ru  Ru34  1  0.125397  0.125421  0.627466  1
  Ru  Ru35  1  0.874579  0.874603  0.372534  1
  Ru  Ru36  1  0.373234  0.373408  0.126061  1
  Ru  Ru37  1  0.626592  0.626766  0.873939  1
