# generated using pymatgen
data_Zr6Ti2Ga15Os5Rh2
_symmetry_space_group_name_H-M   'P 1'
_cell_length_a   8.85027669
_cell_length_b   8.85027556
_cell_length_c   8.85027581
_cell_angle_alpha   120.00673560
_cell_angle_beta   119.48291935
_cell_angle_gamma   90.44313784
_symmetry_Int_Tables_number   1
_chemical_formula_structural   Zr6Ti2Ga15Os5Rh2
_chemical_formula_sum   'Zr6 Ti2 Ga15 Os5 Rh2'
_cell_volume   492.04176158
_cell_formula_units_Z   1
loop_
 _symmetry_equiv_pos_site_id
 _symmetry_equiv_pos_as_xyz
  1  'x, y, z'
loop_
 _atom_site_type_symbol
 _atom_site_label
 _atom_site_symmetry_multiplicity
 _atom_site_fract_x
 _atom_site_fract_y
 _atom_site_fract_z
 _atom_site_occupancy
  Zr  Zr0  1  0.793782  0.288182  0.069026  1
  Zr  Zr1  1  0.219156  0.288182  0.494401  1
  Zr  Zr2  1  0.208033  0.708033  0.500000  1
  Zr  Zr3  1  0.219156  0.724755  0.930974  1
  Zr  Zr4  1  0.793782  0.724755  0.505599  1
  Zr  Zr5  1  0.774962  0.274962  0.500000  1
  Ti  Ti6  1  0.376131  0.126266  0.750136  1
  Ti  Ti7  1  0.376131  0.625994  0.249864  1
  Ga  Ga8  1  0.991936  0.491936  0.500000  1
  Ga  Ga9  1  0.159743  0.344551  0.184806  1
  Ga  Ga10  1  0.159743  0.974937  0.815194  1
  Ga  Ga11  1  0.157323  0.346575  0.810749  1
  Ga  Ga12  1  0.535824  0.346575  0.189251  1
  Ga  Ga13  1  0.845311  0.655568  0.810258  1
  Ga  Ga14  1  0.845311  0.035054  0.189742  1
  Ga  Ga15  1  0.841821  0.657782  0.184038  1
  Ga  Ga16  1  0.473744  0.657782  0.815962  1
  Ga  Ga17  1  0.375982  0.122910  0.253072  1
  Ga  Ga18  1  0.869841  0.122910  0.746928  1
  Ga  Ga19  1  0.617235  0.868332  0.251097  1
  Ga  Ga20  1  0.617235  0.366138  0.748903  1
  Ga  Ga21  1  0.610383  0.875571  0.734812  1
  Ga  Ga22  1  0.140757  0.875571  0.265188  1
  Os  Os23  1  0.001145  0.001133  0.502726  1
  Os  Os24  1  0.498407  0.001133  0.999988  1
  Os  Os25  1  0.497586  0.497586  0.000000  1
  Os  Os26  1  0.498407  0.498420  0.497274  1
  Os  Os27  1  0.001145  0.498420  0.000012  1
  Rh  Rh28  1  0.000224  0.000224  0.000000  1
  Rh  Rh29  1  0.499757  0.999757  0.500000  1
