# generated using pymatgen
data_Li2Tm5Lu(Co4P3)4
_symmetry_space_group_name_H-M   'P 1'
_cell_length_a   3.69145300
_cell_length_b   10.53622501
_cell_length_c   12.11996501
_cell_angle_alpha   90.00469399
_cell_angle_beta   90.00000000
_cell_angle_gamma   90.00000000
_symmetry_Int_Tables_number   1
_chemical_formula_structural   Li2Tm5Lu(Co4P3)4
_chemical_formula_sum   'Li2 Tm5 Lu1 Co16 P12'
_cell_volume   471.39366807
_cell_formula_units_Z   1
loop_
 _symmetry_equiv_pos_site_id
 _symmetry_equiv_pos_as_xyz
  1  'x, y, z'
loop_
 _atom_site_type_symbol
 _atom_site_label
 _atom_site_symmetry_multiplicity
 _atom_site_fract_x
 _atom_site_fract_y
 _atom_site_fract_z
 _atom_site_occupancy
  Li  Li0  1  0.500000  0.500021  0.153942  1
  Li  Li1  1  0.000000  0.000007  0.846054  1
  Tm  Tm2  1  0.000000  0.500054  0.523663  1
  Tm  Tm3  1  0.500000  0.999878  0.476424  1
  Tm  Tm4  1  0.500000  0.820576  0.206016  1
  Tm  Tm5  1  0.500000  0.179426  0.206039  1
  Tm  Tm6  1  0.000000  0.679361  0.793918  1
  Lu  Lu7  1  0.000000  0.320578  0.793995  1
  Co  Co8  1  0.500000  0.499576  0.704404  1
  Co  Co9  1  0.000000  0.000008  0.295805  1
  Co  Co10  1  0.000000  0.499864  0.987422  1
  Co  Co11  1  0.500000  0.000072  0.012404  1
  Co  Co12  1  0.500000  0.332744  0.996823  1
  Co  Co13  1  0.500000  0.667169  0.997010  1
  Co  Co14  1  0.000000  0.167396  0.002819  1
  Co  Co15  1  0.000000  0.832745  0.002977  1
  Co  Co16  1  0.500000  0.296606  0.431441  1
  Co  Co17  1  0.500000  0.703377  0.431419  1
  Co  Co18  1  0.000000  0.203434  0.568779  1
  Co  Co19  1  0.000000  0.796639  0.568565  1
  Co  Co20  1  0.500000  0.877751  0.706128  1
  Co  Co21  1  0.500000  0.122542  0.706353  1
  Co  Co22  1  0.000000  0.622237  0.293838  1
  Co  Co23  1  0.000000  0.377803  0.293829  1
  P  P24  1  0.500000  0.499670  0.884510  1
  P  P25  1  0.000000  0.000025  0.115231  1
  P  P26  1  0.500000  0.499969  0.347862  1
  P  P27  1  0.000000  0.999939  0.652106  1
  P  P28  1  0.500000  0.311259  0.616836  1
  P  P29  1  0.500000  0.688865  0.616379  1
  P  P30  1  0.000000  0.188897  0.383621  1
  P  P31  1  0.000000  0.811152  0.383665  1
  P  P32  1  0.500000  0.842543  0.892034  1
  P  P33  1  0.500000  0.157847  0.891702  1
  P  P34  1  0.000000  0.657419  0.107950  1
  P  P35  1  0.000000  0.342551  0.108037  1
