# generated using pymatgen
data_Hf9Re2Mo2N3
_symmetry_space_group_name_H-M   'P 1'
_cell_length_a   8.54300200
_cell_length_b   8.55585898
_cell_length_c   8.44909600
_cell_angle_alpha   90.00000000
_cell_angle_beta   90.00000000
_cell_angle_gamma   119.95030318
_symmetry_Int_Tables_number   1
_chemical_formula_structural   Hf9Re2Mo2N3
_chemical_formula_sum   'Hf18 Re4 Mo4 N6'
_cell_volume   535.09669618
_cell_formula_units_Z   2
loop_
 _symmetry_equiv_pos_site_id
 _symmetry_equiv_pos_as_xyz
  1  'x, y, z'
loop_
 _atom_site_type_symbol
 _atom_site_label
 _atom_site_symmetry_multiplicity
 _atom_site_fract_x
 _atom_site_fract_y
 _atom_site_fract_z
 _atom_site_occupancy
  Hf  Hf0  1  0.454694  0.909389  0.250000  1
  Hf  Hf1  1  0.545306  0.090611  0.750000  1
  Hf  Hf2  1  0.090310  0.545356  0.250000  1
  Hf  Hf3  1  0.909690  0.454644  0.750000  1
  Hf  Hf4  1  0.455045  0.545356  0.250000  1
  Hf  Hf5  1  0.544955  0.454644  0.750000  1
  Hf  Hf6  1  0.205178  0.410356  0.559237  1
  Hf  Hf7  1  0.794822  0.589644  0.440763  1
  Hf  Hf8  1  0.589209  0.794710  0.557269  1
  Hf  Hf9  1  0.794822  0.589644  0.059237  1
  Hf  Hf10  1  0.410791  0.205290  0.442731  1
  Hf  Hf11  1  0.205178  0.410356  0.940763  1
  Hf  Hf12  1  0.205501  0.794710  0.557269  1
  Hf  Hf13  1  0.410791  0.205290  0.057269  1
  Hf  Hf14  1  0.794499  0.205290  0.442731  1
  Hf  Hf15  1  0.589209  0.794710  0.942731  1
  Hf  Hf16  1  0.794499  0.205290  0.057269  1
  Hf  Hf17  1  0.205501  0.794710  0.942731  1
  Re  Re18  1  0.779951  0.888711  0.250000  1
  Re  Re19  1  0.220049  0.111289  0.750000  1
  Re  Re20  1  0.108759  0.888711  0.250000  1
  Re  Re21  1  0.891241  0.111289  0.750000  1
  Mo  Mo22  1  0.106968  0.213937  0.250000  1
  Mo  Mo23  1  0.893032  0.786063  0.750000  1
  Mo  Mo24  1  0.000000  0.000000  0.000000  1
  Mo  Mo25  1  0.000000  0.000000  0.500000  1
  N  N26  1  0.500000  0.000000  0.000000  1
  N  N27  1  0.000000  0.500000  0.000000  1
  N  N28  1  0.500000  0.000000  0.500000  1
  N  N29  1  0.500000  0.500000  0.000000  1
  N  N30  1  0.000000  0.500000  0.500000  1
  N  N31  1  0.500000  0.500000  0.500000  1
