# generated using pymatgen
data_Tb16MgNi4Hg3
_symmetry_space_group_name_H-M   'P 1'
_cell_length_a   9.60009550
_cell_length_b   9.58021415
_cell_length_c   9.58021400
_cell_angle_alpha   60.00000050
_cell_angle_beta   60.06848348
_cell_angle_gamma   60.06847919
_symmetry_Int_Tables_number   1
_chemical_formula_structural   Tb16MgNi4Hg3
_chemical_formula_sum   'Tb16 Mg1 Ni4 Hg3'
_cell_volume   623.67702480
_cell_formula_units_Z   1
loop_
 _symmetry_equiv_pos_site_id
 _symmetry_equiv_pos_as_xyz
  1  'x, y, z'
loop_
 _atom_site_type_symbol
 _atom_site_label
 _atom_site_symmetry_multiplicity
 _atom_site_fract_x
 _atom_site_fract_y
 _atom_site_fract_z
 _atom_site_occupancy
  Tb  Tb0  1  0.182945  0.815682  0.815682  1
  Tb  Tb1  1  0.810590  0.186847  0.186847  1
  Tb  Tb2  1  0.810590  0.186847  0.815717  1
  Tb  Tb3  1  0.182945  0.815682  0.185692  1
  Tb  Tb4  1  0.810590  0.815717  0.186847  1
  Tb  Tb5  1  0.182945  0.185692  0.815682  1
  Tb  Tb6  1  0.057015  0.441284  0.441284  1
  Tb  Tb7  1  0.433399  0.063639  0.063639  1
  Tb  Tb8  1  0.433399  0.063639  0.439322  1
  Tb  Tb9  1  0.057015  0.441284  0.060417  1
  Tb  Tb10  1  0.433399  0.439322  0.063639  1
  Tb  Tb11  1  0.057015  0.060417  0.441284  1
  Tb  Tb12  1  0.599105  0.596741  0.596741  1
  Tb  Tb13  1  0.599105  0.596741  0.207413  1
  Tb  Tb14  1  0.599105  0.207413  0.596741  1
  Tb  Tb15  1  0.203989  0.598670  0.598670  1
  Mg  Mg16  1  0.535920  0.821360  0.821360  1
  Ni  Ni17  1  0.393208  0.390992  0.390992  1
  Ni  Ni18  1  0.393208  0.390992  0.824809  1
  Ni  Ni19  1  0.393208  0.824809  0.390992  1
  Ni  Ni20  1  0.824521  0.391827  0.391827  1
  Hg  Hg21  1  0.835596  0.835262  0.835262  1
  Hg  Hg22  1  0.835596  0.835262  0.493880  1
  Hg  Hg23  1  0.835596  0.493880  0.835262  1
