# generated using pymatgen
data_Np4Mn(Si2Pt)5
_symmetry_space_group_name_H-M   'P 1'
_cell_length_a   8.17416791
_cell_length_b   8.17416830
_cell_length_c   8.17416809
_cell_angle_alpha   137.35438216
_cell_angle_beta   104.84516975
_cell_angle_gamma   90.47178468
_symmetry_Int_Tables_number   1
_chemical_formula_structural   Np4Mn(Si2Pt)5
_chemical_formula_sum   'Np4 Mn1 Si10 Pt5'
_cell_volume   341.14682201
_cell_formula_units_Z   1
loop_
 _symmetry_equiv_pos_site_id
 _symmetry_equiv_pos_as_xyz
  1  'x, y, z'
loop_
 _atom_site_type_symbol
 _atom_site_label
 _atom_site_symmetry_multiplicity
 _atom_site_fract_x
 _atom_site_fract_y
 _atom_site_fract_z
 _atom_site_occupancy
  Np  Np0  1  0.103155  0.866031  0.229339  1
  Np  Np1  1  0.896845  0.126184  0.762876  1
  Np  Np2  1  0.636692  0.373816  0.270661  1
  Np  Np3  1  0.363308  0.633969  0.737124  1
  Mn  Mn4  1  0.500000  0.750000  0.250000  1
  Si  Si5  1  0.000000  0.750000  0.750000  1
  Si  Si6  1  0.000000  0.250000  0.250000  1
  Si  Si7  1  0.274109  0.024109  0.750000  1
  Si  Si8  1  0.725891  0.475891  0.750000  1
  Si  Si9  1  0.719872  0.969872  0.250000  1
  Si  Si10  1  0.280128  0.530128  0.250000  1
  Si  Si11  1  0.756366  0.616461  0.161168  1
  Si  Si12  1  0.243634  0.404802  0.860096  1
  Si  Si13  1  0.455293  0.095198  0.338832  1
  Si  Si14  1  0.544707  0.883539  0.639904  1
  Pt  Pt15  1  0.500000  0.250000  0.750000  1
  Pt  Pt16  1  0.026917  0.635204  0.385038  1
  Pt  Pt17  1  0.973083  0.358121  0.608286  1
  Pt  Pt18  1  0.250166  0.141879  0.114962  1
  Pt  Pt19  1  0.749834  0.864796  0.891714  1
