# generated using pymatgen
data_Pr16Cd4CoRu3
_symmetry_space_group_name_H-M   'P 1'
_cell_length_a   9.98738090
_cell_length_b   9.98737991
_cell_length_c   9.93481159
_cell_angle_alpha   59.82480861
_cell_angle_beta   59.82480294
_cell_angle_gamma   60.00000073
_symmetry_Int_Tables_number   1
_chemical_formula_structural   Pr16Cd4CoRu3
_chemical_formula_sum   'Pr16 Cd4 Co1 Ru3'
_cell_volume   698.86404195
_cell_formula_units_Z   1
loop_
 _symmetry_equiv_pos_site_id
 _symmetry_equiv_pos_as_xyz
  1  'x, y, z'
loop_
 _atom_site_type_symbol
 _atom_site_label
 _atom_site_symmetry_multiplicity
 _atom_site_fract_x
 _atom_site_fract_y
 _atom_site_fract_z
 _atom_site_occupancy
  Pr  Pr0  1  0.937862  0.937862  0.559660  1
  Pr  Pr1  1  0.810347  0.189993  0.189313  1
  Pr  Pr2  1  0.937862  0.564616  0.559660  1
  Pr  Pr3  1  0.938583  0.560862  0.939693  1
  Pr  Pr4  1  0.810347  0.810347  0.189313  1
  Pr  Pr5  1  0.344863  0.344863  0.350008  1
  Pr  Pr6  1  0.560862  0.938583  0.939693  1
  Pr  Pr7  1  0.564616  0.937862  0.559660  1
  Pr  Pr8  1  0.190057  0.813057  0.806827  1
  Pr  Pr9  1  0.190057  0.190057  0.806827  1
  Pr  Pr10  1  0.347341  0.347341  0.957978  1
  Pr  Pr11  1  0.344863  0.960267  0.350008  1
  Pr  Pr12  1  0.813057  0.190057  0.806827  1
  Pr  Pr13  1  0.560862  0.560862  0.939693  1
  Pr  Pr14  1  0.189993  0.810347  0.189313  1
  Pr  Pr15  1  0.960267  0.344863  0.350008  1
  Cd  Cd16  1  0.579369  0.579369  0.261895  1
  Cd  Cd17  1  0.261267  0.580176  0.578384  1
  Cd  Cd18  1  0.580176  0.580176  0.578384  1
  Cd  Cd19  1  0.580176  0.261267  0.578384  1
  Co  Co20  1  0.138488  0.138488  0.584537  1
  Ru  Ru21  1  0.585049  0.136820  0.141312  1
  Ru  Ru22  1  0.136820  0.136820  0.141312  1
  Ru  Ru23  1  0.136820  0.585049  0.141312  1
