# generated using pymatgen
data_HoEr5ReB14Os
_symmetry_space_group_name_H-M   'P 1'
_cell_length_a   8.01319602
_cell_length_b   8.01319583
_cell_length_c   9.29189100
_cell_angle_alpha   90.00000000
_cell_angle_beta   90.00000000
_cell_angle_gamma   154.66005356
_symmetry_Int_Tables_number   1
_chemical_formula_structural   HoEr5ReB14Os
_chemical_formula_sum   'Ho1 Er5 Re1 B14 Os1'
_cell_volume   255.35672859
_cell_formula_units_Z   1
loop_
 _symmetry_equiv_pos_site_id
 _symmetry_equiv_pos_as_xyz
  1  'x, y, z'
loop_
 _atom_site_type_symbol
 _atom_site_label
 _atom_site_symmetry_multiplicity
 _atom_site_fract_x
 _atom_site_fract_y
 _atom_site_fract_z
 _atom_site_occupancy
  Ho  Ho0  1  0.756621  0.243379  0.750000  1
  Er  Er1  1  0.894271  0.105729  0.440269  1
  Er  Er2  1  0.105757  0.894243  0.560805  1
  Er  Er3  1  0.894271  0.105729  0.059731  1
  Er  Er4  1  0.105757  0.894243  0.939195  1
  Er  Er5  1  0.243570  0.756430  0.250000  1
  Re  Re6  1  0.947623  0.052377  0.750000  1
  B  B7  1  0.727090  0.272910  0.465151  1
  B  B8  1  0.272285  0.727715  0.533280  1
  B  B9  1  0.727090  0.272910  0.034849  1
  B  B10  1  0.272285  0.727715  0.966720  1
  B  B11  1  0.631904  0.368096  0.150836  1
  B  B12  1  0.367649  0.632351  0.849474  1
  B  B13  1  0.631904  0.368096  0.349164  1
  B  B14  1  0.367649  0.632351  0.650526  1
  B  B15  1  0.520237  0.479763  0.095664  1
  B  B16  1  0.479828  0.520172  0.905185  1
  B  B17  1  0.520237  0.479763  0.404336  1
  B  B18  1  0.479828  0.520172  0.594815  1
  B  B19  1  0.455510  0.544490  0.250000  1
  B  B20  1  0.545033  0.454967  0.750000  1
  Os  Os21  1  0.053598  0.946402  0.250000  1
