# generated using pymatgen
data_GdTm3CrB16W3
_symmetry_space_group_name_H-M   'P 1'
_cell_length_a   3.56834400
_cell_length_b   6.00052115
_cell_length_c   11.58498111
_cell_angle_alpha   89.84548200
_cell_angle_beta   90.00000000
_cell_angle_gamma   90.00000000
_symmetry_Int_Tables_number   1
_chemical_formula_structural   GdTm3CrB16W3
_chemical_formula_sum   'Gd1 Tm3 Cr1 B16 W3'
_cell_volume   248.05582887
_cell_formula_units_Z   1
loop_
 _symmetry_equiv_pos_site_id
 _symmetry_equiv_pos_as_xyz
  1  'x, y, z'
loop_
 _atom_site_type_symbol
 _atom_site_label
 _atom_site_symmetry_multiplicity
 _atom_site_fract_x
 _atom_site_fract_y
 _atom_site_fract_z
 _atom_site_occupancy
  Gd  Gd0  1  0.000000  0.626871  0.352332  1
  Tm  Tm1  1  0.000000  0.376314  0.648816  1
  Tm  Tm2  1  0.000000  0.127374  0.149889  1
  Tm  Tm3  1  0.000000  0.872627  0.846646  1
  Cr  Cr4  1  0.000000  0.872917  0.582926  1
  B  B5  1  0.500000  0.788617  0.186532  1
  B  B6  1  0.500000  0.210272  0.811133  1
  B  B7  1  0.500000  0.285384  0.314144  1
  B  B8  1  0.500000  0.718122  0.683676  1
  B  B9  1  0.500000  0.868262  0.031010  1
  B  B10  1  0.500000  0.132114  0.966795  1
  B  B11  1  0.500000  0.366913  0.471268  1
  B  B12  1  0.500000  0.637318  0.535077  1
  B  B13  1  0.500000  0.883899  0.456882  1
  B  B14  1  0.500000  0.110576  0.551342  1
  B  B15  1  0.500000  0.384474  0.046570  1
  B  B16  1  0.500000  0.615369  0.950813  1
  B  B17  1  0.500000  0.975850  0.307681  1
  B  B18  1  0.500000  0.019425  0.692624  1
  B  B19  1  0.500000  0.474042  0.193107  1
  B  B20  1  0.500000  0.526018  0.803923  1
  W  W21  1  0.000000  0.631119  0.083878  1
  W  W22  1  0.000000  0.368904  0.913394  1
  W  W23  1  0.000000  0.127218  0.419548  1
