# generated using pymatgen
data_La4Ga14CuRh
_symmetry_space_group_name_H-M   'P 1'
_cell_length_a   6.19752244
_cell_length_b   6.19277321
_cell_length_c   11.48177880
_cell_angle_alpha   74.35487409
_cell_angle_beta   74.34257770
_cell_angle_gamma   90.00000226
_symmetry_Int_Tables_number   1
_chemical_formula_structural   La4Ga14CuRh
_chemical_formula_sum   'La4 Ga14 Cu1 Rh1'
_cell_volume   407.33539728
_cell_formula_units_Z   1
loop_
 _symmetry_equiv_pos_site_id
 _symmetry_equiv_pos_as_xyz
  1  'x, y, z'
loop_
 _atom_site_type_symbol
 _atom_site_label
 _atom_site_symmetry_multiplicity
 _atom_site_fract_x
 _atom_site_fract_y
 _atom_site_fract_z
 _atom_site_occupancy
  La  La0  1  0.995857  0.995857  0.008287  1
  La  La1  1  0.497109  0.497109  0.005782  1
  La  La2  1  0.751037  0.251037  0.497928  1
  La  La3  1  0.247517  0.747517  0.504967  1
  Ga  Ga4  1  0.199951  0.199951  0.600100  1
  Ga  Ga5  1  0.810351  0.810351  0.379300  1
  Ga  Ga6  1  0.613460  0.125653  0.252750  1
  Ga  Ga7  1  0.133789  0.621596  0.252750  1
  Ga  Ga8  1  0.613460  0.621596  0.252750  1
  Ga  Ga9  1  0.133789  0.125653  0.252750  1
  Ga  Ga10  1  0.868361  0.360626  0.753219  1
  Ga  Ga11  1  0.378420  0.886153  0.753219  1
  Ga  Ga12  1  0.868361  0.886153  0.753219  1
  Ga  Ga13  1  0.378420  0.360626  0.753219  1
  Ga  Ga14  1  0.692787  0.692787  0.614426  1
  Ga  Ga15  1  0.061612  0.561612  0.876776  1
  Ga  Ga16  1  0.449868  0.949868  0.100263  1
  Ga  Ga17  1  0.943792  0.443792  0.112415  1
  Cu  Cu18  1  0.562453  0.062453  0.875094  1
  Rh  Rh19  1  0.314438  0.314438  0.371124  1
