# generated using pymatgen
data_YPd7Au
_symmetry_space_group_name_H-M   'P 1'
_cell_length_a   6.43947168
_cell_length_b   6.43946949
_cell_length_c   6.37930789
_cell_angle_alpha   95.85318156
_cell_angle_beta   95.85363281
_cell_angle_gamma   142.93367442
_symmetry_Int_Tables_number   1
_chemical_formula_structural   YPd7Au
_chemical_formula_sum   'Y1 Pd7 Au1'
_cell_volume   151.01243736
_cell_formula_units_Z   1
loop_
 _symmetry_equiv_pos_site_id
 _symmetry_equiv_pos_as_xyz
  1  'x, y, z'
loop_
 _atom_site_type_symbol
 _atom_site_label
 _atom_site_symmetry_multiplicity
 _atom_site_fract_x
 _atom_site_fract_y
 _atom_site_fract_z
 _atom_site_occupancy
  Y  Y0  1  0.996511  0.003645  0.000156  1
  Pd  Pd1  1  0.330896  0.669143  0.000039  1
  Pd  Pd2  1  0.334983  0.000854  0.335836  1
  Pd  Pd3  1  0.002040  0.336048  0.338090  1
  Pd  Pd4  1  0.670504  0.670224  0.340727  1
  Pd  Pd5  1  0.329744  0.329463  0.659206  1
  Pd  Pd6  1  0.663921  0.997927  0.661848  1
  Pd  Pd7  1  0.999112  0.664988  0.664099  1
  Au  Au8  1  0.672292  0.327708  0.999998  1
