# generated using pymatgen
data_Ta3Ti9(P4Rh)2
_symmetry_space_group_name_H-M   'P 1'
_cell_length_a   7.32880741
_cell_length_b   7.32880537
_cell_length_c   13.79214828
_cell_angle_alpha   76.19898055
_cell_angle_beta   76.19898495
_cell_angle_gamma   27.17745104
_symmetry_Int_Tables_number   1
_chemical_formula_structural   Ta3Ti9(P4Rh)2
_chemical_formula_sum   'Ta3 Ti9 P8 Rh2'
_cell_volume   328.00874216
_cell_formula_units_Z   1
loop_
 _symmetry_equiv_pos_site_id
 _symmetry_equiv_pos_as_xyz
  1  'x, y, z'
loop_
 _atom_site_type_symbol
 _atom_site_label
 _atom_site_symmetry_multiplicity
 _atom_site_fract_x
 _atom_site_fract_y
 _atom_site_fract_z
 _atom_site_occupancy
  Ta  Ta0  1  0.500000  0.500000  0.500000  1
  Ta  Ta1  1  0.424131  0.424131  0.172836  1
  Ta  Ta2  1  0.575869  0.575869  0.827164  1
  Ti  Ti3  1  0.000000  0.000000  0.000000  1
  Ti  Ti4  1  0.210423  0.210423  0.208816  1
  Ti  Ti5  1  0.789577  0.789577  0.791184  1
  Ti  Ti6  1  0.339991  0.339991  0.966504  1
  Ti  Ti7  1  0.660009  0.660009  0.033496  1
  Ti  Ti8  1  0.003222  0.003222  0.334650  1
  Ti  Ti9  1  0.996778  0.996778  0.665350  1
  Ti  Ti10  1  0.174593  0.174593  0.464960  1
  Ti  Ti11  1  0.825407  0.825407  0.535040  1
  P  P12  1  0.181462  0.181462  0.897598  1
  P  P13  1  0.818538  0.818538  0.102402  1
  P  P14  1  0.371300  0.371300  0.395933  1
  P  P15  1  0.628700  0.628700  0.604067  1
  P  P16  1  0.365085  0.365085  0.659548  1
  P  P17  1  0.634915  0.634915  0.340452  1
  P  P18  1  0.061608  0.061608  0.152209  1
  P  P19  1  0.938392  0.938392  0.847791  1
  Rh  Rh20  1  0.194336  0.194336  0.677851  1
  Rh  Rh21  1  0.805664  0.805664  0.322149  1
