# generated using pymatgen
data_NdTm3Mn4F28
_symmetry_space_group_name_H-M   'P 1'
_cell_length_a   5.40073225
_cell_length_b   8.67069629
_cell_length_c   11.65725300
_cell_angle_alpha   62.47729084
_cell_angle_beta   90.09387812
_cell_angle_gamma   90.03605284
_symmetry_Int_Tables_number   1
_chemical_formula_structural   NdTm3Mn4F28
_chemical_formula_sum   'Nd1 Tm3 Mn4 F28'
_cell_volume   484.10718701
_cell_formula_units_Z   1
loop_
 _symmetry_equiv_pos_site_id
 _symmetry_equiv_pos_as_xyz
  1  'x, y, z'
loop_
 _atom_site_type_symbol
 _atom_site_label
 _atom_site_symmetry_multiplicity
 _atom_site_fract_x
 _atom_site_fract_y
 _atom_site_fract_z
 _atom_site_occupancy
  Nd  Nd0  1  0.739494  0.812885  0.264707  1
  Tm  Tm1  1  0.761795  0.812881  0.763969  1
  Tm  Tm2  1  0.262164  0.188095  0.736298  1
  Tm  Tm3  1  0.237157  0.195385  0.235017  1
  Mn  Mn4  1  0.759928  0.277881  0.954269  1
  Mn  Mn5  1  0.258489  0.724767  0.548271  1
  Mn  Mn6  1  0.243391  0.725200  0.038103  1
  Mn  Mn7  1  0.741337  0.268735  0.459530  1
  F  F8  1  0.433312  0.704625  0.916164  1
  F  F9  1  0.934610  0.292266  0.579908  1
  F  F10  1  0.567140  0.296283  0.076748  1
  F  F11  1  0.072917  0.703257  0.424909  1
  F  F12  1  0.454153  0.277577  0.543642  1
  F  F13  1  0.951860  0.719191  0.956258  1
  F  F14  1  0.545302  0.714824  0.467462  1
  F  F15  1  0.046486  0.282761  0.040086  1
  F  F16  1  0.772829  0.516336  0.859655  1
  F  F17  1  0.269646  0.484654  0.641811  1
  F  F18  1  0.228103  0.485772  0.135253  1
  F  F19  1  0.725593  0.505595  0.363990  1
  F  F20  1  0.758982  0.040559  0.043092  1
  F  F21  1  0.259289  0.962032  0.454810  1
  F  F22  1  0.242537  0.963257  0.950160  1
  F  F23  1  0.741648  0.031371  0.549778  1
  F  F24  1  0.976582  0.728304  0.635813  1
  F  F25  1  0.480465  0.272985  0.864514  1
  F  F26  1  0.022221  0.271000  0.368699  1
  F  F27  1  0.524897  0.724562  0.125789  1
  F  F28  1  0.063909  0.738653  0.167324  1
  F  F29  1  0.549748  0.253416  0.332217  1
  F  F30  1  0.951611  0.258589  0.828885  1
  F  F31  1  0.447591  0.742909  0.673921  1
  F  F32  1  0.388876  0.976791  0.225942  1
  F  F33  1  0.907538  0.045847  0.272627  1
  F  F34  1  0.589249  0.029325  0.771074  1
  F  F35  1  0.089149  0.971427  0.729310  1
