# generated using pymatgen
data_Ti3BeRe(PRu)2
_symmetry_space_group_name_H-M   'P 1'
_cell_length_a   6.46757761
_cell_length_b   6.51397763
_cell_length_c   3.30262700
_cell_angle_alpha   90.00000000
_cell_angle_beta   90.00000000
_cell_angle_gamma   120.23759891
_symmetry_Int_Tables_number   1
_chemical_formula_structural   Ti3BeRe(PRu)2
_chemical_formula_sum   'Ti3 Be1 Re1 P2 Ru2'
_cell_volume   120.20797850
_cell_formula_units_Z   1
loop_
 _symmetry_equiv_pos_site_id
 _symmetry_equiv_pos_as_xyz
  1  'x, y, z'
loop_
 _atom_site_type_symbol
 _atom_site_label
 _atom_site_symmetry_multiplicity
 _atom_site_fract_x
 _atom_site_fract_y
 _atom_site_fract_z
 _atom_site_occupancy
  Ti  Ti0  1  0.398583  0.404483  0.500000  1
  Ti  Ti1  1  0.601417  0.005900  0.500000  1
  Ti  Ti2  1  0.000000  0.593172  0.500000  1
  Be  Be3  1  0.000000  0.993818  0.500000  1
  Re  Re4  1  0.000000  0.248586  0.000000  1
  P  P5  1  0.665434  0.335064  0.000000  1
  P  P6  1  0.334566  0.669631  0.000000  1
  Ru  Ru7  1  0.251826  0.000586  0.000000  1
  Ru  Ru8  1  0.748174  0.748760  0.000000  1
