# generated using pymatgen
data_LuPu4(GeB4)2
_symmetry_space_group_name_H-M   'P 1'
_cell_length_a   7.22160200
_cell_length_b   7.22160200
_cell_length_c   8.12529100
_cell_angle_alpha   90.00000000
_cell_angle_beta   90.00000000
_cell_angle_gamma   90.00000000
_symmetry_Int_Tables_number   1
_chemical_formula_structural   LuPu4(GeB4)2
_chemical_formula_sum   'Lu2 Pu8 Ge4 B16'
_cell_volume   423.74640160
_cell_formula_units_Z   2
loop_
 _symmetry_equiv_pos_site_id
 _symmetry_equiv_pos_as_xyz
  1  'x, y, z'
loop_
 _atom_site_type_symbol
 _atom_site_label
 _atom_site_symmetry_multiplicity
 _atom_site_fract_x
 _atom_site_fract_y
 _atom_site_fract_z
 _atom_site_occupancy
  Lu  Lu0  1  0.000000  0.000000  0.500000  1
  Lu  Lu1  1  0.500000  0.500000  0.500000  1
  Pu  Pu2  1  0.682003  0.182003  0.225419  1
  Pu  Pu3  1  0.317997  0.817997  0.774581  1
  Pu  Pu4  1  0.317997  0.817997  0.225419  1
  Pu  Pu5  1  0.817997  0.682003  0.225419  1
  Pu  Pu6  1  0.817997  0.682003  0.774581  1
  Pu  Pu7  1  0.682003  0.182003  0.774581  1
  Pu  Pu8  1  0.182003  0.317997  0.774581  1
  Pu  Pu9  1  0.182003  0.317997  0.225419  1
  Ge  Ge10  1  0.121015  0.621015  0.500000  1
  Ge  Ge11  1  0.878985  0.378985  0.500000  1
  Ge  Ge12  1  0.378985  0.121015  0.500000  1
  Ge  Ge13  1  0.621015  0.878985  0.500000  1
  B  B14  1  0.172980  0.040644  0.000000  1
  B  B15  1  0.827020  0.959356  0.000000  1
  B  B16  1  0.959356  0.172980  0.000000  1
  B  B17  1  0.327020  0.540644  0.000000  1
  B  B18  1  0.040644  0.827020  0.000000  1
  B  B19  1  0.672980  0.459356  0.000000  1
  B  B20  1  0.540644  0.672980  0.000000  1
  B  B21  1  0.459356  0.327020  0.000000  1
  B  B22  1  0.090512  0.590512  0.000000  1
  B  B23  1  0.909488  0.409488  0.000000  1
  B  B24  1  0.409488  0.090512  0.000000  1
  B  B25  1  0.590512  0.909488  0.000000  1
  B  B26  1  0.000000  0.000000  0.161830  1
  B  B27  1  0.000000  0.000000  0.838170  1
  B  B28  1  0.500000  0.500000  0.838170  1
  B  B29  1  0.500000  0.500000  0.161830  1
