# generated using pymatgen
data_Ca3La16DySn16
_symmetry_space_group_name_H-M   'P 1'
_cell_length_a   8.39655344
_cell_length_b   8.56914156
_cell_length_c   16.36361000
_cell_angle_alpha   90.00000000
_cell_angle_beta   90.00000000
_cell_angle_gamma   89.86955457
_symmetry_Int_Tables_number   1
_chemical_formula_structural   Ca3La16DySn16
_chemical_formula_sum   'Ca3 La16 Dy1 Sn16'
_cell_volume   1177.37922410
_cell_formula_units_Z   1
loop_
 _symmetry_equiv_pos_site_id
 _symmetry_equiv_pos_as_xyz
  1  'x, y, z'
loop_
 _atom_site_type_symbol
 _atom_site_label
 _atom_site_symmetry_multiplicity
 _atom_site_fract_x
 _atom_site_fract_y
 _atom_site_fract_z
 _atom_site_occupancy
  Ca  Ca0  1  0.199543  0.501561  0.750000  1
  Ca  Ca1  1  0.699561  0.998693  0.750000  1
  Ca  Ca2  1  0.799671  0.498646  0.250000  1
  La  La3  1  0.370117  0.838690  0.881784  1
  La  La4  1  0.869917  0.663137  0.619219  1
  La  La5  1  0.632236  0.163038  0.380007  1
  La  La6  1  0.130463  0.338528  0.119806  1
  La  La7  1  0.632236  0.163038  0.119993  1
  La  La8  1  0.130463  0.338528  0.380194  1
  La  La9  1  0.370117  0.838690  0.618216  1
  La  La10  1  0.869917  0.663137  0.880781  1
  La  La11  1  0.516900  0.316663  0.903094  1
  La  La12  1  0.016340  0.183914  0.596684  1
  La  La13  1  0.482307  0.681427  0.402421  1
  La  La14  1  0.981505  0.816976  0.098210  1
  La  La15  1  0.482307  0.681427  0.097579  1
  La  La16  1  0.981505  0.816976  0.401790  1
  La  La17  1  0.516900  0.316663  0.596906  1
  La  La18  1  0.016340  0.183914  0.903316  1
  Dy  Dy19  1  0.300684  0.000049  0.250000  1
  Sn  Sn20  1  0.291286  0.032809  0.045681  1
  Sn  Sn21  1  0.791264  0.464740  0.458401  1
  Sn  Sn22  1  0.709938  0.966105  0.542389  1
  Sn  Sn23  1  0.208860  0.534897  0.957748  1
  Sn  Sn24  1  0.709938  0.966105  0.957611  1
  Sn  Sn25  1  0.208860  0.534897  0.542252  1
  Sn  Sn26  1  0.291286  0.032809  0.454319  1
  Sn  Sn27  1  0.791264  0.464740  0.041599  1
  Sn  Sn28  1  0.568043  0.606577  0.750000  1
  Sn  Sn29  1  0.069208  0.892180  0.750000  1
  Sn  Sn30  1  0.430578  0.385431  0.250000  1
  Sn  Sn31  1  0.936717  0.107207  0.250000  1
  Sn  Sn32  1  0.319565  0.139909  0.750000  1
  Sn  Sn33  1  0.819146  0.360358  0.750000  1
  Sn  Sn34  1  0.672455  0.860182  0.250000  1
  Sn  Sn35  1  0.182560  0.647356  0.250000  1
