# generated using pymatgen
data_Ho4CoHg
_symmetry_space_group_name_H-M   'P 1'
_cell_length_a   9.42903625
_cell_length_b   9.42903540
_cell_length_c   9.42903600
_cell_angle_alpha   59.99999788
_cell_angle_beta   60.00000088
_cell_angle_gamma   59.99999961
_symmetry_Int_Tables_number   1
_chemical_formula_structural   Ho4CoHg
_chemical_formula_sum   'Ho16 Co4 Hg4'
_cell_volume   592.77088218
_cell_formula_units_Z   4
loop_
 _symmetry_equiv_pos_site_id
 _symmetry_equiv_pos_as_xyz
  1  'x, y, z'
loop_
 _atom_site_type_symbol
 _atom_site_label
 _atom_site_symmetry_multiplicity
 _atom_site_fract_x
 _atom_site_fract_y
 _atom_site_fract_z
 _atom_site_occupancy
  Ho  Ho0  1  0.938019  0.938019  0.561981  1
  Ho  Ho1  1  0.811653  0.188347  0.188347  1
  Ho  Ho2  1  0.938019  0.561981  0.561981  1
  Ho  Ho3  1  0.938019  0.561981  0.938019  1
  Ho  Ho4  1  0.811653  0.811653  0.188347  1
  Ho  Ho5  1  0.347638  0.347638  0.347638  1
  Ho  Ho6  1  0.561981  0.938019  0.938019  1
  Ho  Ho7  1  0.561981  0.938019  0.561981  1
  Ho  Ho8  1  0.188347  0.811653  0.811653  1
  Ho  Ho9  1  0.188347  0.188347  0.811653  1
  Ho  Ho10  1  0.347638  0.347638  0.957086  1
  Ho  Ho11  1  0.347638  0.957086  0.347638  1
  Ho  Ho12  1  0.811653  0.188347  0.811653  1
  Ho  Ho13  1  0.561981  0.561981  0.938019  1
  Ho  Ho14  1  0.188347  0.811653  0.188347  1
  Ho  Ho15  1  0.957086  0.347638  0.347638  1
  Co  Co16  1  0.576572  0.141143  0.141143  1
  Co  Co17  1  0.141143  0.141143  0.141143  1
  Co  Co18  1  0.141143  0.576572  0.141143  1
  Co  Co19  1  0.141143  0.141143  0.576572  1
  Hg  Hg20  1  0.583641  0.583641  0.249078  1
  Hg  Hg21  1  0.249078  0.583641  0.583641  1
  Hg  Hg22  1  0.583641  0.583641  0.583641  1
  Hg  Hg23  1  0.583641  0.249078  0.583641  1
