# generated using pymatgen
data_RuSeF9
_symmetry_space_group_name_H-M   'P 1'
_cell_length_a   8.91278715
_cell_length_b   8.91278641
_cell_length_c   8.91278700
_cell_angle_alpha   93.27253811
_cell_angle_beta   93.27253784
_cell_angle_gamma   93.27253760
_symmetry_Int_Tables_number   1
_chemical_formula_structural   RuSeF9
_chemical_formula_sum   'Ru4 Se4 F36'
_cell_volume   704.41017980
_cell_formula_units_Z   4
loop_
 _symmetry_equiv_pos_site_id
 _symmetry_equiv_pos_as_xyz
  1  'x, y, z'
loop_
 _atom_site_type_symbol
 _atom_site_label
 _atom_site_symmetry_multiplicity
 _atom_site_fract_x
 _atom_site_fract_y
 _atom_site_fract_z
 _atom_site_occupancy
  Ru  Ru0  1  0.002059  0.786639  0.330664  1
  Ru  Ru1  1  0.330664  0.002059  0.786639  1
  Ru  Ru2  1  0.786639  0.330664  0.002059  1
  Ru  Ru3  1  0.394562  0.394562  0.394562  1
  Se  Se4  1  0.456672  0.934115  0.249313  1
  Se  Se5  1  0.249313  0.456672  0.934115  1
  Se  Se6  1  0.934115  0.249313  0.456672  1
  Se  Se7  1  0.872662  0.872662  0.872662  1
  F  F8  1  0.902153  0.432923  0.512473  1
  F  F9  1  0.432923  0.512473  0.902153  1
  F  F10  1  0.512473  0.902153  0.432923  1
  F  F11  1  0.826964  0.122785  0.947156  1
  F  F12  1  0.122785  0.947156  0.826964  1
  F  F13  1  0.947156  0.826964  0.122785  1
  F  F14  1  0.847159  0.291487  0.208326  1
  F  F15  1  0.291487  0.208326  0.847159  1
  F  F16  1  0.452323  0.355531  0.591759  1
  F  F17  1  0.591759  0.452323  0.355531  1
  F  F18  1  0.355531  0.591759  0.452323  1
  F  F19  1  0.426124  0.186796  0.329802  1
  F  F20  1  0.329802  0.426124  0.186796  1
  F  F21  1  0.186796  0.329802  0.426124  1
  F  F22  1  0.801265  0.737670  0.363373  1
  F  F23  1  0.363373  0.801265  0.737670  1
  F  F24  1  0.737670  0.363373  0.801265  1
  F  F25  1  0.035651  0.588256  0.270675  1
  F  F26  1  0.270675  0.035651  0.588256  1
  F  F27  1  0.588256  0.270675  0.035651  1
  F  F28  1  0.481813  0.751046  0.184561  1
  F  F29  1  0.184561  0.481813  0.751046  1
  F  F30  1  0.751046  0.184561  0.481813  1
  F  F31  1  0.636235  0.996348  0.206724  1
  F  F32  1  0.206724  0.636235  0.996348  1
  F  F33  1  0.996348  0.206724  0.636235  1
  F  F34  1  0.060299  0.756099  0.529856  1
  F  F35  1  0.529856  0.060299  0.756099  1
  F  F36  1  0.756099  0.529856  0.060299  1
  F  F37  1  0.972060  0.997441  0.382631  1
  F  F38  1  0.382631  0.972060  0.997441  1
  F  F39  1  0.997441  0.382631  0.972060  1
  F  F40  1  0.913978  0.690513  0.819157  1
  F  F41  1  0.819157  0.913978  0.690513  1
  F  F42  1  0.690513  0.819157  0.913978  1
  F  F43  1  0.208326  0.847159  0.291487  1
