# generated using pymatgen
data_Y3Hf(P3Pd4)2
_symmetry_space_group_name_H-M   'P 1'
_cell_length_a   3.99865400
_cell_length_b   11.41420100
_cell_length_c   13.28956600
_cell_angle_alpha   90.00000000
_cell_angle_beta   90.00000000
_cell_angle_gamma   90.00000000
_symmetry_Int_Tables_number   1
_chemical_formula_structural   Y3Hf(P3Pd4)2
_chemical_formula_sum   'Y6 Hf2 P12 Pd16'
_cell_volume   606.55493567
_cell_formula_units_Z   2
loop_
 _symmetry_equiv_pos_site_id
 _symmetry_equiv_pos_as_xyz
  1  'x, y, z'
loop_
 _atom_site_type_symbol
 _atom_site_label
 _atom_site_symmetry_multiplicity
 _atom_site_fract_x
 _atom_site_fract_y
 _atom_site_fract_z
 _atom_site_occupancy
  Y  Y0  1  0.000000  0.500000  0.521792  1
  Y  Y1  1  0.500000  0.000000  0.478208  1
  Y  Y2  1  0.500000  0.816610  0.204806  1
  Y  Y3  1  0.500000  0.183390  0.204806  1
  Y  Y4  1  0.000000  0.683390  0.795194  1
  Y  Y5  1  0.000000  0.316610  0.795194  1
  Hf  Hf6  1  0.500000  0.500000  0.155685  1
  Hf  Hf7  1  0.000000  0.000000  0.844315  1
  P  P8  1  0.500000  0.500000  0.871857  1
  P  P9  1  0.000000  0.000000  0.128143  1
  P  P10  1  0.500000  0.500000  0.355130  1
  P  P11  1  0.000000  0.000000  0.644870  1
  P  P12  1  0.500000  0.318784  0.616492  1
  P  P13  1  0.500000  0.681216  0.616492  1
  P  P14  1  0.000000  0.181216  0.383508  1
  P  P15  1  0.000000  0.818784  0.383508  1
  P  P16  1  0.500000  0.845606  0.883953  1
  P  P17  1  0.500000  0.154394  0.883953  1
  P  P18  1  0.000000  0.654394  0.116047  1
  P  P19  1  0.000000  0.345606  0.116047  1
  Pd  Pd20  1  0.500000  0.500000  0.698504  1
  Pd  Pd21  1  0.000000  0.000000  0.301496  1
  Pd  Pd22  1  0.000000  0.500000  0.983568  1
  Pd  Pd23  1  0.500000  0.000000  0.016432  1
  Pd  Pd24  1  0.500000  0.331590  0.975668  1
  Pd  Pd25  1  0.500000  0.668410  0.975668  1
  Pd  Pd26  1  0.000000  0.168410  0.024332  1
  Pd  Pd27  1  0.000000  0.831590  0.024332  1
  Pd  Pd28  1  0.500000  0.302441  0.434216  1
  Pd  Pd29  1  0.500000  0.697559  0.434216  1
  Pd  Pd30  1  0.000000  0.197559  0.565784  1
  Pd  Pd31  1  0.000000  0.802441  0.565784  1
  Pd  Pd32  1  0.500000  0.873627  0.705383  1
  Pd  Pd33  1  0.500000  0.126373  0.705383  1
  Pd  Pd34  1  0.000000  0.626373  0.294617  1
  Pd  Pd35  1  0.000000  0.373627  0.294617  1
