# generated using pymatgen
data_Y8Cd2CoIr
_symmetry_space_group_name_H-M   'P 1'
_cell_length_a   9.66543111
_cell_length_b   9.61778130
_cell_length_c   9.61778411
_cell_angle_alpha   59.72695338
_cell_angle_beta   59.83596922
_cell_angle_gamma   59.83600102
_symmetry_Int_Tables_number   1
_chemical_formula_structural   Y8Cd2CoIr
_chemical_formula_sum   'Y16 Cd4 Co2 Ir2'
_cell_volume   629.32542919
_cell_formula_units_Z   2
loop_
 _symmetry_equiv_pos_site_id
 _symmetry_equiv_pos_as_xyz
  1  'x, y, z'
loop_
 _atom_site_type_symbol
 _atom_site_label
 _atom_site_symmetry_multiplicity
 _atom_site_fract_x
 _atom_site_fract_y
 _atom_site_fract_z
 _atom_site_occupancy
  Y  Y0  1  0.441155  0.437417  0.055376  1
  Y  Y1  1  0.590412  0.599770  0.599771  1
  Y  Y2  1  0.186375  0.813625  0.813625  1
  Y  Y3  1  0.066052  0.055376  0.437417  1
  Y  Y4  1  0.439261  0.060739  0.060739  1
  Y  Y5  1  0.813534  0.188815  0.810760  1
  Y  Y6  1  0.441156  0.055376  0.437417  1
  Y  Y7  1  0.594766  0.205505  0.604965  1
  Y  Y8  1  0.813534  0.810760  0.188813  1
  Y  Y9  1  0.210045  0.599771  0.599770  1
  Y  Y10  1  0.810237  0.189763  0.189763  1
  Y  Y11  1  0.060366  0.439634  0.439634  1
  Y  Y12  1  0.186891  0.810760  0.188815  1
  Y  Y13  1  0.594764  0.604965  0.205505  1
  Y  Y14  1  0.186893  0.188813  0.810760  1
  Y  Y15  1  0.066051  0.437417  0.055376  1
  Cd  Cd16  1  0.831288  0.829532  0.507892  1
  Cd  Cd17  1  0.831676  0.829811  0.829811  1
  Cd  Cd18  1  0.508700  0.829811  0.829811  1
  Cd  Cd19  1  0.831288  0.507892  0.829532  1
  Co  Co20  1  0.389670  0.828284  0.392377  1
  Co  Co21  1  0.389670  0.392377  0.828284  1
  Ir  Ir22  1  0.390883  0.391893  0.391893  1
  Ir  Ir23  1  0.825332  0.391893  0.391893  1
