# generated using pymatgen
data_AcFeH5
_symmetry_space_group_name_H-M   'P 1'
_cell_length_a   4.60600800
_cell_length_b   4.91300900
_cell_length_c   12.24663600
_cell_angle_alpha   90.00000000
_cell_angle_beta   90.00000000
_cell_angle_gamma   90.00000000
_symmetry_Int_Tables_number   1
_chemical_formula_structural   AcFeH5
_chemical_formula_sum   'Ac4 Fe4 H20'
_cell_volume   277.13351962
_cell_formula_units_Z   4
loop_
 _symmetry_equiv_pos_site_id
 _symmetry_equiv_pos_as_xyz
  1  'x, y, z'
loop_
 _atom_site_type_symbol
 _atom_site_label
 _atom_site_symmetry_multiplicity
 _atom_site_fract_x
 _atom_site_fract_y
 _atom_site_fract_z
 _atom_site_occupancy
  Ac  Ac0  1  0.267658  0.165135  0.646518  1
  Ac  Ac1  1  0.767658  0.334865  0.353482  1
  Ac  Ac2  1  0.232342  0.834865  0.146518  1
  Ac  Ac3  1  0.732342  0.665135  0.853482  1
  Fe  Fe4  1  0.321377  0.169756  0.914397  1
  Fe  Fe5  1  0.821377  0.330244  0.085603  1
  Fe  Fe6  1  0.178623  0.830244  0.414397  1
  Fe  Fe7  1  0.678623  0.669756  0.585603  1
  H  H8  1  0.550588  0.422546  0.523073  1
  H  H9  1  0.050588  0.077454  0.476927  1
  H  H10  1  0.949412  0.577454  0.023073  1
  H  H11  1  0.449412  0.922546  0.976927  1
  H  H12  1  0.181996  0.955557  0.833020  1
  H  H13  1  0.681996  0.544443  0.166980  1
  H  H14  1  0.318004  0.044443  0.333020  1
  H  H15  1  0.818004  0.455557  0.666980  1
  H  H16  1  0.219325  0.425669  0.839226  1
  H  H17  1  0.719325  0.074331  0.160774  1
  H  H18  1  0.280675  0.574331  0.339226  1
  H  H19  1  0.780675  0.925669  0.660774  1
  H  H20  1  0.591739  0.160509  0.834917  1
  H  H21  1  0.091739  0.339491  0.165083  1
  H  H22  1  0.908261  0.839491  0.334917  1
  H  H23  1  0.408261  0.660509  0.665083  1
  H  H24  1  0.005646  0.128772  0.992843  1
  H  H25  1  0.505646  0.371228  0.007157  1
  H  H26  1  0.494354  0.871228  0.492843  1
  H  H27  1  0.994354  0.628772  0.507157  1
