# generated using pymatgen
data_Yb6TiAl23Os8
_symmetry_space_group_name_H-M   'P 1'
_cell_length_a   8.86087200
_cell_length_b   8.86087265
_cell_length_c   9.64220500
_cell_angle_alpha   90.00000000
_cell_angle_beta   90.00000000
_cell_angle_gamma   119.99999758
_symmetry_Int_Tables_number   1
_chemical_formula_structural   Yb6TiAl23Os8
_chemical_formula_sum   'Yb6 Ti1 Al23 Os8'
_cell_volume   655.63172565
_cell_formula_units_Z   1
loop_
 _symmetry_equiv_pos_site_id
 _symmetry_equiv_pos_as_xyz
  1  'x, y, z'
loop_
 _atom_site_type_symbol
 _atom_site_label
 _atom_site_symmetry_multiplicity
 _atom_site_fract_x
 _atom_site_fract_y
 _atom_site_fract_z
 _atom_site_occupancy
  Yb  Yb0  1  0.193752  0.387503  0.248657  1
  Yb  Yb1  1  0.805699  0.611397  0.747730  1
  Yb  Yb2  1  0.612497  0.806248  0.248657  1
  Yb  Yb3  1  0.388603  0.194301  0.747730  1
  Yb  Yb4  1  0.193752  0.806248  0.248657  1
  Yb  Yb5  1  0.805699  0.194301  0.747730  1
  Ti  Ti6  1  0.333333  0.666667  0.984193  1
  Al  Al7  1  0.666667  0.333333  0.004654  1
  Al  Al8  1  0.666667  0.333333  0.504246  1
  Al  Al9  1  0.333333  0.666667  0.489576  1
  Al  Al10  1  0.162463  0.324927  0.568930  1
  Al  Al11  1  0.837899  0.675798  0.423530  1
  Al  Al12  1  0.675073  0.837537  0.568930  1
  Al  Al13  1  0.838349  0.676698  0.079135  1
  Al  Al14  1  0.324202  0.162101  0.423530  1
  Al  Al15  1  0.159271  0.318543  0.930295  1
  Al  Al16  1  0.162463  0.837537  0.568930  1
  Al  Al17  1  0.323302  0.161651  0.079135  1
  Al  Al18  1  0.837899  0.162101  0.423530  1
  Al  Al19  1  0.681457  0.840729  0.930295  1
  Al  Al20  1  0.838349  0.161651  0.079135  1
  Al  Al21  1  0.159271  0.840729  0.930295  1
  Al  Al22  1  0.561318  0.122637  0.251876  1
  Al  Al23  1  0.440671  0.881342  0.749753  1
  Al  Al24  1  0.877363  0.438682  0.251876  1
  Al  Al25  1  0.118658  0.559329  0.749753  1
  Al  Al26  1  0.561318  0.438682  0.251876  1
  Al  Al27  1  0.440671  0.559329  0.749753  1
  Al  Al28  1  0.000000  0.000000  0.251841  1
  Al  Al29  1  0.000000  0.000000  0.751911  1
  Os  Os30  1  0.498853  0.997707  0.000665  1
  Os  Os31  1  0.002293  0.501147  0.000665  1
  Os  Os32  1  0.499785  0.999569  0.502667  1
  Os  Os33  1  0.498853  0.501147  0.000665  1
  Os  Os34  1  0.000431  0.500215  0.502667  1
  Os  Os35  1  0.499785  0.500215  0.502667  1
  Os  Os36  1  0.000000  0.000000  0.001315  1
  Os  Os37  1  0.000000  0.000000  0.502555  1
