# generated using pymatgen
data_Er3In4RuAu
_symmetry_space_group_name_H-M   'P 1'
_cell_length_a   8.03824200
_cell_length_b   8.03824133
_cell_length_c   3.69915300
_cell_angle_alpha   90.00000000
_cell_angle_beta   90.00000000
_cell_angle_gamma   120.00000276
_symmetry_Int_Tables_number   1
_chemical_formula_structural   Er3In4RuAu
_chemical_formula_sum   'Er3 In4 Ru1 Au1'
_cell_volume   206.99270110
_cell_formula_units_Z   1
loop_
 _symmetry_equiv_pos_site_id
 _symmetry_equiv_pos_as_xyz
  1  'x, y, z'
loop_
 _atom_site_type_symbol
 _atom_site_label
 _atom_site_symmetry_multiplicity
 _atom_site_fract_x
 _atom_site_fract_y
 _atom_site_fract_z
 _atom_site_occupancy
  Er  Er0  1  0.707495  0.957931  0.500000  1
  Er  Er1  1  0.250436  0.292505  0.500000  1
  Er  Er2  1  0.042069  0.749564  0.500000  1
  In  In3  1  0.938379  0.333959  0.000000  1
  In  In4  1  0.395581  0.061621  0.000000  1
  In  In5  1  0.666041  0.604419  0.000000  1
  In  In6  1  0.333333  0.666667  0.000000  1
  Ru  Ru7  1  0.000000  0.000000  0.000000  1
  Au  Au8  1  0.666667  0.333333  0.500000  1
