# generated using pymatgen
data_HoEr(Co3P2)2
_symmetry_space_group_name_H-M   'P 1'
_cell_length_a   10.48851612
_cell_length_b   3.68030500
_cell_length_c   12.13682614
_cell_angle_alpha   90.00000000
_cell_angle_beta   90.01749376
_cell_angle_gamma   90.00000000
_symmetry_Int_Tables_number   1
_chemical_formula_structural   HoEr(Co3P2)2
_chemical_formula_sum   'Ho3 Er3 Co18 P12'
_cell_volume   468.49285554
_cell_formula_units_Z   3
loop_
 _symmetry_equiv_pos_site_id
 _symmetry_equiv_pos_as_xyz
  1  'x, y, z'
loop_
 _atom_site_type_symbol
 _atom_site_label
 _atom_site_symmetry_multiplicity
 _atom_site_fract_x
 _atom_site_fract_y
 _atom_site_fract_z
 _atom_site_occupancy
  Ho  Ho0  1  0.067862  0.750000  0.205981  1
  Ho  Ho1  1  0.250049  0.750000  0.477963  1
  Ho  Ho2  1  0.750005  0.250000  0.522277  1
  Er  Er3  1  0.432157  0.750000  0.205905  1
  Er  Er4  1  0.567798  0.250000  0.794024  1
  Er  Er5  1  0.932142  0.250000  0.794160  1
  Co  Co6  1  0.083338  0.250000  0.005073  1
  Co  Co7  1  0.416791  0.250000  0.005241  1
  Co  Co8  1  0.250176  0.750000  0.013559  1
  Co  Co9  1  0.749906  0.750000  0.158782  1
  Co  Co10  1  0.628832  0.250000  0.290228  1
  Co  Co11  1  0.870877  0.250000  0.290384  1
  Co  Co12  1  0.250243  0.250000  0.296575  1
  Co  Co13  1  0.547566  0.750000  0.430539  1
  Co  Co14  1  0.952443  0.750000  0.430866  1
  Co  Co15  1  0.047620  0.250000  0.569785  1
  Co  Co16  1  0.452476  0.250000  0.569507  1
  Co  Co17  1  0.749946  0.750000  0.703386  1
  Co  Co18  1  0.128908  0.750000  0.709952  1
  Co  Co19  1  0.371125  0.750000  0.709745  1
  Co  Co20  1  0.250182  0.250000  0.841077  1
  Co  Co21  1  0.749670  0.250000  0.985952  1
  Co  Co22  1  0.583345  0.750000  0.994528  1
  Co  Co23  1  0.916555  0.750000  0.994398  1
  P  P24  1  0.596989  0.250000  0.107262  1
  P  P25  1  0.902762  0.250000  0.107160  1
  P  P26  1  0.250293  0.250000  0.117490  1
  P  P27  1  0.750042  0.750000  0.344158  1
  P  P28  1  0.061058  0.250000  0.384050  1
  P  P29  1  0.438955  0.250000  0.383629  1
  P  P30  1  0.561068  0.750000  0.616408  1
  P  P31  1  0.938925  0.750000  0.616615  1
  P  P32  1  0.250023  0.250000  0.655891  1
  P  P33  1  0.749873  0.750000  0.882205  1
  P  P34  1  0.096928  0.750000  0.892704  1
  P  P35  1  0.403070  0.750000  0.892545  1
