# generated using pymatgen
data_NbP2HO8
_symmetry_space_group_name_H-M   'P 1'
_cell_length_a   5.19588559
_cell_length_b   5.19356591
_cell_length_c   7.97215368
_cell_angle_alpha   110.59210194
_cell_angle_beta   110.56415716
_cell_angle_gamma   61.83192850
_symmetry_Int_Tables_number   1
_chemical_formula_structural   NbP2HO8
_chemical_formula_sum   'Nb1 P2 H1 O8'
_cell_volume   173.00445508
_cell_formula_units_Z   1
loop_
 _symmetry_equiv_pos_site_id
 _symmetry_equiv_pos_as_xyz
  1  'x, y, z'
loop_
 _atom_site_type_symbol
 _atom_site_label
 _atom_site_symmetry_multiplicity
 _atom_site_fract_x
 _atom_site_fract_y
 _atom_site_fract_z
 _atom_site_occupancy
  Nb  Nb0  1  0.000000  0.000000  0.000000  1
  P  P1  1  0.738292  0.738454  0.230982  1
  P  P2  1  0.261706  0.261546  0.769018  1
  H  H3  1  0.000000  0.000000  0.500000  1
  O  O4  1  0.832529  0.832578  0.102941  1
  O  O5  1  0.390850  0.858187  0.179225  1
  O  O6  1  0.858577  0.390838  0.179469  1
  O  O7  1  0.852191  0.853154  0.431910  1
  O  O8  1  0.147809  0.146846  0.568090  1
  O  O9  1  0.141423  0.609160  0.820531  1
  O  O10  1  0.609152  0.141812  0.820775  1
  O  O11  1  0.167471  0.167423  0.897059  1
