# generated using pymatgen
data_NaCa12(SnN)3
_symmetry_space_group_name_H-M   'P 1'
_cell_length_a   4.97989200
_cell_length_b   4.97989200
_cell_length_c   20.29925800
_cell_angle_alpha   90.00000000
_cell_angle_beta   90.00000000
_cell_angle_gamma   90.00000000
_symmetry_Int_Tables_number   1
_chemical_formula_structural   NaCa12(SnN)3
_chemical_formula_sum   'Na1 Ca12 Sn3 N3'
_cell_volume   503.40788283
_cell_formula_units_Z   1
loop_
 _symmetry_equiv_pos_site_id
 _symmetry_equiv_pos_as_xyz
  1  'x, y, z'
loop_
 _atom_site_type_symbol
 _atom_site_label
 _atom_site_symmetry_multiplicity
 _atom_site_fract_x
 _atom_site_fract_y
 _atom_site_fract_z
 _atom_site_occupancy
  Na  Na0  1  0.000000  0.000000  0.878660  1
  Ca  Ca1  1  0.500000  0.500000  0.859229  1
  Ca  Ca2  1  0.500000  0.500000  0.144748  1
  Ca  Ca3  1  0.500000  0.500000  0.379030  1
  Ca  Ca4  1  0.500000  0.500000  0.612699  1
  Ca  Ca5  1  0.500000  0.000000  0.015123  1
  Ca  Ca6  1  0.500000  0.000000  0.260105  1
  Ca  Ca7  1  0.500000  0.000000  0.497118  1
  Ca  Ca8  1  0.500000  0.000000  0.730200  1
  Ca  Ca9  1  0.000000  0.500000  0.015123  1
  Ca  Ca10  1  0.000000  0.500000  0.260105  1
  Ca  Ca11  1  0.000000  0.500000  0.497118  1
  Ca  Ca12  1  0.000000  0.500000  0.730200  1
  Sn  Sn13  1  0.000000  0.000000  0.122070  1
  Sn  Sn14  1  0.000000  0.000000  0.376250  1
  Sn  Sn15  1  0.000000  0.000000  0.620925  1
  N  N16  1  0.500000  0.500000  0.255283  1
  N  N17  1  0.500000  0.500000  0.497915  1
  N  N18  1  0.500000  0.500000  0.748098  1
