# generated using pymatgen
data_CeTm6CoI12
_symmetry_space_group_name_H-M   'P 1'
_cell_length_a   9.69616114
_cell_length_b   9.69616164
_cell_length_c   9.69616225
_cell_angle_alpha   106.13677674
_cell_angle_beta   106.13678564
_cell_angle_gamma   106.13679294
_symmetry_Int_Tables_number   1
_chemical_formula_structural   CeTm6CoI12
_chemical_formula_sum   'Ce1 Tm6 Co1 I12'
_cell_volume   776.36444568
_cell_formula_units_Z   1
loop_
 _symmetry_equiv_pos_site_id
 _symmetry_equiv_pos_as_xyz
  1  'x, y, z'
loop_
 _atom_site_type_symbol
 _atom_site_label
 _atom_site_symmetry_multiplicity
 _atom_site_fract_x
 _atom_site_fract_y
 _atom_site_fract_z
 _atom_site_occupancy
  Ce  Ce0  1  0.997932  0.997932  0.997932  1
  Tm  Tm1  1  0.515041  0.586047  0.778887  1
  Tm  Tm2  1  0.778887  0.515041  0.586047  1
  Tm  Tm3  1  0.586047  0.778887  0.515041  1
  Tm  Tm4  1  0.482808  0.411744  0.219143  1
  Tm  Tm5  1  0.219143  0.482808  0.411744  1
  Tm  Tm6  1  0.411744  0.219143  0.482808  1
  Co  Co7  1  0.499076  0.499076  0.499076  1
  I  I8  1  0.277099  0.823880  0.426379  1
  I  I9  1  0.426379  0.277099  0.823880  1
  I  I10  1  0.823880  0.426379  0.277099  1
  I  I11  1  0.721103  0.174260  0.571233  1
  I  I12  1  0.571233  0.721103  0.174260  1
  I  I13  1  0.174260  0.571233  0.721103  1
  I  I14  1  0.047523  0.125695  0.354796  1
  I  I15  1  0.354796  0.047523  0.125695  1
  I  I16  1  0.125695  0.354796  0.047523  1
  I  I17  1  0.949585  0.871800  0.641339  1
  I  I18  1  0.641339  0.949585  0.871800  1
  I  I19  1  0.871800  0.641339  0.949585  1
