# generated using pymatgen
data_Er(HfH5)3
_symmetry_space_group_name_H-M   'P 1'
_cell_length_a   7.00522702
_cell_length_b   7.02054068
_cell_length_c   7.05517216
_cell_angle_alpha   109.53883081
_cell_angle_beta   109.45118381
_cell_angle_gamma   109.17932954
_symmetry_Int_Tables_number   1
_chemical_formula_structural   Er(HfH5)3
_chemical_formula_sum   'Er2 Hf6 H30'
_cell_volume   267.90302895
_cell_formula_units_Z   2
loop_
 _symmetry_equiv_pos_site_id
 _symmetry_equiv_pos_as_xyz
  1  'x, y, z'
loop_
 _atom_site_type_symbol
 _atom_site_label
 _atom_site_symmetry_multiplicity
 _atom_site_fract_x
 _atom_site_fract_y
 _atom_site_fract_z
 _atom_site_occupancy
  Er  Er0  1  0.909479  0.908389  0.907770  1
  Er  Er1  1  0.501709  0.000619  0.092230  1
  Hf  Hf2  1  0.004218  0.107971  0.504436  1
  Hf  Hf3  1  0.105136  0.497953  0.001005  1
  Hf  Hf4  1  0.999782  0.603535  0.495564  1
  Hf  Hf5  1  0.604131  0.496949  0.998995  1
  Hf  Hf6  1  0.498268  0.000362  0.594466  1
  Hf  Hf7  1  0.403802  0.405896  0.405534  1
  H  H8  1  0.665474  0.975988  0.399185  1
  H  H9  1  0.224424  0.304217  0.846636  1
  H  H10  1  0.194174  0.423724  0.540041  1
  H  H11  1  0.089199  0.286828  0.126522  1
  H  H12  1  0.280909  0.136445  0.103123  1
  H  H13  1  0.127724  0.100043  0.291152  1
  H  H14  1  0.462677  0.160304  0.873478  1
  H  H15  1  0.723928  0.341285  0.810146  1
  H  H16  1  0.625744  0.382644  0.252353  1
  H  H17  1  0.240086  0.622525  0.368233  1
  H  H18  1  0.759726  0.871329  0.140284  1
  H  H19  1  0.119441  0.731045  0.859716  1
  H  H20  1  0.371851  0.254291  0.631767  1
  H  H21  1  0.873390  0.130290  0.747647  1
  H  H22  1  0.766290  0.576804  0.600815  1
  H  H23  1  0.304832  0.833855  0.227864  1
  H  H24  1  0.380862  0.639239  0.968621  1
  H  H25  1  0.973795  0.382908  0.659146  1
  H  H26  1  0.528859  0.195620  0.429223  1
  H  H27  1  0.413781  0.531138  0.189854  1
  H  H28  1  0.860751  0.236261  0.324972  1
  H  H29  1  0.912240  0.670619  0.031379  1
  H  H30  1  0.814649  0.723762  0.340854  1
  H  H31  1  0.154134  0.883683  0.459959  1
  H  H32  1  0.677785  0.033322  0.896877  1
  H  H33  1  0.336572  0.808891  0.708848  1
  H  H34  1  0.877788  0.457580  0.153364  1
  H  H35  1  0.599637  0.766399  0.570777  1
  H  H36  1  0.576967  0.605990  0.772136  1
  H  H37  1  0.035779  0.911288  0.675028  1
