# generated using pymatgen
data_HoEr7Mn(B8Os)3
_symmetry_space_group_name_H-M   'P 1'
_cell_length_a   3.61361000
_cell_length_b   9.09196229
_cell_length_c   11.46886101
_cell_angle_alpha   90.03277597
_cell_angle_beta   90.00000000
_cell_angle_gamma   90.00000000
_symmetry_Int_Tables_number   1
_chemical_formula_structural   HoEr7Mn(B8Os)3
_chemical_formula_sum   'Ho1 Er7 Mn1 B24 Os3'
_cell_volume   376.80713993
_cell_formula_units_Z   1
loop_
 _symmetry_equiv_pos_site_id
 _symmetry_equiv_pos_as_xyz
  1  'x, y, z'
loop_
 _atom_site_type_symbol
 _atom_site_label
 _atom_site_symmetry_multiplicity
 _atom_site_fract_x
 _atom_site_fract_y
 _atom_site_fract_z
 _atom_site_occupancy
  Ho  Ho0  1  0.000000  0.325183  0.412506  1
  Er  Er1  1  0.000000  0.676728  0.582034  1
  Er  Er2  1  0.000000  0.819867  0.088546  1
  Er  Er3  1  0.000000  0.178423  0.915073  1
  Er  Er4  1  0.000000  0.939589  0.371688  1
  Er  Er5  1  0.000000  0.056642  0.626960  1
  Er  Er6  1  0.000000  0.446051  0.130369  1
  Er  Er7  1  0.000000  0.556939  0.872599  1
  Mn  Mn8  1  0.000000  0.637352  0.321107  1
  B  B9  1  0.500000  0.553878  0.431789  1
  B  B10  1  0.500000  0.447199  0.566173  1
  B  B11  1  0.500000  0.053395  0.067045  1
  B  B12  1  0.500000  0.947030  0.933479  1
  B  B13  1  0.500000  0.745836  0.417850  1
  B  B14  1  0.500000  0.252052  0.579836  1
  B  B15  1  0.500000  0.249060  0.080850  1
  B  B16  1  0.500000  0.752054  0.920113  1
  B  B17  1  0.500000  0.789126  0.266535  1
  B  B18  1  0.500000  0.209073  0.733821  1
  B  B19  1  0.500000  0.291515  0.234293  1
  B  B20  1  0.500000  0.709147  0.765863  1
  B  B21  1  0.500000  0.631362  0.186975  1
  B  B22  1  0.500000  0.368986  0.814966  1
  B  B23  1  0.500000  0.130541  0.314551  1
  B  B24  1  0.500000  0.868620  0.684795  1
  B  B25  1  0.500000  0.981422  0.212834  1
  B  B26  1  0.500000  0.018014  0.787307  1
  B  B27  1  0.500000  0.484861  0.288242  1
  B  B28  1  0.500000  0.518007  0.712435  1
  B  B29  1  0.500000  0.606740  0.030075  1
  B  B30  1  0.500000  0.394100  0.971112  1
  B  B31  1  0.500000  0.105823  0.470033  1
  B  B32  1  0.500000  0.892800  0.529114  1
  Os  Os33  1  0.000000  0.362287  0.679292  1
  Os  Os34  1  0.000000  0.137314  0.178407  1
  Os  Os35  1  0.000000  0.862975  0.821337  1
