# generated using pymatgen
data_Er8Ti10ReSi16Pd
_symmetry_space_group_name_H-M   'P 1'
_cell_length_a   6.99882755
_cell_length_b   6.99542782
_cell_length_c   12.77839068
_cell_angle_alpha   90.18215122
_cell_angle_beta   89.83606283
_cell_angle_gamma   89.69458515
_symmetry_Int_Tables_number   1
_chemical_formula_structural   Er8Ti10ReSi16Pd
_chemical_formula_sum   'Er8 Ti10 Re1 Si16 Pd1'
_cell_volume   625.61272044
_cell_formula_units_Z   1
loop_
 _symmetry_equiv_pos_site_id
 _symmetry_equiv_pos_as_xyz
  1  'x, y, z'
loop_
 _atom_site_type_symbol
 _atom_site_label
 _atom_site_symmetry_multiplicity
 _atom_site_fract_x
 _atom_site_fract_y
 _atom_site_fract_z
 _atom_site_occupancy
  Er  Er0  1  0.340555  0.999323  0.465291  1
  Er  Er1  1  0.495886  0.841899  0.718204  1
  Er  Er2  1  0.501406  0.156993  0.216323  1
  Er  Er3  1  0.843318  0.498968  0.281337  1
  Er  Er4  1  0.156628  0.502125  0.784569  1
  Er  Er5  1  0.656559  0.000274  0.969642  1
  Er  Er6  1  0.002582  0.340145  0.531684  1
  Er  Er7  1  0.000946  0.657793  0.032489  1
  Ti  Ti8  1  0.825185  0.175091  0.751024  1
  Ti  Ti9  1  0.672264  0.672474  0.498594  1
  Ti  Ti10  1  0.147895  0.004879  0.878882  1
  Ti  Ti11  1  0.497860  0.654233  0.124008  1
  Ti  Ti12  1  0.505575  0.349702  0.626187  1
  Ti  Ti13  1  0.653890  0.495336  0.876657  1
  Ti  Ti14  1  0.349632  0.504113  0.373530  1
  Ti  Ti15  1  0.849385  0.990495  0.372848  1
  Ti  Ti16  1  0.006729  0.149530  0.124375  1
  Ti  Ti17  1  0.992582  0.849861  0.623857  1
  Re  Re18  1  0.173445  0.825899  0.249725  1
  Si  Si19  1  0.202305  0.132874  0.684620  1
  Si  Si20  1  0.372089  0.711312  0.931243  1
  Si  Si21  1  0.631957  0.293979  0.432373  1
  Si  Si22  1  0.712629  0.372340  0.069608  1
  Si  Si23  1  0.294050  0.630670  0.567038  1
  Si  Si24  1  0.800258  0.868472  0.181901  1
  Si  Si25  1  0.131837  0.199971  0.316338  1
  Si  Si26  1  0.865950  0.798461  0.816776  1
  Si  Si27  1  0.288294  0.943178  0.067640  1
  Si  Si28  1  0.545575  0.789632  0.314362  1
  Si  Si29  1  0.450407  0.209517  0.814418  1
  Si  Si30  1  0.791352  0.547870  0.684186  1
  Si  Si31  1  0.211632  0.454060  0.186287  1
  Si  Si32  1  0.707166  0.047635  0.564982  1
  Si  Si33  1  0.944054  0.288118  0.935175  1
  Si  Si34  1  0.049398  0.707417  0.433094  1
  Pd  Pd35  1  0.328725  0.335365  0.000732  1
