# generated using pymatgen
data_Ce4CuIr2PdPb2
_symmetry_space_group_name_H-M   'P 1'
_cell_length_a   7.86506117
_cell_length_b   7.87505528
_cell_length_c   3.73458000
_cell_angle_alpha   90.00000000
_cell_angle_beta   90.00000000
_cell_angle_gamma   89.74669918
_symmetry_Int_Tables_number   1
_chemical_formula_structural   Ce4CuIr2PdPb2
_chemical_formula_sum   'Ce4 Cu1 Ir2 Pd1 Pb2'
_cell_volume   231.30937704
_cell_formula_units_Z   1
loop_
 _symmetry_equiv_pos_site_id
 _symmetry_equiv_pos_as_xyz
  1  'x, y, z'
loop_
 _atom_site_type_symbol
 _atom_site_label
 _atom_site_symmetry_multiplicity
 _atom_site_fract_x
 _atom_site_fract_y
 _atom_site_fract_z
 _atom_site_occupancy
  Ce  Ce0  1  0.656076  0.174661  0.500000  1
  Ce  Ce1  1  0.185640  0.328987  0.500000  1
  Ce  Ce2  1  0.844421  0.672322  0.500000  1
  Ce  Ce3  1  0.313636  0.829727  0.500000  1
  Cu  Cu4  1  0.622863  0.871644  0.000000  1
  Ir  Ir5  1  0.384282  0.114989  0.000000  1
  Ir  Ir6  1  0.125554  0.626057  0.000000  1
  Pd  Pd7  1  0.868728  0.365760  0.000000  1
  Pb  Pb8  1  0.992849  0.006374  0.000000  1
  Pb  Pb9  1  0.505952  0.509477  0.000000  1
