# generated using pymatgen
data_Ca3Be2Pd7
_symmetry_space_group_name_H-M   'P 1'
_cell_length_a   8.53811342
_cell_length_b   8.53811440
_cell_length_c   8.53811418
_cell_angle_alpha   37.79372266
_cell_angle_beta   37.79371351
_cell_angle_gamma   37.79371996
_symmetry_Int_Tables_number   1
_chemical_formula_structural   Ca3Be2Pd7
_chemical_formula_sum   'Ca3 Be2 Pd7'
_cell_volume   209.74548785
_cell_formula_units_Z   1
loop_
 _symmetry_equiv_pos_site_id
 _symmetry_equiv_pos_as_xyz
  1  'x, y, z'
loop_
 _atom_site_type_symbol
 _atom_site_label
 _atom_site_symmetry_multiplicity
 _atom_site_fract_x
 _atom_site_fract_y
 _atom_site_fract_z
 _atom_site_occupancy
  Ca  Ca0  1  0.358184  0.358184  0.358184  1
  Ca  Ca1  1  0.500000  0.500000  0.500000  1
  Ca  Ca2  1  0.641815  0.641815  0.641815  1
  Be  Be3  1  0.166743  0.166743  0.166743  1
  Be  Be4  1  0.833257  0.833257  0.833257  1
  Pd  Pd5  1  0.000000  0.000000  0.000000  1
  Pd  Pd6  1  0.570661  0.070364  0.070365  1
  Pd  Pd7  1  0.070364  0.570661  0.070365  1
  Pd  Pd8  1  0.929636  0.929636  0.429338  1
  Pd  Pd9  1  0.070364  0.070364  0.570662  1
  Pd  Pd10  1  0.929636  0.429339  0.929635  1
  Pd  Pd11  1  0.429339  0.929636  0.929635  1
