# generated using pymatgen
data_TbHo3(Tc3Ge4)2
_symmetry_space_group_name_H-M   'P 1'
_cell_length_a   8.30904758
_cell_length_b   5.68592496
_cell_length_c   7.00735383
_cell_angle_alpha   76.17836126
_cell_angle_beta   90.10492969
_cell_angle_gamma   90.00807657
_symmetry_Int_Tables_number   1
_chemical_formula_structural   TbHo3(Tc3Ge4)2
_chemical_formula_sum   'Tb1 Ho3 Tc6 Ge8'
_cell_volume   321.47309628
_cell_formula_units_Z   1
loop_
 _symmetry_equiv_pos_site_id
 _symmetry_equiv_pos_as_xyz
  1  'x, y, z'
loop_
 _atom_site_type_symbol
 _atom_site_label
 _atom_site_symmetry_multiplicity
 _atom_site_fract_x
 _atom_site_fract_y
 _atom_site_fract_z
 _atom_site_occupancy
  Tb  Tb0  1  0.555394  0.076229  0.245874  1
  Ho  Ho1  1  0.054564  0.423126  0.755206  1
  Ho  Ho2  1  0.445104  0.923106  0.755652  1
  Ho  Ho3  1  0.945075  0.577005  0.244542  1
  Tc  Tc4  1  0.205095  0.114435  0.114466  1
  Tc  Tc5  1  0.705636  0.387828  0.884973  1
  Tc  Tc6  1  0.794932  0.886006  0.885125  1
  Tc  Tc7  1  0.294840  0.612216  0.114597  1
  Tc  Tc8  1  0.999725  0.999992  0.499879  1
  Tc  Tc9  1  0.499618  0.499636  0.500745  1
  Ge  Ge10  1  0.901759  0.120506  0.126840  1
  Ge  Ge11  1  0.401082  0.380425  0.871685  1
  Ge  Ge12  1  0.099064  0.879581  0.872679  1
  Ge  Ge13  1  0.598737  0.620210  0.127046  1
  Ge  Ge14  1  0.748240  0.223220  0.578716  1
  Ge  Ge15  1  0.247178  0.277858  0.422616  1
  Ge  Ge16  1  0.251434  0.776777  0.421573  1
  Ge  Ge17  1  0.752520  0.721846  0.577786  1
