# generated using pymatgen
data_Y4Mg3(Al5Pt2)3
_symmetry_space_group_name_H-M   'P 1'
_cell_length_a   7.73958510
_cell_length_b   7.73958807
_cell_length_c   9.40610787
_cell_angle_alpha   89.96871201
_cell_angle_beta   89.96875396
_cell_angle_gamma   119.81783245
_symmetry_Int_Tables_number   1
_chemical_formula_structural   Y4Mg3(Al5Pt2)3
_chemical_formula_sum   'Y4 Mg3 Al15 Pt6'
_cell_volume   488.84383319
_cell_formula_units_Z   1
loop_
 _symmetry_equiv_pos_site_id
 _symmetry_equiv_pos_as_xyz
  1  'x, y, z'
loop_
 _atom_site_type_symbol
 _atom_site_label
 _atom_site_symmetry_multiplicity
 _atom_site_fract_x
 _atom_site_fract_y
 _atom_site_fract_z
 _atom_site_occupancy
  Y  Y0  1  0.001980  0.667647  0.250098  1
  Y  Y1  1  0.000780  0.331052  0.751114  1
  Y  Y2  1  0.667647  0.001979  0.250098  1
  Y  Y3  1  0.331053  0.000782  0.751114  1
  Mg  Mg4  1  0.333534  0.333535  0.554325  1
  Mg  Mg5  1  0.667515  0.667515  0.444957  1
  Mg  Mg6  1  0.667104  0.667103  0.053687  1
  Al  Al7  1  0.334022  0.334022  0.938588  1
  Al  Al8  1  0.341340  0.547446  0.251976  1
  Al  Al9  1  0.659801  0.452232  0.749706  1
  Al  Al10  1  0.547447  0.341340  0.251976  1
  Al  Al11  1  0.452231  0.659801  0.749706  1
  Al  Al12  1  0.002780  0.333801  0.077200  1
  Al  Al13  1  0.996510  0.665423  0.922840  1
  Al  Al14  1  0.996041  0.665400  0.576780  1
  Al  Al15  1  0.334013  0.004004  0.424593  1
  Al  Al16  1  0.004003  0.334013  0.424593  1
  Al  Al17  1  0.665399  0.996042  0.576780  1
  Al  Al18  1  0.665422  0.996508  0.922841  1
  Al  Al19  1  0.333802  0.002780  0.077200  1
  Al  Al20  1  0.124842  0.124842  0.251227  1
  Al  Al21  1  0.872383  0.872384  0.749677  1
  Pt  Pt22  1  0.009575  0.009574  0.996155  1
  Pt  Pt23  1  0.999941  0.999941  0.501227  1
  Pt  Pt24  1  0.672615  0.318591  0.999338  1
  Pt  Pt25  1  0.318592  0.672614  0.999338  1
  Pt  Pt26  1  0.319253  0.680373  0.501433  1
  Pt  Pt27  1  0.680372  0.319254  0.501433  1
