# generated using pymatgen
data_SrTbNd2(Ir2O7)2
_symmetry_space_group_name_H-M   'P 1'
_cell_length_a   7.38085979
_cell_length_b   7.35789631
_cell_length_c   7.38086045
_cell_angle_alpha   60.05544488
_cell_angle_beta   60.25067852
_cell_angle_gamma   60.05544649
_symmetry_Int_Tables_number   1
_chemical_formula_structural   SrTbNd2(Ir2O7)2
_chemical_formula_sum   'Sr1 Tb1 Nd2 Ir4 O14'
_cell_volume   284.20615456
_cell_formula_units_Z   1
loop_
 _symmetry_equiv_pos_site_id
 _symmetry_equiv_pos_as_xyz
  1  'x, y, z'
loop_
 _atom_site_type_symbol
 _atom_site_label
 _atom_site_symmetry_multiplicity
 _atom_site_fract_x
 _atom_site_fract_y
 _atom_site_fract_z
 _atom_site_occupancy
  Sr  Sr0  1  0.125000  0.625000  0.125000  1
  Tb  Tb1  1  0.125000  0.125000  0.125000  1
  Nd  Nd2  1  0.625000  0.125000  0.125000  1
  Nd  Nd3  1  0.125000  0.125000  0.625000  1
  Ir  Ir4  1  0.125000  0.625000  0.625000  1
  Ir  Ir5  1  0.625000  0.125000  0.625000  1
  Ir  Ir6  1  0.625000  0.625000  0.125000  1
  Ir  Ir7  1  0.625000  0.625000  0.625000  1
  O  O8  1  0.695206  0.709381  0.297419  1
  O  O9  1  0.294968  0.292753  0.711439  1
  O  O10  1  0.705822  0.292895  0.705822  1
  O  O11  1  0.296849  0.716219  0.296849  1
  O  O12  1  0.297419  0.709381  0.695206  1
  O  O13  1  0.711439  0.292753  0.294968  1
  O  O14  1  0.554794  0.540619  0.952581  1
  O  O15  1  0.955032  0.957247  0.538561  1
  O  O16  1  0.544178  0.957105  0.544178  1
  O  O17  1  0.953151  0.533781  0.953151  1
  O  O18  1  0.952581  0.540619  0.554794  1
  O  O19  1  0.538561  0.957247  0.955032  1
  O  O20  1  0.250753  0.235218  0.250753  1
  O  O21  1  0.999247  0.014782  0.999247  1
