# generated using pymatgen
data_Ba17Sr3(Si2Bi)4
_symmetry_space_group_name_H-M   'P 1'
_cell_length_a   8.64470100
_cell_length_b   8.64470100
_cell_length_c   16.97683000
_cell_angle_alpha   90.00000000
_cell_angle_beta   90.00000000
_cell_angle_gamma   90.00000000
_symmetry_Int_Tables_number   1
_chemical_formula_structural   Ba17Sr3(Si2Bi)4
_chemical_formula_sum   'Ba17 Sr3 Si8 Bi4'
_cell_volume   1268.69302753
_cell_formula_units_Z   1
loop_
 _symmetry_equiv_pos_site_id
 _symmetry_equiv_pos_as_xyz
  1  'x, y, z'
loop_
 _atom_site_type_symbol
 _atom_site_label
 _atom_site_symmetry_multiplicity
 _atom_site_fract_x
 _atom_site_fract_y
 _atom_site_fract_z
 _atom_site_occupancy
  Ba  Ba0  1  0.315204  0.667982  0.113718  1
  Ba  Ba1  1  0.167982  0.184796  0.113718  1
  Ba  Ba2  1  0.331710  0.684714  0.386369  1
  Ba  Ba3  1  0.666155  0.686052  0.886756  1
  Ba  Ba4  1  0.184714  0.168290  0.386369  1
  Ba  Ba5  1  0.668290  0.315286  0.386369  1
  Ba  Ba6  1  0.169131  0.816410  0.612886  1
  Ba  Ba7  1  0.333845  0.313948  0.886756  1
  Ba  Ba8  1  0.186052  0.833845  0.886756  1
  Ba  Ba9  1  0.830869  0.183590  0.612886  1
  Ba  Ba10  1  0.316410  0.330869  0.612886  1
  Ba  Ba11  1  0.815286  0.831710  0.386369  1
  Ba  Ba12  1  0.813948  0.166155  0.886756  1
  Ba  Ba13  1  0.832018  0.815204  0.113718  1
  Ba  Ba14  1  0.000000  0.500000  0.768445  1
  Ba  Ba15  1  0.684796  0.332018  0.113718  1
  Ba  Ba16  1  0.683590  0.669131  0.612886  1
  Sr  Sr17  1  0.500000  0.000000  0.733019  1
  Sr  Sr18  1  0.500000  0.000000  0.233229  1
  Sr  Sr19  1  0.000000  0.500000  0.266716  1
  Si  Si20  1  0.106062  0.102799  0.749434  1
  Si  Si21  1  0.397201  0.606062  0.749434  1
  Si  Si22  1  0.605071  0.605527  0.250058  1
  Si  Si23  1  0.105527  0.894929  0.250058  1
  Si  Si24  1  0.602799  0.393938  0.749434  1
  Si  Si25  1  0.893938  0.897201  0.749434  1
  Si  Si26  1  0.394929  0.394473  0.250058  1
  Si  Si27  1  0.894473  0.105071  0.250058  1
  Bi  Bi28  1  0.000000  0.500000  0.989951  1
  Bi  Bi29  1  0.500000  0.000000  0.011855  1
  Bi  Bi30  1  0.500000  0.000000  0.511440  1
  Bi  Bi31  1  0.000000  0.500000  0.488463  1
