# generated using pymatgen
data_Ta4VTcOs2
_symmetry_space_group_name_H-M   'P 1'
_cell_length_a   4.49500400
_cell_length_b   6.35178100
_cell_length_c   4.49507000
_cell_angle_alpha   90.00030121
_cell_angle_beta   89.99931167
_cell_angle_gamma   89.99979275
_symmetry_Int_Tables_number   1
_chemical_formula_structural   Ta4VTcOs2
_chemical_formula_sum   'Ta4 V1 Tc1 Os2'
_cell_volume   128.34000683
_cell_formula_units_Z   1
loop_
 _symmetry_equiv_pos_site_id
 _symmetry_equiv_pos_as_xyz
  1  'x, y, z'
loop_
 _atom_site_type_symbol
 _atom_site_label
 _atom_site_symmetry_multiplicity
 _atom_site_fract_x
 _atom_site_fract_y
 _atom_site_fract_z
 _atom_site_occupancy
  Ta  Ta0  1  0.000001  0.996890  0.999999  1
  Ta  Ta1  1  0.499999  0.503117  0.500001  1
  Ta  Ta2  1  0.000002  0.503111  0.000000  1
  Ta  Ta3  1  0.500003  0.996885  0.499998  1
  V  V4  1  0.000000  0.749999  0.500003  1
  Tc  Tc5  1  0.500001  0.250001  0.000000  1
  Os  Os6  1  0.000001  0.250001  0.500000  1
  Os  Os7  1  0.500001  0.750001  0.999999  1
