# generated using pymatgen
data_Gd3DyCoNiB20
_symmetry_space_group_name_H-M   'P 1'
_cell_length_a   4.16026400
_cell_length_b   5.57480368
_cell_length_c   11.12112101
_cell_angle_alpha   89.87498076
_cell_angle_beta   90.00000000
_cell_angle_gamma   90.00000000
_symmetry_Int_Tables_number   1
_chemical_formula_structural   Gd3DyCoNiB20
_chemical_formula_sum   'Gd3 Dy1 Co1 Ni1 B20'
_cell_volume   257.92770958
_cell_formula_units_Z   1
loop_
 _symmetry_equiv_pos_site_id
 _symmetry_equiv_pos_as_xyz
  1  'x, y, z'
loop_
 _atom_site_type_symbol
 _atom_site_label
 _atom_site_symmetry_multiplicity
 _atom_site_fract_x
 _atom_site_fract_y
 _atom_site_fract_z
 _atom_site_occupancy
  Gd  Gd0  1  0.500000  0.810852  0.636897  1
  Gd  Gd1  1  0.500000  0.302322  0.866257  1
  Gd  Gd2  1  0.500000  0.697554  0.134140  1
  Dy  Dy3  1  0.500000  0.189207  0.363201  1
  Co  Co4  1  0.000000  0.000077  0.000141  1
  Ni  Ni5  1  0.000000  0.499361  0.499402  1
  B  B6  1  0.000000  0.372180  0.040534  1
  B  B7  1  0.000000  0.627652  0.959966  1
  B  B8  1  0.000000  0.125805  0.540572  1
  B  B9  1  0.000000  0.874567  0.458653  1
  B  B10  1  0.000000  0.341095  0.198461  1
  B  B11  1  0.000000  0.658544  0.801927  1
  B  B12  1  0.000000  0.156914  0.697956  1
  B  B13  1  0.000000  0.842499  0.301415  1
  B  B14  1  0.000000  0.030276  0.185825  1
  B  B15  1  0.000000  0.969411  0.814120  1
  B  B16  1  0.000000  0.468952  0.686768  1
  B  B17  1  0.000000  0.530791  0.313116  1
  B  B18  1  0.299925  0.200643  0.113015  1
  B  B19  1  0.700256  0.799338  0.887663  1
  B  B20  1  0.299744  0.799338  0.887663  1
  B  B21  1  0.698703  0.297552  0.614904  1
  B  B22  1  0.700075  0.200643  0.113015  1
  B  B23  1  0.301361  0.703439  0.384743  1
  B  B24  1  0.698639  0.703439  0.384743  1
  B  B25  1  0.301297  0.297552  0.614904  1
