# generated using pymatgen
data_Na2AsPd3
_symmetry_space_group_name_H-M   'P 1'
_cell_length_a   5.10926786
_cell_length_b   5.64903657
_cell_length_c   5.64903700
_cell_angle_alpha   60.00000332
_cell_angle_beta   56.43913856
_cell_angle_gamma   56.43912733
_symmetry_Int_Tables_number   1
_chemical_formula_structural   Na2AsPd3
_chemical_formula_sum   'Na2 As1 Pd3'
_cell_volume   108.68967211
_cell_formula_units_Z   1
loop_
 _symmetry_equiv_pos_site_id
 _symmetry_equiv_pos_as_xyz
  1  'x, y, z'
loop_
 _atom_site_type_symbol
 _atom_site_label
 _atom_site_symmetry_multiplicity
 _atom_site_fract_x
 _atom_site_fract_y
 _atom_site_fract_z
 _atom_site_occupancy
  Na  Na0  1  0.496735  0.501088  0.501088  1
  Na  Na1  1  0.753265  0.748912  0.748912  1
  As  As2  1  0.625000  0.125000  0.125000  1
  Pd  Pd3  1  0.125000  0.625000  0.125000  1
  Pd  Pd4  1  0.125000  0.125000  0.625000  1
  Pd  Pd5  1  0.125000  0.125000  0.125000  1
