# generated using pymatgen
data_TaNbSn2(PO4)6
_symmetry_space_group_name_H-M   'P 1'
_cell_length_a   8.75847244
_cell_length_b   8.75407676
_cell_length_c   9.08382626
_cell_angle_alpha   90.07096862
_cell_angle_beta   118.63686033
_cell_angle_gamma   120.04138223
_symmetry_Int_Tables_number   1
_chemical_formula_structural   TaNbSn2(PO4)6
_chemical_formula_sum   'Ta1 Nb1 Sn2 P6 O24'
_cell_volume   501.79864090
_cell_formula_units_Z   1
loop_
 _symmetry_equiv_pos_site_id
 _symmetry_equiv_pos_as_xyz
  1  'x, y, z'
loop_
 _atom_site_type_symbol
 _atom_site_label
 _atom_site_symmetry_multiplicity
 _atom_site_fract_x
 _atom_site_fract_y
 _atom_site_fract_z
 _atom_site_occupancy
  Ta  Ta0  1  0.213253  0.857858  0.070888  1
  Nb  Nb1  1  0.785861  0.141761  0.927812  1
  Sn  Sn2  1  0.788635  0.642563  0.432264  1
  Sn  Sn3  1  0.210845  0.357138  0.567033  1
  P  P4  1  0.998785  0.964997  0.250487  1
  P  P5  1  0.285657  0.534852  0.253156  1
  P  P6  1  0.280543  0.747134  0.745972  1
  P  P7  1  0.717435  0.250308  0.254225  1
  P  P8  1  0.714035  0.467370  0.747017  1
  P  P9  1  0.004139  0.035649  0.750065  1
  O  O10  1  0.286772  0.707946  0.211589  1
  O  O11  1  0.865249  0.995818  0.080867  1
  O  O12  1  0.847225  0.859138  0.590257  1
  O  O13  1  0.843092  0.795610  0.271860  1
  O  O14  1  0.136070  0.923774  0.218305  1
  O  O15  1  0.478034  0.551955  0.275601  1
  O  O16  1  0.103351  0.738512  0.578811  1
  O  O17  1  0.915281  0.638334  0.911155  1
  O  O18  1  0.275377  0.785095  0.909696  1
  O  O19  1  0.492361  0.917811  0.780894  1
  O  O20  1  0.725071  0.476992  0.583717  1
  O  O21  1  0.717555  0.424262  0.267625  1
  O  O22  1  0.278438  0.572115  0.733373  1
  O  O23  1  0.273794  0.523837  0.416072  1
  O  O24  1  0.505913  0.078410  0.218249  1
  O  O25  1  0.723091  0.214440  0.090363  1
  O  O26  1  0.085955  0.363320  0.088949  1
  O  O27  1  0.895282  0.258930  0.420854  1
  O  O28  1  0.523562  0.453584  0.725305  1
  O  O29  1  0.866639  0.078071  0.780829  1
  O  O30  1  0.161270  0.204083  0.729115  1
  O  O31  1  0.155364  0.141640  0.410255  1
  O  O32  1  0.135993  0.003896  0.919870  1
  O  O33  1  0.710076  0.292793  0.787469  1
