# generated using pymatgen
data_Tb11Y5(HgRh)4
_symmetry_space_group_name_H-M   'P 1'
_cell_length_a   9.64001845
_cell_length_b   9.64023172
_cell_length_c   9.64023303
_cell_angle_alpha   60.00894222
_cell_angle_beta   60.00073268
_cell_angle_gamma   60.00073476
_symmetry_Int_Tables_number   1
_chemical_formula_structural   Tb11Y5(HgRh)4
_chemical_formula_sum   'Tb11 Y5 Hg4 Rh4'
_cell_volume   633.53706854
_cell_formula_units_Z   1
loop_
 _symmetry_equiv_pos_site_id
 _symmetry_equiv_pos_as_xyz
  1  'x, y, z'
loop_
 _atom_site_type_symbol
 _atom_site_label
 _atom_site_symmetry_multiplicity
 _atom_site_fract_x
 _atom_site_fract_y
 _atom_site_fract_z
 _atom_site_occupancy
  Tb  Tb0  1  0.600770  0.601368  0.601368  1
  Tb  Tb1  1  0.601321  0.601890  0.195468  1
  Tb  Tb2  1  0.601321  0.195468  0.601890  1
  Tb  Tb3  1  0.196495  0.601368  0.601368  1
  Tb  Tb4  1  0.060453  0.439547  0.439547  1
  Tb  Tb5  1  0.439536  0.060464  0.060464  1
  Tb  Tb6  1  0.439794  0.060231  0.439226  1
  Tb  Tb7  1  0.060750  0.439226  0.060231  1
  Tb  Tb8  1  0.439794  0.439226  0.060231  1
  Tb  Tb9  1  0.060750  0.060231  0.439226  1
  Tb  Tb10  1  0.186740  0.813260  0.813260  1
  Y  Y11  1  0.813342  0.186658  0.186658  1
  Y  Y12  1  0.813395  0.187075  0.813286  1
  Y  Y13  1  0.186244  0.813286  0.187075  1
  Y  Y14  1  0.813395  0.813286  0.187075  1
  Y  Y15  1  0.186244  0.187075  0.813286  1
  Hg  Hg16  1  0.834476  0.834646  0.834646  1
  Hg  Hg17  1  0.834809  0.834760  0.495621  1
  Hg  Hg18  1  0.834809  0.495621  0.834760  1
  Hg  Hg19  1  0.496231  0.834646  0.834646  1
  Rh  Rh20  1  0.392199  0.392917  0.392917  1
  Rh  Rh21  1  0.392581  0.393090  0.821750  1
  Rh  Rh22  1  0.392581  0.821750  0.393090  1
  Rh  Rh23  1  0.821969  0.392917  0.392917  1
