# generated using pymatgen
data_LaScB6Os
_symmetry_space_group_name_H-M   'P 1'
_cell_length_a   3.65188500
_cell_length_b   9.12513800
_cell_length_c   11.59980600
_cell_angle_alpha   90.00000000
_cell_angle_beta   90.00000000
_cell_angle_gamma   90.00000000
_symmetry_Int_Tables_number   1
_chemical_formula_structural   LaScB6Os
_chemical_formula_sum   'La4 Sc4 B24 Os4'
_cell_volume   386.55140834
_cell_formula_units_Z   4
loop_
 _symmetry_equiv_pos_site_id
 _symmetry_equiv_pos_as_xyz
  1  'x, y, z'
loop_
 _atom_site_type_symbol
 _atom_site_label
 _atom_site_symmetry_multiplicity
 _atom_site_fract_x
 _atom_site_fract_y
 _atom_site_fract_z
 _atom_site_occupancy
  La  La0  1  0.000000  0.321995  0.415165  1
  La  La1  1  0.000000  0.678005  0.584835  1
  La  La2  1  0.000000  0.821995  0.084835  1
  La  La3  1  0.000000  0.178005  0.915165  1
  Sc  Sc4  1  0.000000  0.946090  0.374249  1
  Sc  Sc5  1  0.000000  0.053910  0.625751  1
  Sc  Sc6  1  0.000000  0.446090  0.125751  1
  Sc  Sc7  1  0.000000  0.553910  0.874249  1
  B  B8  1  0.500000  0.559093  0.427172  1
  B  B9  1  0.500000  0.440907  0.572828  1
  B  B10  1  0.500000  0.059093  0.072828  1
  B  B11  1  0.500000  0.940907  0.927172  1
  B  B12  1  0.500000  0.754243  0.414970  1
  B  B13  1  0.500000  0.245757  0.585030  1
  B  B14  1  0.500000  0.254243  0.085030  1
  B  B15  1  0.500000  0.745757  0.914970  1
  B  B16  1  0.500000  0.793765  0.265917  1
  B  B17  1  0.500000  0.206235  0.734082  1
  B  B18  1  0.500000  0.293765  0.234083  1
  B  B19  1  0.500000  0.706235  0.765918  1
  B  B20  1  0.500000  0.629009  0.182956  1
  B  B21  1  0.500000  0.370991  0.817044  1
  B  B22  1  0.500000  0.129009  0.317044  1
  B  B23  1  0.500000  0.870991  0.682956  1
  B  B24  1  0.500000  0.985435  0.216591  1
  B  B25  1  0.500000  0.014565  0.783409  1
  B  B26  1  0.500000  0.485435  0.283409  1
  B  B27  1  0.500000  0.514565  0.716591  1
  B  B28  1  0.500000  0.596460  0.025486  1
  B  B29  1  0.500000  0.403540  0.974514  1
  B  B30  1  0.500000  0.096460  0.474514  1
  B  B31  1  0.500000  0.903540  0.525486  1
  Os  Os32  1  0.000000  0.642240  0.316124  1
  Os  Os33  1  0.000000  0.357760  0.683876  1
  Os  Os34  1  0.000000  0.142240  0.183876  1
  Os  Os35  1  0.000000  0.857760  0.816124  1
