# generated using pymatgen
data_Tb7YRe3B24Ru
_symmetry_space_group_name_H-M   'P 1'
_cell_length_a   3.69581500
_cell_length_b   9.19786002
_cell_length_c   11.58796852
_cell_angle_alpha   89.89764319
_cell_angle_beta   90.00000000
_cell_angle_gamma   90.00000000
_symmetry_Int_Tables_number   1
_chemical_formula_structural   Tb7YRe3B24Ru
_chemical_formula_sum   'Tb7 Y1 Re3 B24 Ru1'
_cell_volume   393.91601097
_cell_formula_units_Z   1
loop_
 _symmetry_equiv_pos_site_id
 _symmetry_equiv_pos_as_xyz
  1  'x, y, z'
loop_
 _atom_site_type_symbol
 _atom_site_label
 _atom_site_symmetry_multiplicity
 _atom_site_fract_x
 _atom_site_fract_y
 _atom_site_fract_z
 _atom_site_occupancy
  Tb  Tb0  1  0.000000  0.323552  0.413703  1
  Tb  Tb1  1  0.000000  0.674912  0.584321  1
  Tb  Tb2  1  0.000000  0.822993  0.087640  1
  Tb  Tb3  1  0.000000  0.177732  0.914084  1
  Tb  Tb4  1  0.000000  0.942981  0.370984  1
  Tb  Tb5  1  0.000000  0.057037  0.630928  1
  Tb  Tb6  1  0.000000  0.443478  0.129197  1
  Y  Y7  1  0.000000  0.558424  0.869559  1
  Re  Re8  1  0.000000  0.638095  0.320839  1
  Re  Re9  1  0.000000  0.362131  0.679608  1
  Re  Re10  1  0.000000  0.137693  0.177873  1
  B  B11  1  0.500000  0.552843  0.432573  1
  B  B12  1  0.500000  0.446841  0.567093  1
  B  B13  1  0.500000  0.052779  0.066972  1
  B  B14  1  0.500000  0.945818  0.932452  1
  B  B15  1  0.500000  0.747752  0.418528  1
  B  B16  1  0.500000  0.251482  0.581786  1
  B  B17  1  0.500000  0.248498  0.081280  1
  B  B18  1  0.500000  0.751983  0.918265  1
  B  B19  1  0.500000  0.791370  0.266096  1
  B  B20  1  0.500000  0.209223  0.734799  1
  B  B21  1  0.500000  0.291230  0.233841  1
  B  B22  1  0.500000  0.709572  0.765718  1
  B  B23  1  0.500000  0.631376  0.186000  1
  B  B24  1  0.500000  0.369323  0.814571  1
  B  B25  1  0.500000  0.130725  0.313468  1
  B  B26  1  0.500000  0.868247  0.686440  1
  B  B27  1  0.500000  0.982340  0.211910  1
  B  B28  1  0.500000  0.015764  0.788541  1
  B  B29  1  0.500000  0.482853  0.287675  1
  B  B30  1  0.500000  0.517371  0.711764  1
  B  B31  1  0.500000  0.602949  0.027932  1
  B  B32  1  0.500000  0.399612  0.970927  1
  B  B33  1  0.500000  0.102047  0.472111  1
  B  B34  1  0.500000  0.897403  0.529272  1
  Ru  Ru35  1  0.000000  0.861570  0.821249  1
