# generated using pymatgen
data_Tb10Ho2B3CCl12
_symmetry_space_group_name_H-M   'P 1'
_cell_length_a   9.40733481
_cell_length_b   9.41002621
_cell_length_c   9.41067940
_cell_angle_alpha   109.29665134
_cell_angle_beta   109.35460386
_cell_angle_gamma   109.34246903
_symmetry_Int_Tables_number   1
_chemical_formula_structural   Tb10Ho2B3CCl12
_chemical_formula_sum   'Tb10 Ho2 B3 C1 Cl12'
_cell_volume   644.59503371
_cell_formula_units_Z   1
loop_
 _symmetry_equiv_pos_site_id
 _symmetry_equiv_pos_as_xyz
  1  'x, y, z'
loop_
 _atom_site_type_symbol
 _atom_site_label
 _atom_site_symmetry_multiplicity
 _atom_site_fract_x
 _atom_site_fract_y
 _atom_site_fract_z
 _atom_site_occupancy
  Tb  Tb0  1  0.750133  0.014890  0.485236  1
  Tb  Tb1  1  0.235068  0.466604  0.480147  1
  Tb  Tb2  1  0.264215  0.750148  0.236050  1
  Tb  Tb3  1  0.033608  0.264948  0.019737  1
  Tb  Tb4  1  0.019858  0.033727  0.264826  1
  Tb  Tb5  1  0.485583  0.750095  0.014910  1
  Tb  Tb6  1  0.480512  0.235382  0.466580  1
  Tb  Tb7  1  0.014914  0.485289  0.750150  1
  Tb  Tb8  1  0.265032  0.019917  0.033422  1
  Tb  Tb9  1  0.235899  0.264039  0.749859  1
  Ho  Ho10  1  0.464256  0.479122  0.234122  1
  Ho  Ho11  1  0.750113  0.234935  0.265093  1
  B  B12  1  0.499876  0.001838  0.249976  1
  B  B13  1  0.000283  0.250093  0.498224  1
  B  B14  1  0.250867  0.499055  0.001784  1
  C  C15  1  0.251452  0.251329  0.250032  1
  Cl  Cl16  1  0.250070  0.756370  0.743662  1
  Cl  Cl17  1  0.512287  0.505829  0.753764  1
  Cl  Cl18  1  0.987813  0.746300  0.994225  1
  Cl  Cl19  1  0.743638  0.249976  0.756298  1
  Cl  Cl20  1  0.994232  0.987807  0.746275  1
  Cl  Cl21  1  0.250092  0.994304  0.505789  1
  Cl  Cl22  1  0.752230  0.510901  0.502376  1
  Cl  Cl23  1  0.507675  0.252069  0.997644  1
  Cl  Cl24  1  0.755325  0.742621  0.250231  1
  Cl  Cl25  1  0.746145  0.995923  0.989002  1
  Cl  Cl26  1  0.992679  0.504226  0.249729  1
  Cl  Cl27  1  0.506142  0.752264  0.510855  1
