# generated using pymatgen
data_Sc3Pt7
_symmetry_space_group_name_H-M   'P 1'
_cell_length_a   10.47334065
_cell_length_b   10.47333984
_cell_length_c   3.98589400
_cell_angle_alpha   90.00000000
_cell_angle_beta   90.00000000
_cell_angle_gamma   157.87170387
_symmetry_Int_Tables_number   1
_chemical_formula_structural   Sc3Pt7
_chemical_formula_sum   'Sc3 Pt7'
_cell_volume   164.69135376
_cell_formula_units_Z   1
loop_
 _symmetry_equiv_pos_site_id
 _symmetry_equiv_pos_as_xyz
  1  'x, y, z'
loop_
 _atom_site_type_symbol
 _atom_site_label
 _atom_site_symmetry_multiplicity
 _atom_site_fract_x
 _atom_site_fract_y
 _atom_site_fract_z
 _atom_site_occupancy
  Sc  Sc0  1  0.000000  0.000000  0.000000  1
  Sc  Sc1  1  0.808694  0.191308  0.000000  1
  Sc  Sc2  1  0.191308  0.808694  0.000000  1
  Pt  Pt3  1  0.598554  0.401447  0.000000  1
  Pt  Pt4  1  0.401447  0.598554  0.000000  1
  Pt  Pt5  1  0.900970  0.099031  0.500001  1
  Pt  Pt6  1  0.699753  0.300249  0.500001  1
  Pt  Pt7  1  0.500001  0.500001  0.500001  1
  Pt  Pt8  1  0.300249  0.699753  0.500001  1
  Pt  Pt9  1  0.099031  0.900970  0.500001  1
