# generated using pymatgen
data_Yb3PI3
_symmetry_space_group_name_H-M   'P 1'
_cell_length_a   10.69156991
_cell_length_b   10.69157058
_cell_length_c   10.69157000
_cell_angle_alpha   109.47121575
_cell_angle_beta   109.47121702
_cell_angle_gamma   109.47122565
_symmetry_Int_Tables_number   1
_chemical_formula_structural   Yb3PI3
_chemical_formula_sum   'Yb12 P4 I12'
_cell_volume   940.81145933
_cell_formula_units_Z   4
loop_
 _symmetry_equiv_pos_site_id
 _symmetry_equiv_pos_as_xyz
  1  'x, y, z'
loop_
 _atom_site_type_symbol
 _atom_site_label
 _atom_site_symmetry_multiplicity
 _atom_site_fract_x
 _atom_site_fract_y
 _atom_site_fract_z
 _atom_site_occupancy
  Yb  Yb0  1  0.750000  0.231957  0.268043  1
  Yb  Yb1  1  0.231957  0.268043  0.750000  1
  Yb  Yb2  1  0.463912  0.481957  0.231957  1
  Yb  Yb3  1  0.268043  0.018043  0.036088  1
  Yb  Yb4  1  0.231957  0.463912  0.481957  1
  Yb  Yb5  1  0.018043  0.036088  0.268043  1
  Yb  Yb6  1  0.018043  0.481957  0.750000  1
  Yb  Yb7  1  0.481957  0.231957  0.463912  1
  Yb  Yb8  1  0.750000  0.018043  0.481957  1
  Yb  Yb9  1  0.036088  0.268043  0.018043  1
  Yb  Yb10  1  0.481957  0.750000  0.018043  1
  Yb  Yb11  1  0.268043  0.750000  0.231957  1
  P  P12  1  0.500000  0.000000  0.250000  1
  P  P13  1  0.250000  0.500000  0.000000  1
  P  P14  1  0.000000  0.250000  0.500000  1
  P  P15  1  0.250000  0.250000  0.250000  1
  I  I16  1  0.996895  0.993791  0.746895  1
  I  I17  1  0.993791  0.746895  0.996895  1
  I  I18  1  0.250000  0.996895  0.503105  1
  I  I19  1  0.746895  0.996895  0.993791  1
  I  I20  1  0.503105  0.250000  0.996895  1
  I  I21  1  0.746895  0.250000  0.753105  1
  I  I22  1  0.503105  0.753105  0.506209  1
  I  I23  1  0.996895  0.503105  0.250000  1
  I  I24  1  0.506209  0.503105  0.753105  1
  I  I25  1  0.250000  0.753105  0.746895  1
  I  I26  1  0.753105  0.506209  0.503105  1
  I  I27  1  0.753105  0.746895  0.250000  1
