# generated using pymatgen
data_Ca3Y(Ni7As4)2
_symmetry_space_group_name_H-M   'P 1'
_cell_length_a   3.83072000
_cell_length_b   9.46877678
_cell_length_c   10.59570293
_cell_angle_alpha   89.83535682
_cell_angle_beta   90.00000000
_cell_angle_gamma   90.00000000
_symmetry_Int_Tables_number   1
_chemical_formula_structural   Ca3Y(Ni7As4)2
_chemical_formula_sum   'Ca3 Y1 Ni14 As8'
_cell_volume   384.32821429
_cell_formula_units_Z   1
loop_
 _symmetry_equiv_pos_site_id
 _symmetry_equiv_pos_as_xyz
  1  'x, y, z'
loop_
 _atom_site_type_symbol
 _atom_site_label
 _atom_site_symmetry_multiplicity
 _atom_site_fract_x
 _atom_site_fract_y
 _atom_site_fract_z
 _atom_site_occupancy
  Ca  Ca0  1  0.500001  0.058933  0.283231  1
  Ca  Ca1  1  0.500001  0.440864  0.503858  1
  Ca  Ca2  1  0.000000  0.941203  0.783973  1
  Y  Y3  1  0.000000  0.558870  0.003645  1
  Ni  Ni4  1  0.500001  0.311087  0.061425  1
  Ni  Ni5  1  0.000000  0.898335  0.077479  1
  Ni  Ni6  1  0.500001  0.724557  0.170201  1
  Ni  Ni7  1  0.000000  0.318099  0.260686  1
  Ni  Ni8  1  0.000000  0.580967  0.314659  1
  Ni  Ni9  1  0.500001  0.735981  0.405009  1
  Ni  Ni10  1  0.000000  0.944379  0.480567  1
  Ni  Ni11  1  0.000000  0.693194  0.566295  1
  Ni  Ni12  1  0.500001  0.100901  0.577250  1
  Ni  Ni13  1  0.000000  0.272266  0.670708  1
  Ni  Ni14  1  0.500001  0.680575  0.764859  1
  Ni  Ni15  1  0.500001  0.421043  0.824043  1
  Ni  Ni16  1  0.000000  0.265959  0.905040  1
  Ni  Ni17  1  0.500001  0.055835  0.980955  1
  As  As18  1  0.000000  0.152016  0.094501  1
  As  As19  1  0.500001  0.476341  0.219371  1
  As  As20  1  0.000000  0.820272  0.287499  1
  As  As21  1  0.000000  0.193897  0.461911  1
  As  As22  1  0.500001  0.846627  0.595464  1
  As  As23  1  0.000000  0.521749  0.719957  1
  As  As24  1  0.500001  0.180930  0.787510  1
  As  As25  1  0.500001  0.805124  0.962307  1
