# generated using pymatgen
data_Cs2HgPbF6
_symmetry_space_group_name_H-M   'P 1'
_cell_length_a   6.76267185
_cell_length_b   6.76267197
_cell_length_c   6.76267200
_cell_angle_alpha   120.00000995
_cell_angle_beta   120.00001051
_cell_angle_gamma   59.99999355
_symmetry_Int_Tables_number   1
_chemical_formula_structural   Cs2HgPbF6
_chemical_formula_sum   'Cs2 Hg1 Pb1 F6'
_cell_volume   218.69551369
_cell_formula_units_Z   1
loop_
 _symmetry_equiv_pos_site_id
 _symmetry_equiv_pos_as_xyz
  1  'x, y, z'
loop_
 _atom_site_type_symbol
 _atom_site_label
 _atom_site_symmetry_multiplicity
 _atom_site_fract_x
 _atom_site_fract_y
 _atom_site_fract_z
 _atom_site_occupancy
  Cs  Cs0  1  0.750001  0.750001  0.250002  1
  Cs  Cs1  1  0.249999  0.249999  0.750001  1
  Hg  Hg2  1  0.000000  0.000000  0.000000  1
  Pb  Pb3  1  0.500001  0.500001  0.500001  1
  F  F4  1  0.754160  0.245840  0.245840  1
  F  F5  1  0.245840  0.754160  0.245840  1
  F  F6  1  0.245840  0.245840  0.245840  1
  F  F7  1  0.754159  0.754159  0.754160  1
  F  F8  1  0.754159  0.245840  0.754160  1
  F  F9  1  0.245840  0.754159  0.754160  1
