# generated using pymatgen
data_Y5Tm11InCo4Ag3
_symmetry_space_group_name_H-M   'P 1'
_cell_length_a   9.36709702
_cell_length_b   9.37362924
_cell_length_c   9.37362824
_cell_angle_alpha   59.95447791
_cell_angle_beta   59.85228160
_cell_angle_gamma   59.85228367
_symmetry_Int_Tables_number   1
_chemical_formula_structural   Y5Tm11InCo4Ag3
_chemical_formula_sum   'Y5 Tm11 In1 Co4 Ag3'
_cell_volume   580.47466098
_cell_formula_units_Z   1
loop_
 _symmetry_equiv_pos_site_id
 _symmetry_equiv_pos_as_xyz
  1  'x, y, z'
loop_
 _atom_site_type_symbol
 _atom_site_label
 _atom_site_symmetry_multiplicity
 _atom_site_fract_x
 _atom_site_fract_y
 _atom_site_fract_z
 _atom_site_occupancy
  Y  Y0  1  0.558780  0.940305  0.940305  1
  Y  Y1  1  0.561662  0.937889  0.561080  1
  Y  Y2  1  0.936244  0.561316  0.938934  1
  Y  Y3  1  0.561662  0.561080  0.937889  1
  Y  Y4  1  0.936244  0.938934  0.561316  1
  Tm  Tm5  1  0.345321  0.347258  0.347258  1
  Tm  Tm6  1  0.344937  0.348215  0.960567  1
  Tm  Tm7  1  0.344937  0.960567  0.348215  1
  Tm  Tm8  1  0.957001  0.347728  0.347728  1
  Tm  Tm9  1  0.811939  0.188023  0.188023  1
  Tm  Tm10  1  0.186988  0.812292  0.812292  1
  Tm  Tm11  1  0.186939  0.811479  0.189223  1
  Tm  Tm12  1  0.812358  0.188596  0.811769  1
  Tm  Tm13  1  0.186939  0.189223  0.811479  1
  Tm  Tm14  1  0.812358  0.811769  0.188596  1
  Tm  Tm15  1  0.938062  0.559821  0.559821  1
  In  In16  1  0.268667  0.577096  0.577096  1
  Co  Co17  1  0.140455  0.141379  0.141379  1
  Co  Co18  1  0.138791  0.143656  0.576800  1
  Co  Co19  1  0.138791  0.576800  0.143656  1
  Co  Co20  1  0.575794  0.141448  0.141448  1
  Ag  Ag21  1  0.586955  0.580276  0.580276  1
  Ag  Ag22  1  0.584087  0.580476  0.254372  1
  Ag  Ag23  1  0.584087  0.254372  0.580476  1
