# generated using pymatgen
data_Ho2Fe4P7(IrRu)4
_symmetry_space_group_name_H-M   'P 1'
_cell_length_a   9.28701672
_cell_length_b   9.28731598
_cell_length_c   3.83149800
_cell_angle_alpha   90.00000000
_cell_angle_beta   90.00000000
_cell_angle_gamma   120.41702716
_symmetry_Int_Tables_number   1
_chemical_formula_structural   Ho2Fe4P7(IrRu)4
_chemical_formula_sum   'Ho2 Fe4 P7 Ir4 Ru4'
_cell_volume   284.98715886
_cell_formula_units_Z   1
loop_
 _symmetry_equiv_pos_site_id
 _symmetry_equiv_pos_as_xyz
  1  'x, y, z'
loop_
 _atom_site_type_symbol
 _atom_site_label
 _atom_site_symmetry_multiplicity
 _atom_site_fract_x
 _atom_site_fract_y
 _atom_site_fract_z
 _atom_site_occupancy
  Ho  Ho0  1  0.999940  0.001890  0.000000  1
  Ho  Ho1  1  0.328358  0.661867  0.500000  1
  Fe  Fe2  1  0.092294  0.390769  0.000000  1
  Fe  Fe3  1  0.781441  0.179547  0.000000  1
  Fe  Fe4  1  0.391664  0.219648  0.000000  1
  Fe  Fe5  1  0.828515  0.603507  0.000000  1
  P  P6  1  0.558876  0.923861  0.000000  1
  P  P7  1  0.361329  0.445865  0.000000  1
  P  P8  1  0.073407  0.616264  0.000000  1
  P  P9  1  0.951813  0.223442  0.500000  1
  P  P10  1  0.268085  0.057294  0.500000  1
  P  P11  1  0.781999  0.730766  0.500000  1
  P  P12  1  0.664524  0.332956  0.000000  1
  Ir  Ir13  1  0.300557  0.899173  0.000000  1
  Ir  Ir14  1  0.724591  0.951208  0.500000  1
  Ir  Ir15  1  0.225840  0.283294  0.500000  1
  Ir  Ir16  1  0.052462  0.779189  0.500000  1
  Ru  Ru17  1  0.604714  0.697201  0.000000  1
  Ru  Ru18  1  0.539388  0.117524  0.500000  1
  Ru  Ru19  1  0.579847  0.454039  0.500000  1
  Ru  Ru20  1  0.890358  0.430691  0.500000  1
