# generated using pymatgen
data_Nd2Fe9Ni3P7
_symmetry_space_group_name_H-M   'P 1'
_cell_length_a   9.08749349
_cell_length_b   9.08003206
_cell_length_c   3.67571500
_cell_angle_alpha   90.00000000
_cell_angle_beta   90.00000000
_cell_angle_gamma   119.88007858
_symmetry_Int_Tables_number   1
_chemical_formula_structural   Nd2Fe9Ni3P7
_chemical_formula_sum   'Nd2 Fe9 Ni3 P7'
_cell_volume   262.98289029
_cell_formula_units_Z   1
loop_
 _symmetry_equiv_pos_site_id
 _symmetry_equiv_pos_as_xyz
  1  'x, y, z'
loop_
 _atom_site_type_symbol
 _atom_site_label
 _atom_site_symmetry_multiplicity
 _atom_site_fract_x
 _atom_site_fract_y
 _atom_site_fract_z
 _atom_site_occupancy
  Nd  Nd0  1  0.667700  0.334163  0.000000  1
  Nd  Nd1  1  0.332389  0.664577  0.500000  1
  Fe  Fe2  1  0.366658  0.426467  0.000000  1
  Fe  Fe3  1  0.272955  0.120459  0.000000  1
  Fe  Fe4  1  0.847123  0.730426  0.000000  1
  Fe  Fe5  1  0.880678  0.150938  0.000000  1
  Fe  Fe6  1  0.616510  0.569286  0.500000  1
  Fe  Fe7  1  0.952018  0.384476  0.500000  1
  Fe  Fe8  1  0.097565  0.877900  0.500000  1
  Fe  Fe9  1  0.788098  0.903095  0.500000  1
  Fe  Fe10  1  0.119952  0.217676  0.500000  1
  Ni  Ni11  1  0.058331  0.628960  0.000000  1
  Ni  Ni12  1  0.568821  0.940176  0.000000  1
  Ni  Ni13  1  0.432780  0.049889  0.500000  1
  P  P14  1  0.294065  0.892654  0.000000  1
  P  P15  1  0.592126  0.694900  0.000000  1
  P  P16  1  0.105714  0.400252  0.000000  1
  P  P17  1  0.395405  0.295470  0.500000  1
  P  P18  1  0.886152  0.602444  0.500000  1
  P  P19  1  0.722749  0.114589  0.500000  1
  P  P20  1  0.002211  0.001202  0.000000  1
