# generated using pymatgen
data_HfSc2Ga3CuIr2
_symmetry_space_group_name_H-M   'P 1'
_cell_length_a   7.25570174
_cell_length_b   7.29777996
_cell_length_c   3.31404700
_cell_angle_alpha   90.00000000
_cell_angle_beta   90.00000000
_cell_angle_gamma   120.19201716
_symmetry_Int_Tables_number   1
_chemical_formula_structural   HfSc2Ga3CuIr2
_chemical_formula_sum   'Hf1 Sc2 Ga3 Cu1 Ir2'
_cell_volume   151.67566655
_cell_formula_units_Z   1
loop_
 _symmetry_equiv_pos_site_id
 _symmetry_equiv_pos_as_xyz
  1  'x, y, z'
loop_
 _atom_site_type_symbol
 _atom_site_label
 _atom_site_symmetry_multiplicity
 _atom_site_fract_x
 _atom_site_fract_y
 _atom_site_fract_z
 _atom_site_occupancy
  Hf  Hf0  1  0.000000  0.601454  0.500000  1
  Sc  Sc1  1  0.398290  0.399183  0.500000  1
  Sc  Sc2  1  0.601710  0.000895  0.500000  1
  Ga  Ga3  1  0.729873  0.733784  0.000000  1
  Ga  Ga4  1  0.270127  0.003910  0.000000  1
  Ga  Ga5  1  0.000000  0.261076  0.000000  1
  Cu  Cu6  1  0.000000  0.994830  0.500000  1
  Ir  Ir7  1  0.674015  0.339441  0.000000  1
  Ir  Ir8  1  0.325985  0.665428  0.000000  1
