# generated using pymatgen
data_Dy12Ni5Pb
_symmetry_space_group_name_H-M   'P 1'
_cell_length_a   8.35123294
_cell_length_b   8.35233314
_cell_length_c   8.35123236
_cell_angle_alpha   107.15208914
_cell_angle_beta   109.69103223
_cell_angle_gamma   111.59575185
_symmetry_Int_Tables_number   1
_chemical_formula_structural   Dy12Ni5Pb
_chemical_formula_sum   'Dy12 Ni5 Pb1'
_cell_volume   447.77492322
_cell_formula_units_Z   1
loop_
 _symmetry_equiv_pos_site_id
 _symmetry_equiv_pos_as_xyz
  1  'x, y, z'
loop_
 _atom_site_type_symbol
 _atom_site_label
 _atom_site_symmetry_multiplicity
 _atom_site_fract_x
 _atom_site_fract_y
 _atom_site_fract_z
 _atom_site_occupancy
  Dy  Dy0  1  0.476246  0.295191  0.181061  1
  Dy  Dy1  1  0.114130  0.295191  0.818946  1
  Dy  Dy2  1  0.885870  0.704809  0.181054  1
  Dy  Dy3  1  0.523754  0.704809  0.818939  1
  Dy  Dy4  1  0.307129  0.627785  0.320657  1
  Dy  Dy5  1  0.307149  0.986483  0.679332  1
  Dy  Dy6  1  0.692871  0.372215  0.679343  1
  Dy  Dy7  1  0.692851  0.013517  0.320668  1
  Dy  Dy8  1  0.191732  0.209223  0.400937  1
  Dy  Dy9  1  0.808268  0.790777  0.599063  1
  Dy  Dy10  1  0.191715  0.790777  0.982508  1
  Dy  Dy11  1  0.808285  0.209223  0.017492  1
  Ni  Ni12  1  0.500022  0.624784  0.124762  1
  Ni  Ni13  1  0.499978  0.375216  0.875238  1
  Ni  Ni14  1  0.365599  0.000000  0.365599  1
  Ni  Ni15  1  0.634401  0.000000  0.634401  1
  Ni  Ni16  1  0.000000  0.000000  0.000000  1
  Pb  Pb17  1  0.000000  0.500000  0.500000  1
