# generated using pymatgen
data_TiIr5RhW
_symmetry_space_group_name_H-M   'P 1'
_cell_length_a   5.52601800
_cell_length_b   5.51947996
_cell_length_c   4.42860100
_cell_angle_alpha   90.00000000
_cell_angle_beta   90.00000000
_cell_angle_gamma   120.03919198
_symmetry_Int_Tables_number   1
_chemical_formula_structural   TiIr5RhW
_chemical_formula_sum   'Ti1 Ir5 Rh1 W1'
_cell_volume   116.93270398
_cell_formula_units_Z   1
loop_
 _symmetry_equiv_pos_site_id
 _symmetry_equiv_pos_as_xyz
  1  'x, y, z'
loop_
 _atom_site_type_symbol
 _atom_site_label
 _atom_site_symmetry_multiplicity
 _atom_site_fract_x
 _atom_site_fract_y
 _atom_site_fract_z
 _atom_site_occupancy
  Ti  Ti0  1  0.333496  0.666994  0.250000  1
  Ir  Ir1  1  0.833848  0.667693  0.250000  1
  Ir  Ir2  1  0.165662  0.835205  0.750000  1
  Ir  Ir3  1  0.669543  0.835205  0.750000  1
  Ir  Ir4  1  0.331787  0.165896  0.250000  1
  Ir  Ir5  1  0.834111  0.165896  0.250000  1
  Rh  Rh6  1  0.165231  0.330462  0.750000  1
  W  W7  1  0.666324  0.332647  0.750000  1
