# generated using pymatgen
data_Hf8Ti12Ge13As3
_symmetry_space_group_name_H-M   'P 1'
_cell_length_a   6.79970576
_cell_length_b   6.88343704
_cell_length_c   13.02291633
_cell_angle_alpha   89.98710077
_cell_angle_beta   89.86388219
_cell_angle_gamma   90.00003395
_symmetry_Int_Tables_number   1
_chemical_formula_structural   Hf8Ti12Ge13As3
_chemical_formula_sum   'Hf8 Ti12 Ge13 As3'
_cell_volume   609.54037642
_cell_formula_units_Z   1
loop_
 _symmetry_equiv_pos_site_id
 _symmetry_equiv_pos_as_xyz
  1  'x, y, z'
loop_
 _atom_site_type_symbol
 _atom_site_label
 _atom_site_symmetry_multiplicity
 _atom_site_fract_x
 _atom_site_fract_y
 _atom_site_fract_z
 _atom_site_occupancy
  Hf  Hf0  1  0.488001  0.676391  0.592306  1
  Hf  Hf1  1  0.985237  0.823216  0.906600  1
  Hf  Hf2  1  0.514709  0.323362  0.093518  1
  Hf  Hf3  1  0.013676  0.175660  0.406075  1
  Hf  Hf4  1  0.511944  0.323350  0.407587  1
  Hf  Hf5  1  0.013976  0.177258  0.093002  1
  Hf  Hf6  1  0.486289  0.677577  0.907416  1
  Hf  Hf7  1  0.986636  0.823410  0.593005  1
  Ti  Ti8  1  0.657478  0.162939  0.624260  1
  Ti  Ti9  1  0.157446  0.336590  0.876016  1
  Ti  Ti10  1  0.343160  0.836528  0.123836  1
  Ti  Ti11  1  0.842089  0.666120  0.374599  1
  Ti  Ti12  1  0.344132  0.834917  0.375434  1
  Ti  Ti13  1  0.844892  0.664015  0.124601  1
  Ti  Ti14  1  0.654663  0.163947  0.875275  1
  Ti  Ti15  1  0.157007  0.335100  0.625975  1
  Ti  Ti16  1  0.830017  0.494867  0.751063  1
  Ti  Ti17  1  0.329618  0.005643  0.750527  1
  Ti  Ti18  1  0.170727  0.505291  0.249153  1
  Ti  Ti19  1  0.670719  0.994466  0.249910  1
  Ge  Ge20  1  0.815765  0.458788  0.541010  1
  Ge  Ge21  1  0.309081  0.040621  0.541705  1
  Ge  Ge22  1  0.808976  0.459285  0.958070  1
  Ge  Ge23  1  0.691253  0.959368  0.041933  1
  Ge  Ge24  1  0.183643  0.540239  0.458814  1
  Ge  Ge25  1  0.460079  0.380853  0.749583  1
  Ge  Ge26  1  0.958352  0.119767  0.750463  1
  Ge  Ge27  1  0.540506  0.619508  0.249584  1
  Ge  Ge28  1  0.041760  0.880415  0.249860  1
  Ge  Ge29  1  0.689322  0.853838  0.749698  1
  Ge  Ge30  1  0.189811  0.645651  0.749625  1
  Ge  Ge31  1  0.310982  0.145361  0.250060  1
  Ge  Ge32  1  0.810328  0.354733  0.250602  1
  As  As33  1  0.688179  0.959569  0.458777  1
  As  As34  1  0.189046  0.540700  0.041320  1
  As  As35  1  0.310501  0.040656  0.958740  1
