# generated using pymatgen
data_GdNb8InSe16
_symmetry_space_group_name_H-M   'P 1'
_cell_length_a   7.02486600
_cell_length_b   7.02486701
_cell_length_c   15.01798100
_cell_angle_alpha   90.00000000
_cell_angle_beta   90.00000000
_cell_angle_gamma   120.00000467
_symmetry_Int_Tables_number   1
_chemical_formula_structural   GdNb8InSe16
_chemical_formula_sum   'Gd1 Nb8 In1 Se16'
_cell_volume   641.82748794
_cell_formula_units_Z   1
loop_
 _symmetry_equiv_pos_site_id
 _symmetry_equiv_pos_as_xyz
  1  'x, y, z'
loop_
 _atom_site_type_symbol
 _atom_site_label
 _atom_site_symmetry_multiplicity
 _atom_site_fract_x
 _atom_site_fract_y
 _atom_site_fract_z
 _atom_site_occupancy
  Gd  Gd0  1  0.000000  0.000000  0.000000  1
  Nb  Nb1  1  0.000000  0.000000  0.236253  1
  Nb  Nb2  1  0.000000  0.000000  0.763747  1
  Nb  Nb3  1  0.504762  0.009521  0.239540  1
  Nb  Nb4  1  0.495238  0.990479  0.760460  1
  Nb  Nb5  1  0.990479  0.495238  0.239540  1
  Nb  Nb6  1  0.009521  0.504762  0.760460  1
  Nb  Nb7  1  0.504762  0.495238  0.239540  1
  Nb  Nb8  1  0.495238  0.504762  0.760460  1
  In  In9  1  0.000000  0.000000  0.500000  1
  Se  Se10  1  0.333333  0.666667  0.648419  1
  Se  Se11  1  0.666667  0.333333  0.351581  1
  Se  Se12  1  0.666667  0.333333  0.126155  1
  Se  Se13  1  0.333333  0.666667  0.873845  1
  Se  Se14  1  0.170885  0.341769  0.128327  1
  Se  Se15  1  0.829115  0.658231  0.871673  1
  Se  Se16  1  0.658231  0.829115  0.128327  1
  Se  Se17  1  0.834354  0.668707  0.652942  1
  Se  Se18  1  0.341769  0.170885  0.871673  1
  Se  Se19  1  0.165646  0.331293  0.347058  1
  Se  Se20  1  0.170885  0.829115  0.128327  1
  Se  Se21  1  0.331293  0.165646  0.652942  1
  Se  Se22  1  0.829115  0.170885  0.871673  1
  Se  Se23  1  0.668707  0.834354  0.347058  1
  Se  Se24  1  0.834354  0.165646  0.652942  1
  Se  Se25  1  0.165646  0.834354  0.347058  1
