# generated using pymatgen
data_Dy3Y5Sc2Si5P
_symmetry_space_group_name_H-M   'P 1'
_cell_length_a   8.34748250
_cell_length_b   8.34748152
_cell_length_c   6.17040891
_cell_angle_alpha   89.95458543
_cell_angle_beta   89.95459351
_cell_angle_gamma   120.04490492
_symmetry_Int_Tables_number   1
_chemical_formula_structural   Dy3Y5Sc2Si5P
_chemical_formula_sum   'Dy3 Y5 Sc2 Si5 P1'
_cell_volume   372.18453349
_cell_formula_units_Z   1
loop_
 _symmetry_equiv_pos_site_id
 _symmetry_equiv_pos_as_xyz
  1  'x, y, z'
loop_
 _atom_site_type_symbol
 _atom_site_label
 _atom_site_symmetry_multiplicity
 _atom_site_fract_x
 _atom_site_fract_y
 _atom_site_fract_z
 _atom_site_occupancy
  Dy  Dy0  1  0.666302  0.333230  0.250037  1
  Dy  Dy1  1  0.333230  0.666302  0.250037  1
  Dy  Dy2  1  0.752432  0.752432  0.505058  1
  Y  Y3  1  0.244159  0.998469  0.504139  1
  Y  Y4  1  0.998469  0.244159  0.504139  1
  Y  Y5  1  0.249258  0.249258  0.995071  1
  Y  Y6  1  0.754491  0.999467  0.995428  1
  Y  Y7  1  0.999467  0.754491  0.995428  1
  Sc  Sc8  1  0.333700  0.666719  0.749393  1
  Sc  Sc9  1  0.666719  0.333700  0.749393  1
  Si  Si10  1  0.394588  0.394588  0.513569  1
  Si  Si11  1  0.602693  0.998910  0.515629  1
  Si  Si12  1  0.998910  0.602693  0.515629  1
  Si  Si13  1  0.396542  0.000286  0.984544  1
  Si  Si14  1  0.000286  0.396542  0.984544  1
  P  P15  1  0.608805  0.608805  0.987960  1
