# generated using pymatgen
data_AcPt2Au3
_symmetry_space_group_name_H-M   'P 1'
_cell_length_a   5.57865543
_cell_length_b   5.57865453
_cell_length_c   5.57865547
_cell_angle_alpha   120.06501713
_cell_angle_beta   119.21630329
_cell_angle_gamma   90.62508836
_symmetry_Int_Tables_number   1
_chemical_formula_structural   AcPt2Au3
_chemical_formula_sum   'Ac1 Pt2 Au3'
_cell_volume   123.41519028
_cell_formula_units_Z   1
loop_
 _symmetry_equiv_pos_site_id
 _symmetry_equiv_pos_as_xyz
  1  'x, y, z'
loop_
 _atom_site_type_symbol
 _atom_site_label
 _atom_site_symmetry_multiplicity
 _atom_site_fract_x
 _atom_site_fract_y
 _atom_site_fract_z
 _atom_site_occupancy
  Ac  Ac0  1  0.005003  0.005003  0.000000  1
  Pt  Pt1  1  0.623309  0.374557  0.248752  1
  Pt  Pt2  1  0.125806  0.374557  0.751248  1
  Au  Au3  1  0.622994  0.374767  0.751773  1
  Au  Au4  1  0.622994  0.871222  0.248227  1
  Au  Au5  1  0.249894  0.749894  0.500000  1
