# generated using pymatgen
data_Ca4TbY7(SiPd)12
_symmetry_space_group_name_H-M   'P 1'
_cell_length_a   4.34650800
_cell_length_b   7.45582801
_cell_length_c   21.27143503
_cell_angle_alpha   90.00572196
_cell_angle_beta   90.00000000
_cell_angle_gamma   90.00000000
_symmetry_Int_Tables_number   1
_chemical_formula_structural   Ca4TbY7(SiPd)12
_chemical_formula_sum   'Ca4 Tb1 Y7 Si12 Pd12'
_cell_volume   689.33947942
_cell_formula_units_Z   1
loop_
 _symmetry_equiv_pos_site_id
 _symmetry_equiv_pos_as_xyz
  1  'x, y, z'
loop_
 _atom_site_type_symbol
 _atom_site_label
 _atom_site_symmetry_multiplicity
 _atom_site_fract_x
 _atom_site_fract_y
 _atom_site_fract_z
 _atom_site_occupancy
  Ca  Ca0  1  0.250000  0.704136  0.332683  1
  Ca  Ca1  1  0.750000  0.295839  0.667315  1
  Ca  Ca2  1  0.750000  0.204159  0.167307  1
  Ca  Ca3  1  0.250000  0.795858  0.832689  1
  Tb  Tb4  1  0.250000  0.793854  0.500543  1
  Y  Y5  1  0.250000  0.795704  0.166318  1
  Y  Y6  1  0.750000  0.204292  0.833666  1
  Y  Y7  1  0.750000  0.295671  0.333683  1
  Y  Y8  1  0.250000  0.704336  0.666355  1
  Y  Y9  1  0.250000  0.706639  0.000461  1
  Y  Y10  1  0.750000  0.293363  0.999555  1
  Y  Y11  1  0.750000  0.206777  0.499531  1
  Si  Si12  1  0.250000  0.087124  0.065295  1
  Si  Si13  1  0.750000  0.912841  0.934708  1
  Si  Si14  1  0.750000  0.586728  0.434649  1
  Si  Si15  1  0.250000  0.412632  0.565297  1
  Si  Si16  1  0.250000  0.086847  0.274107  1
  Si  Si17  1  0.750000  0.913234  0.725908  1
  Si  Si18  1  0.750000  0.586758  0.225904  1
  Si  Si19  1  0.250000  0.413208  0.774099  1
  Si  Si20  1  0.250000  0.090006  0.395174  1
  Si  Si21  1  0.750000  0.910002  0.604862  1
  Si  Si22  1  0.750000  0.589917  0.104725  1
  Si  Si23  1  0.250000  0.410040  0.895274  1
  Pd  Pd24  1  0.250000  0.416036  0.236614  1
  Pd  Pd25  1  0.750000  0.583964  0.763370  1
  Pd  Pd26  1  0.750000  0.916036  0.263374  1
  Pd  Pd27  1  0.250000  0.084002  0.736629  1
  Pd  Pd28  1  0.250000  0.416945  0.437205  1
  Pd  Pd29  1  0.750000  0.583046  0.562753  1
  Pd  Pd30  1  0.750000  0.916985  0.062760  1
  Pd  Pd31  1  0.250000  0.083036  0.937234  1
  Pd  Pd32  1  0.250000  0.419095  0.092654  1
  Pd  Pd33  1  0.750000  0.580932  0.907335  1
  Pd  Pd34  1  0.750000  0.919072  0.407352  1
  Pd  Pd35  1  0.250000  0.080889  0.592614  1
