# generated using pymatgen
data_Pr5NdDy10(CdPt)4
_symmetry_space_group_name_H-M   'P 1'
_cell_length_a   9.81457537
_cell_length_b   9.81457504
_cell_length_c   9.79962700
_cell_angle_alpha   60.05036579
_cell_angle_beta   60.05036689
_cell_angle_gamma   60.11414476
_symmetry_Int_Tables_number   1
_chemical_formula_structural   Pr5NdDy10(CdPt)4
_chemical_formula_sum   'Pr5 Nd1 Dy10 Cd4 Pt4'
_cell_volume   668.56183304
_cell_formula_units_Z   1
loop_
 _symmetry_equiv_pos_site_id
 _symmetry_equiv_pos_as_xyz
  1  'x, y, z'
loop_
 _atom_site_type_symbol
 _atom_site_label
 _atom_site_symmetry_multiplicity
 _atom_site_fract_x
 _atom_site_fract_y
 _atom_site_fract_z
 _atom_site_occupancy
  Pr  Pr0  1  0.938567  0.561685  0.562025  1
  Pr  Pr1  1  0.561685  0.938567  0.937723  1
  Pr  Pr2  1  0.561685  0.938567  0.562025  1
  Pr  Pr3  1  0.938567  0.561685  0.937723  1
  Pr  Pr4  1  0.561653  0.561653  0.938347  1
  Nd  Nd5  1  0.938534  0.938534  0.561466  1
  Dy  Dy6  1  0.350165  0.350165  0.349949  1
  Dy  Dy7  1  0.350165  0.350165  0.949720  1
  Dy  Dy8  1  0.350324  0.948696  0.350489  1
  Dy  Dy9  1  0.948696  0.350324  0.350489  1
  Dy  Dy10  1  0.811882  0.187999  0.188763  1
  Dy  Dy11  1  0.187999  0.811882  0.811356  1
  Dy  Dy12  1  0.187999  0.811882  0.188763  1
  Dy  Dy13  1  0.811882  0.187999  0.811356  1
  Dy  Dy14  1  0.188314  0.188314  0.811686  1
  Dy  Dy15  1  0.811642  0.811642  0.188358  1
  Cd  Cd16  1  0.579591  0.579591  0.579562  1
  Cd  Cd17  1  0.579591  0.579591  0.261256  1
  Cd  Cd18  1  0.580074  0.260785  0.579571  1
  Cd  Cd19  1  0.260785  0.580074  0.579571  1
  Pt  Pt20  1  0.142716  0.142716  0.143006  1
  Pt  Pt21  1  0.142716  0.142716  0.571560  1
  Pt  Pt22  1  0.142711  0.572056  0.142616  1
  Pt  Pt23  1  0.572056  0.142711  0.142616  1
