# generated using pymatgen
data_Ca3Yb3(LuBi3)2
_symmetry_space_group_name_H-M   'P 1'
_cell_length_a   8.12413242
_cell_length_b   8.33219501
_cell_length_c   8.33837818
_cell_angle_alpha   109.98173626
_cell_angle_beta   108.97190100
_cell_angle_gamma   108.94157138
_symmetry_Int_Tables_number   1
_chemical_formula_structural   Ca3Yb3(LuBi3)2
_chemical_formula_sum   'Ca3 Yb3 Lu2 Bi6'
_cell_volume   437.22920827
_cell_formula_units_Z   1
loop_
 _symmetry_equiv_pos_site_id
 _symmetry_equiv_pos_as_xyz
  1  'x, y, z'
loop_
 _atom_site_type_symbol
 _atom_site_label
 _atom_site_symmetry_multiplicity
 _atom_site_fract_x
 _atom_site_fract_y
 _atom_site_fract_z
 _atom_site_occupancy
  Ca  Ca0  1  0.500930  0.999694  0.646343  1
  Ca  Ca1  1  0.354444  0.353555  0.353774  1
  Ca  Ca2  1  0.501168  0.000023  0.146594  1
  Yb  Yb3  1  0.001062  0.646682  0.500621  1
  Yb  Yb4  1  0.854589  0.853488  0.853185  1
  Yb  Yb5  1  0.000788  0.146334  0.499772  1
  Lu  Lu6  1  0.142453  0.499818  0.999652  1
  Lu  Lu7  1  0.642727  0.500322  0.000190  1
  Bi  Bi8  1  0.376794  0.621150  0.758728  1
  Bi  Bi9  1  0.877446  0.259058  0.121879  1
  Bi  Bi10  1  0.618986  0.741301  0.362983  1
  Bi  Bi11  1  0.117443  0.862284  0.240924  1
  Bi  Bi12  1  0.254807  0.137027  0.877646  1
  Bi  Bi13  1  0.756365  0.379265  0.637709  1
