# generated using pymatgen
data_Sr2Li4Sm2Si7Ge
_symmetry_space_group_name_H-M   'P 1'
_cell_length_a   3.87548600
_cell_length_b   7.91512996
_cell_length_c   10.76170602
_cell_angle_alpha   89.93213194
_cell_angle_beta   90.00000000
_cell_angle_gamma   90.00000000
_symmetry_Int_Tables_number   1
_chemical_formula_structural   Sr2Li4Sm2Si7Ge
_chemical_formula_sum   'Sr2 Li4 Sm2 Si7 Ge1'
_cell_volume   330.11483545
_cell_formula_units_Z   1
loop_
 _symmetry_equiv_pos_site_id
 _symmetry_equiv_pos_as_xyz
  1  'x, y, z'
loop_
 _atom_site_type_symbol
 _atom_site_label
 _atom_site_symmetry_multiplicity
 _atom_site_fract_x
 _atom_site_fract_y
 _atom_site_fract_z
 _atom_site_occupancy
  Sr  Sr0  1  0.250000  0.139893  0.631582  1
  Sr  Sr1  1  0.250000  0.644438  0.868637  1
  Li  Li2  1  0.250000  0.492598  0.389740  1
  Li  Li3  1  0.250000  0.992197  0.111347  1
  Li  Li4  1  0.750000  0.505243  0.604402  1
  Li  Li5  1  0.750000  0.003727  0.892824  1
  Sm  Sm6  1  0.750000  0.867934  0.364968  1
  Sm  Sm7  1  0.750000  0.367952  0.136358  1
  Si  Si8  1  0.250000  0.228971  0.940923  1
  Si  Si9  1  0.250000  0.731152  0.561610  1
  Si  Si10  1  0.750000  0.766532  0.081229  1
  Si  Si11  1  0.750000  0.266017  0.419843  1
  Si  Si12  1  0.250000  0.161297  0.314649  1
  Si  Si13  1  0.250000  0.660994  0.186097  1
  Si  Si14  1  0.750000  0.833401  0.666529  1
  Ge  Ge15  1  0.750000  0.337653  0.829265  1
