# generated using pymatgen
data_Zr4In(ReTc)12
_symmetry_space_group_name_H-M   'P 1'
_cell_length_a   8.46215527
_cell_length_b   8.46232026
_cell_length_c   8.46217400
_cell_angle_alpha   109.47182326
_cell_angle_beta   109.46973435
_cell_angle_gamma   109.47177226
_symmetry_Int_Tables_number   1
_chemical_formula_structural   Zr4In(ReTc)12
_chemical_formula_sum   'Zr4 In1 Re12 Tc12'
_cell_volume   466.47920325
_cell_formula_units_Z   1
loop_
 _symmetry_equiv_pos_site_id
 _symmetry_equiv_pos_as_xyz
  1  'x, y, z'
loop_
 _atom_site_type_symbol
 _atom_site_label
 _atom_site_symmetry_multiplicity
 _atom_site_fract_x
 _atom_site_fract_y
 _atom_site_fract_z
 _atom_site_occupancy
  Zr  Zr0  1  0.629054  0.999996  0.999986  1
  Zr  Zr1  1  0.000016  0.629076  0.000021  1
  Zr  Zr2  1  0.000006  0.999982  0.629055  1
  Zr  Zr3  1  0.370931  0.370947  0.370933  1
  In  In4  1  0.000004  0.999999  0.999998  1
  Re  Re5  1  0.377082  0.195001  0.999994  1
  Re  Re6  1  0.182080  0.804991  0.804990  1
  Re  Re7  1  0.377087  0.000005  0.195004  1
  Re  Re8  1  0.194999  0.377079  0.999993  1
  Re  Re9  1  0.000004  0.377082  0.195005  1
  Re  Re10  1  0.805002  0.182091  0.804998  1
  Re  Re11  1  0.805004  0.805003  0.182077  1
  Re  Re12  1  0.000004  0.195006  0.377096  1
  Re  Re13  1  0.195001  0.000000  0.377084  1
  Re  Re14  1  0.622910  0.622906  0.817910  1
  Re  Re15  1  0.817924  0.622911  0.622925  1
  Re  Re16  1  0.622922  0.817918  0.622927  1
  Tc  Tc17  1  0.394560  0.674982  0.999995  1
  Tc  Tc18  1  0.719591  0.325024  0.325016  1
  Tc  Tc19  1  0.394573  0.999991  0.674979  1
  Tc  Tc20  1  0.674996  0.394579  0.000004  1
  Tc  Tc21  1  0.000009  0.394602  0.675014  1
  Tc  Tc22  1  0.324999  0.719574  0.325003  1
  Tc  Tc23  1  0.325009  0.325007  0.719588  1
  Tc  Tc24  1  0.000007  0.674987  0.394576  1
  Tc  Tc25  1  0.674980  0.999997  0.394577  1
  Tc  Tc26  1  0.605413  0.605405  0.280404  1
  Tc  Tc27  1  0.280406  0.605431  0.605421  1
  Tc  Tc28  1  0.605427  0.280426  0.605426  1
