# generated using pymatgen
data_LiPr10Nd6Cd3Pt4
_symmetry_space_group_name_H-M   'P 1'
_cell_length_a   10.06653661
_cell_length_b   10.07238600
_cell_length_c   10.07238608
_cell_angle_alpha   60.07261197
_cell_angle_beta   60.12756030
_cell_angle_gamma   60.12756708
_symmetry_Int_Tables_number   1
_chemical_formula_structural   LiPr10Nd6Cd3Pt4
_chemical_formula_sum   'Li1 Pr10 Nd6 Cd3 Pt4'
_cell_volume   723.94099039
_cell_formula_units_Z   1
loop_
 _symmetry_equiv_pos_site_id
 _symmetry_equiv_pos_as_xyz
  1  'x, y, z'
loop_
 _atom_site_type_symbol
 _atom_site_label
 _atom_site_symmetry_multiplicity
 _atom_site_fract_x
 _atom_site_fract_y
 _atom_site_fract_z
 _atom_site_occupancy
  Li  Li0  1  0.571262  0.571496  0.571496  1
  Pr  Pr1  1  0.192529  0.809501  0.192355  1
  Pr  Pr2  1  0.811401  0.188005  0.811311  1
  Pr  Pr3  1  0.192529  0.192355  0.809501  1
  Pr  Pr4  1  0.811401  0.811311  0.188005  1
  Pr  Pr5  1  0.937274  0.564190  0.564190  1
  Pr  Pr6  1  0.561898  0.936528  0.936528  1
  Pr  Pr7  1  0.564127  0.937238  0.564091  1
  Pr  Pr8  1  0.936520  0.561829  0.936560  1
  Pr  Pr9  1  0.564127  0.564091  0.937238  1
  Pr  Pr10  1  0.936520  0.936560  0.561829  1
  Nd  Nd11  1  0.349849  0.349447  0.349447  1
  Nd  Nd12  1  0.349841  0.350353  0.950829  1
  Nd  Nd13  1  0.349841  0.950829  0.350353  1
  Nd  Nd14  1  0.950725  0.349917  0.349917  1
  Nd  Nd15  1  0.809405  0.192532  0.192532  1
  Nd  Nd16  1  0.187988  0.811316  0.811316  1
  Cd  Cd17  1  0.581779  0.581444  0.257539  1
  Cd  Cd18  1  0.581779  0.257539  0.581444  1
  Cd  Cd19  1  0.257529  0.581780  0.581780  1
  Pt  Pt20  1  0.143550  0.144686  0.144686  1
  Pt  Pt21  1  0.143801  0.142676  0.570571  1
  Pt  Pt22  1  0.143801  0.570571  0.142676  1
  Pt  Pt23  1  0.570522  0.143805  0.143805  1
