# generated using pymatgen
data_RbLu10(C2I9)2
_symmetry_space_group_name_H-M   'P 1'
_cell_length_a   11.32840542
_cell_length_b   11.31443925
_cell_length_c   11.32879166
_cell_angle_alpha   113.34929588
_cell_angle_beta   86.50784541
_cell_angle_gamma   120.19444413
_symmetry_Int_Tables_number   1
_chemical_formula_structural   RbLu10(C2I9)2
_chemical_formula_sum   'Rb1 Lu10 C4 I18'
_cell_volume   1134.60514725
_cell_formula_units_Z   1
loop_
 _symmetry_equiv_pos_site_id
 _symmetry_equiv_pos_as_xyz
  1  'x, y, z'
loop_
 _atom_site_type_symbol
 _atom_site_label
 _atom_site_symmetry_multiplicity
 _atom_site_fract_x
 _atom_site_fract_y
 _atom_site_fract_z
 _atom_site_occupancy
  Rb  Rb0  1  0.500000  0.000000  0.500000  1
  Lu  Lu1  1  0.686395  0.729133  0.717711  1
  Lu  Lu2  1  0.275580  0.350424  0.014690  1
  Lu  Lu3  1  0.092816  0.382189  0.286107  1
  Lu  Lu4  1  0.964107  0.036331  0.321267  1
  Lu  Lu5  1  0.907184  0.617811  0.713893  1
  Lu  Lu6  1  0.101543  0.945477  0.000552  1
  Lu  Lu7  1  0.035893  0.963669  0.678733  1
  Lu  Lu8  1  0.313605  0.270867  0.282289  1
  Lu  Lu9  1  0.724420  0.649576  0.985310  1
  Lu  Lu10  1  0.898457  0.054523  0.999448  1
  C  C11  1  0.150717  0.216934  0.116004  1
  C  C12  1  0.849283  0.783066  0.883996  1
  C  C13  1  0.927544  0.861495  0.805881  1
  C  C14  1  0.072456  0.138505  0.194119  1
  I  I15  1  0.452039  0.531008  0.833255  1
  I  I16  1  0.381237  0.042336  0.157756  1
  I  I17  1  0.780431  0.857172  0.503729  1
  I  I18  1  0.840626  0.308503  0.152677  1
  I  I19  1  0.547961  0.468992  0.166745  1
  I  I20  1  0.219569  0.142828  0.496271  1
  I  I21  1  0.316965  0.097595  0.827938  1
  I  I22  1  0.683035  0.902405  0.172062  1
  I  I23  1  0.971443  0.754114  0.169253  1
  I  I24  1  0.935279  0.296609  0.497848  1
  I  I25  1  0.028557  0.245886  0.830747  1
  I  I26  1  0.064721  0.703391  0.502152  1
  I  I27  1  0.260735  0.619884  0.184373  1
  I  I28  1  0.739265  0.380116  0.815627  1
  I  I29  1  0.646934  0.440867  0.505745  1
  I  I30  1  0.159374  0.691497  0.847323  1
  I  I31  1  0.618763  0.957664  0.842244  1
  I  I32  1  0.353066  0.559133  0.494255  1
