# generated using pymatgen
data_Sm3Ho2Sn3Cl
_symmetry_space_group_name_H-M   'P 1'
_cell_length_a   9.20430100
_cell_length_b   9.20430119
_cell_length_c   6.60484000
_cell_angle_alpha   90.00000000
_cell_angle_beta   90.00000000
_cell_angle_gamma   119.99999572
_symmetry_Int_Tables_number   1
_chemical_formula_structural   Sm3Ho2Sn3Cl
_chemical_formula_sum   'Sm6 Ho4 Sn6 Cl2'
_cell_volume   484.59015428
_cell_formula_units_Z   2
loop_
 _symmetry_equiv_pos_site_id
 _symmetry_equiv_pos_as_xyz
  1  'x, y, z'
loop_
 _atom_site_type_symbol
 _atom_site_label
 _atom_site_symmetry_multiplicity
 _atom_site_fract_x
 _atom_site_fract_y
 _atom_site_fract_z
 _atom_site_occupancy
  Sm  Sm0  1  0.739706  0.000000  0.750000  1
  Sm  Sm1  1  0.739706  0.739706  0.250000  1
  Sm  Sm2  1  0.000000  0.260294  0.250000  1
  Sm  Sm3  1  0.000000  0.739706  0.750000  1
  Sm  Sm4  1  0.260294  0.260294  0.750000  1
  Sm  Sm5  1  0.260294  0.000000  0.250000  1
  Ho  Ho6  1  0.666667  0.333333  0.000000  1
  Ho  Ho7  1  0.333333  0.666667  0.500000  1
  Ho  Ho8  1  0.666667  0.333333  0.500000  1
  Ho  Ho9  1  0.333333  0.666667  0.000000  1
  Sn  Sn10  1  0.607367  0.607367  0.750000  1
  Sn  Sn11  1  0.000000  0.607367  0.250000  1
  Sn  Sn12  1  0.607367  0.000000  0.250000  1
  Sn  Sn13  1  0.392633  0.000000  0.750000  1
  Sn  Sn14  1  0.000000  0.392633  0.750000  1
  Sn  Sn15  1  0.392633  0.392633  0.250000  1
  Cl  Cl16  1  0.000000  0.000000  0.500000  1
  Cl  Cl17  1  0.000000  0.000000  0.000000  1
