# generated using pymatgen
data_NdDy(ZnSi)2
_symmetry_space_group_name_H-M   'P 1'
_cell_length_a   4.18448200
_cell_length_b   4.18448311
_cell_length_c   16.20402700
_cell_angle_alpha   90.00000000
_cell_angle_beta   90.00000000
_cell_angle_gamma   119.99999119
_symmetry_Int_Tables_number   1
_chemical_formula_structural   NdDy(ZnSi)2
_chemical_formula_sum   'Nd2 Dy2 Zn4 Si4'
_cell_volume   245.71810202
_cell_formula_units_Z   2
loop_
 _symmetry_equiv_pos_site_id
 _symmetry_equiv_pos_as_xyz
  1  'x, y, z'
loop_
 _atom_site_type_symbol
 _atom_site_label
 _atom_site_symmetry_multiplicity
 _atom_site_fract_x
 _atom_site_fract_y
 _atom_site_fract_z
 _atom_site_occupancy
  Nd  Nd0  1  0.000000  0.000000  0.000000  1
  Nd  Nd1  1  0.000000  0.000000  0.500000  1
  Dy  Dy2  1  0.000000  0.000000  0.250000  1
  Dy  Dy3  1  0.000000  0.000000  0.750000  1
  Zn  Zn4  1  0.333333  0.666667  0.142517  1
  Zn  Zn5  1  0.666667  0.333333  0.857483  1
  Zn  Zn6  1  0.666667  0.333333  0.642517  1
  Zn  Zn7  1  0.333333  0.666667  0.357483  1
  Si  Si8  1  0.333333  0.666667  0.621853  1
  Si  Si9  1  0.666667  0.333333  0.378147  1
  Si  Si10  1  0.666667  0.333333  0.121853  1
  Si  Si11  1  0.333333  0.666667  0.878147  1
