# generated using pymatgen
data_LuPa(ZnRh)2
_symmetry_space_group_name_H-M   'P 1'
_cell_length_a   3.78101500
_cell_length_b   7.07673308
_cell_length_c   8.42513255
_cell_angle_alpha   91.63718485
_cell_angle_beta   90.00000000
_cell_angle_gamma   90.00000000
_symmetry_Int_Tables_number   1
_chemical_formula_structural   LuPa(ZnRh)2
_chemical_formula_sum   'Lu2 Pa2 Zn4 Rh4'
_cell_volume   225.34121684
_cell_formula_units_Z   2
loop_
 _symmetry_equiv_pos_site_id
 _symmetry_equiv_pos_as_xyz
  1  'x, y, z'
loop_
 _atom_site_type_symbol
 _atom_site_label
 _atom_site_symmetry_multiplicity
 _atom_site_fract_x
 _atom_site_fract_y
 _atom_site_fract_z
 _atom_site_occupancy
  Lu  Lu0  1  0.750000  0.938518  0.682958  1
  Lu  Lu1  1  0.250000  0.061482  0.317042  1
  Pa  Pa2  1  0.250000  0.556394  0.189434  1
  Pa  Pa3  1  0.750000  0.443606  0.810566  1
  Zn  Zn4  1  0.250000  0.628702  0.558587  1
  Zn  Zn5  1  0.750000  0.371298  0.441413  1
  Zn  Zn6  1  0.750000  0.888856  0.061476  1
  Zn  Zn7  1  0.250000  0.111144  0.938524  1
  Rh  Rh8  1  0.250000  0.717590  0.875770  1
  Rh  Rh9  1  0.750000  0.282410  0.124230  1
  Rh  Rh10  1  0.750000  0.754069  0.357792  1
  Rh  Rh11  1  0.250000  0.245931  0.642208  1
