# generated using pymatgen
data_Dy3Ho5Sc12(GaSi3)4
_symmetry_space_group_name_H-M   'P 1'
_cell_length_a   7.12695117
_cell_length_b   7.40536368
_cell_length_c   14.13135701
_cell_angle_alpha   90.00979083
_cell_angle_beta   89.87409380
_cell_angle_gamma   90.14394708
_symmetry_Int_Tables_number   1
_chemical_formula_structural   Dy3Ho5Sc12(GaSi3)4
_chemical_formula_sum   'Dy3 Ho5 Sc12 Ga4 Si12'
_cell_volume   745.81586603
_cell_formula_units_Z   1
loop_
 _symmetry_equiv_pos_site_id
 _symmetry_equiv_pos_as_xyz
  1  'x, y, z'
loop_
 _atom_site_type_symbol
 _atom_site_label
 _atom_site_symmetry_multiplicity
 _atom_site_fract_x
 _atom_site_fract_y
 _atom_site_fract_z
 _atom_site_occupancy
  Dy  Dy0  1  0.013662  0.174658  0.097150  1
  Dy  Dy1  1  0.987979  0.825011  0.901762  1
  Dy  Dy2  1  0.486941  0.676728  0.901488  1
  Ho  Ho3  1  0.987570  0.827505  0.600253  1
  Ho  Ho4  1  0.510925  0.321491  0.097420  1
  Ho  Ho5  1  0.009943  0.174683  0.400626  1
  Ho  Ho6  1  0.511278  0.324556  0.400552  1
  Ho  Ho7  1  0.490097  0.675877  0.600580  1
  Sc  Sc8  1  0.162485  0.501141  0.751203  1
  Sc  Sc9  1  0.836812  0.498042  0.250122  1
  Sc  Sc10  1  0.336564  0.002260  0.248547  1
  Sc  Sc11  1  0.663062  0.998321  0.749910  1
  Sc  Sc12  1  0.333053  0.174931  0.627501  1
  Sc  Sc13  1  0.669410  0.825913  0.373890  1
  Sc  Sc14  1  0.170263  0.674147  0.373196  1
  Sc  Sc15  1  0.668832  0.825779  0.125463  1
  Sc  Sc16  1  0.828856  0.324333  0.626551  1
  Sc  Sc17  1  0.330460  0.175836  0.874654  1
  Sc  Sc18  1  0.829180  0.323196  0.874265  1
  Sc  Sc19  1  0.173013  0.675627  0.124544  1
  Ga  Ga20  1  0.161580  0.461705  0.539781  1
  Ga  Ga21  1  0.839310  0.537812  0.461254  1
  Ga  Ga22  1  0.339653  0.962072  0.461383  1
  Ga  Ga23  1  0.839856  0.537833  0.038792  1
  Si  Si24  1  0.033007  0.116510  0.751071  1
  Si  Si25  1  0.966979  0.883829  0.249349  1
  Si  Si26  1  0.467327  0.614642  0.248553  1
  Si  Si27  1  0.532960  0.384896  0.751019  1
  Si  Si28  1  0.285921  0.871971  0.750858  1
  Si  Si29  1  0.714900  0.127710  0.248811  1
  Si  Si30  1  0.214320  0.372270  0.248932  1
  Si  Si31  1  0.786662  0.628606  0.751226  1
  Si  Si32  1  0.658109  0.036128  0.539359  1
  Si  Si33  1  0.158069  0.463580  0.960763  1
  Si  Si34  1  0.656528  0.036035  0.961262  1
  Si  Si35  1  0.344433  0.964361  0.037916  1
