# generated using pymatgen
data_K4ScFe3P4(O4F)4
_symmetry_space_group_name_H-M   'P 1'
_cell_length_a   6.44680100
_cell_length_b   10.80440100
_cell_length_c   13.05242200
_cell_angle_alpha   90.00000000
_cell_angle_beta   90.00000000
_cell_angle_gamma   90.00000000
_symmetry_Int_Tables_number   1
_chemical_formula_structural   K4ScFe3P4(O4F)4
_chemical_formula_sum   'K8 Sc2 Fe6 P8 O32 F8'
_cell_volume   909.15109394
_cell_formula_units_Z   2
loop_
 _symmetry_equiv_pos_site_id
 _symmetry_equiv_pos_as_xyz
  1  'x, y, z'
loop_
 _atom_site_type_symbol
 _atom_site_label
 _atom_site_symmetry_multiplicity
 _atom_site_fract_x
 _atom_site_fract_y
 _atom_site_fract_z
 _atom_site_occupancy
  K  K0  1  0.773651  0.203088  0.375029  1
  K  K1  1  0.302861  0.941637  0.894860  1
  K  K2  1  0.801758  0.444221  0.604304  1
  K  K3  1  0.198242  0.944221  0.395696  1
  K  K4  1  0.697139  0.441637  0.105140  1
  K  K5  1  0.272426  0.703268  0.122698  1
  K  K6  1  0.727574  0.203268  0.877302  1
  K  K7  1  0.226349  0.703088  0.624971  1
  Sc  Sc8  1  0.751353  0.749308  0.253746  1
  Sc  Sc9  1  0.248647  0.249308  0.746254  1
  Fe  Fe10  1  0.748889  0.748658  0.753171  1
  Fe  Fe11  1  0.251111  0.248658  0.246829  1
  Fe  Fe12  1  0.493621  0.497817  0.388803  1
  Fe  Fe13  1  0.506379  0.997817  0.611197  1
  Fe  Fe14  1  0.007185  0.500387  0.889174  1
  Fe  Fe15  1  0.992815  0.000387  0.110826  1
  P  P16  1  0.000701  0.493390  0.317628  1
  P  P17  1  0.494587  0.998662  0.181823  1
  P  P18  1  0.505413  0.498662  0.818177  1
  P  P19  1  0.999299  0.993390  0.682372  1
  P  P20  1  0.170368  0.248566  0.001674  1
  P  P21  1  0.829632  0.748566  0.998326  1
  P  P22  1  0.329492  0.247143  0.497473  1
  P  P23  1  0.670508  0.747143  0.502527  1
  O  O24  1  0.307055  0.972969  0.110330  1
  O  O25  1  0.809669  0.019944  0.613422  1
  O  O26  1  0.310833  0.522573  0.884434  1
  O  O27  1  0.689167  0.022573  0.115566  1
  O  O28  1  0.034513  0.377774  0.248067  1
  O  O29  1  0.965487  0.877774  0.751933  1
  O  O30  1  0.474586  0.384740  0.746906  1
  O  O31  1  0.525414  0.884740  0.253094  1
  O  O32  1  0.517382  0.857648  0.514919  1
  O  O33  1  0.482618  0.357648  0.485081  1
  O  O34  1  0.979701  0.860013  0.013837  1
  O  O35  1  0.020299  0.360013  0.986163  1
  O  O36  1  0.808260  0.469541  0.386585  1
  O  O37  1  0.191740  0.969541  0.613415  1
  O  O38  1  0.692945  0.472969  0.889670  1
  O  O39  1  0.190331  0.519944  0.386578  1
  O  O40  1  0.530930  0.630370  0.488724  1
  O  O41  1  0.469070  0.130370  0.511276  1
  O  O42  1  0.972737  0.632719  0.988181  1
  O  O43  1  0.453018  0.110323  0.254136  1
  O  O44  1  0.811837  0.768334  0.409132  1
  O  O45  1  0.188163  0.268334  0.590868  1
  O  O46  1  0.693381  0.768657  0.902758  1
  O  O47  1  0.306619  0.268657  0.097242  1
  O  O48  1  0.691274  0.729353  0.093561  1
  O  O49  1  0.308726  0.229353  0.906439  1
  O  O50  1  0.804094  0.727758  0.599528  1
  O  O51  1  0.195906  0.227758  0.400472  1
  O  O52  1  0.960240  0.603296  0.243945  1
  O  O53  1  0.039760  0.103296  0.756055  1
  O  O54  1  0.546982  0.610323  0.745864  1
  O  O55  1  0.027263  0.132719  0.011819  1
  F  F56  1  0.987369  0.871216  0.227087  1
  F  F57  1  0.012631  0.371216  0.772913  1
  F  F58  1  0.517927  0.868813  0.727432  1
  F  F59  1  0.482073  0.368813  0.272568  1
  F  F60  1  0.025000  0.119400  0.230040  1
  F  F61  1  0.975000  0.619400  0.769960  1
  F  F62  1  0.478200  0.117015  0.730706  1
  F  F63  1  0.521800  0.617015  0.269294  1
