# generated using pymatgen
data_Y4Al13Au9
_symmetry_space_group_name_H-M   'P 1'
_cell_length_a   11.71717300
_cell_length_b   11.71717097
_cell_length_c   4.17236600
_cell_angle_alpha   90.00000000
_cell_angle_beta   90.00000000
_cell_angle_gamma   119.99999726
_symmetry_Int_Tables_number   1
_chemical_formula_structural   Y4Al13Au9
_chemical_formula_sum   'Y4 Al13 Au9'
_cell_volume   496.08791845
_cell_formula_units_Z   1
loop_
 _symmetry_equiv_pos_site_id
 _symmetry_equiv_pos_as_xyz
  1  'x, y, z'
loop_
 _atom_site_type_symbol
 _atom_site_label
 _atom_site_symmetry_multiplicity
 _atom_site_fract_x
 _atom_site_fract_y
 _atom_site_fract_z
 _atom_site_occupancy
  Y  Y0  1  0.206022  0.793978  0.500000  1
  Y  Y1  1  0.587957  0.793978  0.500000  1
  Y  Y2  1  0.206022  0.412043  0.500000  1
  Y  Y3  1  0.666667  0.333333  0.000000  1
  Al  Al4  1  0.949234  0.294023  0.000000  1
  Al  Al5  1  0.705977  0.655212  0.000000  1
  Al  Al6  1  0.949234  0.655212  0.000000  1
  Al  Al7  1  0.344788  0.050766  0.000000  1
  Al  Al8  1  0.169181  0.084591  0.500000  1
  Al  Al9  1  0.915409  0.830819  0.500000  1
  Al  Al10  1  0.705977  0.050766  0.000000  1
  Al  Al11  1  0.531614  0.063227  0.500000  1
  Al  Al12  1  0.915409  0.084591  0.500000  1
  Al  Al13  1  0.344788  0.294023  0.000000  1
  Al  Al14  1  0.531614  0.468386  0.500000  1
  Al  Al15  1  0.936773  0.468386  0.500000  1
  Al  Al16  1  0.333333  0.666667  0.000000  1
  Au  Au17  1  0.455048  0.544952  0.000000  1
  Au  Au18  1  0.823333  0.911666  0.000000  1
  Au  Au19  1  0.455048  0.910095  0.000000  1
  Au  Au20  1  0.088334  0.176667  0.000000  1
  Au  Au21  1  0.088334  0.911666  0.000000  1
  Au  Au22  1  0.786541  0.573081  0.500000  1
  Au  Au23  1  0.089905  0.544952  0.000000  1
  Au  Au24  1  0.786541  0.213459  0.500000  1
  Au  Au25  1  0.426919  0.213459  0.500000  1
