# generated using pymatgen
data_TaFe2MoBr16
_symmetry_space_group_name_H-M   'P 1'
_cell_length_a   10.35468115
_cell_length_b   10.35468087
_cell_length_c   9.16463700
_cell_angle_alpha   90.00000000
_cell_angle_beta   90.00000000
_cell_angle_gamma   128.48316208
_symmetry_Int_Tables_number   1
_chemical_formula_structural   TaFe2MoBr16
_chemical_formula_sum   'Ta1 Fe2 Mo1 Br16'
_cell_volume   769.19167813
_cell_formula_units_Z   1
loop_
 _symmetry_equiv_pos_site_id
 _symmetry_equiv_pos_as_xyz
  1  'x, y, z'
loop_
 _atom_site_type_symbol
 _atom_site_label
 _atom_site_symmetry_multiplicity
 _atom_site_fract_x
 _atom_site_fract_y
 _atom_site_fract_z
 _atom_site_occupancy
  Ta  Ta0  1  0.386341  0.613659  0.750000  1
  Fe  Fe1  1  0.810364  0.189636  0.250000  1
  Fe  Fe2  1  0.187296  0.812704  0.750000  1
  Mo  Mo3  1  0.614271  0.385729  0.250000  1
  Br  Br4  1  0.519588  0.066930  0.250000  1
  Br  Br5  1  0.069729  0.523387  0.750000  1
  Br  Br6  1  0.476613  0.930271  0.750000  1
  Br  Br7  1  0.933070  0.480412  0.250000  1
  Br  Br8  1  0.636582  0.363418  0.988731  1
  Br  Br9  1  0.368315  0.631685  0.017711  1
  Br  Br10  1  0.636582  0.363418  0.511269  1
  Br  Br11  1  0.368315  0.631685  0.482289  1
  Br  Br12  1  0.328358  0.272513  0.250000  1
  Br  Br13  1  0.261096  0.322967  0.750000  1
  Br  Br14  1  0.677033  0.738904  0.750000  1
  Br  Br15  1  0.727487  0.671642  0.250000  1
  Br  Br16  1  0.880369  0.119631  0.457875  1
  Br  Br17  1  0.119112  0.880888  0.540750  1
  Br  Br18  1  0.880369  0.119631  0.042125  1
  Br  Br19  1  0.119112  0.880888  0.959250  1
