# generated using pymatgen
data_Tb16Dy4Ir5Au7
_symmetry_space_group_name_H-M   'P 1'
_cell_length_a   11.36101119
_cell_length_b   11.36101119
_cell_length_c   6.31226413
_cell_angle_alpha   89.87249957
_cell_angle_beta   89.87249957
_cell_angle_gamma   90.27781161
_symmetry_Int_Tables_number   1
_chemical_formula_structural   Tb16Dy4Ir5Au7
_chemical_formula_sum   'Tb16 Dy4 Ir5 Au7'
_cell_volume   814.72655580
_cell_formula_units_Z   1
loop_
 _symmetry_equiv_pos_site_id
 _symmetry_equiv_pos_as_xyz
  1  'x, y, z'
loop_
 _atom_site_type_symbol
 _atom_site_label
 _atom_site_symmetry_multiplicity
 _atom_site_fract_x
 _atom_site_fract_y
 _atom_site_fract_z
 _atom_site_occupancy
  Tb  Tb0  1  0.298737  0.080512  0.356629  1
  Tb  Tb1  1  0.297981  0.905269  0.858128  1
  Tb  Tb2  1  0.700936  0.083633  0.854263  1
  Tb  Tb3  1  0.698590  0.915070  0.354063  1
  Tb  Tb4  1  0.576146  0.792394  0.856379  1
  Tb  Tb5  1  0.583970  0.202523  0.356812  1
  Tb  Tb6  1  0.410401  0.790878  0.369651  1
  Tb  Tb7  1  0.414902  0.198899  0.855235  1
  Tb  Tb8  1  0.207606  0.423854  0.643621  1
  Tb  Tb9  1  0.209122  0.589599  0.130349  1
  Tb  Tb10  1  0.797477  0.416030  0.143188  1
  Tb  Tb11  1  0.801101  0.585098  0.644765  1
  Tb  Tb12  1  0.919488  0.701263  0.143371  1
  Tb  Tb13  1  0.916367  0.299064  0.645737  1
  Tb  Tb14  1  0.094731  0.702019  0.641872  1
  Tb  Tb15  1  0.084930  0.301410  0.145937  1
  Dy  Dy16  1  0.998335  0.000117  0.501596  1
  Dy  Dy17  1  0.999883  0.001665  0.998404  1
  Dy  Dy18  1  0.494209  0.502921  0.999162  1
  Dy  Dy19  1  0.497079  0.505791  0.500838  1
  Ir  Ir20  1  0.348910  0.651090  0.750000  1
  Ir  Ir21  1  0.499451  0.999372  0.102377  1
  Ir  Ir22  1  0.498970  0.999918  0.601876  1
  Ir  Ir23  1  0.000082  0.501030  0.898124  1
  Ir  Ir24  1  0.000628  0.500549  0.397623  1
  Au  Au25  1  0.844998  0.155002  0.250000  1
  Au  Au26  1  0.841712  0.845689  0.751833  1
  Au  Au27  1  0.154311  0.158288  0.748167  1
  Au  Au28  1  0.153275  0.846725  0.250000  1
  Au  Au29  1  0.653403  0.346597  0.750000  1
  Au  Au30  1  0.657082  0.654812  0.247992  1
  Au  Au31  1  0.345188  0.342918  0.252008  1
