# generated using pymatgen
data_Dy5ReMoC7
_symmetry_space_group_name_H-M   'P 1'
_cell_length_a   8.38725970
_cell_length_b   8.38725898
_cell_length_c   3.42545500
_cell_angle_alpha   90.00000000
_cell_angle_beta   90.00000000
_cell_angle_gamma   122.74096520
_symmetry_Int_Tables_number   1
_chemical_formula_structural   Dy5ReMoC7
_chemical_formula_sum   'Dy5 Re1 Mo1 C7'
_cell_volume   202.68359297
_cell_formula_units_Z   1
loop_
 _symmetry_equiv_pos_site_id
 _symmetry_equiv_pos_as_xyz
  1  'x, y, z'
loop_
 _atom_site_type_symbol
 _atom_site_label
 _atom_site_symmetry_multiplicity
 _atom_site_fract_x
 _atom_site_fract_y
 _atom_site_fract_z
 _atom_site_occupancy
  Dy  Dy0  1  0.499005  0.500995  0.000000  1
  Dy  Dy1  1  0.075612  0.334144  0.500000  1
  Dy  Dy2  1  0.926234  0.666549  0.500000  1
  Dy  Dy3  1  0.665856  0.924388  0.500000  1
  Dy  Dy4  1  0.333451  0.073766  0.500000  1
  Re  Re5  1  0.286587  0.713413  0.000000  1
  Mo  Mo6  1  0.713678  0.286322  0.000000  1
  C  C7  1  0.624158  0.375842  0.500000  1
  C  C8  1  0.373150  0.626850  0.500000  1
  C  C9  1  0.999898  0.000102  0.000000  1
  C  C10  1  0.169058  0.168075  0.000000  1
  C  C11  1  0.831925  0.830942  0.000000  1
  C  C12  1  0.002320  0.500933  0.000000  1
  C  C13  1  0.499067  0.997680  0.000000  1
