# generated using pymatgen
data_EuYZn2Ni5
_symmetry_space_group_name_H-M   'P 1'
_cell_length_a   5.18202108
_cell_length_b   5.18201953
_cell_length_c   12.35893700
_cell_angle_alpha   77.89834323
_cell_angle_beta   77.89834691
_cell_angle_gamma   59.99999336
_symmetry_Int_Tables_number   1
_chemical_formula_structural   EuYZn2Ni5
_chemical_formula_sum   'Eu2 Y2 Zn4 Ni10'
_cell_volume   278.86659307
_cell_formula_units_Z   2
loop_
 _symmetry_equiv_pos_site_id
 _symmetry_equiv_pos_as_xyz
  1  'x, y, z'
loop_
 _atom_site_type_symbol
 _atom_site_label
 _atom_site_symmetry_multiplicity
 _atom_site_fract_x
 _atom_site_fract_y
 _atom_site_fract_z
 _atom_site_occupancy
  Eu  Eu0  1  0.950584  0.950584  0.148249  1
  Eu  Eu1  1  0.049416  0.049416  0.851751  1
  Y  Y2  1  0.852889  0.852889  0.441335  1
  Y  Y3  1  0.147111  0.147111  0.558665  1
  Zn  Zn4  1  0.722779  0.722779  0.831664  1
  Zn  Zn5  1  0.277221  0.277221  0.168336  1
  Zn  Zn6  1  0.610832  0.610832  0.167503  1
  Zn  Zn7  1  0.389168  0.389168  0.832497  1
  Ni  Ni8  1  0.500000  0.500000  0.500000  1
  Ni  Ni9  1  0.000000  0.500000  0.000000  1
  Ni  Ni10  1  0.500000  0.000000  0.000000  1
  Ni  Ni11  1  0.500000  0.500000  0.000000  1
  Ni  Ni12  1  0.388127  0.388127  0.335239  1
  Ni  Ni13  1  0.888506  0.388127  0.335239  1
  Ni  Ni14  1  0.388127  0.888506  0.335239  1
  Ni  Ni15  1  0.611873  0.611873  0.664761  1
  Ni  Ni16  1  0.111494  0.611873  0.664761  1
  Ni  Ni17  1  0.611873  0.111494  0.664761  1
