# generated using pymatgen
data_Dy4Hf3CdPt4
_symmetry_space_group_name_H-M   'P 1'
_cell_length_a   4.59454000
_cell_length_b   7.08172213
_cell_length_c   8.29860442
_cell_angle_alpha   86.58234336
_cell_angle_beta   90.00000000
_cell_angle_gamma   90.00000000
_symmetry_Int_Tables_number   1
_chemical_formula_structural   Dy4Hf3CdPt4
_chemical_formula_sum   'Dy4 Hf3 Cd1 Pt4'
_cell_volume   269.53359455
_cell_formula_units_Z   1
loop_
 _symmetry_equiv_pos_site_id
 _symmetry_equiv_pos_as_xyz
  1  'x, y, z'
loop_
 _atom_site_type_symbol
 _atom_site_label
 _atom_site_symmetry_multiplicity
 _atom_site_fract_x
 _atom_site_fract_y
 _atom_site_fract_z
 _atom_site_occupancy
  Dy  Dy0  1  0.250000  0.468428  0.188444  1
  Dy  Dy1  1  0.750000  0.518538  0.818643  1
  Dy  Dy2  1  0.750000  0.036113  0.668226  1
  Dy  Dy3  1  0.250000  0.988102  0.332309  1
  Hf  Hf4  1  0.250000  0.854036  0.925764  1
  Hf  Hf5  1  0.750000  0.132544  0.070229  1
  Hf  Hf6  1  0.750000  0.645343  0.434070  1
  Cd  Cd7  1  0.250000  0.351428  0.572607  1
  Pt  Pt8  1  0.250000  0.747944  0.610080  1
  Pt  Pt9  1  0.750000  0.267935  0.366434  1
  Pt  Pt10  1  0.750000  0.761365  0.102465  1
  Pt  Pt11  1  0.250000  0.228224  0.910729  1
