# generated using pymatgen
data_HoTm3VRe3B16
_symmetry_space_group_name_H-M   'P 1'
_cell_length_a   3.56637200
_cell_length_b   5.94920765
_cell_length_c   11.49830218
_cell_angle_alpha   90.09290982
_cell_angle_beta   90.00000000
_cell_angle_gamma   90.00000000
_symmetry_Int_Tables_number   1
_chemical_formula_structural   HoTm3VRe3B16
_chemical_formula_sum   'Ho1 Tm3 V1 Re3 B16'
_cell_volume   243.96016368
_cell_formula_units_Z   1
loop_
 _symmetry_equiv_pos_site_id
 _symmetry_equiv_pos_as_xyz
  1  'x, y, z'
loop_
 _atom_site_type_symbol
 _atom_site_label
 _atom_site_symmetry_multiplicity
 _atom_site_fract_x
 _atom_site_fract_y
 _atom_site_fract_z
 _atom_site_occupancy
  Ho  Ho0  1  0.500000  0.373004  0.152342  1
  Tm  Tm1  1  0.500000  0.125895  0.648490  1
  Tm  Tm2  1  0.500000  0.875068  0.351065  1
  Tm  Tm3  1  0.500000  0.626561  0.849191  1
  V  V4  1  0.500000  0.371287  0.417153  1
  Re  Re5  1  0.500000  0.133609  0.912075  1
  Re  Re6  1  0.500000  0.866350  0.086387  1
  Re  Re7  1  0.500000  0.627610  0.584396  1
  B  B8  1  0.000000  0.476561  0.692893  1
  B  B9  1  0.000000  0.523491  0.307542  1
  B  B10  1  0.000000  0.976021  0.806660  1
  B  B11  1  0.000000  0.023703  0.193334  1
  B  B12  1  0.000000  0.286631  0.813758  1
  B  B13  1  0.000000  0.714153  0.186041  1
  B  B14  1  0.000000  0.787020  0.684855  1
  B  B15  1  0.000000  0.213086  0.315347  1
  B  B16  1  0.000000  0.364822  0.968331  1
  B  B17  1  0.000000  0.635488  0.031176  1
  B  B18  1  0.000000  0.865425  0.531910  1
  B  B19  1  0.000000  0.134418  0.467807  1
  B  B20  1  0.000000  0.384984  0.547329  1
  B  B21  1  0.000000  0.614980  0.452394  1
  B  B22  1  0.000000  0.885301  0.951939  1
  B  B23  1  0.000000  0.114534  0.047586  1
