# generated using pymatgen
data_Ti2(MoN2)3
_symmetry_space_group_name_H-M   'P 1'
_cell_length_a   5.05512100
_cell_length_b   5.05512244
_cell_length_c   10.29967600
_cell_angle_alpha   90.00000000
_cell_angle_beta   90.00000000
_cell_angle_gamma   120.00001022
_symmetry_Int_Tables_number   1
_chemical_formula_structural   Ti2(MoN2)3
_chemical_formula_sum   'Ti4 Mo6 N12'
_cell_volume   227.93834176
_cell_formula_units_Z   2
loop_
 _symmetry_equiv_pos_site_id
 _symmetry_equiv_pos_as_xyz
  1  'x, y, z'
loop_
 _atom_site_type_symbol
 _atom_site_label
 _atom_site_symmetry_multiplicity
 _atom_site_fract_x
 _atom_site_fract_y
 _atom_site_fract_z
 _atom_site_occupancy
  Ti  Ti0  1  0.333333  0.666667  0.500000  1
  Ti  Ti1  1  0.666667  0.333333  0.000000  1
  Ti  Ti2  1  0.666667  0.333333  0.500000  1
  Ti  Ti3  1  0.333333  0.666667  0.000000  1
  Mo  Mo4  1  0.674055  0.000000  0.750000  1
  Mo  Mo5  1  0.674055  0.674055  0.250000  1
  Mo  Mo6  1  0.000000  0.325945  0.250000  1
  Mo  Mo7  1  0.000000  0.674055  0.750000  1
  Mo  Mo8  1  0.325945  0.325945  0.750000  1
  Mo  Mo9  1  0.325945  0.000000  0.250000  1
  N  N10  1  0.341597  0.341597  0.376846  1
  N  N11  1  0.658403  0.000000  0.376846  1
  N  N12  1  0.000000  0.658403  0.376846  1
  N  N13  1  0.000000  0.341597  0.876846  1
  N  N14  1  0.658403  0.000000  0.123154  1
  N  N15  1  0.658403  0.658403  0.876846  1
  N  N16  1  0.341597  0.000000  0.876846  1
  N  N17  1  0.658403  0.658403  0.623154  1
  N  N18  1  0.000000  0.341597  0.623154  1
  N  N19  1  0.000000  0.658403  0.123154  1
  N  N20  1  0.341597  0.000000  0.623154  1
  N  N21  1  0.341597  0.341597  0.123154  1
