# generated using pymatgen
data_LaSmZn5Si
_symmetry_space_group_name_H-M   'P 1'
_cell_length_a   8.37582527
_cell_length_b   8.37582611
_cell_length_c   8.84986000
_cell_angle_alpha   90.00000000
_cell_angle_beta   90.00000000
_cell_angle_gamma   149.25276045
_symmetry_Int_Tables_number   1
_chemical_formula_structural   LaSmZn5Si
_chemical_formula_sum   'La2 Sm2 Zn10 Si2'
_cell_volume   317.41424256
_cell_formula_units_Z   2
loop_
 _symmetry_equiv_pos_site_id
 _symmetry_equiv_pos_as_xyz
  1  'x, y, z'
loop_
 _atom_site_type_symbol
 _atom_site_label
 _atom_site_symmetry_multiplicity
 _atom_site_fract_x
 _atom_site_fract_y
 _atom_site_fract_z
 _atom_site_occupancy
  La  La0  1  0.000000  0.000000  0.500000  1
  La  La1  1  0.000000  0.000000  0.000000  1
  Sm  Sm2  1  0.203751  0.796249  0.250000  1
  Sm  Sm3  1  0.796249  0.203751  0.750000  1
  Zn  Zn4  1  0.812985  0.187015  0.392435  1
  Zn  Zn5  1  0.187015  0.812985  0.607565  1
  Zn  Zn6  1  0.812985  0.187015  0.107565  1
  Zn  Zn7  1  0.187015  0.812985  0.892435  1
  Zn  Zn8  1  0.651961  0.348039  0.476252  1
  Zn  Zn9  1  0.348039  0.651961  0.523748  1
  Zn  Zn10  1  0.651961  0.348039  0.023748  1
  Zn  Zn11  1  0.348039  0.651961  0.976252  1
  Zn  Zn12  1  0.405148  0.594852  0.250000  1
  Zn  Zn13  1  0.594852  0.405148  0.750000  1
  Si  Si14  1  0.560006  0.439994  0.250000  1
  Si  Si15  1  0.439994  0.560006  0.750000  1
