# generated using pymatgen
data_Er3In3CuAgPd
_symmetry_space_group_name_H-M   'P 1'
_cell_length_a   7.63477400
_cell_length_b   7.63477380
_cell_length_c   3.90303800
_cell_angle_alpha   90.00000000
_cell_angle_beta   90.00000000
_cell_angle_gamma   120.00000089
_symmetry_Int_Tables_number   1
_chemical_formula_structural   Er3In3CuAgPd
_chemical_formula_sum   'Er3 In3 Cu1 Ag1 Pd1'
_cell_volume   197.02701035
_cell_formula_units_Z   1
loop_
 _symmetry_equiv_pos_site_id
 _symmetry_equiv_pos_as_xyz
  1  'x, y, z'
loop_
 _atom_site_type_symbol
 _atom_site_label
 _atom_site_symmetry_multiplicity
 _atom_site_fract_x
 _atom_site_fract_y
 _atom_site_fract_z
 _atom_site_occupancy
  Er  Er0  1  0.014656  0.599662  0.500000  1
  Er  Er1  1  0.400338  0.414994  0.500000  1
  Er  Er2  1  0.585006  0.985344  0.500000  1
  In  In3  1  0.751319  0.749549  0.000000  1
  In  In4  1  0.998231  0.248681  0.000000  1
  In  In5  1  0.250451  0.001769  0.000000  1
  Cu  Cu6  1  0.000000  0.000000  0.500000  1
  Ag  Ag7  1  0.666667  0.333333  0.000000  1
  Pd  Pd8  1  0.333333  0.666667  0.000000  1
