# generated using pymatgen
data_Pr2Fe3RhO10
_symmetry_space_group_name_H-M   'P 1'
_cell_length_a   5.96434200
_cell_length_b   7.67827100
_cell_length_c   8.82683300
_cell_angle_alpha   90.00000000
_cell_angle_beta   90.00000000
_cell_angle_gamma   90.00000000
_symmetry_Int_Tables_number   1
_chemical_formula_structural   Pr2Fe3RhO10
_chemical_formula_sum   'Pr4 Fe6 Rh2 O20'
_cell_volume   404.23218069
_cell_formula_units_Z   2
loop_
 _symmetry_equiv_pos_site_id
 _symmetry_equiv_pos_as_xyz
  1  'x, y, z'
loop_
 _atom_site_type_symbol
 _atom_site_label
 _atom_site_symmetry_multiplicity
 _atom_site_fract_x
 _atom_site_fract_y
 _atom_site_fract_z
 _atom_site_occupancy
  Pr  Pr0  1  0.996258  0.362097  0.670522  1
  Pr  Pr1  1  0.996258  0.637903  0.329478  1
  Pr  Pr2  1  0.003742  0.862097  0.829478  1
  Pr  Pr3  1  0.003742  0.137903  0.170522  1
  Fe  Fe4  1  0.506390  0.107220  0.857535  1
  Fe  Fe5  1  0.506390  0.892780  0.142465  1
  Fe  Fe6  1  0.493610  0.607220  0.642465  1
  Fe  Fe7  1  0.493610  0.392780  0.357535  1
  Fe  Fe8  1  0.253099  0.500000  0.000000  1
  Fe  Fe9  1  0.746901  0.000000  0.500000  1
  Rh  Rh10  1  0.745494  0.500000  0.000000  1
  Rh  Rh11  1  0.254506  0.000000  0.500000  1
  O  O12  1  0.247820  0.900358  0.290691  1
  O  O13  1  0.247820  0.099642  0.709309  1
  O  O14  1  0.752180  0.400358  0.209309  1
  O  O15  1  0.752180  0.599642  0.790691  1
  O  O16  1  0.751971  0.097642  0.708311  1
  O  O17  1  0.751971  0.902358  0.291689  1
  O  O18  1  0.248029  0.597642  0.791689  1
  O  O19  1  0.248029  0.402358  0.208311  1
  O  O20  1  0.501933  0.341602  0.930349  1
  O  O21  1  0.501933  0.658398  0.069651  1
  O  O22  1  0.498067  0.841602  0.569651  1
  O  O23  1  0.498067  0.158398  0.430349  1
  O  O24  1  0.281119  0.000000  0.000000  1
  O  O25  1  0.718881  0.500000  0.500000  1
  O  O26  1  0.726953  0.000000  0.000000  1
  O  O27  1  0.273047  0.500000  0.500000  1
  O  O28  1  0.003723  0.163485  0.445549  1
  O  O29  1  0.003723  0.836515  0.554451  1
  O  O30  1  0.996277  0.663485  0.054451  1
  O  O31  1  0.996277  0.336515  0.945549  1
