# generated using pymatgen
data_Cs16ZrSnBi8
_symmetry_space_group_name_H-M   'P 1'
_cell_length_a   12.80571811
_cell_length_b   12.80572691
_cell_length_c   12.79819100
_cell_angle_alpha   60.01946743
_cell_angle_beta   60.01944472
_cell_angle_gamma   60.01145126
_symmetry_Int_Tables_number   1
_chemical_formula_structural   Cs16ZrSnBi8
_chemical_formula_sum   'Cs16 Zr1 Sn1 Bi8'
_cell_volume   1484.59163872
_cell_formula_units_Z   1
loop_
 _symmetry_equiv_pos_site_id
 _symmetry_equiv_pos_as_xyz
  1  'x, y, z'
loop_
 _atom_site_type_symbol
 _atom_site_label
 _atom_site_symmetry_multiplicity
 _atom_site_fract_x
 _atom_site_fract_y
 _atom_site_fract_z
 _atom_site_occupancy
  Cs  Cs0  1  0.622608  0.132382  0.622505  1
  Cs  Cs1  1  0.622570  0.622571  0.132372  1
  Cs  Cs2  1  0.132383  0.622609  0.622504  1
  Cs  Cs3  1  0.622570  0.622571  0.622487  1
  Cs  Cs4  1  0.022657  0.022656  0.477343  1
  Cs  Cs5  1  0.776920  0.223048  0.223038  1
  Cs  Cs6  1  0.223046  0.776921  0.776996  1
  Cs  Cs7  1  0.776966  0.776968  0.223033  1
  Cs  Cs8  1  0.776920  0.223048  0.776993  1
  Cs  Cs9  1  0.223046  0.776921  0.223037  1
  Cs  Cs10  1  0.477273  0.022741  0.477139  1
  Cs  Cs11  1  0.477273  0.022741  0.022847  1
  Cs  Cs12  1  0.022742  0.477271  0.477138  1
  Cs  Cs13  1  0.022742  0.477271  0.022849  1
  Cs  Cs14  1  0.222985  0.222985  0.777015  1
  Cs  Cs15  1  0.477140  0.477139  0.022860  1
  Zr  Zr16  1  0.750034  0.750032  0.749967  1
  Sn  Sn17  1  0.500067  0.500068  0.499932  1
  Bi  Bi18  1  0.401140  0.796224  0.401318  1
  Bi  Bi19  1  0.845256  0.845256  0.464134  1
  Bi  Bi20  1  0.464202  0.845399  0.845200  1
  Bi  Bi21  1  0.845256  0.845256  0.845356  1
  Bi  Bi22  1  0.796224  0.401140  0.401318  1
  Bi  Bi23  1  0.401291  0.401291  0.401121  1
  Bi  Bi24  1  0.401291  0.401291  0.796297  1
  Bi  Bi25  1  0.845399  0.464202  0.845200  1
