# generated using pymatgen
data_Be4IrPdPt2
_symmetry_space_group_name_H-M   'P 1'
_cell_length_a   5.62370900
_cell_length_b   3.95516300
_cell_length_c   7.91017600
_cell_angle_alpha   90.00000000
_cell_angle_beta   90.00007132
_cell_angle_gamma   90.00000000
_symmetry_Int_Tables_number   1
_chemical_formula_structural   Be4IrPdPt2
_chemical_formula_sum   'Be8 Ir2 Pd2 Pt4'
_cell_volume   175.94355907
_cell_formula_units_Z   2
loop_
 _symmetry_equiv_pos_site_id
 _symmetry_equiv_pos_as_xyz
  1  'x, y, z'
loop_
 _atom_site_type_symbol
 _atom_site_label
 _atom_site_symmetry_multiplicity
 _atom_site_fract_x
 _atom_site_fract_y
 _atom_site_fract_z
 _atom_site_occupancy
  Be  Be0  1  0.503860  0.749999  0.129140  1
  Be  Be1  1  0.996155  0.749999  0.129138  1
  Be  Be2  1  0.496209  0.250000  0.370841  1
  Be  Be3  1  0.003793  0.250000  0.370854  1
  Be  Be4  1  0.004154  0.749999  0.620230  1
  Be  Be5  1  0.495846  0.749999  0.620238  1
  Be  Be6  1  0.995820  0.250000  0.879764  1
  Be  Be7  1  0.504162  0.250000  0.879777  1
  Ir  Ir8  1  0.750001  0.250000  0.123144  1
  Ir  Ir9  1  0.250011  0.749999  0.376835  1
  Pd  Pd10  1  0.749995  0.250000  0.626508  1
  Pd  Pd11  1  0.249991  0.749999  0.873514  1
  Pt  Pt12  1  0.250004  0.250000  0.122366  1
  Pt  Pt13  1  0.750009  0.749999  0.377643  1
  Pt  Pt14  1  0.250000  0.250000  0.628613  1
  Pt  Pt15  1  0.749989  0.749999  0.871395  1
