# generated using pymatgen
data_Mn2V10Si3P
_symmetry_space_group_name_H-M   'P 1'
_cell_length_a   4.63533000
_cell_length_b   4.63397300
_cell_length_c   9.24164900
_cell_angle_alpha   90.00000000
_cell_angle_beta   90.00000000
_cell_angle_gamma   90.00000000
_symmetry_Int_Tables_number   1
_chemical_formula_structural   Mn2V10Si3P
_chemical_formula_sum   'Mn2 V10 Si3 P1'
_cell_volume   198.51056568
_cell_formula_units_Z   1
loop_
 _symmetry_equiv_pos_site_id
 _symmetry_equiv_pos_as_xyz
  1  'x, y, z'
loop_
 _atom_site_type_symbol
 _atom_site_label
 _atom_site_symmetry_multiplicity
 _atom_site_fract_x
 _atom_site_fract_y
 _atom_site_fract_z
 _atom_site_occupancy
  Mn  Mn0  1  0.750967  0.000000  0.000000  1
  Mn  Mn1  1  0.750323  0.000000  0.500000  1
  V  V2  1  0.999287  0.500000  0.124433  1
  V  V3  1  0.000355  0.500000  0.626205  1
  V  V4  1  0.499983  0.250648  0.752230  1
  V  V5  1  0.499983  0.250648  0.247770  1
  V  V6  1  0.999287  0.500000  0.875567  1
  V  V7  1  0.000355  0.500000  0.373795  1
  V  V8  1  0.499983  0.749352  0.752230  1
  V  V9  1  0.499983  0.749352  0.247770  1
  V  V10  1  0.250986  0.000000  0.000000  1
  V  V11  1  0.249598  0.000000  0.500000  1
  Si  Si12  1  0.499739  0.500000  0.500000  1
  Si  Si13  1  0.001687  0.000000  0.749739  1
  Si  Si14  1  0.001687  0.000000  0.250261  1
  P  P15  1  0.495798  0.500000  0.000000  1
