# generated using pymatgen
data_Th2Nb3Ge4
_symmetry_space_group_name_H-M   'P 1'
_cell_length_a   7.19695100
_cell_length_b   7.34209200
_cell_length_c   13.81360600
_cell_angle_alpha   90.00000000
_cell_angle_beta   90.00000000
_cell_angle_gamma   90.00000000
_symmetry_Int_Tables_number   1
_chemical_formula_structural   Th2Nb3Ge4
_chemical_formula_sum   'Th8 Nb12 Ge16'
_cell_volume   729.92028403
_cell_formula_units_Z   4
loop_
 _symmetry_equiv_pos_site_id
 _symmetry_equiv_pos_as_xyz
  1  'x, y, z'
loop_
 _atom_site_type_symbol
 _atom_site_label
 _atom_site_symmetry_multiplicity
 _atom_site_fract_x
 _atom_site_fract_y
 _atom_site_fract_z
 _atom_site_occupancy
  Th  Th0  1  0.494556  0.329143  0.094287  1
  Th  Th1  1  0.994556  0.170857  0.405713  1
  Th  Th2  1  0.505444  0.670857  0.594287  1
  Th  Th3  1  0.005444  0.829143  0.905713  1
  Th  Th4  1  0.505444  0.670857  0.905713  1
  Th  Th5  1  0.005444  0.829143  0.594287  1
  Th  Th6  1  0.494556  0.329143  0.405713  1
  Th  Th7  1  0.994556  0.170857  0.094287  1
  Nb  Nb8  1  0.664368  0.009118  0.750000  1
  Nb  Nb9  1  0.164368  0.490882  0.750000  1
  Nb  Nb10  1  0.335632  0.990882  0.250000  1
  Nb  Nb11  1  0.835632  0.509118  0.250000  1
  Nb  Nb12  1  0.839112  0.332953  0.625749  1
  Nb  Nb13  1  0.339112  0.167047  0.874251  1
  Nb  Nb14  1  0.160888  0.667047  0.125749  1
  Nb  Nb15  1  0.660888  0.832953  0.374251  1
  Nb  Nb16  1  0.160888  0.667047  0.374251  1
  Nb  Nb17  1  0.660888  0.832953  0.125749  1
  Nb  Nb18  1  0.839112  0.332953  0.874251  1
  Nb  Nb19  1  0.339112  0.167047  0.625749  1
  Ge  Ge20  1  0.808101  0.627363  0.750000  1
  Ge  Ge21  1  0.308101  0.872637  0.750000  1
  Ge  Ge22  1  0.191899  0.372637  0.250000  1
  Ge  Ge23  1  0.691899  0.127363  0.250000  1
  Ge  Ge24  1  0.537119  0.368681  0.750000  1
  Ge  Ge25  1  0.037119  0.131319  0.750000  1
  Ge  Ge26  1  0.462881  0.631319  0.250000  1
  Ge  Ge27  1  0.962881  0.868681  0.250000  1
  Ge  Ge28  1  0.669618  0.046265  0.544969  1
  Ge  Ge29  1  0.169618  0.453735  0.955031  1
  Ge  Ge30  1  0.330382  0.953735  0.044969  1
  Ge  Ge31  1  0.830382  0.546265  0.455031  1
  Ge  Ge32  1  0.330382  0.953735  0.455031  1
  Ge  Ge33  1  0.830382  0.546265  0.044969  1
  Ge  Ge34  1  0.669618  0.046265  0.955031  1
  Ge  Ge35  1  0.169618  0.453735  0.544969  1
