# generated using pymatgen
data_Lu4Zr2MnTe2
_symmetry_space_group_name_H-M   'P 1'
_cell_length_a   8.06088453
_cell_length_b   8.06088584
_cell_length_c   3.88289300
_cell_angle_alpha   90.00000000
_cell_angle_beta   90.00000000
_cell_angle_gamma   120.63906261
_symmetry_Int_Tables_number   1
_chemical_formula_structural   Lu4Zr2MnTe2
_chemical_formula_sum   'Lu4 Zr2 Mn1 Te2'
_cell_volume   217.07942320
_cell_formula_units_Z   1
loop_
 _symmetry_equiv_pos_site_id
 _symmetry_equiv_pos_as_xyz
  1  'x, y, z'
loop_
 _atom_site_type_symbol
 _atom_site_label
 _atom_site_symmetry_multiplicity
 _atom_site_fract_x
 _atom_site_fract_y
 _atom_site_fract_z
 _atom_site_occupancy
  Lu  Lu0  1  0.768177  0.768177  0.500000  1
  Lu  Lu1  1  0.003313  0.603903  0.000000  1
  Lu  Lu2  1  0.603903  0.003313  0.000000  1
  Lu  Lu3  1  0.381190  0.381190  0.000000  1
  Zr  Zr4  1  0.228728  0.992679  0.500000  1
  Zr  Zr5  1  0.992679  0.228728  0.500000  1
  Mn  Mn6  1  0.028690  0.028690  0.000000  1
  Te  Te7  1  0.663314  0.330006  0.500000  1
  Te  Te8  1  0.330006  0.663314  0.500000  1
