# generated using pymatgen
data_NaV3(SnO6)2
_symmetry_space_group_name_H-M   'P 1'
_cell_length_a   9.49736890
_cell_length_b   9.49736808
_cell_length_c   9.49736901
_cell_angle_alpha   59.03937658
_cell_angle_beta   59.03937657
_cell_angle_gamma   59.03938639
_symmetry_Int_Tables_number   1
_chemical_formula_structural   NaV3(SnO6)2
_chemical_formula_sum   'Na2 V6 Sn4 O24'
_cell_volume   592.48174621
_cell_formula_units_Z   2
loop_
 _symmetry_equiv_pos_site_id
 _symmetry_equiv_pos_as_xyz
  1  'x, y, z'
loop_
 _atom_site_type_symbol
 _atom_site_label
 _atom_site_symmetry_multiplicity
 _atom_site_fract_x
 _atom_site_fract_y
 _atom_site_fract_z
 _atom_site_occupancy
  Na  Na0  1  0.500000  0.500000  0.500000  1
  Na  Na1  1  0.000000  0.000000  0.000000  1
  V  V2  1  0.962400  0.537600  0.250000  1
  V  V3  1  0.250000  0.962400  0.537600  1
  V  V4  1  0.537600  0.250000  0.962400  1
  V  V5  1  0.750000  0.037600  0.462400  1
  V  V6  1  0.462400  0.750000  0.037600  1
  V  V7  1  0.037600  0.462400  0.750000  1
  Sn  Sn8  1  0.358712  0.358712  0.358712  1
  Sn  Sn9  1  0.858712  0.858712  0.858712  1
  Sn  Sn10  1  0.641288  0.641288  0.641288  1
  Sn  Sn11  1  0.141288  0.141288  0.141288  1
  O  O12  1  0.136323  0.502353  0.292289  1
  O  O13  1  0.292289  0.136323  0.502353  1
  O  O14  1  0.502353  0.292289  0.136323  1
  O  O15  1  0.792289  0.002353  0.636323  1
  O  O16  1  0.636323  0.792289  0.002353  1
  O  O17  1  0.002353  0.636323  0.792289  1
  O  O18  1  0.863677  0.497647  0.707711  1
  O  O19  1  0.707711  0.863677  0.497647  1
  O  O20  1  0.497647  0.707711  0.863677  1
  O  O21  1  0.207711  0.997647  0.363677  1
  O  O22  1  0.363677  0.207711  0.997647  1
  O  O23  1  0.997647  0.363677  0.207711  1
  O  O24  1  0.231881  0.440246  0.571990  1
  O  O25  1  0.571990  0.231881  0.440246  1
  O  O26  1  0.440246  0.571990  0.231881  1
  O  O27  1  0.071990  0.940246  0.731881  1
  O  O28  1  0.731881  0.071990  0.940246  1
  O  O29  1  0.940246  0.731881  0.071990  1
  O  O30  1  0.768119  0.559754  0.428010  1
  O  O31  1  0.428010  0.768119  0.559754  1
  O  O32  1  0.559754  0.428010  0.768119  1
  O  O33  1  0.928010  0.059754  0.268119  1
  O  O34  1  0.268119  0.928010  0.059754  1
  O  O35  1  0.059754  0.268119  0.928010  1
