# generated using pymatgen
data_CeNd7(Sc3Ga4)4
_symmetry_space_group_name_H-M   'P 1'
_cell_length_a   7.41540889
_cell_length_b   7.66390809
_cell_length_c   14.63108400
_cell_angle_alpha   89.94351094
_cell_angle_beta   90.06579960
_cell_angle_gamma   90.01784291
_symmetry_Int_Tables_number   1
_chemical_formula_structural   CeNd7(Sc3Ga4)4
_chemical_formula_sum   'Ce1 Nd7 Sc12 Ga16'
_cell_volume   831.49832098
_cell_formula_units_Z   1
loop_
 _symmetry_equiv_pos_site_id
 _symmetry_equiv_pos_as_xyz
  1  'x, y, z'
loop_
 _atom_site_type_symbol
 _atom_site_label
 _atom_site_symmetry_multiplicity
 _atom_site_fract_x
 _atom_site_fract_y
 _atom_site_fract_z
 _atom_site_occupancy
  Ce  Ce0  1  0.486501  0.679255  0.595706  1
  Nd  Nd1  1  0.012585  0.176754  0.095151  1
  Nd  Nd2  1  0.987536  0.823851  0.904845  1
  Nd  Nd3  1  0.487390  0.675547  0.905526  1
  Nd  Nd4  1  0.988541  0.822823  0.594487  1
  Nd  Nd5  1  0.512156  0.322826  0.095163  1
  Nd  Nd6  1  0.012768  0.176889  0.405288  1
  Nd  Nd7  1  0.512617  0.322722  0.405981  1
  Sc  Sc8  1  0.161395  0.499120  0.749544  1
  Sc  Sc9  1  0.838600  0.500315  0.250193  1
  Sc  Sc10  1  0.338863  0.999709  0.250510  1
  Sc  Sc11  1  0.661866  0.000909  0.749724  1
  Sc  Sc12  1  0.329284  0.171720  0.624876  1
  Sc  Sc13  1  0.670026  0.827547  0.375391  1
  Sc  Sc14  1  0.171305  0.671228  0.374888  1
  Sc  Sc15  1  0.670579  0.828597  0.125319  1
  Sc  Sc16  1  0.828711  0.328625  0.623907  1
  Sc  Sc17  1  0.329860  0.172613  0.874607  1
  Sc  Sc18  1  0.829371  0.328793  0.874510  1
  Sc  Sc19  1  0.169879  0.672151  0.125171  1
  Ga  Ga20  1  0.030574  0.122134  0.749279  1
  Ga  Ga21  1  0.968893  0.878399  0.250838  1
  Ga  Ga22  1  0.469343  0.620798  0.250332  1
  Ga  Ga23  1  0.529501  0.381077  0.748517  1
  Ga  Ga24  1  0.286148  0.876766  0.748678  1
  Ga  Ga25  1  0.714574  0.122575  0.250800  1
  Ga  Ga26  1  0.214881  0.377084  0.250386  1
  Ga  Ga27  1  0.783429  0.623186  0.748937  1
  Ga  Ga28  1  0.160860  0.464836  0.541331  1
  Ga  Ga29  1  0.843131  0.537187  0.459697  1
  Ga  Ga30  1  0.342537  0.959288  0.460231  1
  Ga  Ga31  1  0.842003  0.537895  0.040220  1
  Ga  Ga32  1  0.657260  0.035039  0.541916  1
  Ga  Ga33  1  0.157262  0.461811  0.958845  1
  Ga  Ga34  1  0.657367  0.038086  0.958923  1
  Ga  Ga35  1  0.342401  0.961846  0.040281  1
