# generated using pymatgen
data_Pa2CoNiB8
_symmetry_space_group_name_H-M   'P 1'
_cell_length_a   6.81652814
_cell_length_b   6.81651855
_cell_length_c   6.81651738
_cell_angle_alpha   112.98916737
_cell_angle_beta   112.56286023
_cell_angle_gamma   103.04683085
_symmetry_Int_Tables_number   1
_chemical_formula_structural   Pa2CoNiB8
_chemical_formula_sum   'Pa4 Co2 Ni2 B16'
_cell_volume   241.55079055
_cell_formula_units_Z   2
loop_
 _symmetry_equiv_pos_site_id
 _symmetry_equiv_pos_as_xyz
  1  'x, y, z'
loop_
 _atom_site_type_symbol
 _atom_site_label
 _atom_site_symmetry_multiplicity
 _atom_site_fract_x
 _atom_site_fract_y
 _atom_site_fract_z
 _atom_site_occupancy
  Pa  Pa0  1  0.202651  0.202651  0.000000  1
  Pa  Pa1  1  0.797349  0.797349  0.000000  1
  Pa  Pa2  1  0.745661  0.245661  0.500000  1
  Pa  Pa3  1  0.254339  0.754339  0.500000  1
  Co  Co4  1  0.499999  0.270843  0.770844  1
  Co  Co5  1  0.500001  0.729157  0.229156  1
  Ni  Ni6  1  0.729107  0.500001  0.229106  1
  Ni  Ni7  1  0.270893  0.499999  0.770894  1
  B  B8  1  0.109953  0.273298  0.383251  1
  B  B9  1  0.890047  0.726702  0.616749  1
  B  B10  1  0.890047  0.273298  0.163345  1
  B  B11  1  0.109953  0.726702  0.836655  1
  B  B12  1  0.725357  0.889319  0.614675  1
  B  B13  1  0.274643  0.110681  0.385325  1
  B  B14  1  0.725356  0.110681  0.836038  1
  B  B15  1  0.274644  0.889319  0.163962  1
  B  B16  1  0.421725  0.421454  0.536507  1
  B  B17  1  0.884947  0.885218  0.463493  1
  B  B18  1  0.578275  0.114783  0.999729  1
  B  B19  1  0.115054  0.578546  0.000271  1
  B  B20  1  0.578275  0.578546  0.463493  1
  B  B21  1  0.115053  0.114782  0.536507  1
  B  B22  1  0.884946  0.421454  0.999729  1
  B  B23  1  0.421725  0.885217  0.000271  1
