# generated using pymatgen
data_Yb3ZnGa9Pd
_symmetry_space_group_name_H-M   'P 1'
_cell_length_a   8.19302617
_cell_length_b   8.19302609
_cell_length_c   8.19302589
_cell_angle_alpha   148.88865358
_cell_angle_beta   109.28021543
_cell_angle_gamma   79.25995878
_symmetry_Int_Tables_number   1
_chemical_formula_structural   Yb3ZnGa9Pd
_chemical_formula_sum   'Yb3 Zn1 Ga9 Pd1'
_cell_volume   262.94441722
_cell_formula_units_Z   1
loop_
 _symmetry_equiv_pos_site_id
 _symmetry_equiv_pos_as_xyz
  1  'x, y, z'
loop_
 _atom_site_type_symbol
 _atom_site_label
 _atom_site_symmetry_multiplicity
 _atom_site_fract_x
 _atom_site_fract_y
 _atom_site_fract_z
 _atom_site_occupancy
  Yb  Yb0  1  0.498505  0.500000  0.998505  1
  Yb  Yb1  1  0.202055  0.200857  0.001198  1
  Yb  Yb2  1  0.800341  0.799143  0.001198  1
  Zn  Zn3  1  0.816011  0.000000  0.816011  1
  Ga  Ga4  1  0.077224  0.360234  0.716990  1
  Ga  Ga5  1  0.930347  0.647291  0.283056  1
  Ga  Ga6  1  0.635765  0.352709  0.283056  1
  Ga  Ga7  1  0.356754  0.639766  0.716990  1
  Ga  Ga8  1  0.793315  0.158609  0.634706  1
  Ga  Ga9  1  0.212909  0.846664  0.366245  1
  Ga  Ga10  1  0.519580  0.153336  0.366245  1
  Ga  Ga11  1  0.476098  0.841391  0.634706  1
  Ga  Ga12  1  0.999059  0.500000  0.499059  1
  Pd  Pd13  1  0.182037  0.000000  0.182037  1
