# generated using pymatgen
data_Zr10CuSn2Bi5
_symmetry_space_group_name_H-M   'P 1'
_cell_length_a   8.89834614
_cell_length_b   8.90940947
_cell_length_c   5.95032810
_cell_angle_alpha   89.98981297
_cell_angle_beta   90.02040583
_cell_angle_gamma   119.95893147
_symmetry_Int_Tables_number   1
_chemical_formula_structural   Zr10CuSn2Bi5
_chemical_formula_sum   'Zr10 Cu1 Sn2 Bi5'
_cell_volume   408.70439593
_cell_formula_units_Z   1
loop_
 _symmetry_equiv_pos_site_id
 _symmetry_equiv_pos_as_xyz
  1  'x, y, z'
loop_
 _atom_site_type_symbol
 _atom_site_label
 _atom_site_symmetry_multiplicity
 _atom_site_fract_x
 _atom_site_fract_y
 _atom_site_fract_z
 _atom_site_occupancy
  Zr  Zr0  1  0.334136  0.670456  0.998062  1
  Zr  Zr1  1  0.663148  0.329105  0.501812  1
  Zr  Zr2  1  0.663681  0.329544  0.998062  1
  Zr  Zr3  1  0.334042  0.670895  0.501812  1
  Zr  Zr4  1  0.270978  0.000000  0.233172  1
  Zr  Zr5  1  0.273135  0.267098  0.766411  1
  Zr  Zr6  1  0.006038  0.732902  0.766411  1
  Zr  Zr7  1  0.999257  0.269393  0.233814  1
  Zr  Zr8  1  0.729863  0.730607  0.233814  1
  Zr  Zr9  1  0.726387  0.000000  0.765879  1
  Cu  Cu10  1  0.000076  0.000000  0.999065  1
  Sn  Sn11  1  0.000037  0.000000  0.500550  1
  Sn  Sn12  1  0.385129  0.000000  0.747222  1
  Bi  Bi13  1  0.613208  0.000000  0.253564  1
  Bi  Bi14  1  0.614972  0.614974  0.746524  1
  Bi  Bi15  1  0.999998  0.385026  0.746524  1
  Bi  Bi16  1  0.999907  0.613899  0.253652  1
  Bi  Bi17  1  0.386008  0.386101  0.253652  1
