# generated using pymatgen
data_Er(TmZn4)3
_symmetry_space_group_name_H-M   'P 1'
_cell_length_a   4.35913700
_cell_length_b   6.61394728
_cell_length_c   10.02828943
_cell_angle_alpha   89.96657445
_cell_angle_beta   90.00000000
_cell_angle_gamma   90.00000000
_symmetry_Int_Tables_number   1
_chemical_formula_structural   Er(TmZn4)3
_chemical_formula_sum   'Er1 Tm3 Zn12'
_cell_volume   289.12658926
_cell_formula_units_Z   1
loop_
 _symmetry_equiv_pos_site_id
 _symmetry_equiv_pos_as_xyz
  1  'x, y, z'
loop_
 _atom_site_type_symbol
 _atom_site_label
 _atom_site_symmetry_multiplicity
 _atom_site_fract_x
 _atom_site_fract_y
 _atom_site_fract_z
 _atom_site_occupancy
  Er  Er0  1  0.750000  0.221177  0.164544  1
  Tm  Tm1  1  0.250000  0.278953  0.664582  1
  Tm  Tm2  1  0.250000  0.779000  0.835520  1
  Tm  Tm3  1  0.750000  0.721021  0.335604  1
  Zn  Zn4  1  0.250000  0.535500  0.103599  1
  Zn  Zn5  1  0.250000  0.035339  0.396252  1
  Zn  Zn6  1  0.750000  0.464866  0.895964  1
  Zn  Zn7  1  0.750000  0.964731  0.603793  1
  Zn  Zn8  1  0.250000  0.919035  0.148740  1
  Zn  Zn9  1  0.250000  0.419748  0.351381  1
  Zn  Zn10  1  0.750000  0.080470  0.850939  1
  Zn  Zn11  1  0.750000  0.580543  0.649032  1
  Zn  Zn12  1  0.250000  0.215792  0.956950  1
  Zn  Zn13  1  0.250000  0.715701  0.542786  1
  Zn  Zn14  1  0.750000  0.783665  0.042727  1
  Zn  Zn15  1  0.750000  0.284459  0.457587  1
