# generated using pymatgen
data_CaPrV2O6
_symmetry_space_group_name_H-M   'P 1'
_cell_length_a   5.46622008
_cell_length_b   5.56704081
_cell_length_c   7.83383200
_cell_angle_alpha   90.00000000
_cell_angle_beta   90.00000000
_cell_angle_gamma   89.66245430
_symmetry_Int_Tables_number   1
_chemical_formula_structural   CaPrV2O6
_chemical_formula_sum   'Ca2 Pr2 V4 O12'
_cell_volume   238.38462147
_cell_formula_units_Z   2
loop_
 _symmetry_equiv_pos_site_id
 _symmetry_equiv_pos_as_xyz
  1  'x, y, z'
loop_
 _atom_site_type_symbol
 _atom_site_label
 _atom_site_symmetry_multiplicity
 _atom_site_fract_x
 _atom_site_fract_y
 _atom_site_fract_z
 _atom_site_occupancy
  Ca  Ca0  1  0.010550  0.452802  0.250000  1
  Ca  Ca1  1  0.989450  0.547198  0.750000  1
  Pr  Pr2  1  0.509085  0.045603  0.750000  1
  Pr  Pr3  1  0.490915  0.954397  0.250000  1
  V  V4  1  0.000000  0.000000  0.000000  1
  V  V5  1  0.500000  0.500000  0.000000  1
  V  V6  1  0.000000  0.000000  0.500000  1
  V  V7  1  0.500000  0.500000  0.500000  1
  O  O8  1  0.294749  0.205898  0.038787  1
  O  O9  1  0.705251  0.794102  0.961213  1
  O  O10  1  0.803494  0.275099  0.952910  1
  O  O11  1  0.705251  0.794102  0.538787  1
  O  O12  1  0.196506  0.724901  0.047090  1
  O  O13  1  0.294749  0.205898  0.461213  1
  O  O14  1  0.196506  0.724901  0.452910  1
  O  O15  1  0.803494  0.275099  0.547090  1
  O  O16  1  0.583996  0.516800  0.250000  1
  O  O17  1  0.416004  0.483200  0.750000  1
  O  O18  1  0.081243  0.969967  0.750000  1
  O  O19  1  0.918757  0.030033  0.250000  1
