# generated using pymatgen
data_Cs14ScFe7S16
_symmetry_space_group_name_H-M   'P 1'
_cell_length_a   10.59014640
_cell_length_b   10.59014679
_cell_length_c   17.00580100
_cell_angle_alpha   64.68306033
_cell_angle_beta   64.68305932
_cell_angle_gamma   48.37536081
_symmetry_Int_Tables_number   1
_chemical_formula_structural   Cs14ScFe7S16
_chemical_formula_sum   'Cs14 Sc1 Fe7 S16'
_cell_volume   1259.31691536
_cell_formula_units_Z   1
loop_
 _symmetry_equiv_pos_site_id
 _symmetry_equiv_pos_as_xyz
  1  'x, y, z'
loop_
 _atom_site_type_symbol
 _atom_site_label
 _atom_site_symmetry_multiplicity
 _atom_site_fract_x
 _atom_site_fract_y
 _atom_site_fract_z
 _atom_site_occupancy
  Cs  Cs0  1  0.219608  0.768900  0.757584  1
  Cs  Cs1  1  0.772102  0.226692  0.250793  1
  Cs  Cs2  1  0.241592  0.744230  0.990548  1
  Cs  Cs3  1  0.247518  0.765799  0.507889  1
  Cs  Cs4  1  0.757694  0.249435  0.012155  1
  Cs  Cs5  1  0.754206  0.223791  0.486984  1
  Cs  Cs6  1  0.013843  0.524689  0.608565  1
  Cs  Cs7  1  0.476783  0.995450  0.891113  1
  Cs  Cs8  1  0.998370  0.483553  0.385609  1
  Cs  Cs9  1  0.528342  0.999162  0.109241  1
  Cs  Cs10  1  0.008493  0.505558  0.863875  1
  Cs  Cs11  1  0.488465  0.997807  0.638174  1
  Cs  Cs12  1  0.990204  0.492462  0.138111  1
  Cs  Cs13  1  0.502465  0.028250  0.353100  1
  Sc  Sc14  1  0.671166  0.457025  0.653776  1
  Fe  Fe15  1  0.564344  0.312481  0.841603  1
  Fe  Fe16  1  0.318379  0.567270  0.335920  1
  Fe  Fe17  1  0.441906  0.677144  0.161156  1
  Fe  Fe18  1  0.902374  0.204990  0.782432  1
  Fe  Fe19  1  0.787894  0.092178  0.727358  1
  Fe  Fe20  1  0.102277  0.786444  0.223745  1
  Fe  Fe21  1  0.212273  0.898203  0.277669  1
  S  S22  1  0.655136  0.494894  0.792204  1
  S  S23  1  0.500875  0.341670  0.711864  1
  S  S24  1  0.348063  0.510784  0.209273  1
  S  S25  1  0.492632  0.657852  0.284234  1
  S  S26  1  0.965308  0.190876  0.631783  1
  S  S27  1  0.807766  0.026904  0.875097  1
  S  S28  1  0.031575  0.808546  0.371905  1
  S  S29  1  0.204838  0.950478  0.132564  1
  S  S30  1  0.667738  0.606578  0.049990  1
  S  S31  1  0.388611  0.338226  0.449616  1
  S  S32  1  0.331577  0.385288  0.954464  1
  S  S33  1  0.599086  0.700619  0.534170  1
  S  S34  1  0.865653  0.867422  0.687686  1
  S  S35  1  0.128122  0.130513  0.819203  1
  S  S36  1  0.133850  0.126295  0.313896  1
  S  S37  1  0.878871  0.861540  0.184651  1
