# generated using pymatgen
data_Ca(UH4)3
_symmetry_space_group_name_H-M   'P 1'
_cell_length_a   6.62151000
_cell_length_b   6.63979000
_cell_length_c   6.63979000
_cell_angle_alpha   90.00000000
_cell_angle_beta   90.00000000
_cell_angle_gamma   90.00000000
_symmetry_Int_Tables_number   1
_chemical_formula_structural   Ca(UH4)3
_chemical_formula_sum   'Ca2 U6 H24'
_cell_volume   291.92126152
_cell_formula_units_Z   2
loop_
 _symmetry_equiv_pos_site_id
 _symmetry_equiv_pos_as_xyz
  1  'x, y, z'
loop_
 _atom_site_type_symbol
 _atom_site_label
 _atom_site_symmetry_multiplicity
 _atom_site_fract_x
 _atom_site_fract_y
 _atom_site_fract_z
 _atom_site_occupancy
  Ca  Ca0  1  0.250000  0.000000  0.500000  1
  Ca  Ca1  1  0.750000  0.000000  0.500000  1
  U  U2  1  0.000000  0.000000  0.000000  1
  U  U3  1  0.500000  0.500000  0.500000  1
  U  U4  1  0.000000  0.500000  0.252028  1
  U  U5  1  0.000000  0.500000  0.747972  1
  U  U6  1  0.500000  0.752028  0.000000  1
  U  U7  1  0.500000  0.247972  0.000000  1
  H  H8  1  0.000000  0.161747  0.289038  1
  H  H9  1  0.500000  0.210962  0.661747  1
  H  H10  1  0.500000  0.789038  0.338253  1
  H  H11  1  0.809426  0.646733  0.500000  1
  H  H12  1  0.190574  0.646733  0.500000  1
  H  H13  1  0.345144  0.500000  0.803692  1
  H  H14  1  0.654856  0.500000  0.803692  1
  H  H15  1  0.309426  0.000000  0.146733  1
  H  H16  1  0.154856  0.303692  0.000000  1
  H  H17  1  0.845144  0.696308  0.000000  1
  H  H18  1  0.309426  0.000000  0.853267  1
  H  H19  1  0.845144  0.303692  0.000000  1
  H  H20  1  0.690574  0.000000  0.146733  1
  H  H21  1  0.690574  0.000000  0.853267  1
  H  H22  1  0.154856  0.696308  0.000000  1
  H  H23  1  0.000000  0.838253  0.710962  1
  H  H24  1  0.000000  0.161747  0.710962  1
  H  H25  1  0.000000  0.838253  0.289038  1
  H  H26  1  0.654856  0.500000  0.196308  1
  H  H27  1  0.345144  0.500000  0.196308  1
  H  H28  1  0.809426  0.353267  0.500000  1
  H  H29  1  0.190574  0.353267  0.500000  1
  H  H30  1  0.500000  0.789038  0.661747  1
  H  H31  1  0.500000  0.210962  0.338253  1
