# generated using pymatgen
data_BaSrCa2(ReN3)4
_symmetry_space_group_name_H-M   'P 1'
_cell_length_a   7.52323603
_cell_length_b   7.52323419
_cell_length_c   6.20294464
_cell_angle_alpha   78.26942091
_cell_angle_beta   78.26942168
_cell_angle_gamma   87.47874934
_symmetry_Int_Tables_number   1
_chemical_formula_structural   BaSrCa2(ReN3)4
_chemical_formula_sum   'Ba1 Sr1 Ca2 Re4 N12'
_cell_volume   336.56769060
_cell_formula_units_Z   1
loop_
 _symmetry_equiv_pos_site_id
 _symmetry_equiv_pos_as_xyz
  1  'x, y, z'
loop_
 _atom_site_type_symbol
 _atom_site_label
 _atom_site_symmetry_multiplicity
 _atom_site_fract_x
 _atom_site_fract_y
 _atom_site_fract_z
 _atom_site_occupancy
  Ba  Ba0  1  0.313352  0.686648  0.250000  1
  Sr  Sr1  1  0.688541  0.311459  0.750000  1
  Ca  Ca2  1  0.906307  0.093693  0.250000  1
  Ca  Ca3  1  0.086331  0.913669  0.750000  1
  Re  Re4  1  0.800229  0.626427  0.231483  1
  Re  Re5  1  0.373573  0.199771  0.268517  1
  Re  Re6  1  0.628724  0.798598  0.729131  1
  Re  Re7  1  0.201402  0.371276  0.770869  1
  N  N8  1  0.781517  0.986383  0.647213  1
  N  N9  1  0.122895  0.594580  0.699860  1
  N  N10  1  0.335092  0.360370  0.003724  1
  N  N11  1  0.593348  0.113337  0.190443  1
  N  N12  1  0.886663  0.406652  0.309557  1
  N  N13  1  0.209988  0.022669  0.353928  1
  N  N14  1  0.977331  0.790012  0.146072  1
  N  N15  1  0.363438  0.327398  0.508084  1
  N  N16  1  0.639630  0.664908  0.496276  1
  N  N17  1  0.013617  0.218483  0.852787  1
  N  N18  1  0.405420  0.877105  0.800140  1
  N  N19  1  0.672602  0.636562  0.991916  1
