# generated using pymatgen
data_Tm6P13IrRh19
_symmetry_space_group_name_H-M   'P 1'
_cell_length_a   13.30770900
_cell_length_b   13.30770820
_cell_length_c   3.90185100
_cell_angle_alpha   90.00000000
_cell_angle_beta   90.00000000
_cell_angle_gamma   119.99999454
_symmetry_Int_Tables_number   1
_chemical_formula_structural   Tm6P13IrRh19
_chemical_formula_sum   'Tm6 P13 Ir1 Rh19'
_cell_volume   598.42248265
_cell_formula_units_Z   1
loop_
 _symmetry_equiv_pos_site_id
 _symmetry_equiv_pos_as_xyz
  1  'x, y, z'
loop_
 _atom_site_type_symbol
 _atom_site_label
 _atom_site_symmetry_multiplicity
 _atom_site_fract_x
 _atom_site_fract_y
 _atom_site_fract_z
 _atom_site_occupancy
  Tm  Tm0  1  0.528232  0.717200  0.248172  1
  Tm  Tm1  1  0.282800  0.811031  0.248172  1
  Tm  Tm2  1  0.188969  0.471768  0.248172  1
  Tm  Tm3  1  0.471111  0.282299  0.751871  1
  Tm  Tm4  1  0.717701  0.188812  0.751871  1
  Tm  Tm5  1  0.811188  0.528889  0.751871  1
  P  P6  1  0.526835  0.139688  0.250304  1
  P  P7  1  0.860312  0.387148  0.250304  1
  P  P8  1  0.612852  0.473165  0.250304  1
  P  P9  1  0.943805  0.713631  0.255063  1
  P  P10  1  0.286369  0.230173  0.255063  1
  P  P11  1  0.769827  0.056195  0.255063  1
  P  P12  1  0.386898  0.526490  0.749295  1
  P  P13  1  0.473510  0.860407  0.749295  1
  P  P14  1  0.139593  0.613102  0.749295  1
  P  P15  1  0.713388  0.769808  0.745036  1
  P  P16  1  0.230192  0.943580  0.745036  1
  P  P17  1  0.056420  0.286612  0.745036  1
  P  P18  1  0.000000  0.000000  0.000474  1
  Ir  Ir19  1  0.333333  0.666667  0.751965  1
  Rh  Rh20  1  0.921193  0.250995  0.253903  1
  Rh  Rh21  1  0.749005  0.670200  0.253903  1
  Rh  Rh22  1  0.329800  0.078807  0.253903  1
  Rh  Rh23  1  0.437818  0.021168  0.751580  1
  Rh  Rh24  1  0.978832  0.416650  0.751580  1
  Rh  Rh25  1  0.583350  0.562182  0.751580  1
  Rh  Rh26  1  0.666667  0.333333  0.247701  1
  Rh  Rh27  1  0.094792  0.187291  0.247829  1
  Rh  Rh28  1  0.812709  0.907502  0.247829  1
  Rh  Rh29  1  0.092498  0.905208  0.247829  1
  Rh  Rh30  1  0.020864  0.583114  0.248406  1
  Rh  Rh31  1  0.416886  0.437750  0.248406  1
  Rh  Rh32  1  0.562250  0.979136  0.248406  1
  Rh  Rh33  1  0.670323  0.921180  0.746122  1
  Rh  Rh34  1  0.078820  0.749143  0.746122  1
  Rh  Rh35  1  0.250857  0.329677  0.746122  1
  Rh  Rh36  1  0.904889  0.812846  0.752375  1
  Rh  Rh37  1  0.187154  0.092041  0.752375  1
  Rh  Rh38  1  0.907959  0.095111  0.752375  1
