# generated using pymatgen
data_TaNb2Ga2IrC
_symmetry_space_group_name_H-M   'P 1'
_cell_length_a   8.34291573
_cell_length_b   8.34127502
_cell_length_c   8.34291583
_cell_angle_alpha   59.97595901
_cell_angle_beta   59.97739883
_cell_angle_gamma   59.97595829
_symmetry_Int_Tables_number   1
_chemical_formula_structural   TaNb2Ga2IrC
_chemical_formula_sum   'Ta4 Nb8 Ga8 Ir4 C4'
_cell_volume   410.31847147
_cell_formula_units_Z   4
loop_
 _symmetry_equiv_pos_site_id
 _symmetry_equiv_pos_as_xyz
  1  'x, y, z'
loop_
 _atom_site_type_symbol
 _atom_site_label
 _atom_site_symmetry_multiplicity
 _atom_site_fract_x
 _atom_site_fract_y
 _atom_site_fract_z
 _atom_site_occupancy
  Ta  Ta0  1  0.562413  0.936999  0.937594  1
  Ta  Ta1  1  0.937594  0.936999  0.562413  1
  Ta  Ta2  1  0.687948  0.312554  0.687948  1
  Ta  Ta3  1  0.937008  0.562788  0.937008  1
  Nb  Nb4  1  0.563699  0.936527  0.563699  1
  Nb  Nb5  1  0.313532  0.687133  0.687052  1
  Nb  Nb6  1  0.686308  0.313529  0.313662  1
  Nb  Nb7  1  0.312714  0.687201  0.312714  1
  Nb  Nb8  1  0.687052  0.687133  0.313532  1
  Nb  Nb9  1  0.313662  0.313529  0.686308  1
  Nb  Nb10  1  0.562630  0.562824  0.937856  1
  Nb  Nb11  1  0.937856  0.562824  0.562630  1
  Ga  Ga12  1  0.914682  0.912690  0.914682  1
  Ga  Ga13  1  0.991955  0.336768  0.334782  1
  Ga  Ga14  1  0.336591  0.992021  0.336591  1
  Ga  Ga15  1  0.334782  0.336768  0.991955  1
  Ga  Ga16  1  0.914531  0.257859  0.914531  1
  Ga  Ga17  1  0.913003  0.914631  0.257400  1
  Ga  Ga18  1  0.257400  0.914631  0.913003  1
  Ga  Ga19  1  0.336228  0.334667  0.336228  1
  Ir  Ir20  1  0.125637  0.124471  0.125637  1
  Ir  Ir21  1  0.625403  0.125250  0.119761  1
  Ir  Ir22  1  0.124001  0.624986  0.124001  1
  Ir  Ir23  1  0.119761  0.125250  0.625403  1
  C  C24  1  0.626029  0.622908  0.626029  1
  C  C25  1  0.123241  0.626619  0.626832  1
  C  C26  1  0.627507  0.123826  0.627507  1
  C  C27  1  0.626832  0.626619  0.123241  1
