# generated using pymatgen
data_Er3Tm7Cd3Ru
_symmetry_space_group_name_H-M   'P 1'
_cell_length_a   9.46274600
_cell_length_b   9.46274513
_cell_length_c   9.73709600
_cell_angle_alpha   90.00000000
_cell_angle_beta   90.00000000
_cell_angle_gamma   119.99999604
_symmetry_Int_Tables_number   1
_chemical_formula_structural   Er3Tm7Cd3Ru
_chemical_formula_sum   'Er6 Tm14 Cd6 Ru2'
_cell_volume   755.08253765
_cell_formula_units_Z   2
loop_
 _symmetry_equiv_pos_site_id
 _symmetry_equiv_pos_as_xyz
  1  'x, y, z'
loop_
 _atom_site_type_symbol
 _atom_site_label
 _atom_site_symmetry_multiplicity
 _atom_site_fract_x
 _atom_site_fract_y
 _atom_site_fract_z
 _atom_site_occupancy
  Er  Er0  1  0.540715  0.459285  0.250000  1
  Er  Er1  1  0.540715  0.081431  0.250000  1
  Er  Er2  1  0.918569  0.459285  0.250000  1
  Er  Er3  1  0.459285  0.540715  0.750000  1
  Er  Er4  1  0.459285  0.918569  0.750000  1
  Er  Er5  1  0.081431  0.540715  0.750000  1
  Tm  Tm6  1  0.000000  0.000000  0.500000  1
  Tm  Tm7  1  0.000000  0.000000  0.000000  1
  Tm  Tm8  1  0.209974  0.790026  0.440737  1
  Tm  Tm9  1  0.209974  0.419948  0.440737  1
  Tm  Tm10  1  0.580052  0.790026  0.440737  1
  Tm  Tm11  1  0.790026  0.209974  0.559263  1
  Tm  Tm12  1  0.790026  0.580052  0.559263  1
  Tm  Tm13  1  0.419948  0.209974  0.559263  1
  Tm  Tm14  1  0.790026  0.209974  0.940737  1
  Tm  Tm15  1  0.790026  0.580052  0.940737  1
  Tm  Tm16  1  0.419948  0.209974  0.940737  1
  Tm  Tm17  1  0.209974  0.790026  0.059263  1
  Tm  Tm18  1  0.209974  0.419948  0.059263  1
  Tm  Tm19  1  0.580052  0.790026  0.059263  1
  Cd  Cd20  1  0.885696  0.114304  0.250000  1
  Cd  Cd21  1  0.885696  0.771394  0.250000  1
  Cd  Cd22  1  0.228606  0.114304  0.250000  1
  Cd  Cd23  1  0.114304  0.885696  0.750000  1
  Cd  Cd24  1  0.114304  0.228606  0.750000  1
  Cd  Cd25  1  0.771394  0.885696  0.750000  1
  Ru  Ru26  1  0.333333  0.666667  0.250000  1
  Ru  Ru27  1  0.666667  0.333333  0.750000  1
