# generated using pymatgen
data_Tb5TcWC7
_symmetry_space_group_name_H-M   'P 1'
_cell_length_a   8.42058665
_cell_length_b   8.42058662
_cell_length_c   3.45466300
_cell_angle_alpha   90.00000000
_cell_angle_beta   90.00000000
_cell_angle_gamma   122.90088966
_symmetry_Int_Tables_number   1
_chemical_formula_structural   Tb5TcWC7
_chemical_formula_sum   'Tb5 Tc1 W1 C7'
_cell_volume   205.66894851
_cell_formula_units_Z   1
loop_
 _symmetry_equiv_pos_site_id
 _symmetry_equiv_pos_as_xyz
  1  'x, y, z'
loop_
 _atom_site_type_symbol
 _atom_site_label
 _atom_site_symmetry_multiplicity
 _atom_site_fract_x
 _atom_site_fract_y
 _atom_site_fract_z
 _atom_site_occupancy
  Tb  Tb0  1  0.501387  0.498613  0.000000  1
  Tb  Tb1  1  0.072159  0.331664  0.500000  1
  Tb  Tb2  1  0.924901  0.665183  0.500000  1
  Tb  Tb3  1  0.668336  0.927841  0.500000  1
  Tb  Tb4  1  0.334817  0.075099  0.500000  1
  Tc  Tc5  1  0.712117  0.287883  0.000000  1
  W  W6  1  0.286830  0.713170  0.000000  1
  C  C7  1  0.628233  0.371767  0.500000  1
  C  C8  1  0.374003  0.625997  0.500000  1
  C  C9  1  0.999669  0.000331  0.000000  1
  C  C10  1  0.167674  0.168943  0.000000  1
  C  C11  1  0.831057  0.832326  0.000000  1
  C  C12  1  0.000024  0.501208  0.000000  1
  C  C13  1  0.498792  0.999976  0.000000  1
