# generated using pymatgen
data_HoPt4Au
_symmetry_space_group_name_H-M   'P 1'
_cell_length_a   5.35498831
_cell_length_b   5.35498853
_cell_length_c   5.35498800
_cell_angle_alpha   60.00000327
_cell_angle_beta   60.00000190
_cell_angle_gamma   60.00000264
_symmetry_Int_Tables_number   1
_chemical_formula_structural   HoPt4Au
_chemical_formula_sum   'Ho1 Pt4 Au1'
_cell_volume   108.58269126
_cell_formula_units_Z   1
loop_
 _symmetry_equiv_pos_site_id
 _symmetry_equiv_pos_as_xyz
  1  'x, y, z'
loop_
 _atom_site_type_symbol
 _atom_site_label
 _atom_site_symmetry_multiplicity
 _atom_site_fract_x
 _atom_site_fract_y
 _atom_site_fract_z
 _atom_site_occupancy
  Ho  Ho0  1  0.250000  0.250000  0.250000  1
  Pt  Pt1  1  0.625493  0.625493  0.625493  1
  Pt  Pt2  1  0.625493  0.625493  0.123519  1
  Pt  Pt3  1  0.625493  0.123519  0.625493  1
  Pt  Pt4  1  0.123519  0.625493  0.625493  1
  Au  Au5  1  0.000000  0.000000  0.000000  1
