# generated using pymatgen
data_Rb2Cr(CuS2)2
_symmetry_space_group_name_H-M   'P 1'
_cell_length_a   5.64107800
_cell_length_b   5.64107800
_cell_length_c   13.15889400
_cell_angle_alpha   90.00000000
_cell_angle_beta   90.00000000
_cell_angle_gamma   90.00000000
_symmetry_Int_Tables_number   1
_chemical_formula_structural   Rb2Cr(CuS2)2
_chemical_formula_sum   'Rb4 Cr2 Cu4 S8'
_cell_volume   418.73917992
_cell_formula_units_Z   2
loop_
 _symmetry_equiv_pos_site_id
 _symmetry_equiv_pos_as_xyz
  1  'x, y, z'
loop_
 _atom_site_type_symbol
 _atom_site_label
 _atom_site_symmetry_multiplicity
 _atom_site_fract_x
 _atom_site_fract_y
 _atom_site_fract_z
 _atom_site_occupancy
  Rb  Rb0  1  0.759036  0.759036  0.000000  1
  Rb  Rb1  1  0.240964  0.759036  0.500000  1
  Rb  Rb2  1  0.759036  0.240964  0.500000  1
  Rb  Rb3  1  0.240964  0.240964  0.000000  1
  Cr  Cr4  1  0.500000  0.500000  0.750000  1
  Cr  Cr5  1  0.500000  0.500000  0.250000  1
  Cu  Cu6  1  0.000000  0.500000  0.750000  1
  Cu  Cu7  1  0.500000  0.000000  0.750000  1
  Cu  Cu8  1  0.000000  0.500000  0.250000  1
  Cu  Cu9  1  0.500000  0.000000  0.250000  1
  S  S10  1  0.731200  0.731200  0.656565  1
  S  S11  1  0.268800  0.268800  0.656565  1
  S  S12  1  0.731200  0.731200  0.343435  1
  S  S13  1  0.731200  0.268800  0.156565  1
  S  S14  1  0.268800  0.731200  0.843435  1
  S  S15  1  0.268800  0.268800  0.343435  1
  S  S16  1  0.268800  0.731200  0.156565  1
  S  S17  1  0.731200  0.268800  0.843435  1
