# generated using pymatgen
data_DyMgCu3Rh
_symmetry_space_group_name_H-M   'P 1'
_cell_length_a   5.02996707
_cell_length_b   5.02996703
_cell_length_c   5.24057230
_cell_angle_alpha   61.32070952
_cell_angle_beta   61.32070822
_cell_angle_gamma   59.99998358
_symmetry_Int_Tables_number   1
_chemical_formula_structural   DyMgCu3Rh
_chemical_formula_sum   'Dy1 Mg1 Cu3 Rh1'
_cell_volume   95.58308514
_cell_formula_units_Z   1
loop_
 _symmetry_equiv_pos_site_id
 _symmetry_equiv_pos_as_xyz
  1  'x, y, z'
loop_
 _atom_site_type_symbol
 _atom_site_label
 _atom_site_symmetry_multiplicity
 _atom_site_fract_x
 _atom_site_fract_y
 _atom_site_fract_z
 _atom_site_occupancy
  Dy  Dy0  1  0.998571  0.998571  0.004285  1
  Mg  Mg1  1  0.247040  0.247040  0.258880  1
  Cu  Cu2  1  0.626098  0.127260  0.620545  1
  Cu  Cu3  1  0.127260  0.626098  0.620545  1
  Cu  Cu4  1  0.626098  0.626098  0.620545  1
  Rh  Rh5  1  0.624933  0.624933  0.125200  1
