# generated using pymatgen
data_BaSr2Al3Ga2
_symmetry_space_group_name_H-M   'P 1'
_cell_length_a   5.84766400
_cell_length_b   5.84766350
_cell_length_c   14.34454800
_cell_angle_alpha   90.00000000
_cell_angle_beta   90.00000000
_cell_angle_gamma   120.00000283
_symmetry_Int_Tables_number   1
_chemical_formula_structural   BaSr2Al3Ga2
_chemical_formula_sum   'Ba2 Sr4 Al6 Ga4'
_cell_volume   424.79781236
_cell_formula_units_Z   2
loop_
 _symmetry_equiv_pos_site_id
 _symmetry_equiv_pos_as_xyz
  1  'x, y, z'
loop_
 _atom_site_type_symbol
 _atom_site_label
 _atom_site_symmetry_multiplicity
 _atom_site_fract_x
 _atom_site_fract_y
 _atom_site_fract_z
 _atom_site_occupancy
  Ba  Ba0  1  0.000000  0.000000  0.000000  1
  Ba  Ba1  1  0.000000  0.000000  0.500000  1
  Sr  Sr2  1  0.333333  0.666667  0.877148  1
  Sr  Sr3  1  0.666667  0.333333  0.377148  1
  Sr  Sr4  1  0.666667  0.333333  0.122852  1
  Sr  Sr5  1  0.333333  0.666667  0.622852  1
  Al  Al6  1  0.839920  0.679840  0.750000  1
  Al  Al7  1  0.679840  0.839920  0.250000  1
  Al  Al8  1  0.839920  0.160080  0.750000  1
  Al  Al9  1  0.160080  0.839920  0.250000  1
  Al  Al10  1  0.320160  0.160080  0.750000  1
  Al  Al11  1  0.160080  0.320160  0.250000  1
  Ga  Ga12  1  0.666667  0.333333  0.892817  1
  Ga  Ga13  1  0.333333  0.666667  0.107183  1
  Ga  Ga14  1  0.333333  0.666667  0.392817  1
  Ga  Ga15  1  0.666667  0.333333  0.607183  1
