# generated using pymatgen
data_ErLu3(TiCo)4
_symmetry_space_group_name_H-M   'P 1'
_cell_length_a   4.15761700
_cell_length_b   6.54456623
_cell_length_c   8.01956825
_cell_angle_alpha   90.15620714
_cell_angle_beta   90.00000000
_cell_angle_gamma   90.00000000
_symmetry_Int_Tables_number   1
_chemical_formula_structural   ErLu3(TiCo)4
_chemical_formula_sum   'Er1 Lu3 Ti4 Co4'
_cell_volume   218.21003585
_cell_formula_units_Z   1
loop_
 _symmetry_equiv_pos_site_id
 _symmetry_equiv_pos_as_xyz
  1  'x, y, z'
loop_
 _atom_site_type_symbol
 _atom_site_label
 _atom_site_symmetry_multiplicity
 _atom_site_fract_x
 _atom_site_fract_y
 _atom_site_fract_z
 _atom_site_occupancy
  Er  Er0  1  0.750000  0.485676  0.319311  1
  Lu  Lu1  1  0.250000  0.515560  0.681659  1
  Lu  Lu2  1  0.250000  0.015411  0.819725  1
  Lu  Lu3  1  0.750000  0.984396  0.180187  1
  Ti  Ti4  1  0.750000  0.362749  0.934084  1
  Ti  Ti5  1  0.250000  0.134710  0.436583  1
  Ti  Ti6  1  0.250000  0.636193  0.061949  1
  Ti  Ti7  1  0.750000  0.864960  0.565903  1
  Co  Co8  1  0.750000  0.217972  0.591915  1
  Co  Co9  1  0.250000  0.782946  0.410795  1
  Co  Co10  1  0.750000  0.717840  0.908651  1
  Co  Co11  1  0.250000  0.281588  0.089237  1
