# generated using pymatgen
data_Er2Tm2MnB12Os
_symmetry_space_group_name_H-M   'P 1'
_cell_length_a   3.57796100
_cell_length_b   9.06070455
_cell_length_c   11.43654314
_cell_angle_alpha   90.04849413
_cell_angle_beta   90.00000000
_cell_angle_gamma   90.00000000
_symmetry_Int_Tables_number   1
_chemical_formula_structural   Er2Tm2MnB12Os
_chemical_formula_sum   'Er4 Tm4 Mn2 B24 Os2'
_cell_volume   370.75941541
_cell_formula_units_Z   2
loop_
 _symmetry_equiv_pos_site_id
 _symmetry_equiv_pos_as_xyz
  1  'x, y, z'
loop_
 _atom_site_type_symbol
 _atom_site_label
 _atom_site_symmetry_multiplicity
 _atom_site_fract_x
 _atom_site_fract_y
 _atom_site_fract_z
 _atom_site_occupancy
  Er  Er0  1  0.000000  0.326286  0.415920  1
  Er  Er1  1  0.000000  0.673714  0.584080  1
  Er  Er2  1  0.000000  0.820295  0.087550  1
  Er  Er3  1  0.000000  0.179705  0.912450  1
  Tm  Tm4  1  0.000000  0.939813  0.371400  1
  Tm  Tm5  1  0.000000  0.060187  0.628601  1
  Tm  Tm6  1  0.000000  0.445931  0.131163  1
  Tm  Tm7  1  0.000000  0.554069  0.868836  1
  Mn  Mn8  1  0.000000  0.638308  0.320278  1
  Mn  Mn9  1  0.000000  0.361692  0.679722  1
  B  B10  1  0.500000  0.553784  0.432593  1
  B  B11  1  0.500000  0.446216  0.567407  1
  B  B12  1  0.500000  0.053292  0.066674  1
  B  B13  1  0.500000  0.946708  0.933326  1
  B  B14  1  0.500000  0.746388  0.418305  1
  B  B15  1  0.500000  0.253612  0.581695  1
  B  B16  1  0.500000  0.249724  0.080816  1
  B  B17  1  0.500000  0.750276  0.919184  1
  B  B18  1  0.500000  0.789893  0.266265  1
  B  B19  1  0.500000  0.210107  0.733735  1
  B  B20  1  0.500000  0.292540  0.235354  1
  B  B21  1  0.500000  0.707459  0.764646  1
  B  B22  1  0.500000  0.631255  0.186597  1
  B  B23  1  0.500000  0.368745  0.813403  1
  B  B24  1  0.500000  0.130974  0.315255  1
  B  B25  1  0.500000  0.869026  0.684745  1
  B  B26  1  0.500000  0.981203  0.212813  1
  B  B27  1  0.500000  0.018797  0.787187  1
  B  B28  1  0.500000  0.484811  0.288763  1
  B  B29  1  0.500000  0.515189  0.711237  1
  B  B30  1  0.500000  0.603243  0.028591  1
  B  B31  1  0.500000  0.396757  0.971409  1
  B  B32  1  0.500000  0.104036  0.471259  1
  B  B33  1  0.500000  0.895964  0.528741  1
  Os  Os34  1  0.000000  0.137985  0.178899  1
  Os  Os35  1  0.000000  0.862015  0.821101  1
