# generated using pymatgen
data_PrPa5I24
_symmetry_space_group_name_H-M   'P 1'
_cell_length_a   9.26481700
_cell_length_b   9.30143798
_cell_length_c   19.59627008
_cell_angle_alpha   76.59434320
_cell_angle_beta   90.00000000
_cell_angle_gamma   90.00000000
_symmetry_Int_Tables_number   1
_chemical_formula_structural   PrPa5I24
_chemical_formula_sum   'Pr1 Pa5 I24'
_cell_volume   1642.71768272
_cell_formula_units_Z   1
loop_
 _symmetry_equiv_pos_site_id
 _symmetry_equiv_pos_as_xyz
  1  'x, y, z'
loop_
 _atom_site_type_symbol
 _atom_site_label
 _atom_site_symmetry_multiplicity
 _atom_site_fract_x
 _atom_site_fract_y
 _atom_site_fract_z
 _atom_site_occupancy
  Pr  Pr0  1  0.396815  0.000000  0.250000  1
  Pa  Pa1  1  0.879724  0.829275  0.582149  1
  Pa  Pa2  1  0.118312  0.173044  0.416197  1
  Pa  Pa3  1  0.630521  0.000000  0.750000  1
  Pa  Pa4  1  0.879724  0.170725  0.917851  1
  Pa  Pa5  1  0.118312  0.826956  0.083803  1
  I  I6  1  0.105502  0.391976  0.907163  1
  I  I7  1  0.596662  0.748061  0.260888  1
  I  I8  1  0.115068  0.070977  0.578444  1
  I  I9  1  0.350356  0.373608  0.427732  1
  I  I10  1  0.115693  0.772799  0.240291  1
  I  I11  1  0.115693  0.227201  0.259709  1
  I  I12  1  0.115068  0.929023  0.921556  1
  I  I13  1  0.416515  0.232823  0.740297  1
  I  I14  1  0.894092  0.607770  0.089858  1
  I  I15  1  0.877098  0.227644  0.755926  1
  I  I16  1  0.416515  0.767177  0.759703  1
  I  I17  1  0.894092  0.392230  0.410142  1
  I  I18  1  0.596662  0.251939  0.239112  1
  I  I19  1  0.653663  0.076613  0.588424  1
  I  I20  1  0.336926  0.924669  0.417960  1
  I  I21  1  0.877098  0.772356  0.744074  1
  I  I22  1  0.105502  0.608024  0.592837  1
  I  I23  1  0.647337  0.374036  0.928623  1
  I  I24  1  0.336926  0.075331  0.082040  1
  I  I25  1  0.879384  0.067364  0.078559  1
  I  I26  1  0.647337  0.625964  0.571377  1
  I  I27  1  0.653663  0.923387  0.911576  1
  I  I28  1  0.350356  0.626392  0.072268  1
  I  I29  1  0.879384  0.932636  0.421441  1
