# generated using pymatgen
data_Ac2W2O9
_symmetry_space_group_name_H-M   'P 1'
_cell_length_a   7.30138487
_cell_length_b   7.58304301
_cell_length_c   7.43071075
_cell_angle_alpha   70.12216568
_cell_angle_beta   85.00929853
_cell_angle_gamma   83.65562438
_symmetry_Int_Tables_number   1
_chemical_formula_structural   Ac2W2O9
_chemical_formula_sum   'Ac4 W4 O18'
_cell_volume   383.99445124
_cell_formula_units_Z   2
loop_
 _symmetry_equiv_pos_site_id
 _symmetry_equiv_pos_as_xyz
  1  'x, y, z'
loop_
 _atom_site_type_symbol
 _atom_site_label
 _atom_site_symmetry_multiplicity
 _atom_site_fract_x
 _atom_site_fract_y
 _atom_site_fract_z
 _atom_site_occupancy
  Ac  Ac0  1  0.833944  0.743539  0.854751  1
  Ac  Ac1  1  0.166056  0.256461  0.145249  1
  Ac  Ac2  1  0.373618  0.724639  0.582698  1
  Ac  Ac3  1  0.626382  0.275361  0.417302  1
  W  W4  1  0.156703  0.197537  0.646860  1
  W  W5  1  0.843297  0.802463  0.353140  1
  W  W6  1  0.728328  0.268633  0.939225  1
  W  W7  1  0.271672  0.731367  0.060775  1
  O  O8  1  0.336920  0.348048  0.652133  1
  O  O9  1  0.663080  0.651952  0.347867  1
  O  O10  1  0.007556  0.275321  0.841531  1
  O  O11  1  0.992444  0.724679  0.158469  1
  O  O12  1  0.482904  0.769761  0.900885  1
  O  O13  1  0.517096  0.230239  0.099115  1
  O  O14  1  0.658358  0.485193  0.745077  1
  O  O15  1  0.341642  0.514807  0.254923  1
  O  O16  1  0.279619  0.907045  0.185288  1
  O  O17  1  0.720381  0.092955  0.814712  1
  O  O18  1  0.817513  0.411613  0.088741  1
  O  O19  1  0.182487  0.588387  0.911259  1
  O  O20  1  0.982772  0.282022  0.463769  1
  O  O21  1  0.017228  0.717978  0.536231  1
  O  O22  1  0.859169  0.053684  0.190113  1
  O  O23  1  0.140831  0.946316  0.809887  1
  O  O24  1  0.318931  0.097233  0.476875  1
  O  O25  1  0.681069  0.902767  0.523126  1
