# generated using pymatgen
data_CeSm5(SiPd5)2
_symmetry_space_group_name_H-M   'P 1'
_cell_length_a   8.37080854
_cell_length_b   8.37080848
_cell_length_c   8.37080796
_cell_angle_alpha   127.65803240
_cell_angle_beta   125.80585671
_cell_angle_gamma   78.69756126
_symmetry_Int_Tables_number   1
_chemical_formula_structural   CeSm5(SiPd5)2
_chemical_formula_sum   'Ce1 Sm5 Si2 Pd10'
_cell_volume   364.49166207
_cell_formula_units_Z   1
loop_
 _symmetry_equiv_pos_site_id
 _symmetry_equiv_pos_as_xyz
  1  'x, y, z'
loop_
 _atom_site_type_symbol
 _atom_site_label
 _atom_site_symmetry_multiplicity
 _atom_site_fract_x
 _atom_site_fract_y
 _atom_site_fract_z
 _atom_site_occupancy
  Ce  Ce0  1  0.614862  0.750000  0.864862  1
  Sm  Sm1  1  0.222333  0.448958  0.773375  1
  Sm  Sm2  1  0.777101  0.549804  0.227297  1
  Sm  Sm3  1  0.824416  0.051042  0.773375  1
  Sm  Sm4  1  0.177493  0.950196  0.227297  1
  Sm  Sm5  1  0.388204  0.250000  0.138204  1
  Si  Si6  1  0.785730  0.250000  0.535730  1
  Si  Si7  1  0.215707  0.750000  0.465707  1
  Pd  Pd8  1  0.168703  0.404401  0.360657  1
  Pd  Pd9  1  0.828551  0.185986  0.230272  1
  Pd  Pd10  1  0.456256  0.095599  0.764303  1
  Pd  Pd11  1  0.544286  0.314014  0.642565  1
  Pd  Pd12  1  0.999280  0.501459  0.000739  1
  Pd  Pd13  1  0.999280  0.998541  0.497820  1
  Pd  Pd14  1  0.456256  0.691954  0.360657  1
  Pd  Pd15  1  0.544286  0.901721  0.230272  1
  Pd  Pd16  1  0.168703  0.808046  0.764303  1
  Pd  Pd17  1  0.828551  0.598279  0.642565  1
