# generated using pymatgen
data_Pr2Ga5PdPt2
_symmetry_space_group_name_H-M   'P 1'
_cell_length_a   8.69529755
_cell_length_b   8.69529793
_cell_length_c   8.69529800
_cell_angle_alpha   140.24750847
_cell_angle_beta   107.38802205
_cell_angle_gamma   86.12067258
_symmetry_Int_Tables_number   1
_chemical_formula_structural   Pr2Ga5PdPt2
_chemical_formula_sum   'Pr4 Ga10 Pd2 Pt4'
_cell_volume   386.78784966
_cell_formula_units_Z   2
loop_
 _symmetry_equiv_pos_site_id
 _symmetry_equiv_pos_as_xyz
  1  'x, y, z'
loop_
 _atom_site_type_symbol
 _atom_site_label
 _atom_site_symmetry_multiplicity
 _atom_site_fract_x
 _atom_site_fract_y
 _atom_site_fract_z
 _atom_site_occupancy
  Pr  Pr0  1  0.861764  0.636891  0.224874  1
  Pr  Pr1  1  0.138236  0.363109  0.775126  1
  Pr  Pr2  1  0.412017  0.136891  0.275126  1
  Pr  Pr3  1  0.587983  0.863109  0.724874  1
  Ga  Ga4  1  0.500000  0.750000  0.250000  1
  Ga  Ga5  1  0.500000  0.250000  0.750000  1
  Ga  Ga6  1  0.212071  0.962071  0.750000  1
  Ga  Ga7  1  0.787929  0.537929  0.750000  1
  Ga  Ga8  1  0.787929  0.037929  0.250000  1
  Ga  Ga9  1  0.212071  0.462071  0.250000  1
  Ga  Ga10  1  0.065094  0.903071  0.162024  1
  Ga  Ga11  1  0.934906  0.096929  0.837976  1
  Ga  Ga12  1  0.741048  0.403071  0.337976  1
  Ga  Ga13  1  0.258952  0.596929  0.662024  1
  Pd  Pd14  1  0.000000  0.750000  0.750000  1
  Pd  Pd15  1  0.000000  0.250000  0.250000  1
  Pt  Pt16  1  0.254415  0.856059  0.398358  1
  Pt  Pt17  1  0.745585  0.143941  0.601642  1
  Pt  Pt18  1  0.457700  0.356059  0.101642  1
  Pt  Pt19  1  0.542300  0.643941  0.898358  1
