# generated using pymatgen
data_Ta4Cu3Pt8Rh
_symmetry_space_group_name_H-M   'P 1'
_cell_length_a   4.55766900
_cell_length_b   4.83418300
_cell_length_c   11.05662500
_cell_angle_alpha   90.00000000
_cell_angle_beta   90.00000000
_cell_angle_gamma   90.00000000
_symmetry_Int_Tables_number   1
_chemical_formula_structural   Ta4Cu3Pt8Rh
_chemical_formula_sum   'Ta4 Cu3 Pt8 Rh1'
_cell_volume   243.60626231
_cell_formula_units_Z   1
loop_
 _symmetry_equiv_pos_site_id
 _symmetry_equiv_pos_as_xyz
  1  'x, y, z'
loop_
 _atom_site_type_symbol
 _atom_site_label
 _atom_site_symmetry_multiplicity
 _atom_site_fract_x
 _atom_site_fract_y
 _atom_site_fract_z
 _atom_site_occupancy
  Ta  Ta0  1  0.500000  0.660793  0.253619  1
  Ta  Ta1  1  0.500000  0.660793  0.746381  1
  Ta  Ta2  1  0.000000  0.339813  0.000000  1
  Ta  Ta3  1  0.000000  0.344453  0.500000  1
  Cu  Cu4  1  0.000000  0.325481  0.249421  1
  Cu  Cu5  1  0.000000  0.325481  0.750579  1
  Cu  Cu6  1  0.500000  0.674035  0.000000  1
  Pt  Pt7  1  0.500000  0.175396  0.372437  1
  Pt  Pt8  1  0.500000  0.180668  0.876218  1
  Pt  Pt9  1  0.500000  0.180668  0.123782  1
  Pt  Pt10  1  0.500000  0.175396  0.627563  1
  Pt  Pt11  1  0.000000  0.829412  0.372950  1
  Pt  Pt12  1  0.000000  0.817035  0.875368  1
  Pt  Pt13  1  0.000000  0.817035  0.124632  1
  Pt  Pt14  1  0.000000  0.829412  0.627050  1
  Rh  Rh15  1  0.500000  0.664132  0.500000  1
