# generated using pymatgen
data_Zr12ZnSe3
_symmetry_space_group_name_H-M   'P 1'
_cell_length_a   11.00194400
_cell_length_b   11.04666523
_cell_length_c   5.50459700
_cell_angle_alpha   90.00000000
_cell_angle_beta   90.00000000
_cell_angle_gamma   89.96355822
_symmetry_Int_Tables_number   1
_chemical_formula_structural   Zr12ZnSe3
_chemical_formula_sum   'Zr24 Zn2 Se6'
_cell_volume   668.99991775
_cell_formula_units_Z   2
loop_
 _symmetry_equiv_pos_site_id
 _symmetry_equiv_pos_as_xyz
  1  'x, y, z'
loop_
 _atom_site_type_symbol
 _atom_site_label
 _atom_site_symmetry_multiplicity
 _atom_site_fract_x
 _atom_site_fract_y
 _atom_site_fract_z
 _atom_site_occupancy
  Zr  Zr0  1  0.915623  0.604471  0.546486  1
  Zr  Zr1  1  0.084377  0.395529  0.546486  1
  Zr  Zr2  1  0.897555  0.415238  0.038274  1
  Zr  Zr3  1  0.102445  0.584762  0.038274  1
  Zr  Zr4  1  0.584276  0.897285  0.959062  1
  Zr  Zr5  1  0.415724  0.102715  0.959062  1
  Zr  Zr6  1  0.605362  0.083435  0.462393  1
  Zr  Zr7  1  0.394638  0.916565  0.462393  1
  Zr  Zr8  1  0.858469  0.974419  0.714996  1
  Zr  Zr9  1  0.141531  0.025581  0.714996  1
  Zr  Zr10  1  0.526916  0.360778  0.215298  1
  Zr  Zr11  1  0.473084  0.639222  0.215298  1
  Zr  Zr12  1  0.638940  0.524137  0.783564  1
  Zr  Zr13  1  0.361060  0.475863  0.783564  1
  Zr  Zr14  1  0.972951  0.141860  0.282783  1
  Zr  Zr15  1  0.027049  0.858140  0.282783  1
  Zr  Zr16  1  0.814573  0.715271  0.010186  1
  Zr  Zr17  1  0.185427  0.284729  0.010186  1
  Zr  Zr18  1  0.785512  0.319955  0.514055  1
  Zr  Zr19  1  0.214488  0.680045  0.514055  1
  Zr  Zr20  1  0.682117  0.785919  0.488234  1
  Zr  Zr21  1  0.317883  0.214081  0.488234  1
  Zr  Zr22  1  0.713438  0.180868  0.986361  1
  Zr  Zr23  1  0.286562  0.819132  0.986361  1
  Zn  Zn24  1  0.961684  0.202612  0.790168  1
  Zn  Zn25  1  0.038316  0.797388  0.790168  1
  Se  Se26  1  0.794438  0.960607  0.208970  1
  Se  Se27  1  0.205562  0.039393  0.208970  1
  Se  Se28  1  0.536928  0.291819  0.711042  1
  Se  Se29  1  0.463072  0.708181  0.711042  1
  Se  Se30  1  0.707603  0.538804  0.288126  1
  Se  Se31  1  0.292397  0.461196  0.288126  1
