# generated using pymatgen
data_Sb4PdAu
_symmetry_space_group_name_H-M   'P 1'
_cell_length_a   6.67876008
_cell_length_b   6.69537507
_cell_length_c   6.67955700
_cell_angle_alpha   90.00000000
_cell_angle_beta   90.00000000
_cell_angle_gamma   90.01711139
_symmetry_Int_Tables_number   1
_chemical_formula_structural   Sb4PdAu
_chemical_formula_sum   'Sb8 Pd2 Au2'
_cell_volume   298.68842608
_cell_formula_units_Z   2
loop_
 _symmetry_equiv_pos_site_id
 _symmetry_equiv_pos_as_xyz
  1  'x, y, z'
loop_
 _atom_site_type_symbol
 _atom_site_label
 _atom_site_symmetry_multiplicity
 _atom_site_fract_x
 _atom_site_fract_y
 _atom_site_fract_z
 _atom_site_occupancy
  Sb  Sb0  1  0.379792  0.132853  0.879176  1
  Sb  Sb1  1  0.120208  0.867147  0.379176  1
  Sb  Sb2  1  0.870717  0.382988  0.129069  1
  Sb  Sb3  1  0.629283  0.617012  0.629069  1
  Sb  Sb4  1  0.370717  0.382988  0.370931  1
  Sb  Sb5  1  0.129283  0.617012  0.870931  1
  Sb  Sb6  1  0.879792  0.132853  0.620824  1
  Sb  Sb7  1  0.620208  0.867147  0.120824  1
  Pd  Pd8  1  0.000000  0.500000  0.500000  1
  Pd  Pd9  1  0.500000  0.500000  0.000000  1
  Au  Au10  1  0.500000  0.000000  0.500000  1
  Au  Au11  1  0.000000  0.000000  0.000000  1
