# generated using pymatgen
data_Pr5(SiSb)2
_symmetry_space_group_name_H-M   'P 1'
_cell_length_a   8.86983325
_cell_length_b   8.86983262
_cell_length_c   8.21441700
_cell_angle_alpha   90.00000000
_cell_angle_beta   90.00000000
_cell_angle_gamma   125.23294276
_symmetry_Int_Tables_number   1
_chemical_formula_structural   Pr5(SiSb)2
_chemical_formula_sum   'Pr10 Si4 Sb4'
_cell_volume   527.87421276
_cell_formula_units_Z   2
loop_
 _symmetry_equiv_pos_site_id
 _symmetry_equiv_pos_as_xyz
  1  'x, y, z'
loop_
 _atom_site_type_symbol
 _atom_site_label
 _atom_site_symmetry_multiplicity
 _atom_site_fract_x
 _atom_site_fract_y
 _atom_site_fract_z
 _atom_site_occupancy
  Pr  Pr0  1  0.044268  0.303147  0.327728  1
  Pr  Pr1  1  0.955732  0.696853  0.672272  1
  Pr  Pr2  1  0.455732  0.196853  0.827728  1
  Pr  Pr3  1  0.803147  0.544268  0.172272  1
  Pr  Pr4  1  0.544268  0.803147  0.172272  1
  Pr  Pr5  1  0.196853  0.455732  0.827728  1
  Pr  Pr6  1  0.696853  0.955732  0.672272  1
  Pr  Pr7  1  0.303147  0.044268  0.327728  1
  Pr  Pr8  1  0.000000  0.000000  0.000000  1
  Pr  Pr9  1  0.500000  0.500000  0.500000  1
  Si  Si10  1  0.384307  0.384307  0.115848  1
  Si  Si11  1  0.615693  0.615693  0.884152  1
  Si  Si12  1  0.115693  0.115693  0.615848  1
  Si  Si13  1  0.884307  0.884307  0.384152  1
  Sb  Sb14  1  0.793685  0.206315  0.000000  1
  Sb  Sb15  1  0.206315  0.793685  0.000000  1
  Sb  Sb16  1  0.706315  0.293685  0.500000  1
  Sb  Sb17  1  0.293685  0.706315  0.500000  1
