# generated using pymatgen
data_Pr5CrP12(RuRh)9
_symmetry_space_group_name_H-M   'P 1'
_cell_length_a   12.77590700
_cell_length_b   12.74815463
_cell_length_c   3.97381800
_cell_angle_alpha   90.00000000
_cell_angle_beta   90.00000000
_cell_angle_gamma   120.07203720
_symmetry_Int_Tables_number   1
_chemical_formula_structural   Pr5CrP12(RuRh)9
_chemical_formula_sum   'Pr5 Cr1 P12 Ru9 Rh9'
_cell_volume   560.09533950
_cell_formula_units_Z   1
loop_
 _symmetry_equiv_pos_site_id
 _symmetry_equiv_pos_as_xyz
  1  'x, y, z'
loop_
 _atom_site_type_symbol
 _atom_site_label
 _atom_site_symmetry_multiplicity
 _atom_site_fract_x
 _atom_site_fract_y
 _atom_site_fract_z
 _atom_site_occupancy
  Pr  Pr0  1  0.812828  0.000000  0.500000  1
  Pr  Pr1  1  0.999803  0.813585  0.500000  1
  Pr  Pr2  1  0.186217  0.186415  0.500000  1
  Pr  Pr3  1  0.333173  0.667249  0.000000  1
  Pr  Pr4  1  0.665925  0.332751  0.000000  1
  Cr  Cr5  1  0.441787  0.000000  0.000000  1
  P  P6  1  0.184932  0.000000  0.000000  1
  P  P7  1  0.000265  0.186026  0.000000  1
  P  P8  1  0.814238  0.813974  0.000000  1
  P  P9  1  0.519992  0.690217  0.500000  1
  P  P10  1  0.314029  0.832999  0.500000  1
  P  P11  1  0.171361  0.481574  0.500000  1
  P  P12  1  0.481030  0.167001  0.500000  1
  P  P13  1  0.689787  0.518426  0.500000  1
  P  P14  1  0.829775  0.309783  0.500000  1
  P  P15  1  0.624355  0.000000  0.000000  1
  P  P16  1  0.999986  0.627107  0.000000  1
  P  P17  1  0.372880  0.372893  0.000000  1
  Ru  Ru18  1  0.285409  0.000000  0.500000  1
  Ru  Ru19  1  0.001281  0.288382  0.500000  1
  Ru  Ru20  1  0.712899  0.711618  0.500000  1
  Ru  Ru21  1  0.514083  0.875249  0.500000  1
  Ru  Ru22  1  0.124951  0.637124  0.500000  1
  Ru  Ru23  1  0.363317  0.487739  0.500000  1
  Ru  Ru24  1  0.487827  0.362876  0.500000  1
  Ru  Ru25  1  0.875578  0.512261  0.500000  1
  Ru  Ru26  1  0.638834  0.124751  0.500000  1
  Rh  Rh27  1  0.999664  0.448525  0.000000  1
  Rh  Rh28  1  0.551139  0.551475  0.000000  1
  Rh  Rh29  1  0.623976  0.804586  0.000000  1
  Rh  Rh30  1  0.195135  0.817591  0.000000  1
  Rh  Rh31  1  0.182540  0.378104  0.000000  1
  Rh  Rh32  1  0.377544  0.182409  0.000000  1
  Rh  Rh33  1  0.804436  0.621896  0.000000  1
  Rh  Rh34  1  0.819391  0.195414  0.000000  1
  Rh  Rh35  1  0.999633  0.000000  0.000000  1
