# generated using pymatgen
data_Sr4Al5
_symmetry_space_group_name_H-M   'P 1'
_cell_length_a   5.88796200
_cell_length_b   5.88794200
_cell_length_c   17.39755200
_cell_angle_alpha   90.00000000
_cell_angle_beta   90.00000000
_cell_angle_gamma   120.00012359
_symmetry_Int_Tables_number   1
_chemical_formula_structural   Sr4Al5
_chemical_formula_sum   'Sr8 Al10'
_cell_volume   522.33214778
_cell_formula_units_Z   2
loop_
 _symmetry_equiv_pos_site_id
 _symmetry_equiv_pos_as_xyz
  1  'x, y, z'
loop_
 _atom_site_type_symbol
 _atom_site_label
 _atom_site_symmetry_multiplicity
 _atom_site_fract_x
 _atom_site_fract_y
 _atom_site_fract_z
 _atom_site_occupancy
  Sr  Sr0  1  0.333339  0.666676  0.066956  1
  Sr  Sr1  1  0.000002  0.000004  0.144068  1
  Sr  Sr2  1  0.000002  0.000004  0.355932  1
  Sr  Sr3  1  0.333339  0.666676  0.433045  1
  Sr  Sr4  1  0.666663  0.333325  0.566956  1
  Sr  Sr5  1  0.999998  0.999996  0.644068  1
  Sr  Sr6  1  0.999998  0.999996  0.855932  1
  Sr  Sr7  1  0.666663  0.333325  0.933044  1
  Al  Al8  1  0.666670  0.333339  0.127912  1
  Al  Al9  1  0.007956  0.503982  0.250000  1
  Al  Al10  1  0.496026  0.503982  0.250000  1
  Al  Al11  1  0.496028  0.992057  0.250000  1
  Al  Al12  1  0.666670  0.333339  0.372087  1
  Al  Al13  1  0.333330  0.666661  0.627913  1
  Al  Al14  1  0.503972  0.007942  0.750000  1
  Al  Al15  1  0.503974  0.496018  0.750000  1
  Al  Al16  1  0.992045  0.496018  0.750000  1
  Al  Al17  1  0.333330  0.666661  0.872087  1
