# generated using pymatgen
data_Ce2Pa2CdHgPt4
_symmetry_space_group_name_H-M   'P 1'
_cell_length_a   7.92300624
_cell_length_b   7.90604322
_cell_length_c   3.65016000
_cell_angle_alpha   90.00000000
_cell_angle_beta   90.00000000
_cell_angle_gamma   90.31672081
_symmetry_Int_Tables_number   1
_chemical_formula_structural   Ce2Pa2CdHgPt4
_chemical_formula_sum   'Ce2 Pa2 Cd1 Hg1 Pt4'
_cell_volume   228.64117769
_cell_formula_units_Z   1
loop_
 _symmetry_equiv_pos_site_id
 _symmetry_equiv_pos_as_xyz
  1  'x, y, z'
loop_
 _atom_site_type_symbol
 _atom_site_label
 _atom_site_symmetry_multiplicity
 _atom_site_fract_x
 _atom_site_fract_y
 _atom_site_fract_z
 _atom_site_occupancy
  Ce  Ce0  1  0.826195  0.672139  0.500000  1
  Ce  Ce1  1  0.672073  0.173873  0.500000  1
  Pa  Pa2  1  0.170564  0.330905  0.500000  1
  Pa  Pa3  1  0.330576  0.830175  0.500000  1
  Cd  Cd4  1  0.997197  0.996966  0.000000  1
  Hg  Hg5  1  0.503012  0.495906  0.000000  1
  Pt  Pt6  1  0.617364  0.871360  0.000000  1
  Pt  Pt7  1  0.140945  0.634006  0.000000  1
  Pt  Pt8  1  0.887982  0.365979  0.000000  1
  Pt  Pt9  1  0.354092  0.128690  0.000000  1
