# generated using pymatgen
data_Tm2Lu6B24MoRh3
_symmetry_space_group_name_H-M   'P 1'
_cell_length_a   3.60548400
_cell_length_b   9.08333411
_cell_length_c   11.44232673
_cell_angle_alpha   90.22392187
_cell_angle_beta   90.00000000
_cell_angle_gamma   90.00000000
_symmetry_Int_Tables_number   1
_chemical_formula_structural   Tm2Lu6B24MoRh3
_chemical_formula_sum   'Tm2 Lu6 B24 Mo1 Rh3'
_cell_volume   374.73123082
_cell_formula_units_Z   1
loop_
 _symmetry_equiv_pos_site_id
 _symmetry_equiv_pos_as_xyz
  1  'x, y, z'
loop_
 _atom_site_type_symbol
 _atom_site_label
 _atom_site_symmetry_multiplicity
 _atom_site_fract_x
 _atom_site_fract_y
 _atom_site_fract_z
 _atom_site_occupancy
  Tm  Tm0  1  0.500000  0.318653  0.410965  1
  Tm  Tm1  1  0.500000  0.677681  0.585276  1
  Lu  Lu2  1  0.500000  0.179032  0.916880  1
  Lu  Lu3  1  0.500000  0.823295  0.086673  1
  Lu  Lu4  1  0.500000  0.444697  0.125546  1
  Lu  Lu5  1  0.500000  0.556830  0.872380  1
  Lu  Lu6  1  0.500000  0.055782  0.628656  1
  Lu  Lu7  1  0.500000  0.945411  0.373742  1
  B  B8  1  0.000000  0.105223  0.473204  1
  B  B9  1  0.000000  0.893874  0.529815  1
  B  B10  1  0.000000  0.395938  0.969537  1
  B  B11  1  0.000000  0.607563  0.028401  1
  B  B12  1  0.000000  0.131770  0.317564  1
  B  B13  1  0.000000  0.866973  0.683437  1
  B  B14  1  0.000000  0.368223  0.816969  1
  B  B15  1  0.000000  0.632839  0.182935  1
  B  B16  1  0.000000  0.051439  0.063736  1
  B  B17  1  0.000000  0.946330  0.933616  1
  B  B18  1  0.000000  0.445304  0.565347  1
  B  B19  1  0.000000  0.553478  0.434288  1
  B  B20  1  0.000000  0.483064  0.286955  1
  B  B21  1  0.000000  0.517807  0.712720  1
  B  B22  1  0.000000  0.018106  0.787357  1
  B  B23  1  0.000000  0.978943  0.213776  1
  B  B24  1  0.000000  0.251894  0.077659  1
  B  B25  1  0.000000  0.750599  0.920445  1
  B  B26  1  0.000000  0.249496  0.579392  1
  B  B27  1  0.000000  0.749895  0.421016  1
  B  B28  1  0.000000  0.296299  0.236022  1
  B  B29  1  0.000000  0.705283  0.763734  1
  B  B30  1  0.000000  0.206429  0.736944  1
  B  B31  1  0.000000  0.792912  0.265268  1
  Mo  Mo32  1  0.500000  0.138210  0.178848  1
  Rh  Rh33  1  0.500000  0.860677  0.820630  1
  Rh  Rh34  1  0.500000  0.360559  0.679933  1
  Rh  Rh35  1  0.500000  0.639496  0.320332  1
