# generated using pymatgen
data_CdIn2SnPt2
_symmetry_space_group_name_H-M   'P 1'
_cell_length_a   7.87909293
_cell_length_b   7.87909255
_cell_length_c   7.87909411
_cell_angle_alpha   33.95187150
_cell_angle_beta   33.95187301
_cell_angle_gamma   33.95188071
_symmetry_Int_Tables_number   1
_chemical_formula_structural   CdIn2SnPt2
_chemical_formula_sum   'Cd1 In2 Sn1 Pt2'
_cell_volume   135.98645564
_cell_formula_units_Z   1
loop_
 _symmetry_equiv_pos_site_id
 _symmetry_equiv_pos_as_xyz
  1  'x, y, z'
loop_
 _atom_site_type_symbol
 _atom_site_label
 _atom_site_symmetry_multiplicity
 _atom_site_fract_x
 _atom_site_fract_y
 _atom_site_fract_z
 _atom_site_occupancy
  Cd  Cd0  1  0.375432  0.375432  0.375432  1
  In  In1  1  0.120639  0.120639  0.120639  1
  In  In2  1  0.630656  0.630656  0.630656  1
  Sn  Sn3  1  0.873557  0.873557  0.873557  1
  Pt  Pt4  1  0.995996  0.995996  0.995996  1
  Pt  Pt5  1  0.503721  0.503721  0.503721  1
