# generated using pymatgen
data_HoScMn10Fe2P7
_symmetry_space_group_name_H-M   'P 1'
_cell_length_a   9.23713701
_cell_length_b   9.23115744
_cell_length_c   3.53512200
_cell_angle_alpha   90.00000000
_cell_angle_beta   90.00000000
_cell_angle_gamma   119.96796328
_symmetry_Int_Tables_number   1
_chemical_formula_structural   HoScMn10Fe2P7
_chemical_formula_sum   'Ho1 Sc1 Mn10 Fe2 P7'
_cell_volume   261.13716884
_cell_formula_units_Z   1
loop_
 _symmetry_equiv_pos_site_id
 _symmetry_equiv_pos_as_xyz
  1  'x, y, z'
loop_
 _atom_site_type_symbol
 _atom_site_label
 _atom_site_symmetry_multiplicity
 _atom_site_fract_x
 _atom_site_fract_y
 _atom_site_fract_z
 _atom_site_occupancy
  Ho  Ho0  1  0.333223  0.666534  0.500000  1
  Sc  Sc1  1  0.000446  0.999644  0.000000  1
  Mn  Mn2  1  0.286817  0.906208  0.000000  1
  Mn  Mn3  1  0.618054  0.711547  0.000000  1
  Mn  Mn4  1  0.092616  0.381012  0.000000  1
  Mn  Mn5  1  0.786824  0.176500  0.000000  1
  Mn  Mn6  1  0.714783  0.942726  0.500000  1
  Mn  Mn7  1  0.228163  0.286527  0.500000  1
  Mn  Mn8  1  0.058797  0.773577  0.500000  1
  Mn  Mn9  1  0.538378  0.103805  0.500000  1
  Mn  Mn10  1  0.565223  0.461690  0.500000  1
  Mn  Mn11  1  0.895568  0.434574  0.500000  1
  Fe  Fe12  1  0.391219  0.215037  0.000000  1
  Fe  Fe13  1  0.823355  0.608262  0.000000  1
  P  P14  1  0.545479  0.923603  0.000000  1
  P  P15  1  0.377655  0.453220  0.000000  1
  P  P16  1  0.075070  0.622122  0.000000  1
  P  P17  1  0.950197  0.201163  0.500000  1
  P  P18  1  0.254955  0.053832  0.500000  1
  P  P19  1  0.797716  0.744927  0.500000  1
  P  P20  1  0.665465  0.333490  0.000000  1
