# generated using pymatgen
data_Cs5V2Se5S
_symmetry_space_group_name_H-M   'P 1'
_cell_length_a   8.25449557
_cell_length_b   8.95472923
_cell_length_c   18.17209377
_cell_angle_alpha   89.93501464
_cell_angle_beta   100.33587923
_cell_angle_gamma   122.83466732
_symmetry_Int_Tables_number   1
_chemical_formula_structural   Cs5V2Se5S
_chemical_formula_sum   'Cs10 V4 Se10 S2'
_cell_volume   1102.77629744
_cell_formula_units_Z   2
loop_
 _symmetry_equiv_pos_site_id
 _symmetry_equiv_pos_as_xyz
  1  'x, y, z'
loop_
 _atom_site_type_symbol
 _atom_site_label
 _atom_site_symmetry_multiplicity
 _atom_site_fract_x
 _atom_site_fract_y
 _atom_site_fract_z
 _atom_site_occupancy
  Cs  Cs0  1  0.129318  0.803423  0.997248  1
  Cs  Cs1  1  0.871017  0.674239  0.502787  1
  Cs  Cs2  1  0.869394  0.195181  0.003468  1
  Cs  Cs3  1  0.130251  0.325746  0.496389  1
  Cs  Cs4  1  0.312987  0.075430  0.721510  1
  Cs  Cs5  1  0.686194  0.761625  0.778183  1
  Cs  Cs6  1  0.683440  0.918259  0.281467  1
  Cs  Cs7  1  0.317311  0.235548  0.218799  1
  Cs  Cs8  1  0.000090  0.385835  0.750107  1
  Cs  Cs9  1  0.999721  0.611726  0.249886  1
  V  V10  1  0.540088  0.926561  0.562240  1
  V  V11  1  0.459648  0.386218  0.937677  1
  V  V12  1  0.460321  0.072145  0.436114  1
  V  V13  1  0.539890  0.611912  0.064037  1
  Se  Se14  1  0.854647  0.995351  0.620403  1
  Se  Se15  1  0.145106  0.140162  0.879403  1
  Se  Se16  1  0.144767  0.000564  0.377419  1
  Se  Se17  1  0.855222  0.855678  0.122629  1
  Se  Se18  1  0.307261  0.717334  0.629231  1
  Se  Se19  1  0.692757  0.410047  0.870742  1
  Se  Se20  1  0.693044  0.280286  0.368460  1
  Se  Se21  1  0.307160  0.587114  0.131528  1
  Se  Se22  1  0.549704  0.199479  0.563867  1
  Se  Se23  1  0.450982  0.650103  0.936277  1
  S  S24  1  0.457500  0.818757  0.440337  1
  S  S25  1  0.542180  0.361276  0.059790  1
