# generated using pymatgen
data_KTb2Nd(SbAu)4
_symmetry_space_group_name_H-M   'P 1'
_cell_length_a   4.65299400
_cell_length_b   4.65299449
_cell_length_c   17.45227900
_cell_angle_alpha   90.00000000
_cell_angle_beta   90.00000000
_cell_angle_gamma   120.00001071
_symmetry_Int_Tables_number   1
_chemical_formula_structural   KTb2Nd(SbAu)4
_chemical_formula_sum   'K1 Tb2 Nd1 Sb4 Au4'
_cell_volume   327.22596950
_cell_formula_units_Z   1
loop_
 _symmetry_equiv_pos_site_id
 _symmetry_equiv_pos_as_xyz
  1  'x, y, z'
loop_
 _atom_site_type_symbol
 _atom_site_label
 _atom_site_symmetry_multiplicity
 _atom_site_fract_x
 _atom_site_fract_y
 _atom_site_fract_z
 _atom_site_occupancy
  K  K0  1  0.000000  0.000000  0.252414  1
  Tb  Tb1  1  0.000000  0.000000  0.513302  1
  Tb  Tb2  1  0.000000  0.000000  0.746508  1
  Nd  Nd3  1  0.000000  0.000000  0.984769  1
  Sb  Sb4  1  0.333333  0.666667  0.393130  1
  Sb  Sb5  1  0.666667  0.333333  0.615198  1
  Sb  Sb6  1  0.666667  0.333333  0.877765  1
  Sb  Sb7  1  0.333333  0.666667  0.108151  1
  Au  Au8  1  0.666667  0.333333  0.434499  1
  Au  Au9  1  0.333333  0.666667  0.664786  1
  Au  Au10  1  0.333333  0.666667  0.829624  1
  Au  Au11  1  0.666667  0.333333  0.079854  1
