# generated using pymatgen
data_In4P6N13
_symmetry_space_group_name_H-M   'P 1'
_cell_length_a   7.35732683
_cell_length_b   7.35732766
_cell_length_c   7.35732700
_cell_angle_alpha   109.47122432
_cell_angle_beta   109.47122661
_cell_angle_gamma   109.47121236
_symmetry_Int_Tables_number   1
_chemical_formula_structural   In4P6N13
_chemical_formula_sum   'In4 P6 N13'
_cell_volume   306.57610870
_cell_formula_units_Z   1
loop_
 _symmetry_equiv_pos_site_id
 _symmetry_equiv_pos_as_xyz
  1  'x, y, z'
loop_
 _atom_site_type_symbol
 _atom_site_label
 _atom_site_symmetry_multiplicity
 _atom_site_fract_x
 _atom_site_fract_y
 _atom_site_fract_z
 _atom_site_occupancy
  In  In0  1  0.302088  0.302088  0.302088  1
  In  In1  1  0.000000  0.697912  0.000000  1
  In  In2  1  0.697912  0.000000  0.000000  1
  In  In3  1  0.000000  0.000000  0.697912  1
  P  P4  1  0.500000  0.250000  0.750000  1
  P  P5  1  0.500000  0.750000  0.250000  1
  P  P6  1  0.750000  0.250000  0.500000  1
  P  P7  1  0.250000  0.500000  0.750000  1
  P  P8  1  0.750000  0.500000  0.250000  1
  P  P9  1  0.250000  0.750000  0.500000  1
  N  N10  1  0.000000  0.000000  0.000000  1
  N  N11  1  0.000000  0.719064  0.429503  1
  N  N12  1  0.280936  0.710438  0.280936  1
  N  N13  1  0.289562  0.570497  0.570497  1
  N  N14  1  0.570497  0.570497  0.289562  1
  N  N15  1  0.570497  0.289562  0.570497  1
  N  N16  1  0.719064  0.000000  0.429503  1
  N  N17  1  0.429503  0.000000  0.719064  1
  N  N18  1  0.719064  0.429503  0.000000  1
  N  N19  1  0.280936  0.280936  0.710438  1
  N  N20  1  0.710438  0.280936  0.280936  1
  N  N21  1  0.000000  0.429503  0.719064  1
  N  N22  1  0.429503  0.719064  0.000000  1
