# generated using pymatgen
data_Ta8Mn7Si14Ni
_symmetry_space_group_name_H-M   'P 1'
_cell_length_a   4.98621745
_cell_length_b   9.34432970
_cell_length_c   9.31402350
_cell_angle_alpha   85.92227227
_cell_angle_beta   74.47417985
_cell_angle_gamma   74.59387108
_symmetry_Int_Tables_number   1
_chemical_formula_structural   Ta8Mn7Si14Ni
_chemical_formula_sum   'Ta8 Mn7 Si14 Ni1'
_cell_volume   403.10678075
_cell_formula_units_Z   1
loop_
 _symmetry_equiv_pos_site_id
 _symmetry_equiv_pos_as_xyz
  1  'x, y, z'
loop_
 _atom_site_type_symbol
 _atom_site_label
 _atom_site_symmetry_multiplicity
 _atom_site_fract_x
 _atom_site_fract_y
 _atom_site_fract_z
 _atom_site_occupancy
  Ta  Ta0  1  0.190367  0.807976  0.809786  1
  Ta  Ta1  1  0.808458  0.191932  0.191005  1
  Ta  Ta2  1  0.999846  0.192024  0.809786  1
  Ta  Ta3  1  0.000537  0.808068  0.191005  1
  Ta  Ta4  1  0.364994  0.000000  0.270013  1
  Ta  Ta5  1  0.634304  0.000000  0.731391  1
  Ta  Ta6  1  0.635337  0.731092  0.999280  1
  Ta  Ta7  1  0.365382  0.268908  0.999280  1
  Mn  Mn8  1  0.600123  0.500000  0.799752  1
  Mn  Mn9  1  0.100136  0.500000  0.799728  1
  Mn  Mn10  1  0.596231  0.801356  0.501380  1
  Mn  Mn11  1  0.900029  0.500000  0.199944  1
  Mn  Mn12  1  0.401486  0.201155  0.497494  1
  Mn  Mn13  1  0.902390  0.198644  0.501380  1
  Mn  Mn14  1  0.101020  0.798845  0.497494  1
  Si  Si15  1  0.398092  0.593412  0.591478  1
  Si  Si16  1  0.608389  0.404980  0.406323  1
  Si  Si17  1  0.010430  0.406588  0.591478  1
  Si  Si18  1  0.985288  0.595020  0.406323  1
  Si  Si19  1  0.250898  0.000184  0.000389  1
  Si  Si20  1  0.748713  0.999816  0.000389  1
  Si  Si21  1  0.200686  0.295764  0.293438  1
  Si  Si22  1  0.794949  0.706889  0.705964  1
  Si  Si23  1  0.505876  0.704236  0.293438  1
  Si  Si24  1  0.499086  0.293111  0.705964  1
  Si  Si25  1  0.206355  0.000000  0.587291  1
  Si  Si26  1  0.793426  0.000000  0.413146  1
  Si  Si27  1  0.792904  0.414729  0.002105  1
  Si  Si28  1  0.204992  0.585271  0.002105  1
  Ni  Ni29  1  0.399274  0.500000  0.201452  1
