# generated using pymatgen
data_PdRuBr18
_symmetry_space_group_name_H-M   'P 1'
_cell_length_a   9.05852122
_cell_length_b   9.05851900
_cell_length_c   9.05851853
_cell_angle_alpha   90.84991314
_cell_angle_beta   90.84991387
_cell_angle_gamma   90.84990781
_symmetry_Int_Tables_number   1
_chemical_formula_structural   PdRuBr18
_chemical_formula_sum   'Pd1 Ru1 Br18'
_cell_volume   743.06513493
_cell_formula_units_Z   1
loop_
 _symmetry_equiv_pos_site_id
 _symmetry_equiv_pos_as_xyz
  1  'x, y, z'
loop_
 _atom_site_type_symbol
 _atom_site_label
 _atom_site_symmetry_multiplicity
 _atom_site_fract_x
 _atom_site_fract_y
 _atom_site_fract_z
 _atom_site_occupancy
  Pd  Pd0  1  0.000000  0.000000  0.000000  1
  Ru  Ru1  1  0.500000  0.500000  0.500000  1
  Br  Br2  1  0.280847  0.989640  0.021518  1
  Br  Br3  1  0.021518  0.280847  0.989640  1
  Br  Br4  1  0.989640  0.021518  0.280847  1
  Br  Br5  1  0.719153  0.010360  0.978482  1
  Br  Br6  1  0.978482  0.719153  0.010360  1
  Br  Br7  1  0.010360  0.978482  0.719153  1
  Br  Br8  1  0.623840  0.245398  0.117944  1
  Br  Br9  1  0.117944  0.623840  0.245398  1
  Br  Br10  1  0.245398  0.117944  0.623840  1
  Br  Br11  1  0.376160  0.754602  0.882056  1
  Br  Br12  1  0.882056  0.376160  0.754602  1
  Br  Br13  1  0.754602  0.882056  0.376160  1
  Br  Br14  1  0.483371  0.224348  0.518266  1
  Br  Br15  1  0.518266  0.483371  0.224348  1
  Br  Br16  1  0.224348  0.518266  0.483371  1
  Br  Br17  1  0.516629  0.775652  0.481734  1
  Br  Br18  1  0.481734  0.516629  0.775652  1
  Br  Br19  1  0.775652  0.481734  0.516629  1
