# generated using pymatgen
data_ErTmFe3Re14C3
_symmetry_space_group_name_H-M   'P 1'
_cell_length_a   6.92028643
_cell_length_b   6.92028717
_cell_length_c   6.92028645
_cell_angle_alpha   82.46416349
_cell_angle_beta   82.46416496
_cell_angle_gamma   82.46416609
_symmetry_Int_Tables_number   1
_chemical_formula_structural   ErTmFe3Re14C3
_chemical_formula_sum   'Er1 Tm1 Fe3 Re14 C3'
_cell_volume   323.51836416
_cell_formula_units_Z   1
loop_
 _symmetry_equiv_pos_site_id
 _symmetry_equiv_pos_as_xyz
  1  'x, y, z'
loop_
 _atom_site_type_symbol
 _atom_site_label
 _atom_site_symmetry_multiplicity
 _atom_site_fract_x
 _atom_site_fract_y
 _atom_site_fract_z
 _atom_site_occupancy
  Er  Er0  1  0.649480  0.649480  0.649480  1
  Tm  Tm1  1  0.350514  0.350514  0.350514  1
  Fe  Fe2  1  0.000011  0.000011  0.500004  1
  Fe  Fe3  1  0.500004  0.000011  0.000011  1
  Fe  Fe4  1  0.000011  0.500004  0.000011  1
  Re  Re5  1  0.722104  0.277865  0.000039  1
  Re  Re6  1  0.000039  0.722104  0.277865  1
  Re  Re7  1  0.277865  0.000039  0.722104  1
  Re  Re8  1  0.000039  0.277865  0.722104  1
  Re  Re9  1  0.722104  0.000039  0.277865  1
  Re  Re10  1  0.277865  0.722104  0.000039  1
  Re  Re11  1  0.347087  0.347087  0.860010  1
  Re  Re12  1  0.860010  0.347087  0.347087  1
  Re  Re13  1  0.347087  0.860010  0.347087  1
  Re  Re14  1  0.652834  0.652834  0.140043  1
  Re  Re15  1  0.140043  0.652834  0.652834  1
  Re  Re16  1  0.652834  0.140043  0.652834  1
  Re  Re17  1  0.897507  0.897507  0.897507  1
  Re  Re18  1  0.102532  0.102532  0.102532  1
  C  C19  1  0.499923  0.499923  0.000184  1
  C  C20  1  0.000184  0.499923  0.499923  1
  C  C21  1  0.499923  0.000184  0.499923  1
