# generated using pymatgen
data_Ho7Tm5(ThSn2)8
_symmetry_space_group_name_H-M   'P 1'
_cell_length_a   8.10425907
_cell_length_b   8.19411505
_cell_length_c   15.48916003
_cell_angle_alpha   89.99887875
_cell_angle_beta   90.00720814
_cell_angle_gamma   89.98736547
_symmetry_Int_Tables_number   1
_chemical_formula_structural   Ho7Tm5(ThSn2)8
_chemical_formula_sum   'Ho7 Tm5 Th8 Sn16'
_cell_volume   1028.59219761
_cell_formula_units_Z   1
loop_
 _symmetry_equiv_pos_site_id
 _symmetry_equiv_pos_as_xyz
  1  'x, y, z'
loop_
 _atom_site_type_symbol
 _atom_site_label
 _atom_site_symmetry_multiplicity
 _atom_site_fract_x
 _atom_site_fract_y
 _atom_site_fract_z
 _atom_site_occupancy
  Ho  Ho0  1  0.362042  0.837398  0.875974  1
  Ho  Ho1  1  0.862048  0.662644  0.624097  1
  Ho  Ho2  1  0.637980  0.162612  0.375972  1
  Ho  Ho3  1  0.137993  0.337344  0.124063  1
  Ho  Ho4  1  0.637972  0.162598  0.123986  1
  Ho  Ho5  1  0.137978  0.337375  0.375970  1
  Ho  Ho6  1  0.362014  0.837357  0.624064  1
  Tm  Tm7  1  0.861989  0.662576  0.875848  1
  Tm  Tm8  1  0.191624  0.498371  0.750070  1
  Tm  Tm9  1  0.691848  0.001585  0.750066  1
  Tm  Tm10  1  0.808218  0.501728  0.249988  1
  Tm  Tm11  1  0.308234  0.998278  0.249999  1
  Th  Th12  1  0.519404  0.321213  0.903858  1
  Th  Th13  1  0.019308  0.178861  0.596144  1
  Th  Th14  1  0.480650  0.678858  0.403885  1
  Th  Th15  1  0.980608  0.821076  0.095993  1
  Th  Th16  1  0.480622  0.678870  0.096136  1
  Th  Th17  1  0.980679  0.821154  0.403888  1
  Th  Th18  1  0.519385  0.321186  0.596149  1
  Th  Th19  1  0.019352  0.178889  0.903863  1
  Sn  Sn20  1  0.298728  0.040024  0.042550  1
  Sn  Sn21  1  0.798773  0.459986  0.457441  1
  Sn  Sn22  1  0.701226  0.959968  0.542567  1
  Sn  Sn23  1  0.200794  0.540197  0.957364  1
  Sn  Sn24  1  0.701508  0.959483  0.957332  1
  Sn  Sn25  1  0.201265  0.540000  0.542568  1
  Sn  Sn26  1  0.298754  0.040020  0.457449  1
  Sn  Sn27  1  0.798860  0.460237  0.042308  1
  Sn  Sn28  1  0.557739  0.623354  0.750134  1
  Sn  Sn29  1  0.057239  0.876437  0.750187  1
  Sn  Sn30  1  0.442524  0.376717  0.249984  1
  Sn  Sn31  1  0.942524  0.123294  0.249995  1
  Sn  Sn32  1  0.326575  0.143228  0.750001  1
  Sn  Sn33  1  0.826588  0.357040  0.750111  1
  Sn  Sn34  1  0.673469  0.856811  0.250000  1
  Sn  Sn35  1  0.173488  0.643229  0.249996  1
