# generated using pymatgen
data_BaLaO9
_symmetry_space_group_name_H-M   'P 1'
_cell_length_a   5.38838465
_cell_length_b   5.38838520
_cell_length_c   5.38838490
_cell_angle_alpha   88.14394567
_cell_angle_beta   88.14394702
_cell_angle_gamma   88.14395418
_symmetry_Int_Tables_number   1
_chemical_formula_structural   BaLaO9
_chemical_formula_sum   'Ba1 La1 O9'
_cell_volume   156.20904817
_cell_formula_units_Z   1
loop_
 _symmetry_equiv_pos_site_id
 _symmetry_equiv_pos_as_xyz
  1  'x, y, z'
loop_
 _atom_site_type_symbol
 _atom_site_label
 _atom_site_symmetry_multiplicity
 _atom_site_fract_x
 _atom_site_fract_y
 _atom_site_fract_z
 _atom_site_occupancy
  Ba  Ba0  1  0.988278  0.988278  0.988278  1
  La  La1  1  0.445006  0.445006  0.445006  1
  O  O2  1  0.562392  0.907284  0.519316  1
  O  O3  1  0.907284  0.519316  0.562392  1
  O  O4  1  0.519316  0.562392  0.907284  1
  O  O5  1  0.280329  0.498684  0.016306  1
  O  O6  1  0.715977  0.505861  0.072276  1
  O  O7  1  0.498684  0.016307  0.280328  1
  O  O8  1  0.016306  0.280329  0.498685  1
  O  O9  1  0.072276  0.715977  0.505861  1
  O  O10  1  0.505861  0.072276  0.715977  1
