# generated using pymatgen
data_Pu2BeSi3
_symmetry_space_group_name_H-M   'P 1'
_cell_length_a   7.84282700
_cell_length_b   7.84282912
_cell_length_c   8.07806000
_cell_angle_alpha   90.00000000
_cell_angle_beta   90.00000000
_cell_angle_gamma   120.00000372
_symmetry_Int_Tables_number   1
_chemical_formula_structural   Pu2BeSi3
_chemical_formula_sum   'Pu8 Be4 Si12'
_cell_volume   430.31162408
_cell_formula_units_Z   4
loop_
 _symmetry_equiv_pos_site_id
 _symmetry_equiv_pos_as_xyz
  1  'x, y, z'
loop_
 _atom_site_type_symbol
 _atom_site_label
 _atom_site_symmetry_multiplicity
 _atom_site_fract_x
 _atom_site_fract_y
 _atom_site_fract_z
 _atom_site_occupancy
  Pu  Pu0  1  0.997737  0.498870  0.250000  1
  Pu  Pu1  1  0.501130  0.498870  0.250000  1
  Pu  Pu2  1  0.498870  0.997737  0.750000  1
  Pu  Pu3  1  0.002263  0.501130  0.750000  1
  Pu  Pu4  1  0.498870  0.501130  0.750000  1
  Pu  Pu5  1  0.501130  0.002263  0.250000  1
  Pu  Pu6  1  0.000000  0.000000  0.750000  1
  Pu  Pu7  1  0.000000  0.000000  0.250000  1
  Be  Be8  1  0.333333  0.666667  0.006906  1
  Be  Be9  1  0.666667  0.333333  0.993094  1
  Be  Be10  1  0.666667  0.333333  0.506906  1
  Be  Be11  1  0.333333  0.666667  0.493094  1
  Si  Si12  1  0.172192  0.827808  0.499492  1
  Si  Si13  1  0.172192  0.344383  0.499492  1
  Si  Si14  1  0.655617  0.827808  0.499492  1
  Si  Si15  1  0.344383  0.172192  0.999492  1
  Si  Si16  1  0.827808  0.655617  0.500508  1
  Si  Si17  1  0.827808  0.172192  0.999492  1
  Si  Si18  1  0.827808  0.655617  0.999492  1
  Si  Si19  1  0.172192  0.344383  0.000508  1
  Si  Si20  1  0.655617  0.827808  0.000508  1
  Si  Si21  1  0.344383  0.172192  0.500508  1
  Si  Si22  1  0.827808  0.172192  0.500508  1
  Si  Si23  1  0.172192  0.827808  0.000508  1
