# generated using pymatgen
data_TbYBe4(B5O11)2
_symmetry_space_group_name_H-M   'P 1'
_cell_length_a   4.36601801
_cell_length_b   6.72378000
_cell_length_c   25.82894908
_cell_angle_alpha   90.00000000
_cell_angle_beta   90.00905942
_cell_angle_gamma   90.00000000
_symmetry_Int_Tables_number   1
_chemical_formula_structural   TbYBe4(B5O11)2
_chemical_formula_sum   'Tb2 Y2 Be8 B20 O44'
_cell_volume   758.23835460
_cell_formula_units_Z   2
loop_
 _symmetry_equiv_pos_site_id
 _symmetry_equiv_pos_as_xyz
  1  'x, y, z'
loop_
 _atom_site_type_symbol
 _atom_site_label
 _atom_site_symmetry_multiplicity
 _atom_site_fract_x
 _atom_site_fract_y
 _atom_site_fract_z
 _atom_site_occupancy
  Tb  Tb0  1  0.865018  0.368292  0.919532  1
  Tb  Tb1  1  0.134982  0.868292  0.080468  1
  Y  Y2  1  0.365001  0.868228  0.580443  1
  Y  Y3  1  0.634999  0.368228  0.419557  1
  Be  Be4  1  0.169518  0.451624  0.790833  1
  Be  Be5  1  0.830482  0.951624  0.209167  1
  Be  Be6  1  0.669487  0.951575  0.709164  1
  Be  Be7  1  0.330513  0.451575  0.290836  1
  Be  Be8  1  0.666750  0.227308  0.793209  1
  Be  Be9  1  0.333250  0.727308  0.206791  1
  Be  Be10  1  0.166778  0.727326  0.706786  1
  Be  Be11  1  0.833222  0.227326  0.293214  1
  B  B12  1  0.374360  0.039911  0.869839  1
  B  B13  1  0.625640  0.539911  0.130161  1
  B  B14  1  0.874312  0.540016  0.630146  1
  B  B15  1  0.125688  0.040016  0.369854  1
  B  B16  1  0.146122  0.709778  0.870759  1
  B  B17  1  0.853878  0.209778  0.129241  1
  B  B18  1  0.646096  0.209727  0.629226  1
  B  B19  1  0.353904  0.709727  0.370774  1
  B  B20  1  0.026082  0.938865  0.943411  1
  B  B21  1  0.973918  0.438865  0.056589  1
  B  B22  1  0.525994  0.438910  0.556586  1
  B  B23  1  0.474006  0.938910  0.443414  1
  B  B24  1  0.537602  0.959427  0.997976  1
  B  B25  1  0.462398  0.459427  0.002024  1
  B  B26  1  0.037588  0.459441  0.502011  1
  B  B27  1  0.962412  0.959441  0.497989  1
  B  B28  1  0.181310  0.086644  0.751722  1
  B  B29  1  0.818690  0.586644  0.248278  1
  B  B30  1  0.681308  0.586643  0.748279  1
  B  B31  1  0.318692  0.086643  0.251721  1
  O  O32  1  0.351582  0.846496  0.850042  1
  O  O33  1  0.648418  0.346496  0.149958  1
  O  O34  1  0.851571  0.346509  0.649959  1
  O  O35  1  0.148429  0.846509  0.350041  1
  O  O36  1  0.628869  0.928055  0.047360  1
  O  O37  1  0.371131  0.428055  0.952640  1
  O  O38  1  0.128346  0.428047  0.452563  1
  O  O39  1  0.871654  0.928047  0.547437  1
  O  O40  1  0.993008  0.745710  0.917203  1
  O  O41  1  0.006992  0.245710  0.082797  1
  O  O42  1  0.492997  0.245750  0.582792  1
  O  O43  1  0.507003  0.745750  0.417208  1
  O  O44  1  0.221602  0.927229  0.990459  1
  O  O45  1  0.778398  0.427229  0.009541  1
  O  O46  1  0.721615  0.427182  0.509477  1
  O  O47  1  0.278385  0.927182  0.490523  1
  O  O48  1  0.157147  0.087604  0.907726  1
  O  O49  1  0.842853  0.587604  0.092274  1
  O  O50  1  0.656907  0.587778  0.592272  1
  O  O51  1  0.343093  0.087778  0.407728  1
  O  O52  1  0.086514  0.528419  0.849425  1
  O  O53  1  0.913486  0.028419  0.150575  1
  O  O54  1  0.586248  0.028171  0.650483  1
  O  O55  1  0.413752  0.528171  0.349517  1
  O  O56  1  0.579745  0.178319  0.853918  1
  O  O57  1  0.420255  0.678319  0.146082  1
  O  O58  1  0.079930  0.678428  0.646048  1
  O  O59  1  0.920070  0.178428  0.353952  1
  O  O60  1  0.723647  0.019237  0.957250  1
  O  O61  1  0.276353  0.519237  0.042750  1
  O  O62  1  0.223626  0.519183  0.542732  1
  O  O63  1  0.776374  0.019183  0.457268  1
  O  O64  1  0.031999  0.222052  0.783321  1
  O  O65  1  0.968001  0.722052  0.216679  1
  O  O66  1  0.531999  0.722054  0.716683  1
  O  O67  1  0.468001  0.222054  0.283317  1
  O  O68  1  0.496013  0.085460  0.752049  1
  O  O69  1  0.503987  0.585460  0.247951  1
  O  O70  1  0.996007  0.585457  0.747942  1
  O  O71  1  0.003993  0.085457  0.252058  1
  O  O72  1  0.031054  0.953187  0.720477  1
  O  O73  1  0.968946  0.453187  0.279523  1
  O  O74  1  0.531085  0.453178  0.779523  1
  O  O75  1  0.468915  0.953178  0.220477  1
