# generated using pymatgen
data_Tm2Lu2BBr6
_symmetry_space_group_name_H-M   'P 1'
_cell_length_a   3.88866500
_cell_length_b   12.96848400
_cell_length_c   13.43512700
_cell_angle_alpha   90.00000000
_cell_angle_beta   90.00000000
_cell_angle_gamma   90.00000000
_symmetry_Int_Tables_number   1
_chemical_formula_structural   Tm2Lu2BBr6
_chemical_formula_sum   'Tm4 Lu4 B2 Br12'
_cell_volume   677.53466154
_cell_formula_units_Z   2
loop_
 _symmetry_equiv_pos_site_id
 _symmetry_equiv_pos_as_xyz
  1  'x, y, z'
loop_
 _atom_site_type_symbol
 _atom_site_label
 _atom_site_symmetry_multiplicity
 _atom_site_fract_x
 _atom_site_fract_y
 _atom_site_fract_z
 _atom_site_occupancy
  Tm  Tm0  1  0.500000  0.121788  0.856877  1
  Tm  Tm1  1  0.500000  0.878212  0.143123  1
  Tm  Tm2  1  0.500000  0.621788  0.643123  1
  Tm  Tm3  1  0.500000  0.378212  0.356877  1
  Lu  Lu4  1  0.000000  0.099683  0.079183  1
  Lu  Lu5  1  0.000000  0.900317  0.920817  1
  Lu  Lu6  1  0.000000  0.599683  0.420817  1
  Lu  Lu7  1  0.000000  0.400317  0.579183  1
  B  B8  1  0.500000  0.000000  0.000000  1
  B  B9  1  0.500000  0.500000  0.500000  1
  Br  Br10  1  0.500000  0.268483  0.681574  1
  Br  Br11  1  0.500000  0.731517  0.318426  1
  Br  Br12  1  0.500000  0.768483  0.818426  1
  Br  Br13  1  0.500000  0.231517  0.181574  1
  Br  Br14  1  0.000000  0.261092  0.931333  1
  Br  Br15  1  0.000000  0.738908  0.068667  1
  Br  Br16  1  0.000000  0.480811  0.239270  1
  Br  Br17  1  0.000000  0.519189  0.760730  1
  Br  Br18  1  0.000000  0.980811  0.260730  1
  Br  Br19  1  0.000000  0.019189  0.739270  1
  Br  Br20  1  0.000000  0.238908  0.431333  1
  Br  Br21  1  0.000000  0.761092  0.568667  1
