# generated using pymatgen
data_NdDy(AgPb)2
_symmetry_space_group_name_H-M   'P 1'
_cell_length_a   4.87204000
_cell_length_b   4.87204015
_cell_length_c   7.58029500
_cell_angle_alpha   90.00000000
_cell_angle_beta   90.00000000
_cell_angle_gamma   120.00001259
_symmetry_Int_Tables_number   1
_chemical_formula_structural   NdDy(AgPb)2
_chemical_formula_sum   'Nd1 Dy1 Ag2 Pb2'
_cell_volume   155.82544917
_cell_formula_units_Z   1
loop_
 _symmetry_equiv_pos_site_id
 _symmetry_equiv_pos_as_xyz
  1  'x, y, z'
loop_
 _atom_site_type_symbol
 _atom_site_label
 _atom_site_symmetry_multiplicity
 _atom_site_fract_x
 _atom_site_fract_y
 _atom_site_fract_z
 _atom_site_occupancy
  Nd  Nd0  1  0.000000  0.000000  0.006419  1
  Dy  Dy1  1  0.000000  0.000000  0.505535  1
  Ag  Ag2  1  0.333333  0.666667  0.811771  1
  Ag  Ag3  1  0.666667  0.333333  0.324158  1
  Pb  Pb4  1  0.333333  0.666667  0.232116  1
  Pb  Pb5  1  0.666667  0.333333  0.723002  1
