# generated using pymatgen
data_SmHo3Er(Tl2Pd)2
_symmetry_space_group_name_H-M   'P 1'
_cell_length_a   3.63855700
_cell_length_b   8.25580381
_cell_length_c   18.44884051
_cell_angle_alpha   89.95136852
_cell_angle_beta   90.00000000
_cell_angle_gamma   90.00000000
_symmetry_Int_Tables_number   1
_chemical_formula_structural   SmHo3Er(Tl2Pd)2
_chemical_formula_sum   'Sm2 Ho6 Er2 Tl8 Pd4'
_cell_volume   554.18844562
_cell_formula_units_Z   2
loop_
 _symmetry_equiv_pos_site_id
 _symmetry_equiv_pos_as_xyz
  1  'x, y, z'
loop_
 _atom_site_type_symbol
 _atom_site_label
 _atom_site_symmetry_multiplicity
 _atom_site_fract_x
 _atom_site_fract_y
 _atom_site_fract_z
 _atom_site_occupancy
  Sm  Sm0  1  0.000000  0.500000  0.500000  1
  Sm  Sm1  1  0.000000  0.000000  0.000000  1
  Ho  Ho2  1  0.000000  0.739327  0.283493  1
  Ho  Ho3  1  0.000000  0.260673  0.716507  1
  Ho  Ho4  1  0.000000  0.759845  0.782989  1
  Ho  Ho5  1  0.000000  0.240155  0.217011  1
  Ho  Ho6  1  0.000000  0.619014  0.086475  1
  Ho  Ho7  1  0.000000  0.380986  0.913525  1
  Er  Er8  1  0.000000  0.881836  0.587180  1
  Er  Er9  1  0.000000  0.118164  0.412820  1
  Tl  Tl10  1  0.500000  0.700480  0.934251  1
  Tl  Tl11  1  0.500000  0.299520  0.065749  1
  Tl  Tl12  1  0.500000  0.800596  0.435294  1
  Tl  Tl13  1  0.500000  0.199404  0.564706  1
  Tl  Tl14  1  0.500000  0.585661  0.651355  1
  Tl  Tl15  1  0.500000  0.414339  0.348645  1
  Tl  Tl16  1  0.500000  0.914650  0.151828  1
  Tl  Tl17  1  0.500000  0.085350  0.848172  1
  Pd  Pd18  1  0.500000  0.526012  0.196802  1
  Pd  Pd19  1  0.500000  0.473988  0.803198  1
  Pd  Pd20  1  0.500000  0.974072  0.696858  1
  Pd  Pd21  1  0.500000  0.025928  0.303142  1
