# generated using pymatgen
data_Zr2Al8GaIr3
_symmetry_space_group_name_H-M   'P 1'
_cell_length_a   7.45349400
_cell_length_b   7.45349273
_cell_length_c   9.38118000
_cell_angle_alpha   90.00000000
_cell_angle_beta   90.00000000
_cell_angle_gamma   119.47201107
_symmetry_Int_Tables_number   1
_chemical_formula_structural   Zr2Al8GaIr3
_chemical_formula_sum   'Zr4 Al16 Ga2 Ir6'
_cell_volume   453.72629062
_cell_formula_units_Z   2
loop_
 _symmetry_equiv_pos_site_id
 _symmetry_equiv_pos_as_xyz
  1  'x, y, z'
loop_
 _atom_site_type_symbol
 _atom_site_label
 _atom_site_symmetry_multiplicity
 _atom_site_fract_x
 _atom_site_fract_y
 _atom_site_fract_z
 _atom_site_occupancy
  Zr  Zr0  1  0.994115  0.674773  0.250000  1
  Zr  Zr1  1  0.005885  0.325227  0.750000  1
  Zr  Zr2  1  0.674773  0.994115  0.250000  1
  Zr  Zr3  1  0.325227  0.005885  0.750000  1
  Al  Al4  1  0.998872  0.335607  0.075534  1
  Al  Al5  1  0.001128  0.664393  0.924466  1
  Al  Al6  1  0.001128  0.664393  0.575534  1
  Al  Al7  1  0.335607  0.998872  0.424466  1
  Al  Al8  1  0.998872  0.335607  0.424466  1
  Al  Al9  1  0.664393  0.001128  0.575534  1
  Al  Al10  1  0.664393  0.001128  0.924466  1
  Al  Al11  1  0.335607  0.998872  0.075534  1
  Al  Al12  1  0.332414  0.332414  0.558987  1
  Al  Al13  1  0.667586  0.667586  0.441013  1
  Al  Al14  1  0.667586  0.667586  0.058987  1
  Al  Al15  1  0.332414  0.332414  0.941013  1
  Al  Al16  1  0.337629  0.556080  0.250000  1
  Al  Al17  1  0.662371  0.443920  0.750000  1
  Al  Al18  1  0.556080  0.337629  0.250000  1
  Al  Al19  1  0.443920  0.662371  0.750000  1
  Ga  Ga20  1  0.131416  0.131416  0.250000  1
  Ga  Ga21  1  0.868584  0.868584  0.750000  1
  Ir  Ir22  1  0.671827  0.328173  0.000000  1
  Ir  Ir23  1  0.328173  0.671827  0.000000  1
  Ir  Ir24  1  0.328173  0.671827  0.500000  1
  Ir  Ir25  1  0.671827  0.328173  0.500000  1
  Ir  Ir26  1  0.000000  0.000000  0.000000  1
  Ir  Ir27  1  0.000000  0.000000  0.500000  1
