# generated using pymatgen
data_Li(HfSe2)4
_symmetry_space_group_name_H-M   'P 1'
_cell_length_a   7.62499067
_cell_length_b   7.62499112
_cell_length_c   9.28372143
_cell_angle_alpha   51.49435182
_cell_angle_beta   51.49434928
_cell_angle_gamma   58.89632654
_symmetry_Int_Tables_number   1
_chemical_formula_structural   Li(HfSe2)4
_chemical_formula_sum   'Li1 Hf4 Se8'
_cell_volume   323.12471385
_cell_formula_units_Z   1
loop_
 _symmetry_equiv_pos_site_id
 _symmetry_equiv_pos_as_xyz
  1  'x, y, z'
loop_
 _atom_site_type_symbol
 _atom_site_label
 _atom_site_symmetry_multiplicity
 _atom_site_fract_x
 _atom_site_fract_y
 _atom_site_fract_z
 _atom_site_occupancy
  Li  Li0  1  0.000000  0.000000  0.000000  1
  Hf  Hf1  1  0.252249  0.252249  0.003210  1
  Hf  Hf2  1  0.747751  0.747751  0.996790  1
  Hf  Hf3  1  0.245393  0.754607  0.500000  1
  Hf  Hf4  1  0.754607  0.245393  0.500000  1
  Se  Se5  1  0.298035  0.298035  0.667985  1
  Se  Se6  1  0.795157  0.795157  0.665252  1
  Se  Se7  1  0.293738  0.796722  0.167044  1
  Se  Se8  1  0.796722  0.293738  0.167044  1
  Se  Se9  1  0.203278  0.706262  0.832956  1
  Se  Se10  1  0.706262  0.203278  0.832956  1
  Se  Se11  1  0.204843  0.204843  0.334748  1
  Se  Se12  1  0.701965  0.701965  0.332015  1
