# generated using pymatgen
data_NaAc2(PrSn2)2
_symmetry_space_group_name_H-M   'P 1'
_cell_length_a   8.38121600
_cell_length_b   8.43151100
_cell_length_c   16.13812500
_cell_angle_alpha   90.00000000
_cell_angle_beta   90.00000000
_cell_angle_gamma   90.00000000
_symmetry_Int_Tables_number   1
_chemical_formula_structural   NaAc2(PrSn2)2
_chemical_formula_sum   'Na4 Ac8 Pr8 Sn16'
_cell_volume   1140.42182310
_cell_formula_units_Z   4
loop_
 _symmetry_equiv_pos_site_id
 _symmetry_equiv_pos_as_xyz
  1  'x, y, z'
loop_
 _atom_site_type_symbol
 _atom_site_label
 _atom_site_symmetry_multiplicity
 _atom_site_fract_x
 _atom_site_fract_y
 _atom_site_fract_z
 _atom_site_occupancy
  Na  Na0  1  0.162452  0.495919  0.750000  1
  Na  Na1  1  0.662452  0.004081  0.750000  1
  Na  Na2  1  0.837548  0.504081  0.250000  1
  Na  Na3  1  0.337548  0.995919  0.250000  1
  Ac  Ac4  1  0.488543  0.317993  0.901821  1
  Ac  Ac5  1  0.988543  0.182007  0.598179  1
  Ac  Ac6  1  0.511457  0.682007  0.401821  1
  Ac  Ac7  1  0.011457  0.817993  0.098179  1
  Ac  Ac8  1  0.511457  0.682007  0.098179  1
  Ac  Ac9  1  0.011457  0.817993  0.401821  1
  Ac  Ac10  1  0.488543  0.317993  0.598179  1
  Ac  Ac11  1  0.988543  0.182007  0.901821  1
  Pr  Pr12  1  0.335346  0.824924  0.873936  1
  Pr  Pr13  1  0.835346  0.675076  0.626064  1
  Pr  Pr14  1  0.664654  0.175076  0.373936  1
  Pr  Pr15  1  0.164654  0.324924  0.126064  1
  Pr  Pr16  1  0.664654  0.175076  0.126064  1
  Pr  Pr17  1  0.164654  0.324924  0.373936  1
  Pr  Pr18  1  0.335346  0.824924  0.626064  1
  Pr  Pr19  1  0.835346  0.675076  0.873936  1
  Sn  Sn20  1  0.334514  0.038788  0.037387  1
  Sn  Sn21  1  0.834514  0.461212  0.462613  1
  Sn  Sn22  1  0.665486  0.961212  0.537387  1
  Sn  Sn23  1  0.165486  0.538788  0.962613  1
  Sn  Sn24  1  0.665486  0.961212  0.962613  1
  Sn  Sn25  1  0.165486  0.538788  0.537387  1
  Sn  Sn26  1  0.334514  0.038788  0.462613  1
  Sn  Sn27  1  0.834514  0.461212  0.037387  1
  Sn  Sn28  1  0.534196  0.607913  0.750000  1
  Sn  Sn29  1  0.034196  0.892087  0.750000  1
  Sn  Sn30  1  0.465804  0.392087  0.250000  1
  Sn  Sn31  1  0.965804  0.107913  0.250000  1
  Sn  Sn32  1  0.287282  0.131029  0.750000  1
  Sn  Sn33  1  0.787282  0.368971  0.750000  1
  Sn  Sn34  1  0.712718  0.868971  0.250000  1
  Sn  Sn35  1  0.212718  0.631029  0.250000  1
