# generated using pymatgen
data_Tb8Zr11Si16Hg
_symmetry_space_group_name_H-M   'P 1'
_cell_length_a   7.36739475
_cell_length_b   7.36739610
_cell_length_c   13.42726701
_cell_angle_alpha   89.78325224
_cell_angle_beta   90.21674722
_cell_angle_gamma   89.85923488
_symmetry_Int_Tables_number   1
_chemical_formula_structural   Tb8Zr11Si16Hg
_chemical_formula_sum   'Tb8 Zr11 Si16 Hg1'
_cell_volume   728.79946297
_cell_formula_units_Z   1
loop_
 _symmetry_equiv_pos_site_id
 _symmetry_equiv_pos_as_xyz
  1  'x, y, z'
loop_
 _atom_site_type_symbol
 _atom_site_label
 _atom_site_symmetry_multiplicity
 _atom_site_fract_x
 _atom_site_fract_y
 _atom_site_fract_z
 _atom_site_occupancy
  Tb  Tb0  1  0.998088  0.347743  0.210749  1
  Tb  Tb1  1  0.004389  0.654772  0.715413  1
  Tb  Tb2  1  0.153899  0.496647  0.464063  1
  Tb  Tb3  1  0.498366  0.848905  0.033986  1
  Tb  Tb4  1  0.848905  0.498366  0.966014  1
  Tb  Tb5  1  0.496647  0.153899  0.535937  1
  Tb  Tb6  1  0.347743  0.998088  0.789251  1
  Tb  Tb7  1  0.654772  0.004389  0.284587  1
  Zr  Zr8  1  0.824101  0.824101  0.500000  1
  Zr  Zr9  1  0.322200  0.677350  0.249573  1
  Zr  Zr10  1  0.677350  0.322200  0.750427  1
  Zr  Zr11  1  0.143686  0.997003  0.375019  1
  Zr  Zr12  1  0.857283  0.002731  0.878552  1
  Zr  Zr13  1  0.504734  0.645895  0.626493  1
  Zr  Zr14  1  0.356596  0.490963  0.877383  1
  Zr  Zr15  1  0.490963  0.356596  0.122617  1
  Zr  Zr16  1  0.645895  0.504734  0.373507  1
  Zr  Zr17  1  0.997003  0.143686  0.624981  1
  Zr  Zr18  1  0.002731  0.857283  0.121448  1
  Si  Si19  1  0.358933  0.294958  0.316300  1
  Si  Si20  1  0.640992  0.705408  0.818962  1
  Si  Si21  1  0.208333  0.859731  0.567950  1
  Si  Si22  1  0.131707  0.771777  0.926692  1
  Si  Si23  1  0.771777  0.131707  0.073308  1
  Si  Si24  1  0.859731  0.208333  0.432050  1
  Si  Si25  1  0.294958  0.358933  0.683700  1
  Si  Si26  1  0.705408  0.640992  0.181038  1
  Si  Si27  1  0.297962  0.051350  0.192837  1
  Si  Si28  1  0.704842  0.948646  0.687921  1
  Si  Si29  1  0.448221  0.795217  0.437344  1
  Si  Si30  1  0.210939  0.570647  0.063571  1
  Si  Si31  1  0.570647  0.210939  0.936429  1
  Si  Si32  1  0.795217  0.448221  0.562656  1
  Si  Si33  1  0.051350  0.297962  0.807163  1
  Si  Si34  1  0.948646  0.704842  0.312079  1
  Hg  Hg35  1  0.174989  0.174989  0.000000  1
