# generated using pymatgen
data_Ho4CoMo2Os5
_symmetry_space_group_name_H-M   'P 1'
_cell_length_a   5.48604689
_cell_length_b   5.48604678
_cell_length_c   8.41920000
_cell_angle_alpha   90.00000000
_cell_angle_beta   90.00000000
_cell_angle_gamma   121.16427405
_symmetry_Int_Tables_number   1
_chemical_formula_structural   Ho4CoMo2Os5
_chemical_formula_sum   'Ho4 Co1 Mo2 Os5'
_cell_volume   216.82274266
_cell_formula_units_Z   1
loop_
 _symmetry_equiv_pos_site_id
 _symmetry_equiv_pos_as_xyz
  1  'x, y, z'
loop_
 _atom_site_type_symbol
 _atom_site_label
 _atom_site_symmetry_multiplicity
 _atom_site_fract_x
 _atom_site_fract_y
 _atom_site_fract_z
 _atom_site_occupancy
  Ho  Ho0  1  0.334180  0.665820  0.434452  1
  Ho  Ho1  1  0.667266  0.332734  0.562023  1
  Ho  Ho2  1  0.667266  0.332734  0.937977  1
  Ho  Ho3  1  0.334180  0.665820  0.065548  1
  Co  Co4  1  0.828550  0.171450  0.250000  1
  Mo  Mo5  1  0.002199  0.997801  0.496947  1
  Mo  Mo6  1  0.002199  0.997801  0.003053  1
  Os  Os7  1  0.826550  0.654825  0.250000  1
  Os  Os8  1  0.345175  0.173450  0.250000  1
  Os  Os9  1  0.168987  0.831013  0.750000  1
  Os  Os10  1  0.171890  0.348443  0.750000  1
  Os  Os11  1  0.651557  0.828110  0.750000  1
