# generated using pymatgen
data_TbYb3(Pr4Ga3)4
_symmetry_space_group_name_H-M   'P 1'
_cell_length_a   7.88812600
_cell_length_b   7.88812600
_cell_length_c   14.72887100
_cell_angle_alpha   90.00000000
_cell_angle_beta   90.00000000
_cell_angle_gamma   90.00000000
_symmetry_Int_Tables_number   1
_chemical_formula_structural   TbYb3(Pr4Ga3)4
_chemical_formula_sum   'Tb1 Yb3 Pr16 Ga12'
_cell_volume   916.46764406
_cell_formula_units_Z   1
loop_
 _symmetry_equiv_pos_site_id
 _symmetry_equiv_pos_as_xyz
  1  'x, y, z'
loop_
 _atom_site_type_symbol
 _atom_site_label
 _atom_site_symmetry_multiplicity
 _atom_site_fract_x
 _atom_site_fract_y
 _atom_site_fract_z
 _atom_site_occupancy
  Tb  Tb0  1  0.000000  0.500000  0.736423  1
  Yb  Yb1  1  0.000000  0.500000  0.241337  1
  Yb  Yb2  1  0.500000  0.000000  0.258553  1
  Yb  Yb3  1  0.500000  0.000000  0.759018  1
  Pr  Pr4  1  0.822368  0.831319  0.602062  1
  Pr  Pr5  1  0.177244  0.830057  0.102742  1
  Pr  Pr6  1  0.169815  0.823251  0.397558  1
  Pr  Pr7  1  0.830185  0.176749  0.397558  1
  Pr  Pr8  1  0.676749  0.669815  0.397558  1
  Pr  Pr9  1  0.668681  0.322368  0.602062  1
  Pr  Pr10  1  0.331319  0.677632  0.602062  1
  Pr  Pr11  1  0.669943  0.677244  0.102742  1
  Pr  Pr12  1  0.677739  0.330284  0.897782  1
  Pr  Pr13  1  0.830284  0.822261  0.897782  1
  Pr  Pr14  1  0.323251  0.330185  0.397558  1
  Pr  Pr15  1  0.177632  0.168681  0.602062  1
  Pr  Pr16  1  0.822756  0.169943  0.102742  1
  Pr  Pr17  1  0.322261  0.669716  0.897782  1
  Pr  Pr18  1  0.330057  0.322756  0.102742  1
  Pr  Pr19  1  0.169716  0.177739  0.897782  1
  Ga  Ga20  1  0.616831  0.383321  0.250060  1
  Ga  Ga21  1  0.113998  0.877286  0.750402  1
  Ga  Ga22  1  0.377286  0.386002  0.750402  1
  Ga  Ga23  1  0.383169  0.616679  0.250060  1
  Ga  Ga24  1  0.883321  0.883169  0.250060  1
  Ga  Ga25  1  0.622714  0.613998  0.750402  1
  Ga  Ga26  1  0.000000  0.500000  0.506879  1
  Ga  Ga27  1  0.886002  0.122714  0.750402  1
  Ga  Ga28  1  0.500000  0.000000  0.495852  1
  Ga  Ga29  1  0.500000  0.000000  0.996751  1
  Ga  Ga30  1  0.116679  0.116831  0.250060  1
  Ga  Ga31  1  0.000000  0.500000  0.002764  1
