# generated using pymatgen
data_Ho9Lu3Co4SnRh
_symmetry_space_group_name_H-M   'P 1'
_cell_length_a   8.21479118
_cell_length_b   8.22341116
_cell_length_c   8.22341058
_cell_angle_alpha   110.85332756
_cell_angle_beta   110.99190724
_cell_angle_gamma   106.64629720
_symmetry_Int_Tables_number   1
_chemical_formula_structural   Ho9Lu3Co4SnRh
_chemical_formula_sum   'Ho9 Lu3 Co4 Sn1 Rh1'
_cell_volume   426.64049201
_cell_formula_units_Z   1
loop_
 _symmetry_equiv_pos_site_id
 _symmetry_equiv_pos_as_xyz
  1  'x, y, z'
loop_
 _atom_site_type_symbol
 _atom_site_label
 _atom_site_symmetry_multiplicity
 _atom_site_fract_x
 _atom_site_fract_y
 _atom_site_fract_z
 _atom_site_occupancy
  Ho  Ho0  1  0.983489  0.789215  0.194274  1
  Ho  Ho1  1  0.188396  0.292045  0.479603  1
  Ho  Ho2  1  0.812702  0.710626  0.523815  1
  Ho  Ho3  1  0.188396  0.708792  0.896349  1
  Ho  Ho4  1  0.812702  0.288887  0.102077  1
  Ho  Ho5  1  0.313026  0.616986  0.305389  1
  Ho  Ho6  1  0.686320  0.381826  0.693451  1
  Ho  Ho7  1  0.313026  0.007636  0.696040  1
  Ho  Ho8  1  0.686320  0.992870  0.304493  1
  Lu  Lu9  1  0.405220  0.210818  0.194402  1
  Lu  Lu10  1  0.590335  0.787024  0.803311  1
  Lu  Lu11  1  0.016846  0.213305  0.803541  1
  Co  Co12  1  0.379618  0.000765  0.378853  1
  Co  Co13  1  0.624844  0.999534  0.625310  1
  Co  Co14  1  0.114593  0.611797  0.502795  1
  Co  Co15  1  0.888210  0.387638  0.500573  1
  Sn  Sn16  1  0.498678  0.498505  0.000172  1
  Rh  Rh17  1  0.997283  0.001731  0.995552  1
