# generated using pymatgen
data_Ho3Er2(In2Pt)2
_symmetry_space_group_name_H-M   'P 1'
_cell_length_a   3.60449900
_cell_length_b   8.14970100
_cell_length_c   18.19904200
_cell_angle_alpha   90.00000000
_cell_angle_beta   90.00000000
_cell_angle_gamma   90.00000000
_symmetry_Int_Tables_number   1
_chemical_formula_structural   Ho3Er2(In2Pt)2
_chemical_formula_sum   'Ho6 Er4 In8 Pt4'
_cell_volume   534.60757989
_cell_formula_units_Z   2
loop_
 _symmetry_equiv_pos_site_id
 _symmetry_equiv_pos_as_xyz
  1  'x, y, z'
loop_
 _atom_site_type_symbol
 _atom_site_label
 _atom_site_symmetry_multiplicity
 _atom_site_fract_x
 _atom_site_fract_y
 _atom_site_fract_z
 _atom_site_occupancy
  Ho  Ho0  1  0.000000  0.243147  0.220098  1
  Ho  Ho1  1  0.000000  0.756853  0.779902  1
  Ho  Ho2  1  0.000000  0.256853  0.720098  1
  Ho  Ho3  1  0.000000  0.743147  0.279902  1
  Ho  Ho4  1  0.000000  0.000000  0.000000  1
  Ho  Ho5  1  0.000000  0.500000  0.500000  1
  Er  Er6  1  0.000000  0.116915  0.414413  1
  Er  Er7  1  0.000000  0.883085  0.585587  1
  Er  Er8  1  0.000000  0.383085  0.914413  1
  Er  Er9  1  0.000000  0.616915  0.085587  1
  In  In10  1  0.500000  0.423349  0.350938  1
  In  In11  1  0.500000  0.576651  0.649062  1
  In  In12  1  0.500000  0.076651  0.850938  1
  In  In13  1  0.500000  0.923349  0.149062  1
  In  In14  1  0.500000  0.292825  0.066462  1
  In  In15  1  0.500000  0.707175  0.933538  1
  In  In16  1  0.500000  0.207175  0.566462  1
  In  In17  1  0.500000  0.792825  0.433538  1
  Pt  Pt18  1  0.500000  0.024756  0.303477  1
  Pt  Pt19  1  0.500000  0.975244  0.696523  1
  Pt  Pt20  1  0.500000  0.475244  0.803477  1
  Pt  Pt21  1  0.500000  0.524756  0.196523  1
