# generated using pymatgen
data_LaTh7Zn8(Ru3Rh)2
_symmetry_space_group_name_H-M   'P 1'
_cell_length_a   3.93106900
_cell_length_b   7.51678599
_cell_length_c   16.53573807
_cell_angle_alpha   90.05372497
_cell_angle_beta   90.00000000
_cell_angle_gamma   90.00000000
_symmetry_Int_Tables_number   1
_chemical_formula_structural   LaTh7Zn8(Ru3Rh)2
_chemical_formula_sum   'La1 Th7 Zn8 Ru6 Rh2'
_cell_volume   488.61438179
_cell_formula_units_Z   1
loop_
 _symmetry_equiv_pos_site_id
 _symmetry_equiv_pos_as_xyz
  1  'x, y, z'
loop_
 _atom_site_type_symbol
 _atom_site_label
 _atom_site_symmetry_multiplicity
 _atom_site_fract_x
 _atom_site_fract_y
 _atom_site_fract_z
 _atom_site_occupancy
  La  La0  1  0.750000  0.941198  0.285323  1
  Th  Th1  1  0.750000  0.330211  0.438590  1
  Th  Th2  1  0.250000  0.056648  0.718444  1
  Th  Th3  1  0.250000  0.559879  0.784142  1
  Th  Th4  1  0.250000  0.679211  0.560658  1
  Th  Th5  1  0.750000  0.824106  0.057829  1
  Th  Th6  1  0.250000  0.174345  0.939494  1
  Th  Th7  1  0.750000  0.435249  0.215525  1
  Zn  Zn8  1  0.250000  0.112398  0.150768  1
  Zn  Zn9  1  0.250000  0.997342  0.440848  1
  Zn  Zn10  1  0.750000  0.884744  0.850076  1
  Zn  Zn11  1  0.750000  0.007847  0.558893  1
  Zn  Zn12  1  0.250000  0.493037  0.057347  1
  Zn  Zn13  1  0.750000  0.384875  0.651910  1
  Zn  Zn14  1  0.750000  0.501323  0.941235  1
  Zn  Zn15  1  0.250000  0.615960  0.349625  1
  Ru  Ru16  1  0.750000  0.259691  0.811963  1
  Ru  Ru17  1  0.250000  0.254070  0.315845  1
  Ru  Ru18  1  0.250000  0.751825  0.938145  1
  Ru  Ru19  1  0.750000  0.743938  0.441851  1
  Ru  Ru20  1  0.750000  0.242916  0.061024  1
  Ru  Ru21  1  0.750000  0.763700  0.686692  1
  Rh  Rh22  1  0.250000  0.256718  0.561632  1
  Rh  Rh23  1  0.250000  0.728765  0.182141  1
