# generated using pymatgen
data_Ho20Cd6CoRh
_symmetry_space_group_name_H-M   'P 1'
_cell_length_a   9.54214100
_cell_length_b   9.54214254
_cell_length_c   9.74793600
_cell_angle_alpha   90.00000000
_cell_angle_beta   90.00000000
_cell_angle_gamma   119.99999813
_symmetry_Int_Tables_number   1
_chemical_formula_structural   Ho20Cd6CoRh
_chemical_formula_sum   'Ho20 Cd6 Co1 Rh1'
_cell_volume   768.66133939
_cell_formula_units_Z   1
loop_
 _symmetry_equiv_pos_site_id
 _symmetry_equiv_pos_as_xyz
  1  'x, y, z'
loop_
 _atom_site_type_symbol
 _atom_site_label
 _atom_site_symmetry_multiplicity
 _atom_site_fract_x
 _atom_site_fract_y
 _atom_site_fract_z
 _atom_site_occupancy
  Ho  Ho0  1  0.000000  0.000000  0.499897  1
  Ho  Ho1  1  0.000000  0.000000  0.000103  1
  Ho  Ho2  1  0.542869  0.457131  0.250000  1
  Ho  Ho3  1  0.542869  0.085739  0.250000  1
  Ho  Ho4  1  0.914261  0.457131  0.250000  1
  Ho  Ho5  1  0.457979  0.542021  0.750000  1
  Ho  Ho6  1  0.457979  0.915958  0.750000  1
  Ho  Ho7  1  0.084042  0.542021  0.750000  1
  Ho  Ho8  1  0.208919  0.791081  0.440550  1
  Ho  Ho9  1  0.208919  0.417838  0.440550  1
  Ho  Ho10  1  0.582162  0.791081  0.440550  1
  Ho  Ho11  1  0.787883  0.212117  0.564257  1
  Ho  Ho12  1  0.787883  0.575766  0.564257  1
  Ho  Ho13  1  0.424234  0.212117  0.564257  1
  Ho  Ho14  1  0.787883  0.212117  0.935743  1
  Ho  Ho15  1  0.787883  0.575766  0.935743  1
  Ho  Ho16  1  0.424234  0.212117  0.935743  1
  Ho  Ho17  1  0.208919  0.791081  0.059450  1
  Ho  Ho18  1  0.208919  0.417838  0.059450  1
  Ho  Ho19  1  0.582162  0.791081  0.059450  1
  Cd  Cd20  1  0.884916  0.115084  0.250000  1
  Cd  Cd21  1  0.884916  0.769832  0.250000  1
  Cd  Cd22  1  0.230168  0.115084  0.250000  1
  Cd  Cd23  1  0.115032  0.884968  0.750000  1
  Cd  Cd24  1  0.115032  0.230064  0.750000  1
  Cd  Cd25  1  0.769936  0.884968  0.750000  1
  Co  Co26  1  0.666667  0.333333  0.750000  1
  Rh  Rh27  1  0.333333  0.666667  0.250000  1
