# generated using pymatgen
data_Er3Al3GaAu2
_symmetry_space_group_name_H-M   'P 1'
_cell_length_a   7.08365900
_cell_length_b   7.08365956
_cell_length_c   4.23100200
_cell_angle_alpha   90.00000000
_cell_angle_beta   90.00000000
_cell_angle_gamma   120.00000207
_symmetry_Int_Tables_number   1
_chemical_formula_structural   Er3Al3GaAu2
_chemical_formula_sum   'Er3 Al3 Ga1 Au2'
_cell_volume   183.86081482
_cell_formula_units_Z   1
loop_
 _symmetry_equiv_pos_site_id
 _symmetry_equiv_pos_as_xyz
  1  'x, y, z'
loop_
 _atom_site_type_symbol
 _atom_site_label
 _atom_site_symmetry_multiplicity
 _atom_site_fract_x
 _atom_site_fract_y
 _atom_site_fract_z
 _atom_site_occupancy
  Er  Er0  1  0.418003  0.417387  0.500000  1
  Er  Er1  1  0.582613  0.000616  0.500000  1
  Er  Er2  1  0.999384  0.581997  0.500000  1
  Al  Al3  1  0.755065  0.759442  0.000000  1
  Al  Al4  1  0.240558  0.995622  0.000000  1
  Al  Al5  1  0.004378  0.244935  0.000000  1
  Ga  Ga6  1  0.666667  0.333333  0.000000  1
  Au  Au7  1  0.333333  0.666667  0.000000  1
  Au  Au8  1  0.000000  0.000000  0.500000  1
