# generated using pymatgen
data_Pr5P12Ru16Rh3
_symmetry_space_group_name_H-M   'P 1'
_cell_length_a   12.67663000
_cell_length_b   12.67663033
_cell_length_c   4.03120900
_cell_angle_alpha   90.00000000
_cell_angle_beta   90.00000000
_cell_angle_gamma   119.99999913
_symmetry_Int_Tables_number   1
_chemical_formula_structural   Pr5P12Ru16Rh3
_chemical_formula_sum   'Pr5 P12 Ru16 Rh3'
_cell_volume   561.01386022
_cell_formula_units_Z   1
loop_
 _symmetry_equiv_pos_site_id
 _symmetry_equiv_pos_as_xyz
  1  'x, y, z'
loop_
 _atom_site_type_symbol
 _atom_site_label
 _atom_site_symmetry_multiplicity
 _atom_site_fract_x
 _atom_site_fract_y
 _atom_site_fract_z
 _atom_site_occupancy
  Pr  Pr0  1  0.183206  0.183206  0.500000  1
  Pr  Pr1  1  0.816794  0.000000  0.500000  1
  Pr  Pr2  1  0.000000  0.816794  0.500000  1
  Pr  Pr3  1  0.333333  0.666667  0.000000  1
  Pr  Pr4  1  0.666667  0.333333  0.000000  1
  P  P5  1  0.810991  0.810991  0.000000  1
  P  P6  1  0.189009  0.000000  0.000000  1
  P  P7  1  0.000000  0.189009  0.000000  1
  P  P8  1  0.175545  0.476771  0.500000  1
  P  P9  1  0.523229  0.698772  0.500000  1
  P  P10  1  0.301228  0.824455  0.500000  1
  P  P11  1  0.698772  0.523229  0.500000  1
  P  P12  1  0.824455  0.301228  0.500000  1
  P  P13  1  0.476771  0.175545  0.500000  1
  P  P14  1  0.373158  0.373158  0.000000  1
  P  P15  1  0.626842  0.000000  0.000000  1
  P  P16  1  0.000000  0.626842  0.000000  1
  Ru  Ru17  1  0.712024  0.712024  0.500000  1
  Ru  Ru18  1  0.287976  0.000000  0.500000  1
  Ru  Ru19  1  0.000000  0.287976  0.500000  1
  Ru  Ru20  1  0.185418  0.379180  0.000000  1
  Ru  Ru21  1  0.620820  0.806238  0.000000  1
  Ru  Ru22  1  0.193762  0.814582  0.000000  1
  Ru  Ru23  1  0.806238  0.620820  0.000000  1
  Ru  Ru24  1  0.814582  0.193762  0.000000  1
  Ru  Ru25  1  0.379180  0.185418  0.000000  1
  Ru  Ru26  1  0.369021  0.492226  0.500000  1
  Ru  Ru27  1  0.507774  0.876796  0.500000  1
  Ru  Ru28  1  0.123204  0.630979  0.500000  1
  Ru  Ru29  1  0.876796  0.507774  0.500000  1
  Ru  Ru30  1  0.630979  0.123204  0.500000  1
  Ru  Ru31  1  0.492226  0.369021  0.500000  1
  Ru  Ru32  1  0.000000  0.000000  0.000000  1
  Rh  Rh33  1  0.553527  0.553527  0.000000  1
  Rh  Rh34  1  0.446473  0.000000  0.000000  1
  Rh  Rh35  1  0.000000  0.446473  0.000000  1
