# generated using pymatgen
data_Ce6ErCd22As
_symmetry_space_group_name_H-M   'P 1'
_cell_length_a   10.14704820
_cell_length_b   10.14704948
_cell_length_c   10.14704800
_cell_angle_alpha   59.99999830
_cell_angle_beta   59.99999415
_cell_angle_gamma   59.99999648
_symmetry_Int_Tables_number   1
_chemical_formula_structural   Ce6ErCd22As
_chemical_formula_sum   'Ce6 Er1 Cd22 As1'
_cell_volume   738.76137704
_cell_formula_units_Z   1
loop_
 _symmetry_equiv_pos_site_id
 _symmetry_equiv_pos_as_xyz
  1  'x, y, z'
loop_
 _atom_site_type_symbol
 _atom_site_label
 _atom_site_symmetry_multiplicity
 _atom_site_fract_x
 _atom_site_fract_y
 _atom_site_fract_z
 _atom_site_occupancy
  Ce  Ce0  1  0.791191  0.791191  0.208809  1
  Ce  Ce1  1  0.208809  0.791191  0.208809  1
  Ce  Ce2  1  0.791191  0.208809  0.208809  1
  Ce  Ce3  1  0.208809  0.208809  0.791191  1
  Ce  Ce4  1  0.791191  0.208809  0.791191  1
  Ce  Ce5  1  0.208809  0.791191  0.791191  1
  Er  Er6  1  0.500000  0.500000  0.500000  1
  Cd  Cd7  1  0.833117  0.833117  0.500647  1
  Cd  Cd8  1  0.833117  0.500647  0.833117  1
  Cd  Cd9  1  0.500647  0.833117  0.833117  1
  Cd  Cd10  1  0.833117  0.833117  0.833117  1
  Cd  Cd11  1  0.166883  0.166883  0.499353  1
  Cd  Cd12  1  0.166883  0.499353  0.166883  1
  Cd  Cd13  1  0.499353  0.166883  0.166883  1
  Cd  Cd14  1  0.166883  0.166883  0.166883  1
  Cd  Cd15  1  0.623049  0.623049  0.130851  1
  Cd  Cd16  1  0.623049  0.130851  0.623049  1
  Cd  Cd17  1  0.130851  0.623049  0.623049  1
  Cd  Cd18  1  0.623049  0.623049  0.623049  1
  Cd  Cd19  1  0.376951  0.376951  0.869149  1
  Cd  Cd20  1  0.376951  0.869149  0.376951  1
  Cd  Cd21  1  0.869149  0.376951  0.376951  1
  Cd  Cd22  1  0.376951  0.376951  0.376951  1
  Cd  Cd23  1  0.000000  0.000000  0.500000  1
  Cd  Cd24  1  0.500000  0.000000  0.500000  1
  Cd  Cd25  1  0.000000  0.500000  0.500000  1
  Cd  Cd26  1  0.500000  0.500000  0.000000  1
  Cd  Cd27  1  0.000000  0.500000  0.000000  1
  Cd  Cd28  1  0.500000  0.000000  0.000000  1
  As  As29  1  0.000000  0.000000  0.000000  1
