# generated using pymatgen
data_Y2Er3In2(HgPd)2
_symmetry_space_group_name_H-M   'P 1'
_cell_length_a   3.60962900
_cell_length_b   8.03323478
_cell_length_c   18.25621692
_cell_angle_alpha   89.71878433
_cell_angle_beta   90.00000000
_cell_angle_gamma   90.00000000
_symmetry_Int_Tables_number   1
_chemical_formula_structural   Y2Er3In2(HgPd)2
_chemical_formula_sum   'Y4 Er6 In4 Hg4 Pd4'
_cell_volume   529.36909491
_cell_formula_units_Z   2
loop_
 _symmetry_equiv_pos_site_id
 _symmetry_equiv_pos_as_xyz
  1  'x, y, z'
loop_
 _atom_site_type_symbol
 _atom_site_label
 _atom_site_symmetry_multiplicity
 _atom_site_fract_x
 _atom_site_fract_y
 _atom_site_fract_z
 _atom_site_occupancy
  Y  Y0  1  0.000000  0.500000  0.500000  1
  Y  Y1  1  0.000000  0.000000  0.000000  1
  Y  Y2  1  0.000000  0.742118  0.284460  1
  Y  Y3  1  0.000000  0.257882  0.715540  1
  Er  Er4  1  0.000000  0.756954  0.784014  1
  Er  Er5  1  0.000000  0.243046  0.215986  1
  Er  Er6  1  0.000000  0.607820  0.083686  1
  Er  Er7  1  0.000000  0.392180  0.916314  1
  Er  Er8  1  0.000000  0.891733  0.583911  1
  Er  Er9  1  0.000000  0.108267  0.416089  1
  In  In10  1  0.500000  0.582601  0.649270  1
  In  In11  1  0.500000  0.417399  0.350730  1
  In  In12  1  0.500000  0.918973  0.148917  1
  In  In13  1  0.500000  0.081027  0.851083  1
  Hg  Hg14  1  0.500000  0.712098  0.932946  1
  Hg  Hg15  1  0.500000  0.287902  0.067054  1
  Hg  Hg16  1  0.500000  0.789079  0.433513  1
  Hg  Hg17  1  0.500000  0.210921  0.566487  1
  Pd  Pd18  1  0.500000  0.527543  0.196828  1
  Pd  Pd19  1  0.500000  0.472457  0.803172  1
  Pd  Pd20  1  0.500000  0.967275  0.697493  1
  Pd  Pd21  1  0.500000  0.032725  0.302507  1
