# generated using pymatgen
data_AcCu12Ni
_symmetry_space_group_name_H-M   'P 1'
_cell_length_a   8.22870426
_cell_length_b   8.22870419
_cell_length_c   8.22870500
_cell_angle_alpha   60.00000077
_cell_angle_beta   60.00000103
_cell_angle_gamma   60.00000275
_symmetry_Int_Tables_number   1
_chemical_formula_structural   AcCu12Ni
_chemical_formula_sum   'Ac2 Cu24 Ni2'
_cell_volume   393.98475240
_cell_formula_units_Z   2
loop_
 _symmetry_equiv_pos_site_id
 _symmetry_equiv_pos_as_xyz
  1  'x, y, z'
loop_
 _atom_site_type_symbol
 _atom_site_label
 _atom_site_symmetry_multiplicity
 _atom_site_fract_x
 _atom_site_fract_y
 _atom_site_fract_z
 _atom_site_occupancy
  Ac  Ac0  1  0.750000  0.750000  0.750000  1
  Ac  Ac1  1  0.250000  0.250000  0.250000  1
  Cu  Cu2  1  0.704896  0.936424  0.295104  1
  Cu  Cu3  1  0.936424  0.704896  0.063576  1
  Cu  Cu4  1  0.063576  0.295104  0.936424  1
  Cu  Cu5  1  0.795104  0.563576  0.436424  1
  Cu  Cu6  1  0.563576  0.795104  0.204896  1
  Cu  Cu7  1  0.204896  0.563576  0.795104  1
  Cu  Cu8  1  0.795104  0.436424  0.204896  1
  Cu  Cu9  1  0.563576  0.436424  0.795104  1
  Cu  Cu10  1  0.204896  0.795104  0.436424  1
  Cu  Cu11  1  0.936424  0.063576  0.295104  1
  Cu  Cu12  1  0.295104  0.936424  0.063576  1
  Cu  Cu13  1  0.063576  0.704896  0.295104  1
  Cu  Cu14  1  0.063576  0.936424  0.704896  1
  Cu  Cu15  1  0.295104  0.704896  0.936424  1
  Cu  Cu16  1  0.704896  0.063576  0.936424  1
  Cu  Cu17  1  0.704896  0.295104  0.063576  1
  Cu  Cu18  1  0.936424  0.295104  0.704896  1
  Cu  Cu19  1  0.436424  0.795104  0.563576  1
  Cu  Cu20  1  0.436424  0.204896  0.795104  1
  Cu  Cu21  1  0.795104  0.204896  0.563576  1
  Cu  Cu22  1  0.436424  0.563576  0.204896  1
  Cu  Cu23  1  0.204896  0.436424  0.563576  1
  Cu  Cu24  1  0.563576  0.204896  0.436424  1
  Cu  Cu25  1  0.295104  0.063576  0.704896  1
  Ni  Ni26  1  0.000000  0.000000  0.000000  1
  Ni  Ni27  1  0.500000  0.500000  0.500000  1
