# generated using pymatgen
data_Y3Cd3AgPb2
_symmetry_space_group_name_H-M   'P 1'
_cell_length_a   7.60687300
_cell_length_b   7.60687166
_cell_length_c   4.56402200
_cell_angle_alpha   90.00000000
_cell_angle_beta   90.00000000
_cell_angle_gamma   120.00000149
_symmetry_Int_Tables_number   1
_chemical_formula_structural   Y3Cd3AgPb2
_chemical_formula_sum   'Y3 Cd3 Ag1 Pb2'
_cell_volume   228.71287275
_cell_formula_units_Z   1
loop_
 _symmetry_equiv_pos_site_id
 _symmetry_equiv_pos_as_xyz
  1  'x, y, z'
loop_
 _atom_site_type_symbol
 _atom_site_label
 _atom_site_symmetry_multiplicity
 _atom_site_fract_x
 _atom_site_fract_y
 _atom_site_fract_z
 _atom_site_occupancy
  Y  Y0  1  0.413582  0.413582  0.500000  1
  Y  Y1  1  0.000000  0.586418  0.500000  1
  Y  Y2  1  0.586418  0.000000  0.500000  1
  Cd  Cd3  1  0.766119  0.766119  0.000000  1
  Cd  Cd4  1  0.233881  0.000000  0.000000  1
  Cd  Cd5  1  0.000000  0.233881  0.000000  1
  Ag  Ag6  1  0.000000  0.000000  0.500000  1
  Pb  Pb7  1  0.666667  0.333333  0.000000  1
  Pb  Pb8  1  0.333333  0.666667  0.000000  1
