# generated using pymatgen
data_TbTm11Tc3Ir
_symmetry_space_group_name_H-M   'P 1'
_cell_length_a   6.22388447
_cell_length_b   7.34769875
_cell_length_c   9.00228000
_cell_angle_alpha   90.00000000
_cell_angle_beta   90.00000000
_cell_angle_gamma   90.09456744
_symmetry_Int_Tables_number   1
_chemical_formula_structural   TbTm11Tc3Ir
_chemical_formula_sum   'Tb1 Tm11 Tc3 Ir1'
_cell_volume   411.68475963
_cell_formula_units_Z   1
loop_
 _symmetry_equiv_pos_site_id
 _symmetry_equiv_pos_as_xyz
  1  'x, y, z'
loop_
 _atom_site_type_symbol
 _atom_site_label
 _atom_site_symmetry_multiplicity
 _atom_site_fract_x
 _atom_site_fract_y
 _atom_site_fract_z
 _atom_site_occupancy
  Tb  Tb0  1  0.624962  0.039006  0.250000  1
  Tm  Tm1  1  0.333228  0.676313  0.062675  1
  Tm  Tm2  1  0.161373  0.176342  0.438397  1
  Tm  Tm3  1  0.664371  0.323101  0.561747  1
  Tm  Tm4  1  0.835982  0.824199  0.937473  1
  Tm  Tm5  1  0.664371  0.323101  0.938253  1
  Tm  Tm6  1  0.835982  0.824199  0.562527  1
  Tm  Tm7  1  0.333228  0.676313  0.437325  1
  Tm  Tm8  1  0.161373  0.176342  0.061603  1
  Tm  Tm9  1  0.873729  0.541257  0.250000  1
  Tm  Tm10  1  0.132462  0.457086  0.750000  1
  Tm  Tm11  1  0.371881  0.959113  0.750000  1
  Tc  Tc12  1  0.040862  0.883432  0.250000  1
  Tc  Tc13  1  0.463013  0.387834  0.250000  1
  Tc  Tc14  1  0.962157  0.116360  0.750000  1
  Ir  Ir15  1  0.541026  0.616004  0.750000  1
