# generated using pymatgen
data_DyY3AlCo4
_symmetry_space_group_name_H-M   'P 1'
_cell_length_a   5.49985543
_cell_length_b   5.49985554
_cell_length_c   8.91854803
_cell_angle_alpha   108.94406425
_cell_angle_beta   108.94406733
_cell_angle_gamma   43.08616590
_symmetry_Int_Tables_number   1
_chemical_formula_structural   DyY3AlCo4
_chemical_formula_sum   'Dy1 Y3 Al1 Co4'
_cell_volume   172.69156237
_cell_formula_units_Z   1
loop_
 _symmetry_equiv_pos_site_id
 _symmetry_equiv_pos_as_xyz
  1  'x, y, z'
loop_
 _atom_site_type_symbol
 _atom_site_label
 _atom_site_symmetry_multiplicity
 _atom_site_fract_x
 _atom_site_fract_y
 _atom_site_fract_z
 _atom_site_occupancy
  Dy  Dy0  1  0.392048  0.392048  0.114470  1
  Y  Y1  1  0.745804  0.745804  0.337828  1
  Y  Y2  1  0.254174  0.254174  0.662000  1
  Y  Y3  1  0.608478  0.608478  0.885672  1
  Al  Al4  1  0.500051  0.500051  0.500072  1
  Co  Co5  1  0.091076  0.091076  0.119752  1
  Co  Co6  1  0.036823  0.036823  0.353970  1
  Co  Co7  1  0.962877  0.962877  0.645527  1
  Co  Co8  1  0.908668  0.908668  0.880706  1
