# generated using pymatgen
data_Sr6Sn8BiI
_symmetry_space_group_name_H-M   'P 1'
_cell_length_a   9.11384543
_cell_length_b   9.11384490
_cell_length_c   9.11384568
_cell_angle_alpha   120.51033181
_cell_angle_beta   120.51033379
_cell_angle_gamma   89.11832786
_symmetry_Int_Tables_number   1
_chemical_formula_structural   Sr6Sn8BiI
_chemical_formula_sum   'Sr6 Sn8 Bi1 I1'
_cell_volume   531.09378333
_cell_formula_units_Z   1
loop_
 _symmetry_equiv_pos_site_id
 _symmetry_equiv_pos_as_xyz
  1  'x, y, z'
loop_
 _atom_site_type_symbol
 _atom_site_label
 _atom_site_symmetry_multiplicity
 _atom_site_fract_x
 _atom_site_fract_y
 _atom_site_fract_z
 _atom_site_occupancy
  Sr  Sr0  1  0.252975  0.252975  0.000000  1
  Sr  Sr1  1  0.747025  0.747025  0.000000  1
  Sr  Sr2  1  0.166619  0.656715  0.823335  1
  Sr  Sr3  1  0.833381  0.343285  0.176665  1
  Sr  Sr4  1  0.656715  0.833381  0.490095  1
  Sr  Sr5  1  0.343285  0.166619  0.509905  1
  Sn  Sn6  1  0.831532  0.332053  0.784214  1
  Sn  Sn7  1  0.168468  0.667947  0.215786  1
  Sn  Sn8  1  0.547839  0.047318  0.215786  1
  Sn  Sn9  1  0.332053  0.547839  0.500521  1
  Sn  Sn10  1  0.952682  0.168468  0.500521  1
  Sn  Sn11  1  0.452161  0.952682  0.784214  1
  Sn  Sn12  1  0.667947  0.452161  0.499479  1
  Sn  Sn13  1  0.047318  0.831532  0.499479  1
  Bi  Bi14  1  0.500000  0.500000  0.000000  1
  I  I15  1  0.000000  0.000000  0.000000  1
