# generated using pymatgen
data_ErTmTa4(B2Ru5)2
_symmetry_space_group_name_H-M   'P 1'
_cell_length_a   9.53160914
_cell_length_b   9.53160965
_cell_length_c   3.08751100
_cell_angle_alpha   90.00000000
_cell_angle_beta   90.00000000
_cell_angle_gamma   90.47921282
_symmetry_Int_Tables_number   1
_chemical_formula_structural   ErTmTa4(B2Ru5)2
_chemical_formula_sum   'Er1 Tm1 Ta4 B4 Ru10'
_cell_volume   280.49543423
_cell_formula_units_Z   1
loop_
 _symmetry_equiv_pos_site_id
 _symmetry_equiv_pos_as_xyz
  1  'x, y, z'
loop_
 _atom_site_type_symbol
 _atom_site_label
 _atom_site_symmetry_multiplicity
 _atom_site_fract_x
 _atom_site_fract_y
 _atom_site_fract_z
 _atom_site_occupancy
  Er  Er0  1  0.824011  0.675989  0.000000  1
  Tm  Tm1  1  0.175991  0.324009  0.000000  1
  Ta  Ta2  1  0.323561  0.823572  0.000000  1
  Ta  Ta3  1  0.676428  0.176439  0.000000  1
  Ta  Ta4  1  0.499899  0.499963  0.000000  1
  Ta  Ta5  1  0.000037  0.000101  0.000000  1
  B  B6  1  0.620899  0.879101  0.000000  1
  B  B7  1  0.379002  0.120998  0.000000  1
  B  B8  1  0.120742  0.620663  0.000000  1
  B  B9  1  0.879337  0.379258  0.000000  1
  Ru  Ru10  1  0.560196  0.722578  0.500000  1
  Ru  Ru11  1  0.439627  0.277464  0.500000  1
  Ru  Ru12  1  0.081018  0.785322  0.500000  1
  Ru  Ru13  1  0.919140  0.214735  0.500000  1
  Ru  Ru14  1  0.285265  0.580860  0.500000  1
  Ru  Ru15  1  0.714678  0.418982  0.500000  1
  Ru  Ru16  1  0.222536  0.060373  0.500000  1
  Ru  Ru17  1  0.777422  0.939804  0.500000  1
  Ru  Ru18  1  0.499987  0.000013  0.500000  1
  Ru  Ru19  1  0.000224  0.499776  0.500000  1
