# generated using pymatgen
data_TbTm4GaBi2
_symmetry_space_group_name_H-M   'P 1'
_cell_length_a   8.03190700
_cell_length_b   9.23685900
_cell_length_c   11.92688900
_cell_angle_alpha   90.00000000
_cell_angle_beta   90.00000000
_cell_angle_gamma   90.00000000
_symmetry_Int_Tables_number   1
_chemical_formula_structural   TbTm4GaBi2
_chemical_formula_sum   'Tb4 Tm16 Ga4 Bi8'
_cell_volume   884.85103423
_cell_formula_units_Z   4
loop_
 _symmetry_equiv_pos_site_id
 _symmetry_equiv_pos_as_xyz
  1  'x, y, z'
loop_
 _atom_site_type_symbol
 _atom_site_label
 _atom_site_symmetry_multiplicity
 _atom_site_fract_x
 _atom_site_fract_y
 _atom_site_fract_z
 _atom_site_occupancy
  Tb  Tb0  1  0.645638  0.750000  0.294083  1
  Tb  Tb1  1  0.854362  0.750000  0.794083  1
  Tb  Tb2  1  0.354362  0.250000  0.705917  1
  Tb  Tb3  1  0.145638  0.250000  0.205917  1
  Tm  Tm4  1  0.819497  0.553439  0.062742  1
  Tm  Tm5  1  0.680503  0.946561  0.562742  1
  Tm  Tm6  1  0.180503  0.053439  0.937258  1
  Tm  Tm7  1  0.319497  0.446561  0.437258  1
  Tm  Tm8  1  0.180503  0.446561  0.937258  1
  Tm  Tm9  1  0.319497  0.053439  0.437258  1
  Tm  Tm10  1  0.819497  0.946561  0.062742  1
  Tm  Tm11  1  0.680503  0.553439  0.562742  1
  Tm  Tm12  1  0.172064  0.750000  0.215039  1
  Tm  Tm13  1  0.327936  0.750000  0.715039  1
  Tm  Tm14  1  0.827936  0.250000  0.784961  1
  Tm  Tm15  1  0.672064  0.250000  0.284961  1
  Tm  Tm16  1  0.461750  0.750000  0.002734  1
  Tm  Tm17  1  0.038250  0.750000  0.502734  1
  Tm  Tm18  1  0.538250  0.250000  0.997266  1
  Tm  Tm19  1  0.961750  0.250000  0.497266  1
  Ga  Ga20  1  0.405793  0.750000  0.475848  1
  Ga  Ga21  1  0.094207  0.750000  0.975848  1
  Ga  Ga22  1  0.594207  0.250000  0.524152  1
  Ga  Ga23  1  0.905793  0.250000  0.024152  1
  Bi  Bi24  1  0.938253  0.509520  0.325255  1
  Bi  Bi25  1  0.561747  0.990480  0.825255  1
  Bi  Bi26  1  0.061747  0.009520  0.674745  1
  Bi  Bi27  1  0.438253  0.490480  0.174745  1
  Bi  Bi28  1  0.061747  0.490480  0.674745  1
  Bi  Bi29  1  0.438253  0.009520  0.174745  1
  Bi  Bi30  1  0.938253  0.990480  0.325255  1
  Bi  Bi31  1  0.561747  0.509520  0.825255  1
