# generated using pymatgen
data_Ca3SmSb3
_symmetry_space_group_name_H-M   'P 1'
_cell_length_a   8.26628833
_cell_length_b   8.19075595
_cell_length_c   8.26037190
_cell_angle_alpha   109.48040882
_cell_angle_beta   109.78000730
_cell_angle_gamma   109.50978220
_symmetry_Int_Tables_number   1
_chemical_formula_structural   Ca3SmSb3
_chemical_formula_sum   'Ca6 Sm2 Sb6'
_cell_volume   428.63118660
_cell_formula_units_Z   2
loop_
 _symmetry_equiv_pos_site_id
 _symmetry_equiv_pos_as_xyz
  1  'x, y, z'
loop_
 _atom_site_type_symbol
 _atom_site_label
 _atom_site_symmetry_multiplicity
 _atom_site_fract_x
 _atom_site_fract_y
 _atom_site_fract_z
 _atom_site_occupancy
  Ca  Ca0  1  0.144468  0.501734  0.001548  1
  Ca  Ca1  1  0.642734  0.498266  0.999814  1
  Ca  Ca2  1  0.498516  0.000139  0.642875  1
  Ca  Ca3  1  0.358327  0.358275  0.356579  1
  Ca  Ca4  1  0.498377  0.999861  0.142736  1
  Ca  Ca5  1  0.000052  0.641725  0.498304  1
  Sm  Sm6  1  0.858594  0.859089  0.859080  1
  Sm  Sm7  1  0.999504  0.140911  0.499991  1
  Sb  Sb8  1  0.376139  0.622923  0.748866  1
  Sb  Sb9  1  0.874424  0.245099  0.124919  1
  Sb  Sb10  1  0.629325  0.754901  0.379821  1
  Sb  Sb11  1  0.121484  0.876645  0.248084  1
  Sb  Sb12  1  0.244839  0.123355  0.871439  1
  Sb  Sb13  1  0.753216  0.377077  0.625943  1
