# generated using pymatgen
data_Eu3Y(CuSi3)2
_symmetry_space_group_name_H-M   'P 1'
_cell_length_a   8.25698861
_cell_length_b   8.13541273
_cell_length_c   5.91560902
_cell_angle_alpha   69.94840075
_cell_angle_beta   67.75184752
_cell_angle_gamma   42.29975491
_symmetry_Int_Tables_number   1
_chemical_formula_structural   Eu3Y(CuSi3)2
_chemical_formula_sum   'Eu3 Y1 Cu2 Si6'
_cell_volume   246.26497564
_cell_formula_units_Z   1
loop_
 _symmetry_equiv_pos_site_id
 _symmetry_equiv_pos_as_xyz
  1  'x, y, z'
loop_
 _atom_site_type_symbol
 _atom_site_label
 _atom_site_symmetry_multiplicity
 _atom_site_fract_x
 _atom_site_fract_y
 _atom_site_fract_z
 _atom_site_occupancy
  Eu  Eu0  1  0.244122  0.755877  0.244124  1
  Eu  Eu1  1  0.249554  0.250446  0.249553  1
  Eu  Eu2  1  0.749553  0.750447  0.749553  1
  Y  Y3  1  0.758493  0.241507  0.758494  1
  Cu  Cu4  1  0.667614  0.664800  0.335201  1
  Cu  Cu5  1  0.335200  0.332385  0.667616  1
  Si  Si6  1  0.830175  0.835528  0.164473  1
  Si  Si7  1  0.829809  0.337268  0.170597  1
  Si  Si8  1  0.662732  0.170191  0.337675  1
  Si  Si9  1  0.337673  0.829404  0.662733  1
  Si  Si10  1  0.170595  0.662327  0.829810  1
  Si  Si11  1  0.164472  0.169824  0.830177  1
