# generated using pymatgen
data_HoTm2Pa(Al3Rh)6
_symmetry_space_group_name_H-M   'P 1'
_cell_length_a   7.56393511
_cell_length_b   7.55868455
_cell_length_c   9.39308800
_cell_angle_alpha   90.00000000
_cell_angle_beta   90.00000000
_cell_angle_gamma   119.45007377
_symmetry_Int_Tables_number   1
_chemical_formula_structural   HoTm2Pa(Al3Rh)6
_chemical_formula_sum   'Ho1 Tm2 Pa1 Al18 Rh6'
_cell_volume   467.64152967
_cell_formula_units_Z   1
loop_
 _symmetry_equiv_pos_site_id
 _symmetry_equiv_pos_as_xyz
  1  'x, y, z'
loop_
 _atom_site_type_symbol
 _atom_site_label
 _atom_site_symmetry_multiplicity
 _atom_site_fract_x
 _atom_site_fract_y
 _atom_site_fract_z
 _atom_site_occupancy
  Ho  Ho0  1  0.673257  0.994428  0.250000  1
  Tm  Tm1  1  0.005269  0.328191  0.750000  1
  Tm  Tm2  1  0.328215  0.004647  0.750000  1
  Pa  Pa3  1  0.995528  0.672061  0.250000  1
  Al  Al4  1  0.131855  0.130271  0.250000  1
  Al  Al5  1  0.873728  0.875152  0.750000  1
  Al  Al6  1  0.000700  0.333123  0.074856  1
  Al  Al7  1  0.999678  0.664221  0.920006  1
  Al  Al8  1  0.999678  0.664221  0.579994  1
  Al  Al9  1  0.338719  0.003283  0.424847  1
  Al  Al10  1  0.000700  0.333123  0.425144  1
  Al  Al11  1  0.664573  0.000781  0.577410  1
  Al  Al12  1  0.664573  0.000781  0.922590  1
  Al  Al13  1  0.338719  0.003283  0.075153  1
  Al  Al14  1  0.331801  0.331942  0.555798  1
  Al  Al15  1  0.663729  0.665924  0.450870  1
  Al  Al16  1  0.663729  0.665924  0.049130  1
  Al  Al17  1  0.331801  0.331942  0.944202  1
  Al  Al18  1  0.339277  0.548454  0.250000  1
  Al  Al19  1  0.658907  0.447382  0.750000  1
  Al  Al20  1  0.548735  0.342301  0.250000  1
  Al  Al21  1  0.448807  0.660519  0.750000  1
  Rh  Rh22  1  0.673289  0.329063  0.001174  1
  Rh  Rh23  1  0.326059  0.672076  0.001295  1
  Rh  Rh24  1  0.326059  0.672076  0.498705  1
  Rh  Rh25  1  0.673289  0.329063  0.498826  1
  Rh  Rh26  1  0.999666  0.997885  0.002071  1
  Rh  Rh27  1  0.999666  0.997885  0.497929  1
