# generated using pymatgen
data_Hf6Fe16Si6Mo
_symmetry_space_group_name_H-M   'P 1'
_cell_length_a   8.09437802
_cell_length_b   8.09437731
_cell_length_c   8.09437800
_cell_angle_alpha   59.99999719
_cell_angle_beta   60.00000009
_cell_angle_gamma   59.99999481
_symmetry_Int_Tables_number   1
_chemical_formula_structural   Hf6Fe16Si6Mo
_chemical_formula_sum   'Hf6 Fe16 Si6 Mo1'
_cell_volume   375.00355560
_cell_formula_units_Z   1
loop_
 _symmetry_equiv_pos_site_id
 _symmetry_equiv_pos_as_xyz
  1  'x, y, z'
loop_
 _atom_site_type_symbol
 _atom_site_label
 _atom_site_symmetry_multiplicity
 _atom_site_fract_x
 _atom_site_fract_y
 _atom_site_fract_z
 _atom_site_occupancy
  Hf  Hf0  1  0.290605  0.709395  0.709395  1
  Hf  Hf1  1  0.709395  0.709395  0.290605  1
  Hf  Hf2  1  0.290605  0.290605  0.709395  1
  Hf  Hf3  1  0.709395  0.290605  0.290605  1
  Hf  Hf4  1  0.709395  0.290605  0.709395  1
  Hf  Hf5  1  0.290605  0.709395  0.290605  1
  Fe  Fe6  1  0.876462  0.876462  0.876462  1
  Fe  Fe7  1  0.027876  0.324041  0.324041  1
  Fe  Fe8  1  0.123538  0.123538  0.629384  1
  Fe  Fe9  1  0.324041  0.027876  0.324041  1
  Fe  Fe10  1  0.324041  0.324041  0.324041  1
  Fe  Fe11  1  0.675959  0.675959  0.972124  1
  Fe  Fe12  1  0.876462  0.876462  0.370616  1
  Fe  Fe13  1  0.675959  0.675959  0.675959  1
  Fe  Fe14  1  0.675959  0.972124  0.675959  1
  Fe  Fe15  1  0.324041  0.324041  0.027876  1
  Fe  Fe16  1  0.876462  0.370616  0.876462  1
  Fe  Fe17  1  0.629384  0.123538  0.123538  1
  Fe  Fe18  1  0.123538  0.629384  0.123538  1
  Fe  Fe19  1  0.123538  0.123538  0.123538  1
  Fe  Fe20  1  0.972124  0.675959  0.675959  1
  Fe  Fe21  1  0.370616  0.876462  0.876462  1
  Si  Si22  1  0.000000  0.000000  0.500000  1
  Si  Si23  1  0.000000  0.500000  0.000000  1
  Si  Si24  1  0.500000  0.000000  0.500000  1
  Si  Si25  1  0.000000  0.500000  0.500000  1
  Si  Si26  1  0.500000  0.000000  0.000000  1
  Si  Si27  1  0.500000  0.500000  0.000000  1
  Mo  Mo28  1  0.000000  0.000000  0.000000  1
