# generated using pymatgen
data_Th2CdCuPt
_symmetry_space_group_name_H-M   'P 1'
_cell_length_a   7.84737300
_cell_length_b   7.85378800
_cell_length_c   3.86579700
_cell_angle_alpha   90.00000000
_cell_angle_beta   90.00000000
_cell_angle_gamma   90.00000000
_symmetry_Int_Tables_number   1
_chemical_formula_structural   Th2CdCuPt
_chemical_formula_sum   'Th4 Cd2 Cu2 Pt2'
_cell_volume   238.25526946
_cell_formula_units_Z   2
loop_
 _symmetry_equiv_pos_site_id
 _symmetry_equiv_pos_as_xyz
  1  'x, y, z'
loop_
 _atom_site_type_symbol
 _atom_site_label
 _atom_site_symmetry_multiplicity
 _atom_site_fract_x
 _atom_site_fract_y
 _atom_site_fract_z
 _atom_site_occupancy
  Th  Th0  1  0.326686  0.169715  0.500001  1
  Th  Th1  1  0.826686  0.330285  0.500001  1
  Th  Th2  1  0.172448  0.677018  0.500001  1
  Th  Th3  1  0.672448  0.822982  0.500001  1
  Cd  Cd4  1  0.994867  0.006995  0.000000  1
  Cd  Cd5  1  0.494867  0.493005  0.000000  1
  Cu  Cu6  1  0.628641  0.127472  0.000000  1
  Cu  Cu7  1  0.128641  0.372528  0.000000  1
  Pt  Pt8  1  0.877357  0.621080  0.000000  1
  Pt  Pt9  1  0.377357  0.878920  0.000000  1
