# generated using pymatgen
data_Sc8Cr11Si16Os
_symmetry_space_group_name_H-M   'P 1'
_cell_length_a   6.52401486
_cell_length_b   6.52401556
_cell_length_c   12.06115010
_cell_angle_alpha   90.04157460
_cell_angle_beta   89.95842722
_cell_angle_gamma   89.70918342
_symmetry_Int_Tables_number   1
_chemical_formula_structural   Sc8Cr11Si16Os
_chemical_formula_sum   'Sc8 Cr11 Si16 Os1'
_cell_volume   513.34912722
_cell_formula_units_Z   1
loop_
 _symmetry_equiv_pos_site_id
 _symmetry_equiv_pos_as_xyz
  1  'x, y, z'
loop_
 _atom_site_type_symbol
 _atom_site_label
 _atom_site_symmetry_multiplicity
 _atom_site_fract_x
 _atom_site_fract_y
 _atom_site_fract_z
 _atom_site_occupancy
  Sc  Sc0  1  0.001416  0.662392  0.028687  1
  Sc  Sc1  1  0.836628  0.500476  0.279456  1
  Sc  Sc2  1  0.162154  0.498020  0.778672  1
  Sc  Sc3  1  0.500476  0.836628  0.720544  1
  Sc  Sc4  1  0.498020  0.162154  0.221328  1
  Sc  Sc5  1  0.998756  0.338241  0.528795  1
  Sc  Sc6  1  0.662392  0.001416  0.971313  1
  Sc  Sc7  1  0.338241  0.998756  0.471205  1
  Cr  Cr8  1  0.168482  0.832741  0.249076  1
  Cr  Cr9  1  0.832741  0.168482  0.750924  1
  Cr  Cr10  1  0.667904  0.667904  0.500000  1
  Cr  Cr11  1  0.989867  0.164913  0.128038  1
  Cr  Cr12  1  0.335207  0.496287  0.375291  1
  Cr  Cr13  1  0.672551  0.505042  0.874978  1
  Cr  Cr14  1  0.496287  0.335207  0.624709  1
  Cr  Cr15  1  0.505042  0.672551  0.125022  1
  Cr  Cr16  1  0.003261  0.834388  0.626046  1
  Cr  Cr17  1  0.164913  0.989867  0.871962  1
  Cr  Cr18  1  0.834388  0.003261  0.373954  1
  Si  Si19  1  0.283578  0.965279  0.064890  1
  Si  Si20  1  0.534008  0.787718  0.316510  1
  Si  Si21  1  0.467298  0.211635  0.814733  1
  Si  Si22  1  0.787718  0.534008  0.683490  1
  Si  Si23  1  0.211635  0.467298  0.185267  1
  Si  Si24  1  0.712815  0.034336  0.565881  1
  Si  Si25  1  0.965279  0.283578  0.935110  1
  Si  Si26  1  0.034336  0.712815  0.434119  1
  Si  Si27  1  0.698077  0.379732  0.067297  1
  Si  Si28  1  0.124294  0.197347  0.316882  1
  Si  Si29  1  0.875458  0.801341  0.815739  1
  Si  Si30  1  0.197347  0.124294  0.683118  1
  Si  Si31  1  0.801341  0.875458  0.184261  1
  Si  Si32  1  0.302270  0.624274  0.566236  1
  Si  Si33  1  0.379732  0.698077  0.932703  1
  Si  Si34  1  0.624274  0.302270  0.433764  1
  Os  Os35  1  0.331813  0.331813  0.000000  1
