# generated using pymatgen
data_Y5Tm15Cd6CoRu
_symmetry_space_group_name_H-M   'P 1'
_cell_length_a   9.50351701
_cell_length_b   9.50351723
_cell_length_c   9.67226500
_cell_angle_alpha   90.00000000
_cell_angle_beta   90.00000000
_cell_angle_gamma   119.99489759
_symmetry_Int_Tables_number   1
_chemical_formula_structural   Y5Tm15Cd6CoRu
_chemical_formula_sum   'Y5 Tm15 Cd6 Co1 Ru1'
_cell_volume   756.57130991
_cell_formula_units_Z   1
loop_
 _symmetry_equiv_pos_site_id
 _symmetry_equiv_pos_as_xyz
  1  'x, y, z'
loop_
 _atom_site_type_symbol
 _atom_site_label
 _atom_site_symmetry_multiplicity
 _atom_site_fract_x
 _atom_site_fract_y
 _atom_site_fract_z
 _atom_site_occupancy
  Y  Y0  1  0.541157  0.082785  0.250000  1
  Y  Y1  1  0.917215  0.458843  0.250000  1
  Y  Y2  1  0.458734  0.541266  0.750000  1
  Y  Y3  1  0.458774  0.917580  0.750000  1
  Y  Y4  1  0.082420  0.541226  0.750000  1
  Tm  Tm5  1  0.000014  0.999986  0.499783  1
  Tm  Tm6  1  0.000014  0.999986  0.000217  1
  Tm  Tm7  1  0.212040  0.787960  0.436034  1
  Tm  Tm8  1  0.212506  0.424067  0.435857  1
  Tm  Tm9  1  0.575933  0.787494  0.435857  1
  Tm  Tm10  1  0.790681  0.209319  0.559768  1
  Tm  Tm11  1  0.790358  0.581262  0.559523  1
  Tm  Tm12  1  0.418738  0.209642  0.559523  1
  Tm  Tm13  1  0.790681  0.209319  0.940232  1
  Tm  Tm14  1  0.790358  0.581262  0.940477  1
  Tm  Tm15  1  0.418738  0.209642  0.940477  1
  Tm  Tm16  1  0.212040  0.787960  0.063966  1
  Tm  Tm17  1  0.212506  0.424067  0.064143  1
  Tm  Tm18  1  0.575933  0.787494  0.064143  1
  Tm  Tm19  1  0.541008  0.458992  0.250000  1
  Cd  Cd20  1  0.885694  0.114306  0.250000  1
  Cd  Cd21  1  0.885091  0.770850  0.250000  1
  Cd  Cd22  1  0.229150  0.114909  0.250000  1
  Cd  Cd23  1  0.114248  0.885752  0.750000  1
  Cd  Cd24  1  0.114350  0.228555  0.750000  1
  Cd  Cd25  1  0.771445  0.885650  0.750000  1
  Co  Co26  1  0.333419  0.666581  0.250000  1
  Ru  Ru27  1  0.666753  0.333247  0.750000  1
