# generated using pymatgen
data_Tm4GaTc4Ru3
_symmetry_space_group_name_H-M   'P 1'
_cell_length_a   5.24541642
_cell_length_b   5.25543509
_cell_length_c   8.99014600
_cell_angle_alpha   90.00000000
_cell_angle_beta   90.00000000
_cell_angle_gamma   119.45982268
_symmetry_Int_Tables_number   1
_chemical_formula_structural   Tm4GaTc4Ru3
_chemical_formula_sum   'Tm4 Ga1 Tc4 Ru3'
_cell_volume   215.78652799
_cell_formula_units_Z   1
loop_
 _symmetry_equiv_pos_site_id
 _symmetry_equiv_pos_as_xyz
  1  'x, y, z'
loop_
 _atom_site_type_symbol
 _atom_site_label
 _atom_site_symmetry_multiplicity
 _atom_site_fract_x
 _atom_site_fract_y
 _atom_site_fract_z
 _atom_site_occupancy
  Tm  Tm0  1  0.664100  0.331054  0.563563  1
  Tm  Tm1  1  0.333316  0.669829  0.438041  1
  Tm  Tm2  1  0.333316  0.669829  0.061959  1
  Tm  Tm3  1  0.664100  0.331054  0.936437  1
  Ga  Ga4  1  0.836312  0.662839  0.250000  1
  Tc  Tc5  1  0.163866  0.332197  0.750000  1
  Tc  Tc6  1  0.170460  0.824103  0.750000  1
  Tc  Tc7  1  0.656288  0.824797  0.750000  1
  Tc  Tc8  1  0.833894  0.165316  0.250000  1
  Ru  Ru9  1  0.995902  0.012198  0.497047  1
  Ru  Ru10  1  0.995902  0.012198  0.002953  1
  Ru  Ru11  1  0.352545  0.164586  0.250000  1
