# generated using pymatgen
data_CePr5Al24(Os3Ru)2
_symmetry_space_group_name_H-M   'P 1'
_cell_length_a   8.88837400
_cell_length_b   8.92669594
_cell_length_c   9.69913900
_cell_angle_alpha   90.00000000
_cell_angle_beta   90.00000000
_cell_angle_gamma   119.85808399
_symmetry_Int_Tables_number   1
_chemical_formula_structural   CePr5Al24(Os3Ru)2
_chemical_formula_sum   'Ce1 Pr5 Al24 Os6 Ru2'
_cell_volume   667.41530422
_cell_formula_units_Z   1
loop_
 _symmetry_equiv_pos_site_id
 _symmetry_equiv_pos_as_xyz
  1  'x, y, z'
loop_
 _atom_site_type_symbol
 _atom_site_label
 _atom_site_symmetry_multiplicity
 _atom_site_fract_x
 _atom_site_fract_y
 _atom_site_fract_z
 _atom_site_occupancy
  Ce  Ce0  1  0.195145  0.390290  0.250000  1
  Pr  Pr1  1  0.808121  0.616242  0.750000  1
  Pr  Pr2  1  0.616547  0.808127  0.250000  1
  Pr  Pr3  1  0.384014  0.190867  0.750000  1
  Pr  Pr4  1  0.191580  0.808127  0.250000  1
  Pr  Pr5  1  0.806853  0.190867  0.750000  1
  Al  Al6  1  0.334106  0.668213  0.010156  1
  Al  Al7  1  0.666476  0.332950  0.990349  1
  Al  Al8  1  0.666476  0.332950  0.509651  1
  Al  Al9  1  0.334106  0.668213  0.489844  1
  Al  Al10  1  0.162992  0.325984  0.573000  1
  Al  Al11  1  0.836738  0.673476  0.425473  1
  Al  Al12  1  0.672923  0.836076  0.573799  1
  Al  Al13  1  0.836738  0.673476  0.074527  1
  Al  Al14  1  0.325538  0.163240  0.424692  1
  Al  Al15  1  0.162992  0.325984  0.927000  1
  Al  Al16  1  0.163154  0.836076  0.573799  1
  Al  Al17  1  0.325538  0.163240  0.075308  1
  Al  Al18  1  0.837700  0.163240  0.424692  1
  Al  Al19  1  0.672923  0.836076  0.926201  1
  Al  Al20  1  0.837700  0.163240  0.075308  1
  Al  Al21  1  0.163154  0.836076  0.926201  1
  Al  Al22  1  0.562246  0.124492  0.250000  1
  Al  Al23  1  0.437134  0.874268  0.750000  1
  Al  Al24  1  0.875255  0.437452  0.250000  1
  Al  Al25  1  0.123732  0.561260  0.750000  1
  Al  Al26  1  0.562197  0.437452  0.250000  1
  Al  Al27  1  0.437528  0.561260  0.750000  1
  Al  Al28  1  0.003346  0.006692  0.250000  1
  Al  Al29  1  0.999327  0.998654  0.750000  1
  Os  Os30  1  0.500128  0.000256  0.000190  1
  Os  Os31  1  0.001570  0.499198  0.002714  1
  Os  Os32  1  0.500128  0.000256  0.499810  1
  Os  Os33  1  0.497627  0.499198  0.002714  1
  Os  Os34  1  0.001570  0.499198  0.497286  1
  Os  Os35  1  0.497627  0.499198  0.497286  1
  Ru  Ru36  1  0.999535  0.999069  0.999886  1
  Ru  Ru37  1  0.999535  0.999069  0.500114  1
