# generated using pymatgen
data_SmTa6PbSe12
_symmetry_space_group_name_H-M   'P 1'
_cell_length_a   6.09863500
_cell_length_b   6.09863366
_cell_length_c   15.20847400
_cell_angle_alpha   90.00000000
_cell_angle_beta   90.00000000
_cell_angle_gamma   120.00001270
_symmetry_Int_Tables_number   1
_chemical_formula_structural   SmTa6PbSe12
_chemical_formula_sum   'Sm1 Ta6 Pb1 Se12'
_cell_volume   489.87063179
_cell_formula_units_Z   1
loop_
 _symmetry_equiv_pos_site_id
 _symmetry_equiv_pos_as_xyz
  1  'x, y, z'
loop_
 _atom_site_type_symbol
 _atom_site_label
 _atom_site_symmetry_multiplicity
 _atom_site_fract_x
 _atom_site_fract_y
 _atom_site_fract_z
 _atom_site_occupancy
  Sm  Sm0  1  0.000000  0.000000  0.000000  1
  Ta  Ta1  1  0.333333  0.666667  0.241349  1
  Ta  Ta2  1  0.666667  0.333333  0.758651  1
  Ta  Ta3  1  0.666667  0.333333  0.241349  1
  Ta  Ta4  1  0.333333  0.666667  0.758651  1
  Ta  Ta5  1  0.000000  0.000000  0.240054  1
  Ta  Ta6  1  0.000000  0.000000  0.759946  1
  Pb  Pb7  1  0.000000  0.000000  0.500000  1
  Se  Se8  1  0.341019  0.000000  0.131494  1
  Se  Se9  1  0.000000  0.341019  0.131494  1
  Se  Se10  1  0.658981  0.658981  0.131494  1
  Se  Se11  1  0.337403  0.337403  0.649930  1
  Se  Se12  1  0.662597  0.662597  0.350070  1
  Se  Se13  1  0.662597  0.000000  0.649930  1
  Se  Se14  1  0.000000  0.662597  0.649930  1
  Se  Se15  1  0.000000  0.658981  0.868506  1
  Se  Se16  1  0.341019  0.341019  0.868506  1
  Se  Se17  1  0.000000  0.337403  0.350070  1
  Se  Se18  1  0.337403  0.000000  0.350070  1
  Se  Se19  1  0.658981  0.000000  0.868506  1
