# generated using pymatgen
data_RbY2CuSe4
_symmetry_space_group_name_H-M   'P 1'
_cell_length_a   7.45004186
_cell_length_b   7.45004075
_cell_length_c   14.42476100
_cell_angle_alpha   90.00000000
_cell_angle_beta   90.00000000
_cell_angle_gamma   147.63771877
_symmetry_Int_Tables_number   1
_chemical_formula_structural   RbY2CuSe4
_chemical_formula_sum   'Rb2 Y4 Cu2 Se8'
_cell_volume   428.54810115
_cell_formula_units_Z   2
loop_
 _symmetry_equiv_pos_site_id
 _symmetry_equiv_pos_as_xyz
  1  'x, y, z'
loop_
 _atom_site_type_symbol
 _atom_site_label
 _atom_site_symmetry_multiplicity
 _atom_site_fract_x
 _atom_site_fract_y
 _atom_site_fract_z
 _atom_site_occupancy
  Rb  Rb0  1  0.109685  0.890315  0.250000  1
  Rb  Rb1  1  0.890315  0.109685  0.750000  1
  Y  Y2  1  0.634612  0.365388  0.936445  1
  Y  Y3  1  0.365388  0.634612  0.436445  1
  Y  Y4  1  0.634612  0.365388  0.563555  1
  Y  Y5  1  0.365388  0.634612  0.063555  1
  Cu  Cu6  1  0.162088  0.837912  0.750000  1
  Cu  Cu7  1  0.837912  0.162088  0.250000  1
  Se  Se8  1  0.000000  0.000000  0.500000  1
  Se  Se9  1  0.000000  0.000000  0.000000  1
  Se  Se10  1  0.737451  0.262549  0.109992  1
  Se  Se11  1  0.262549  0.737451  0.890008  1
  Se  Se12  1  0.569703  0.430297  0.750000  1
  Se  Se13  1  0.737451  0.262549  0.390008  1
  Se  Se14  1  0.430297  0.569703  0.250000  1
  Se  Se15  1  0.262549  0.737451  0.609992  1
