# generated using pymatgen
data_Na4ScP12Ir15Ru4
_symmetry_space_group_name_H-M   'P 1'
_cell_length_a   12.62828268
_cell_length_b   12.55560666
_cell_length_c   3.94880300
_cell_angle_alpha   90.00000000
_cell_angle_beta   90.00000000
_cell_angle_gamma   119.96879720
_symmetry_Int_Tables_number   1
_chemical_formula_structural   Na4ScP12Ir15Ru4
_chemical_formula_sum   'Na4 Sc1 P12 Ir15 Ru4'
_cell_volume   542.39360621
_cell_formula_units_Z   1
loop_
 _symmetry_equiv_pos_site_id
 _symmetry_equiv_pos_as_xyz
  1  'x, y, z'
loop_
 _atom_site_type_symbol
 _atom_site_label
 _atom_site_symmetry_multiplicity
 _atom_site_fract_x
 _atom_site_fract_y
 _atom_site_fract_z
 _atom_site_occupancy
  Na  Na0  1  0.332726  0.665478  0.000000  1
  Na  Na1  1  0.822045  0.001116  0.500000  1
  Na  Na2  1  0.000185  0.821425  0.500000  1
  Na  Na3  1  0.179180  0.179801  0.500000  1
  Sc  Sc4  1  0.666537  0.333142  0.000000  1
  P  P5  1  0.179298  0.000681  0.000000  1
  P  P6  1  0.002846  0.182897  0.000000  1
  P  P7  1  0.821351  0.821991  0.000000  1
  P  P8  1  0.172208  0.482742  0.500000  1
  P  P9  1  0.514700  0.685082  0.500000  1
  P  P10  1  0.313487  0.827201  0.500000  1
  P  P11  1  0.689659  0.517826  0.500000  1
  P  P12  1  0.827460  0.310269  0.500000  1
  P  P13  1  0.482488  0.171421  0.500000  1
  P  P14  1  0.635945  0.996556  0.000000  1
  P  P15  1  0.003726  0.639672  0.000000  1
  P  P16  1  0.358291  0.365038  0.000000  1
  Ir  Ir17  1  0.361000  0.484730  0.500000  1
  Ir  Ir18  1  0.513010  0.872454  0.500000  1
  Ir  Ir19  1  0.126174  0.638910  0.500000  1
  Ir  Ir20  1  0.864272  0.503581  0.500000  1
  Ir  Ir21  1  0.638102  0.134822  0.500000  1
  Ir  Ir22  1  0.498198  0.361342  0.500000  1
  Ir  Ir23  1  0.621276  0.801156  0.000000  1
  Ir  Ir24  1  0.199179  0.819867  0.000000  1
  Ir  Ir25  1  0.806453  0.622401  0.000000  1
  Ir  Ir26  1  0.814237  0.194330  0.000000  1
  Ir  Ir27  1  0.379668  0.185081  0.000000  1
  Ir  Ir28  1  0.289203  0.000794  0.500000  1
  Ir  Ir29  1  0.996695  0.286904  0.500000  1
  Ir  Ir30  1  0.712074  0.711637  0.500000  1
  Ir  Ir31  1  0.000695  0.000886  0.000000  1
  Ru  Ru32  1  0.457309  0.002684  0.000000  1
  Ru  Ru33  1  0.994018  0.452979  0.000000  1
  Ru  Ru34  1  0.547366  0.541607  0.000000  1
  Ru  Ru35  1  0.178943  0.381496  0.000000  1
