# generated using pymatgen
data_Tb7Sm(Ho3Pb4)4
_symmetry_space_group_name_H-M   'P 1'
_cell_length_a   8.21159885
_cell_length_b   8.29428426
_cell_length_c   15.64786474
_cell_angle_alpha   89.97764077
_cell_angle_beta   89.95080753
_cell_angle_gamma   90.01767766
_symmetry_Int_Tables_number   1
_chemical_formula_structural   Tb7Sm(Ho3Pb4)4
_chemical_formula_sum   'Tb7 Sm1 Ho12 Pb16'
_cell_volume   1065.76513838
_cell_formula_units_Z   1
loop_
 _symmetry_equiv_pos_site_id
 _symmetry_equiv_pos_as_xyz
  1  'x, y, z'
loop_
 _atom_site_type_symbol
 _atom_site_label
 _atom_site_symmetry_multiplicity
 _atom_site_fract_x
 _atom_site_fract_y
 _atom_site_fract_z
 _atom_site_occupancy
  Tb  Tb0  1  0.034241  0.177007  0.600015  1
  Tb  Tb1  1  0.465766  0.677056  0.399912  1
  Tb  Tb2  1  0.965836  0.822872  0.100070  1
  Tb  Tb3  1  0.465819  0.677137  0.100143  1
  Tb  Tb4  1  0.965774  0.822955  0.399917  1
  Tb  Tb5  1  0.534235  0.322887  0.600130  1
  Tb  Tb6  1  0.034207  0.176954  0.899926  1
  Sm  Sm7  1  0.533943  0.322775  0.900152  1
  Ho  Ho8  1  0.376534  0.840667  0.879405  1
  Ho  Ho9  1  0.876643  0.659260  0.620608  1
  Ho  Ho10  1  0.623387  0.159247  0.379346  1
  Ho  Ho11  1  0.123468  0.340860  0.120630  1
  Ho  Ho12  1  0.623485  0.159118  0.120789  1
  Ho  Ho13  1  0.123386  0.340784  0.379357  1
  Ho  Ho14  1  0.376615  0.840735  0.620571  1
  Ho  Ho15  1  0.876750  0.659445  0.879409  1
  Ho  Ho16  1  0.208045  0.504415  0.749892  1
  Ho  Ho17  1  0.708383  0.995634  0.749934  1
  Ho  Ho18  1  0.791733  0.495772  0.249962  1
  Ho  Ho19  1  0.291721  0.004223  0.249988  1
  Pb  Pb20  1  0.281971  0.033679  0.042755  1
  Pb  Pb21  1  0.781997  0.466309  0.457229  1
  Pb  Pb22  1  0.718045  0.966334  0.542731  1
  Pb  Pb23  1  0.217256  0.534250  0.957405  1
  Pb  Pb24  1  0.718357  0.965809  0.957338  1
  Pb  Pb25  1  0.218047  0.533649  0.542746  1
  Pb  Pb26  1  0.281974  0.033693  0.457210  1
  Pb  Pb27  1  0.782573  0.466750  0.043127  1
  Pb  Pb28  1  0.571835  0.627446  0.749947  1
  Pb  Pb29  1  0.071792  0.872878  0.749998  1
  Pb  Pb30  1  0.428216  0.372842  0.249990  1
  Pb  Pb31  1  0.928211  0.127109  0.249966  1
  Pb  Pb32  1  0.344468  0.151198  0.749567  1
  Pb  Pb33  1  0.845329  0.348248  0.749859  1
  Pb  Pb34  1  0.654979  0.848218  0.249994  1
  Pb  Pb35  1  0.154977  0.651786  0.249982  1
