# generated using pymatgen
data_Tc3(TeI)7
_symmetry_space_group_name_H-M   'P 1'
_cell_length_a   11.10404338
_cell_length_b   11.17071448
_cell_length_c   12.41180104
_cell_angle_alpha   86.69936345
_cell_angle_beta   104.96633476
_cell_angle_gamma   118.02943117
_symmetry_Int_Tables_number   1
_chemical_formula_structural   Tc3(TeI)7
_chemical_formula_sum   'Tc6 Te14 I14'
_cell_volume   1309.20293652
_cell_formula_units_Z   2
loop_
 _symmetry_equiv_pos_site_id
 _symmetry_equiv_pos_as_xyz
  1  'x, y, z'
loop_
 _atom_site_type_symbol
 _atom_site_label
 _atom_site_symmetry_multiplicity
 _atom_site_fract_x
 _atom_site_fract_y
 _atom_site_fract_z
 _atom_site_occupancy
  Tc  Tc0  1  0.938058  0.118247  0.911736  1
  Tc  Tc1  1  0.061942  0.881753  0.088264  1
  Tc  Tc2  1  0.843769  0.845174  0.907654  1
  Tc  Tc3  1  0.156231  0.154826  0.092346  1
  Tc  Tc4  1  0.114409  0.015986  0.901715  1
  Tc  Tc5  1  0.885591  0.984014  0.098285  1
  Te  Te6  1  0.847462  0.286598  0.799910  1
  Te  Te7  1  0.152538  0.713402  0.200090  1
  Te  Te8  1  0.624891  0.617371  0.796602  1
  Te  Te9  1  0.375109  0.382629  0.203398  1
  Te  Te10  1  0.291520  0.043038  0.778457  1
  Te  Te11  1  0.708480  0.956962  0.221543  1
  Te  Te12  1  0.670788  0.948179  0.918024  1
  Te  Te13  1  0.329212  0.051821  0.081976  1
  Te  Te14  1  0.019537  0.744783  0.898016  1
  Te  Te15  1  0.980463  0.255217  0.101984  1
  Te  Te16  1  0.898107  0.979247  0.724972  1
  Te  Te17  1  0.101893  0.020753  0.275028  1
  Te  Te18  1  0.206583  0.286253  0.905587  1
  Te  Te19  1  0.793417  0.713747  0.094413  1
  I  I20  1  0.392649  0.875823  0.369355  1
  I  I21  1  0.607351  0.124177  0.630645  1
  I  I22  1  0.982956  0.596114  0.356265  1
  I  I23  1  0.017044  0.403886  0.643735  1
  I  I24  1  0.359219  0.690502  0.057424  1
  I  I25  1  0.640781  0.309498  0.942576  1
  I  I26  1  0.703325  0.547772  0.622745  1
  I  I27  1  0.296675  0.452228  0.377255  1
  I  I28  1  0.144142  0.827613  0.610402  1
  I  I29  1  0.855858  0.172387  0.389598  1
  I  I30  1  0.288757  0.232326  0.622811  1
  I  I31  1  0.711243  0.767674  0.377189  1
  I  I32  1  0.432193  0.692006  0.657795  1
  I  I33  1  0.567807  0.307994  0.342205  1
