# generated using pymatgen
data_Nd19LuSi15Br
_symmetry_space_group_name_H-M   'P 1'
_cell_length_a   7.81732318
_cell_length_b   7.90866131
_cell_length_c   15.19094408
_cell_angle_alpha   89.56243363
_cell_angle_beta   84.98780280
_cell_angle_gamma   89.82816010
_symmetry_Int_Tables_number   1
_chemical_formula_structural   Nd19LuSi15Br
_chemical_formula_sum   'Nd19 Lu1 Si15 Br1'
_cell_volume   935.55232353
_cell_formula_units_Z   1
loop_
 _symmetry_equiv_pos_site_id
 _symmetry_equiv_pos_as_xyz
  1  'x, y, z'
loop_
 _atom_site_type_symbol
 _atom_site_label
 _atom_site_symmetry_multiplicity
 _atom_site_fract_x
 _atom_site_fract_y
 _atom_site_fract_z
 _atom_site_occupancy
  Nd  Nd0  1  0.867370  0.331949  0.621278  1
  Nd  Nd1  1  0.467252  0.689482  0.895381  1
  Nd  Nd2  1  0.966239  0.812390  0.896381  1
  Nd  Nd3  1  0.178656  0.677092  0.120183  1
  Nd  Nd4  1  0.679105  0.817235  0.120969  1
  Nd  Nd5  1  0.321604  0.179673  0.879618  1
  Nd  Nd6  1  0.143086  0.666265  0.384557  1
  Nd  Nd7  1  0.034223  0.186479  0.103015  1
  Nd  Nd8  1  0.363554  0.169628  0.616854  1
  Nd  Nd9  1  0.833946  0.491635  0.243781  1
  Nd  Nd10  1  0.331946  0.003872  0.251515  1
  Nd  Nd11  1  0.481848  0.308597  0.395048  1
  Nd  Nd12  1  0.823614  0.322265  0.878408  1
  Nd  Nd13  1  0.016597  0.831883  0.606640  1
  Nd  Nd14  1  0.496423  0.691452  0.607392  1
  Nd  Nd15  1  0.994189  0.168094  0.395554  1
  Nd  Nd16  1  0.632554  0.842078  0.382506  1
  Nd  Nd17  1  0.667275  0.995710  0.745852  1
  Nd  Nd18  1  0.534832  0.309471  0.103111  1
  Lu  Lu19  1  0.171860  0.510229  0.746987  1
  Si  Si20  1  0.451890  0.601340  0.252913  1
  Si  Si21  1  0.221205  0.375571  0.249814  1
  Si  Si22  1  0.544765  0.400498  0.751029  1
  Si  Si23  1  0.637924  0.025178  0.957279  1
  Si  Si24  1  0.047776  0.107255  0.752301  1
  Si  Si25  1  0.781328  0.623057  0.751202  1
  Si  Si26  1  0.721834  0.120903  0.249025  1
  Si  Si27  1  0.289129  0.970103  0.455522  1
  Si  Si28  1  0.951913  0.893596  0.250312  1
  Si  Si29  1  0.365909  0.972911  0.042349  1
  Si  Si30  1  0.716634  0.030530  0.542408  1
  Si  Si31  1  0.137908  0.477092  0.954271  1
  Si  Si32  1  0.208028  0.480394  0.551306  1
  Si  Si33  1  0.865595  0.523294  0.041515  1
  Si  Si34  1  0.274889  0.874913  0.752316  1
  Br  Br35  1  0.777099  0.517883  0.451409  1
