# generated using pymatgen
data_SmY3Th6(Sn3C)2
_symmetry_space_group_name_H-M   'P 1'
_cell_length_a   9.24838800
_cell_length_b   9.24838631
_cell_length_c   6.52228700
_cell_angle_alpha   90.00000000
_cell_angle_beta   90.00000000
_cell_angle_gamma   120.00000605
_symmetry_Int_Tables_number   1
_chemical_formula_structural   SmY3Th6(Sn3C)2
_chemical_formula_sum   'Sm1 Y3 Th6 Sn6 C2'
_cell_volume   483.12834041
_cell_formula_units_Z   1
loop_
 _symmetry_equiv_pos_site_id
 _symmetry_equiv_pos_as_xyz
  1  'x, y, z'
loop_
 _atom_site_type_symbol
 _atom_site_label
 _atom_site_symmetry_multiplicity
 _atom_site_fract_x
 _atom_site_fract_y
 _atom_site_fract_z
 _atom_site_occupancy
  Sm  Sm0  1  0.666667  0.333333  0.000000  1
  Y  Y1  1  0.666667  0.333333  0.500000  1
  Y  Y2  1  0.333333  0.666667  0.500000  1
  Y  Y3  1  0.333333  0.666667  0.000000  1
  Th  Th4  1  0.777714  0.777544  0.250189  1
  Th  Th5  1  0.222456  0.000169  0.250189  1
  Th  Th6  1  0.999831  0.222286  0.250189  1
  Th  Th7  1  0.222456  0.222286  0.749811  1
  Th  Th8  1  0.777714  0.000169  0.749811  1
  Th  Th9  1  0.999831  0.777544  0.749811  1
  Sn  Sn10  1  0.404415  0.406322  0.251884  1
  Sn  Sn11  1  0.593678  0.998092  0.251884  1
  Sn  Sn12  1  0.001908  0.595585  0.251884  1
  Sn  Sn13  1  0.593678  0.595585  0.748116  1
  Sn  Sn14  1  0.404415  0.998092  0.748116  1
  Sn  Sn15  1  0.001908  0.406322  0.748116  1
  C  C16  1  0.000000  0.000000  0.500000  1
  C  C17  1  0.000000  0.000000  0.000000  1
