# generated using pymatgen
data_Er3MgZn(InAu)2
_symmetry_space_group_name_H-M   'P 1'
_cell_length_a   7.76047709
_cell_length_b   7.74229685
_cell_length_c   3.89367500
_cell_angle_alpha   90.00000000
_cell_angle_beta   90.00000000
_cell_angle_gamma   119.92253367
_symmetry_Int_Tables_number   1
_chemical_formula_structural   Er3MgZn(InAu)2
_chemical_formula_sum   'Er3 Mg1 Zn1 In2 Au2'
_cell_volume   202.76222699
_cell_formula_units_Z   1
loop_
 _symmetry_equiv_pos_site_id
 _symmetry_equiv_pos_as_xyz
  1  'x, y, z'
loop_
 _atom_site_type_symbol
 _atom_site_label
 _atom_site_symmetry_multiplicity
 _atom_site_fract_x
 _atom_site_fract_y
 _atom_site_fract_z
 _atom_site_occupancy
  Er  Er0  1  0.593459  0.998580  0.500000  1
  Er  Er1  1  0.406541  0.405121  0.500000  1
  Er  Er2  1  0.000000  0.595055  0.500000  1
  Mg  Mg3  1  0.000000  0.254997  0.000000  1
  Zn  Zn4  1  0.000000  0.007792  0.500000  1
  In  In5  1  0.744988  0.747234  0.000000  1
  In  In6  1  0.255012  0.002246  0.000000  1
  Au  Au7  1  0.675185  0.332080  0.000000  1
  Au  Au8  1  0.324815  0.656896  0.000000  1
