# generated using pymatgen
data_Ca9Yb7(CN4)4
_symmetry_space_group_name_H-M   'P 1'
_cell_length_a   11.36728116
_cell_length_b   3.53836200
_cell_length_c   13.96298121
_cell_angle_alpha   90.00000000
_cell_angle_beta   89.98032570
_cell_angle_gamma   90.00000000
_symmetry_Int_Tables_number   1
_chemical_formula_structural   Ca9Yb7(CN4)4
_chemical_formula_sum   'Ca9 Yb7 C4 N16'
_cell_volume   561.61279357
_cell_formula_units_Z   1
loop_
 _symmetry_equiv_pos_site_id
 _symmetry_equiv_pos_as_xyz
  1  'x, y, z'
loop_
 _atom_site_type_symbol
 _atom_site_label
 _atom_site_symmetry_multiplicity
 _atom_site_fract_x
 _atom_site_fract_y
 _atom_site_fract_z
 _atom_site_occupancy
  Ca  Ca0  1  0.117008  0.250000  0.170668  1
  Ca  Ca1  1  0.617125  0.250000  0.329713  1
  Ca  Ca2  1  0.882622  0.750000  0.829980  1
  Ca  Ca3  1  0.381943  0.750000  0.668532  1
  Ca  Ca4  1  0.879088  0.250000  0.042582  1
  Ca  Ca5  1  0.378868  0.250000  0.457116  1
  Ca  Ca6  1  0.120620  0.750000  0.958048  1
  Ca  Ca7  1  0.620958  0.750000  0.541810  1
  Ca  Ca8  1  0.375175  0.250000  0.880985  1
  Yb  Yb9  1  0.875104  0.250000  0.616827  1
  Yb  Yb10  1  0.625050  0.750000  0.117883  1
  Yb  Yb11  1  0.124753  0.750000  0.382736  1
  Yb  Yb12  1  0.136139  0.250000  0.758566  1
  Yb  Yb13  1  0.637181  0.250000  0.740571  1
  Yb  Yb14  1  0.863106  0.750000  0.241403  1
  Yb  Yb15  1  0.362973  0.750000  0.258801  1
  C  C16  1  0.364097  0.250000  0.087383  1
  C  C17  1  0.863545  0.250000  0.414008  1
  C  C18  1  0.637649  0.750000  0.914950  1
  C  C19  1  0.136114  0.750000  0.585232  1
  N  N20  1  0.735722  0.250000  0.186752  1
  N  N21  1  0.235457  0.250000  0.313816  1
  N  N22  1  0.262838  0.750000  0.812197  1
  N  N23  1  0.764503  0.750000  0.686235  1
  N  N24  1  0.000423  0.250000  0.882385  1
  N  N25  1  0.500625  0.250000  0.617481  1
  N  N26  1  0.999243  0.750000  0.118142  1
  N  N27  1  0.499221  0.750000  0.382051  1
  N  N28  1  0.271523  0.250000  0.040039  1
  N  N29  1  0.771049  0.250000  0.461578  1
  N  N30  1  0.729819  0.750000  0.962755  1
  N  N31  1  0.228579  0.750000  0.537650  1
  N  N32  1  0.456966  0.250000  0.134566  1
  N  N33  1  0.956450  0.250000  0.366976  1
  N  N34  1  0.545265  0.750000  0.867329  1
  N  N35  1  0.043198  0.750000  0.632251  1
