# generated using pymatgen
data_La6Nd4Sn20Ir3Pd5
_symmetry_space_group_name_H-M   'P 1'
_cell_length_a   14.30148265
_cell_length_b   14.30123704
_cell_length_c   4.70890800
_cell_angle_alpha   90.00000000
_cell_angle_beta   90.00000000
_cell_angle_gamma   90.02151381
_symmetry_Int_Tables_number   1
_chemical_formula_structural   La6Nd4Sn20Ir3Pd5
_chemical_formula_sum   'La6 Nd4 Sn20 Ir3 Pd5'
_cell_volume   963.10767431
_cell_formula_units_Z   1
loop_
 _symmetry_equiv_pos_site_id
 _symmetry_equiv_pos_as_xyz
  1  'x, y, z'
loop_
 _atom_site_type_symbol
 _atom_site_label
 _atom_site_symmetry_multiplicity
 _atom_site_fract_x
 _atom_site_fract_y
 _atom_site_fract_z
 _atom_site_occupancy
  La  La0  1  0.500909  0.497973  0.000000  1
  La  La1  1  0.000967  0.999567  0.000000  1
  La  La2  1  0.894464  0.390250  0.500000  1
  La  La3  1  0.105502  0.609235  0.500000  1
  La  La4  1  0.393857  0.109885  0.500000  1
  La  La5  1  0.607836  0.892432  0.500000  1
  Nd  Nd6  1  0.676939  0.182184  0.500000  1
  Nd  Nd7  1  0.318907  0.820486  0.500000  1
  Nd  Nd8  1  0.176686  0.318425  0.500000  1
  Nd  Nd9  1  0.822343  0.680370  0.500000  1
  Sn  Sn10  1  0.569040  0.071856  0.000000  1
  Sn  Sn11  1  0.430520  0.931930  0.000000  1
  Sn  Sn12  1  0.069610  0.429486  0.000000  1
  Sn  Sn13  1  0.930996  0.570503  0.000000  1
  Sn  Sn14  1  0.652296  0.702392  0.000000  1
  Sn  Sn15  1  0.348144  0.294899  0.000000  1
  Sn  Sn16  1  0.149867  0.794839  0.000000  1
  Sn  Sn17  1  0.849141  0.204083  0.000000  1
  Sn  Sn18  1  0.298552  0.651575  0.000000  1
  Sn  Sn19  1  0.700115  0.347592  0.000000  1
  Sn  Sn20  1  0.199315  0.151780  0.000000  1
  Sn  Sn21  1  0.800431  0.848766  0.000000  1
  Sn  Sn22  1  0.665476  0.498008  0.500000  1
  Sn  Sn23  1  0.336017  0.498081  0.500000  1
  Sn  Sn24  1  0.163902  0.999616  0.500000  1
  Sn  Sn25  1  0.836448  0.003395  0.500000  1
  Sn  Sn26  1  0.500681  0.664076  0.500000  1
  Sn  Sn27  1  0.503031  0.336468  0.500000  1
  Sn  Sn28  1  0.004324  0.163177  0.500000  1
  Sn  Sn29  1  0.995091  0.836137  0.500000  1
  Ir  Ir30  1  0.533298  0.256885  0.000000  1
  Ir  Ir31  1  0.033429  0.244283  0.000000  1
  Ir  Ir32  1  0.965409  0.755656  0.000000  1
  Pd  Pd33  1  0.744394  0.533145  0.000000  1
  Pd  Pd34  1  0.256430  0.465839  0.000000  1
  Pd  Pd35  1  0.243332  0.965418  0.000000  1
  Pd  Pd36  1  0.755694  0.033828  0.000000  1
  Pd  Pd37  1  0.466608  0.745482  0.000000  1
