# generated using pymatgen
data_Ac2SiSO4
_symmetry_space_group_name_H-M   'P 1'
_cell_length_a   6.39438000
_cell_length_b   7.42465100
_cell_length_c   11.33310700
_cell_angle_alpha   90.00000000
_cell_angle_beta   90.00000000
_cell_angle_gamma   90.00000000
_symmetry_Int_Tables_number   1
_chemical_formula_structural   Ac2SiSO4
_chemical_formula_sum   'Ac8 Si4 S4 O16'
_cell_volume   538.05103969
_cell_formula_units_Z   4
loop_
 _symmetry_equiv_pos_site_id
 _symmetry_equiv_pos_as_xyz
  1  'x, y, z'
loop_
 _atom_site_type_symbol
 _atom_site_label
 _atom_site_symmetry_multiplicity
 _atom_site_fract_x
 _atom_site_fract_y
 _atom_site_fract_z
 _atom_site_occupancy
  Ac  Ac0  1  0.607425  0.250000  0.000000  1
  Ac  Ac1  1  0.392577  0.750000  0.500000  1
  Ac  Ac2  1  0.392577  0.750000  0.000000  1
  Ac  Ac3  1  0.607425  0.250000  0.500000  1
  Ac  Ac4  1  0.136807  0.037430  0.250001  1
  Ac  Ac5  1  0.863193  0.962570  0.749999  1
  Ac  Ac6  1  0.136807  0.462570  0.749999  1
  Ac  Ac7  1  0.863193  0.537430  0.250001  1
  Si  Si8  1  0.111931  0.250000  0.000000  1
  Si  Si9  1  0.888068  0.750000  0.500000  1
  Si  Si10  1  0.888068  0.750000  0.000000  1
  Si  Si11  1  0.111931  0.250000  0.500000  1
  S  S12  1  0.434785  0.377347  0.250001  1
  S  S13  1  0.565216  0.622653  0.749999  1
  S  S14  1  0.434785  0.122653  0.749999  1
  S  S15  1  0.565216  0.877348  0.250001  1
  O  O16  1  0.264733  0.078008  0.029656  1
  O  O17  1  0.735267  0.921992  0.529656  1
  O  O18  1  0.264733  0.421992  0.970344  1
  O  O19  1  0.735267  0.578008  0.470344  1
  O  O20  1  0.735267  0.921992  0.970344  1
  O  O21  1  0.264733  0.078008  0.470344  1
  O  O22  1  0.735267  0.578008  0.029656  1
  O  O23  1  0.264733  0.421992  0.529656  1
  O  O24  1  0.042725  0.768773  0.115550  1
  O  O25  1  0.957273  0.231227  0.615550  1
  O  O26  1  0.042725  0.731227  0.884450  1
  O  O27  1  0.957273  0.268773  0.384450  1
  O  O28  1  0.957273  0.231227  0.884450  1
  O  O29  1  0.042725  0.768773  0.384450  1
  O  O30  1  0.957273  0.268773  0.115550  1
  O  O31  1  0.042725  0.731227  0.615550  1
