# generated using pymatgen
data_YbHo7(ZrIr3)2
_symmetry_space_group_name_H-M   'P 1'
_cell_length_a   10.82592806
_cell_length_b   10.80475400
_cell_length_c   6.27082722
_cell_angle_alpha   90.00000000
_cell_angle_beta   90.22612456
_cell_angle_gamma   90.00000000
_symmetry_Int_Tables_number   1
_chemical_formula_structural   YbHo7(ZrIr3)2
_chemical_formula_sum   'Yb2 Ho14 Zr4 Ir12'
_cell_volume   733.50228784
_cell_formula_units_Z   2
loop_
 _symmetry_equiv_pos_site_id
 _symmetry_equiv_pos_as_xyz
  1  'x, y, z'
loop_
 _atom_site_type_symbol
 _atom_site_label
 _atom_site_symmetry_multiplicity
 _atom_site_fract_x
 _atom_site_fract_y
 _atom_site_fract_z
 _atom_site_occupancy
  Yb  Yb0  1  0.288502  0.086794  0.370993  1
  Yb  Yb1  1  0.288502  0.913206  0.870993  1
  Ho  Ho2  1  0.709221  0.084826  0.874526  1
  Ho  Ho3  1  0.709221  0.915174  0.374526  1
  Ho  Ho4  1  0.585062  0.791723  0.873436  1
  Ho  Ho5  1  0.585062  0.208277  0.373436  1
  Ho  Ho6  1  0.414040  0.792089  0.372610  1
  Ho  Ho7  1  0.414040  0.207911  0.872610  1
  Ho  Ho8  1  0.209877  0.414447  0.628178  1
  Ho  Ho9  1  0.209877  0.585553  0.128178  1
  Ho  Ho10  1  0.790368  0.413458  0.126196  1
  Ho  Ho11  1  0.790368  0.586542  0.626196  1
  Ho  Ho12  1  0.913739  0.710487  0.126888  1
  Ho  Ho13  1  0.913739  0.289513  0.626888  1
  Ho  Ho14  1  0.086774  0.709612  0.626340  1
  Ho  Ho15  1  0.086774  0.290388  0.126340  1
  Zr  Zr16  1  0.000529  0.999542  0.498516  1
  Zr  Zr17  1  0.000529  0.000458  0.998516  1
  Zr  Zr18  1  0.500076  0.500134  0.999787  1
  Zr  Zr19  1  0.500076  0.499866  0.499787  1
  Ir  Ir20  1  0.855833  0.145586  0.249847  1
  Ir  Ir21  1  0.855833  0.854414  0.749847  1
  Ir  Ir22  1  0.141691  0.149729  0.752668  1
  Ir  Ir23  1  0.141691  0.850271  0.252668  1
  Ir  Ir24  1  0.644663  0.354520  0.750105  1
  Ir  Ir25  1  0.644663  0.645480  0.250105  1
  Ir  Ir26  1  0.355341  0.357088  0.247909  1
  Ir  Ir27  1  0.355341  0.642912  0.747909  1
  Ir  Ir28  1  0.504163  0.000287  0.121726  1
  Ir  Ir29  1  0.504163  0.999713  0.621726  1
  Ir  Ir30  1  0.000121  0.500148  0.880275  1
  Ir  Ir31  1  0.000121  0.499852  0.380275  1
