# generated using pymatgen
data_Dy3HoPd2(PtO7)2
_symmetry_space_group_name_H-M   'P 1'
_cell_length_a   7.22985065
_cell_length_b   7.23599899
_cell_length_c   7.22883600
_cell_angle_alpha   59.96721193
_cell_angle_beta   59.90530108
_cell_angle_gamma   59.97186047
_symmetry_Int_Tables_number   1
_chemical_formula_structural   Dy3HoPd2(PtO7)2
_chemical_formula_sum   'Dy3 Ho1 Pd2 Pt2 O14'
_cell_volume   267.09734443
_cell_formula_units_Z   1
loop_
 _symmetry_equiv_pos_site_id
 _symmetry_equiv_pos_as_xyz
  1  'x, y, z'
loop_
 _atom_site_type_symbol
 _atom_site_label
 _atom_site_symmetry_multiplicity
 _atom_site_fract_x
 _atom_site_fract_y
 _atom_site_fract_z
 _atom_site_occupancy
  Dy  Dy0  1  0.625000  0.625000  0.125000  1
  Dy  Dy1  1  0.625000  0.625000  0.625000  1
  Dy  Dy2  1  0.625000  0.125000  0.625000  1
  Ho  Ho3  1  0.125000  0.625000  0.625000  1
  Pd  Pd4  1  0.125000  0.125000  0.125000  1
  Pd  Pd5  1  0.125000  0.625000  0.125000  1
  Pt  Pt6  1  0.625000  0.125000  0.125000  1
  Pt  Pt7  1  0.125000  0.125000  0.625000  1
  O  O8  1  0.034331  0.465011  0.467184  1
  O  O9  1  0.783120  0.784910  0.216098  1
  O  O10  1  0.783120  0.215872  0.216098  1
  O  O11  1  0.751246  0.749722  0.749309  1
  O  O12  1  0.034898  0.465636  0.033831  1
  O  O13  1  0.466613  0.033256  0.466876  1
  O  O14  1  0.034331  0.033474  0.467184  1
  O  O15  1  0.498754  0.500278  0.500691  1
  O  O16  1  0.215669  0.216526  0.782816  1
  O  O17  1  0.215102  0.784364  0.216169  1
  O  O18  1  0.783387  0.216744  0.783124  1
  O  O19  1  0.466880  0.034128  0.033902  1
  O  O20  1  0.466880  0.465090  0.033902  1
  O  O21  1  0.215669  0.784989  0.782816  1
