# generated using pymatgen
data_U2PtS6
_symmetry_space_group_name_H-M   'P 1'
_cell_length_a   6.81919079
_cell_length_b   6.81919130
_cell_length_c   10.58759678
_cell_angle_alpha   118.96195404
_cell_angle_beta   118.96195660
_cell_angle_gamma   31.66271030
_symmetry_Int_Tables_number   1
_chemical_formula_structural   U2PtS6
_chemical_formula_sum   'U2 Pt1 S6'
_cell_volume   223.31525257
_cell_formula_units_Z   1
loop_
 _symmetry_equiv_pos_site_id
 _symmetry_equiv_pos_as_xyz
  1  'x, y, z'
loop_
 _atom_site_type_symbol
 _atom_site_label
 _atom_site_symmetry_multiplicity
 _atom_site_fract_x
 _atom_site_fract_y
 _atom_site_fract_z
 _atom_site_occupancy
  U  U0  1  0.683385  0.683385  0.294585  1
  U  U1  1  0.316616  0.316616  0.705415  1
  Pt  Pt2  1  0.000000  0.000000  0.000000  1
  S  S3  1  0.206008  0.206008  0.123237  1
  S  S4  1  0.015749  0.015749  0.231208  1
  S  S5  1  0.340047  0.340047  0.466295  1
  S  S6  1  0.659953  0.659953  0.533704  1
  S  S7  1  0.984252  0.984252  0.768793  1
  S  S8  1  0.793992  0.793992  0.876763  1
