# generated using pymatgen
data_PrU3(NbN2)4
_symmetry_space_group_name_H-M   'P 1'
_cell_length_a   3.29324800
_cell_length_b   5.73585800
_cell_length_c   11.04391600
_cell_angle_alpha   90.00024524
_cell_angle_beta   90.00000000
_cell_angle_gamma   90.00000000
_symmetry_Int_Tables_number   1
_chemical_formula_structural   PrU3(NbN2)4
_chemical_formula_sum   'Pr1 U3 Nb4 N8'
_cell_volume   208.61518756
_cell_formula_units_Z   1
loop_
 _symmetry_equiv_pos_site_id
 _symmetry_equiv_pos_as_xyz
  1  'x, y, z'
loop_
 _atom_site_type_symbol
 _atom_site_label
 _atom_site_symmetry_multiplicity
 _atom_site_fract_x
 _atom_site_fract_y
 _atom_site_fract_z
 _atom_site_occupancy
  Pr  Pr0  1  0.250000  0.578972  0.854423  1
  U  U1  1  0.750000  0.425844  0.142618  1
  U  U2  1  0.750000  0.925297  0.357369  1
  U  U3  1  0.250000  0.078976  0.642756  1
  Nb  Nb4  1  0.250000  0.922874  0.103410  1
  Nb  Nb5  1  0.750000  0.074264  0.904102  1
  Nb  Nb6  1  0.750000  0.576572  0.596613  1
  Nb  Nb7  1  0.250000  0.425234  0.400438  1
  N  N8  1  0.250000  0.658969  0.246336  1
  N  N9  1  0.750000  0.322141  0.743929  1
  N  N10  1  0.750000  0.850532  0.737951  1
  N  N11  1  0.250000  0.159741  0.258315  1
  N  N12  1  0.250000  0.767123  0.503058  1
  N  N13  1  0.750000  0.233231  0.494045  1
  N  N14  1  0.750000  0.741945  0.012141  1
  N  N15  1  0.250000  0.258285  0.002495  1
