# generated using pymatgen
data_Cs6PrYBr12
_symmetry_space_group_name_H-M   'P 1'
_cell_length_a   10.06777437
_cell_length_b   10.08241451
_cell_length_c   8.38154700
_cell_angle_alpha   90.00000000
_cell_angle_beta   90.00000000
_cell_angle_gamma   90.04689376
_symmetry_Int_Tables_number   1
_chemical_formula_structural   Cs6PrYBr12
_chemical_formula_sum   'Cs6 Pr1 Y1 Br12'
_cell_volume   850.78938273
_cell_formula_units_Z   1
loop_
 _symmetry_equiv_pos_site_id
 _symmetry_equiv_pos_as_xyz
  1  'x, y, z'
loop_
 _atom_site_type_symbol
 _atom_site_label
 _atom_site_symmetry_multiplicity
 _atom_site_fract_x
 _atom_site_fract_y
 _atom_site_fract_z
 _atom_site_occupancy
  Cs  Cs0  1  0.000000  0.000000  0.500000  1
  Cs  Cs1  1  0.000000  0.000000  0.000000  1
  Cs  Cs2  1  0.237344  0.585121  0.500000  1
  Cs  Cs3  1  0.762656  0.414879  0.500000  1
  Cs  Cs4  1  0.415231  0.232381  0.000000  1
  Cs  Cs5  1  0.584769  0.767619  0.000000  1
  Pr  Pr6  1  0.000000  0.500000  0.000000  1
  Y  Y7  1  0.500000  0.000000  0.500000  1
  Br  Br8  1  0.690805  0.057261  0.739139  1
  Br  Br9  1  0.309195  0.942739  0.739139  1
  Br  Br10  1  0.940538  0.697895  0.246758  1
  Br  Br11  1  0.059462  0.302105  0.246758  1
  Br  Br12  1  0.309195  0.942739  0.260861  1
  Br  Br13  1  0.690805  0.057261  0.260861  1
  Br  Br14  1  0.059462  0.302105  0.753242  1
  Br  Br15  1  0.940538  0.697895  0.753242  1
  Br  Br16  1  0.569535  0.730575  0.500000  1
  Br  Br17  1  0.430465  0.269425  0.500000  1
  Br  Br18  1  0.280156  0.570412  0.000000  1
  Br  Br19  1  0.719844  0.429588  0.000000  1
