# generated using pymatgen
data_BaV6O12
_symmetry_space_group_name_H-M   'P 1'
_cell_length_a   8.44925017
_cell_length_b   8.44925035
_cell_length_c   9.85056916
_cell_angle_alpha   54.31843131
_cell_angle_beta   54.31842953
_cell_angle_gamma   65.79598407
_symmetry_Int_Tables_number   1
_chemical_formula_structural   BaV6O12
_chemical_formula_sum   'Ba2 V12 O24'
_cell_volume   461.37895016
_cell_formula_units_Z   2
loop_
 _symmetry_equiv_pos_site_id
 _symmetry_equiv_pos_as_xyz
  1  'x, y, z'
loop_
 _atom_site_type_symbol
 _atom_site_label
 _atom_site_symmetry_multiplicity
 _atom_site_fract_x
 _atom_site_fract_y
 _atom_site_fract_z
 _atom_site_occupancy
  Ba  Ba0  1  0.281249  0.718751  0.000000  1
  Ba  Ba1  1  0.718751  0.281249  0.000000  1
  V  V2  1  0.672564  0.006254  0.813327  1
  V  V3  1  0.183904  0.515912  0.483921  1
  V  V4  1  0.848400  0.848400  0.478079  1
  V  V5  1  0.816096  0.484088  0.516079  1
  V  V6  1  0.327436  0.993746  0.186673  1
  V  V7  1  0.993746  0.327436  0.186673  1
  V  V8  1  0.337720  0.337720  0.815877  1
  V  V9  1  0.006254  0.672564  0.813327  1
  V  V10  1  0.515912  0.183904  0.483921  1
  V  V11  1  0.484088  0.816096  0.516079  1
  V  V12  1  0.151600  0.151600  0.521921  1
  V  V13  1  0.662280  0.662280  0.184123  1
  O  O14  1  0.705544  0.705544  0.947138  1
  O  O15  1  0.007910  0.680573  0.353082  1
  O  O16  1  0.680573  0.007910  0.353082  1
  O  O17  1  0.678627  0.006927  0.623334  1
  O  O18  1  0.006927  0.678627  0.623334  1
  O  O19  1  0.036642  0.036642  0.289759  1
  O  O20  1  0.710754  0.375559  0.274130  1
  O  O21  1  0.375559  0.710754  0.274130  1
  O  O22  1  0.993073  0.321373  0.376666  1
  O  O23  1  0.992090  0.319427  0.646918  1
  O  O24  1  0.037140  0.372347  0.948782  1
  O  O25  1  0.372347  0.037140  0.948782  1
  O  O26  1  0.294456  0.294456  0.052862  1
  O  O27  1  0.962860  0.627653  0.051218  1
  O  O28  1  0.338017  0.338017  0.348844  1
  O  O29  1  0.348023  0.348023  0.620411  1
  O  O30  1  0.289246  0.624441  0.725870  1
  O  O31  1  0.624441  0.289246  0.725870  1
  O  O32  1  0.963358  0.963358  0.710241  1
  O  O33  1  0.651977  0.651977  0.379589  1
  O  O34  1  0.321373  0.993073  0.376666  1
  O  O35  1  0.661983  0.661983  0.651156  1
  O  O36  1  0.319427  0.992090  0.646918  1
  O  O37  1  0.627653  0.962860  0.051218  1
