# generated using pymatgen
data_Tb9Ho7(HgPt)4
_symmetry_space_group_name_H-M   'P 1'
_cell_length_a   9.65515799
_cell_length_b   9.64666885
_cell_length_c   9.66048025
_cell_angle_alpha   60.01038109
_cell_angle_beta   60.08649364
_cell_angle_gamma   60.06580587
_symmetry_Int_Tables_number   1
_chemical_formula_structural   Tb9Ho7(HgPt)4
_chemical_formula_sum   'Tb9 Ho7 Hg4 Pt4'
_cell_volume   637.02063659
_cell_formula_units_Z   1
loop_
 _symmetry_equiv_pos_site_id
 _symmetry_equiv_pos_as_xyz
  1  'x, y, z'
loop_
 _atom_site_type_symbol
 _atom_site_label
 _atom_site_symmetry_multiplicity
 _atom_site_fract_x
 _atom_site_fract_y
 _atom_site_fract_z
 _atom_site_occupancy
  Tb  Tb0  1  0.809838  0.190165  0.809833  1
  Tb  Tb1  1  0.190232  0.190047  0.810178  1
  Tb  Tb2  1  0.810177  0.809542  0.190233  1
  Tb  Tb3  1  0.936335  0.564223  0.563655  1
  Tb  Tb4  1  0.563655  0.935786  0.936338  1
  Tb  Tb5  1  0.564002  0.935997  0.564004  1
  Tb  Tb6  1  0.936177  0.563825  0.936176  1
  Tb  Tb7  1  0.563560  0.564211  0.936350  1
  Tb  Tb8  1  0.936350  0.935881  0.563559  1
  Ho  Ho9  1  0.353720  0.353445  0.353338  1
  Ho  Ho10  1  0.353785  0.353849  0.938788  1
  Ho  Ho11  1  0.353339  0.939498  0.353716  1
  Ho  Ho12  1  0.938787  0.353577  0.353781  1
  Ho  Ho13  1  0.809950  0.190280  0.190407  1
  Ho  Ho14  1  0.190405  0.809361  0.809954  1
  Ho  Ho15  1  0.190236  0.809770  0.190231  1
  Hg  Hg16  1  0.586068  0.586395  0.586259  1
  Hg  Hg17  1  0.586236  0.586312  0.240925  1
  Hg  Hg18  1  0.586259  0.241277  0.586066  1
  Hg  Hg19  1  0.240926  0.586527  0.586235  1
  Pt  Pt20  1  0.143509  0.143729  0.144273  1
  Pt  Pt21  1  0.144000  0.143541  0.568191  1
  Pt  Pt22  1  0.144265  0.568494  0.143510  1
  Pt  Pt23  1  0.568189  0.144266  0.144000  1
