# generated using pymatgen
data_Lu6InTcPd
_symmetry_space_group_name_H-M   'P 1'
_cell_length_a   8.49682053
_cell_length_b   8.49682152
_cell_length_c   8.49682100
_cell_angle_alpha   113.73165173
_cell_angle_beta   111.09497480
_cell_angle_gamma   103.74678383
_symmetry_Int_Tables_number   1
_chemical_formula_structural   Lu6InTcPd
_chemical_formula_sum   'Lu12 In2 Tc2 Pd2'
_cell_volume   468.45899630
_cell_formula_units_Z   2
loop_
 _symmetry_equiv_pos_site_id
 _symmetry_equiv_pos_as_xyz
  1  'x, y, z'
loop_
 _atom_site_type_symbol
 _atom_site_label
 _atom_site_symmetry_multiplicity
 _atom_site_fract_x
 _atom_site_fract_y
 _atom_site_fract_z
 _atom_site_occupancy
  Lu  Lu0  1  0.659699  0.842995  0.183296  1
  Lu  Lu1  1  0.340301  0.523598  0.183296  1
  Lu  Lu2  1  0.813392  0.783655  0.597047  1
  Lu  Lu3  1  0.186608  0.783655  0.970262  1
  Lu  Lu4  1  0.813392  0.216345  0.029738  1
  Lu  Lu5  1  0.186608  0.216345  0.402953  1
  Lu  Lu6  1  0.659699  0.476402  0.816704  1
  Lu  Lu7  1  0.340301  0.157005  0.816704  1
  Lu  Lu8  1  0.559311  0.260045  0.299265  1
  Lu  Lu9  1  0.440689  0.739955  0.700735  1
  Lu  Lu10  1  0.039220  0.739955  0.299265  1
  Lu  Lu11  1  0.960780  0.260045  0.700735  1
  In  In12  1  0.000000  0.500000  0.500000  1
  In  In13  1  0.500000  0.000000  0.500000  1
  Tc  Tc14  1  0.321723  0.500000  0.821723  1
  Tc  Tc15  1  0.678277  0.500000  0.178277  1
  Pd  Pd16  1  0.869145  0.869145  0.000000  1
  Pd  Pd17  1  0.130855  0.130855  0.000000  1
