# generated using pymatgen
data_Dy8MgInPt2
_symmetry_space_group_name_H-M   'P 1'
_cell_length_a   9.73220445
_cell_length_b   9.73220423
_cell_length_c   9.73581000
_cell_angle_alpha   59.98773643
_cell_angle_beta   59.98773720
_cell_angle_gamma   59.91956865
_symmetry_Int_Tables_number   1
_chemical_formula_structural   Dy8MgInPt2
_chemical_formula_sum   'Dy16 Mg2 In2 Pt4'
_cell_volume   651.52999872
_cell_formula_units_Z   2
loop_
 _symmetry_equiv_pos_site_id
 _symmetry_equiv_pos_as_xyz
  1  'x, y, z'
loop_
 _atom_site_type_symbol
 _atom_site_label
 _atom_site_symmetry_multiplicity
 _atom_site_fract_x
 _atom_site_fract_y
 _atom_site_fract_z
 _atom_site_occupancy
  Dy  Dy0  1  0.350681  0.350681  0.349462  1
  Dy  Dy1  1  0.350681  0.350681  0.949176  1
  Dy  Dy2  1  0.350239  0.948151  0.350805  1
  Dy  Dy3  1  0.948151  0.350239  0.350805  1
  Dy  Dy4  1  0.810621  0.190248  0.189170  1
  Dy  Dy5  1  0.190248  0.810621  0.809962  1
  Dy  Dy6  1  0.190248  0.810621  0.189170  1
  Dy  Dy7  1  0.810621  0.190248  0.809962  1
  Dy  Dy8  1  0.192208  0.192208  0.807792  1
  Dy  Dy9  1  0.811992  0.811992  0.188008  1
  Dy  Dy10  1  0.936290  0.564474  0.564928  1
  Dy  Dy11  1  0.564474  0.936290  0.934309  1
  Dy  Dy12  1  0.564474  0.936290  0.564928  1
  Dy  Dy13  1  0.936290  0.564473  0.934309  1
  Dy  Dy14  1  0.566973  0.566973  0.933027  1
  Dy  Dy15  1  0.936507  0.936507  0.563492  1
  Mg  Mg16  1  0.576778  0.576778  0.581078  1
  Mg  Mg17  1  0.576778  0.576778  0.265364  1
  In  In18  1  0.582792  0.253462  0.581873  1
  In  In19  1  0.253462  0.582792  0.581873  1
  Pt  Pt20  1  0.142583  0.142583  0.143420  1
  Pt  Pt21  1  0.142583  0.142583  0.571415  1
  Pt  Pt22  1  0.142306  0.572021  0.142837  1
  Pt  Pt23  1  0.572021  0.142306  0.142837  1
