# generated using pymatgen
data_Ti8In4Co3Cu5
_symmetry_space_group_name_H-M   'P 1'
_cell_length_a   6.98420502
_cell_length_b   6.98420508
_cell_length_c   6.35624866
_cell_angle_alpha   90.07013568
_cell_angle_beta   90.07013204
_cell_angle_gamma   90.88051475
_symmetry_Int_Tables_number   1
_chemical_formula_structural   Ti8In4Co3Cu5
_chemical_formula_sum   'Ti8 In4 Co3 Cu5'
_cell_volume   310.01513322
_cell_formula_units_Z   1
loop_
 _symmetry_equiv_pos_site_id
 _symmetry_equiv_pos_as_xyz
  1  'x, y, z'
loop_
 _atom_site_type_symbol
 _atom_site_label
 _atom_site_symmetry_multiplicity
 _atom_site_fract_x
 _atom_site_fract_y
 _atom_site_fract_z
 _atom_site_occupancy
  Ti  Ti0  1  0.153195  0.153195  0.008276  1
  Ti  Ti1  1  0.830875  0.830875  0.996086  1
  Ti  Ti2  1  0.646771  0.358704  0.492631  1
  Ti  Ti3  1  0.358704  0.646771  0.492631  1
  Ti  Ti4  1  0.674423  0.340522  0.008374  1
  Ti  Ti5  1  0.340522  0.674423  0.008374  1
  Ti  Ti6  1  0.802497  0.802497  0.503170  1
  Ti  Ti7  1  0.195238  0.195238  0.486750  1
  In  In8  1  0.501672  0.004208  0.247495  1
  In  In9  1  0.498289  0.001276  0.750236  1
  In  In10  1  0.004208  0.501672  0.247495  1
  In  In11  1  0.001276  0.498289  0.750236  1
  Co  Co12  1  0.370715  0.370715  0.221122  1
  Co  Co13  1  0.623635  0.623635  0.771746  1
  Co  Co14  1  0.631328  0.631328  0.222724  1
  Cu  Cu15  1  0.874426  0.124855  0.711500  1
  Cu  Cu16  1  0.873515  0.123329  0.288511  1
  Cu  Cu17  1  0.370528  0.370528  0.792628  1
  Cu  Cu18  1  0.123329  0.873515  0.288511  1
  Cu  Cu19  1  0.124855  0.874426  0.711500  1
