# generated using pymatgen
data_Ho5BeCoTe2
_symmetry_space_group_name_H-M   'P 1'
_cell_length_a   7.81717700
_cell_length_b   7.81717732
_cell_length_c   14.92295100
_cell_angle_alpha   90.00000000
_cell_angle_beta   90.00000000
_cell_angle_gamma   150.63625913
_symmetry_Int_Tables_number   1
_chemical_formula_structural   Ho5BeCoTe2
_chemical_formula_sum   'Ho10 Be2 Co2 Te4'
_cell_volume   447.15990204
_cell_formula_units_Z   2
loop_
 _symmetry_equiv_pos_site_id
 _symmetry_equiv_pos_as_xyz
  1  'x, y, z'
loop_
 _atom_site_type_symbol
 _atom_site_label
 _atom_site_symmetry_multiplicity
 _atom_site_fract_x
 _atom_site_fract_y
 _atom_site_fract_z
 _atom_site_occupancy
  Ho  Ho0  1  0.959785  0.040215  0.121515  1
  Ho  Ho1  1  0.040216  0.959784  0.878485  1
  Ho  Ho2  1  0.040215  0.959785  0.621515  1
  Ho  Ho3  1  0.959784  0.040216  0.378485  1
  Ho  Ho4  1  0.740905  0.259095  0.630772  1
  Ho  Ho5  1  0.259095  0.740905  0.369228  1
  Ho  Ho6  1  0.259095  0.740905  0.130772  1
  Ho  Ho7  1  0.740905  0.259095  0.869228  1
  Ho  Ho8  1  0.604119  0.395881  0.250000  1
  Ho  Ho9  1  0.395881  0.604119  0.750000  1
  Be  Be10  1  0.404577  0.595423  0.250000  1
  Be  Be11  1  0.595423  0.404577  0.750000  1
  Co  Co12  1  0.828912  0.171088  0.250000  1
  Co  Co13  1  0.171088  0.828912  0.750000  1
  Te  Te14  1  0.614898  0.385102  0.040020  1
  Te  Te15  1  0.385102  0.614898  0.959980  1
  Te  Te16  1  0.385102  0.614898  0.540020  1
  Te  Te17  1  0.614898  0.385102  0.459980  1
