# generated using pymatgen
data_Dy5Co2Os
_symmetry_space_group_name_H-M   'P 1'
_cell_length_a   8.65463204
_cell_length_b   8.65463168
_cell_length_c   8.65463049
_cell_angle_alpha   131.40157849
_cell_angle_beta   131.40157835
_cell_angle_gamma   71.17582973
_symmetry_Int_Tables_number   1
_chemical_formula_structural   Dy5Co2Os
_chemical_formula_sum   'Dy10 Co4 Os2'
_cell_volume   357.07475150
_cell_formula_units_Z   2
loop_
 _symmetry_equiv_pos_site_id
 _symmetry_equiv_pos_as_xyz
  1  'x, y, z'
loop_
 _atom_site_type_symbol
 _atom_site_label
 _atom_site_symmetry_multiplicity
 _atom_site_fract_x
 _atom_site_fract_y
 _atom_site_fract_z
 _atom_site_occupancy
  Dy  Dy0  1  0.678726  0.535469  0.500000  1
  Dy  Dy1  1  0.464531  0.964531  0.143257  1
  Dy  Dy2  1  0.821274  0.321274  0.856743  1
  Dy  Dy3  1  0.535469  0.035469  0.856743  1
  Dy  Dy4  1  0.000000  0.000000  0.000000  1
  Dy  Dy5  1  0.035469  0.178726  0.500000  1
  Dy  Dy6  1  0.321274  0.464531  0.500000  1
  Dy  Dy7  1  0.178726  0.678726  0.143257  1
  Dy  Dy8  1  0.964531  0.821274  0.500000  1
  Dy  Dy9  1  0.500000  0.500000  0.000000  1
  Co  Co10  1  0.111844  0.611844  0.723688  1
  Co  Co11  1  0.888156  0.388156  0.276312  1
  Co  Co12  1  0.611844  0.888156  0.500000  1
  Co  Co13  1  0.388156  0.111844  0.500000  1
  Os  Os14  1  0.250000  0.250000  0.000000  1
  Os  Os15  1  0.750000  0.750000  0.000000  1
