# generated using pymatgen
data_KRb2NpF6
_symmetry_space_group_name_H-M   'P 1'
_cell_length_a   6.85632600
_cell_length_b   6.68827889
_cell_length_c   11.60890305
_cell_angle_alpha   55.13462766
_cell_angle_beta   90.00000000
_cell_angle_gamma   90.00000000
_symmetry_Int_Tables_number   1
_chemical_formula_structural   KRb2NpF6
_chemical_formula_sum   'K2 Rb4 Np2 F12'
_cell_volume   436.79160771
_cell_formula_units_Z   2
loop_
 _symmetry_equiv_pos_site_id
 _symmetry_equiv_pos_as_xyz
  1  'x, y, z'
loop_
 _atom_site_type_symbol
 _atom_site_label
 _atom_site_symmetry_multiplicity
 _atom_site_fract_x
 _atom_site_fract_y
 _atom_site_fract_z
 _atom_site_occupancy
  K  K0  1  0.000000  0.500000  0.500000  1
  K  K1  1  0.500000  0.500000  0.000000  1
  Rb  Rb2  1  0.956107  0.262973  0.247768  1
  Rb  Rb3  1  0.543893  0.262973  0.747768  1
  Rb  Rb4  1  0.456107  0.737027  0.252232  1
  Rb  Rb5  1  0.043893  0.737027  0.752232  1
  Np  Np6  1  0.000000  0.000000  0.000000  1
  Np  Np7  1  0.500000  0.000000  0.500000  1
  F  F8  1  0.274777  0.237851  0.943795  1
  F  F9  1  0.774777  0.762149  0.556205  1
  F  F10  1  0.725223  0.762149  0.056205  1
  F  F11  1  0.225223  0.237851  0.443795  1
  F  F12  1  0.186256  0.677885  0.043120  1
  F  F13  1  0.686256  0.322115  0.456880  1
  F  F14  1  0.813744  0.322115  0.956880  1
  F  F15  1  0.313744  0.677885  0.543120  1
  F  F16  1  0.458728  0.862334  0.731021  1
  F  F17  1  0.958728  0.137666  0.768979  1
  F  F18  1  0.541272  0.137666  0.268979  1
  F  F19  1  0.041272  0.862334  0.231021  1
