# generated using pymatgen
data_Hf2SiNi3P2
_symmetry_space_group_name_H-M   'P 1'
_cell_length_a   3.62060800
_cell_length_b   10.04412200
_cell_length_c   12.33786500
_cell_angle_alpha   90.00000000
_cell_angle_beta   90.00000000
_cell_angle_gamma   90.00000000
_symmetry_Int_Tables_number   1
_chemical_formula_structural   Hf2SiNi3P2
_chemical_formula_sum   'Hf8 Si4 Ni12 P8'
_cell_volume   448.67668223
_cell_formula_units_Z   4
loop_
 _symmetry_equiv_pos_site_id
 _symmetry_equiv_pos_as_xyz
  1  'x, y, z'
loop_
 _atom_site_type_symbol
 _atom_site_label
 _atom_site_symmetry_multiplicity
 _atom_site_fract_x
 _atom_site_fract_y
 _atom_site_fract_z
 _atom_site_occupancy
  Hf  Hf0  1  0.250000  0.341388  0.995487  1
  Hf  Hf1  1  0.250000  0.158612  0.495487  1
  Hf  Hf2  1  0.750000  0.658612  0.004513  1
  Hf  Hf3  1  0.750000  0.841388  0.504513  1
  Hf  Hf4  1  0.250000  0.422830  0.712618  1
  Hf  Hf5  1  0.250000  0.077170  0.212618  1
  Hf  Hf6  1  0.750000  0.577170  0.287382  1
  Hf  Hf7  1  0.750000  0.922830  0.787382  1
  Si  Si8  1  0.250000  0.101438  0.897425  1
  Si  Si9  1  0.250000  0.398562  0.397425  1
  Si  Si10  1  0.750000  0.898562  0.102575  1
  Si  Si11  1  0.750000  0.601438  0.602575  1
  Ni  Ni12  1  0.250000  0.902461  0.983305  1
  Ni  Ni13  1  0.250000  0.597539  0.483305  1
  Ni  Ni14  1  0.750000  0.097539  0.016695  1
  Ni  Ni15  1  0.750000  0.402461  0.516695  1
  Ni  Ni16  1  0.250000  0.136332  0.715714  1
  Ni  Ni17  1  0.250000  0.363668  0.215714  1
  Ni  Ni18  1  0.750000  0.863668  0.284286  1
  Ni  Ni19  1  0.750000  0.636332  0.784286  1
  Ni  Ni20  1  0.250000  0.770854  0.166928  1
  Ni  Ni21  1  0.250000  0.729146  0.666928  1
  Ni  Ni22  1  0.750000  0.229146  0.833072  1
  Ni  Ni23  1  0.750000  0.270854  0.333072  1
  P  P24  1  0.250000  0.738240  0.856778  1
  P  P25  1  0.250000  0.761760  0.356778  1
  P  P26  1  0.750000  0.261760  0.143222  1
  P  P27  1  0.750000  0.238240  0.643222  1
  P  P28  1  0.250000  0.552661  0.127283  1
  P  P29  1  0.250000  0.947339  0.627283  1
  P  P30  1  0.750000  0.447339  0.872717  1
  P  P31  1  0.750000  0.052661  0.372717  1
