# generated using pymatgen
data_Er6Ni19P13Ir
_symmetry_space_group_name_H-M   'P 1'
_cell_length_a   12.67376800
_cell_length_b   12.67376796
_cell_length_c   3.73660900
_cell_angle_alpha   90.00000000
_cell_angle_beta   90.00000000
_cell_angle_gamma   120.00000011
_symmetry_Int_Tables_number   1
_chemical_formula_structural   Er6Ni19P13Ir
_chemical_formula_sum   'Er6 Ni19 P13 Ir1'
_cell_volume   519.78027073
_cell_formula_units_Z   1
loop_
 _symmetry_equiv_pos_site_id
 _symmetry_equiv_pos_as_xyz
  1  'x, y, z'
loop_
 _atom_site_type_symbol
 _atom_site_label
 _atom_site_symmetry_multiplicity
 _atom_site_fract_x
 _atom_site_fract_y
 _atom_site_fract_z
 _atom_site_occupancy
  Er  Er0  1  0.466828  0.185197  0.000000  1
  Er  Er1  1  0.718369  0.533172  0.000000  1
  Er  Er2  1  0.814803  0.281631  0.000000  1
  Er  Er3  1  0.530600  0.812437  0.500000  1
  Er  Er4  1  0.281838  0.469400  0.500000  1
  Er  Er5  1  0.187563  0.718162  0.500000  1
  Ni  Ni6  1  0.333333  0.666667  0.000000  1
  Ni  Ni7  1  0.195629  0.091061  0.000000  1
  Ni  Ni8  1  0.895433  0.804371  0.000000  1
  Ni  Ni9  1  0.908939  0.104567  0.000000  1
  Ni  Ni10  1  0.850089  0.927875  0.500000  1
  Ni  Ni11  1  0.077787  0.149911  0.500000  1
  Ni  Ni12  1  0.072125  0.922213  0.500000  1
  Ni  Ni13  1  0.436719  0.417581  0.000000  1
  Ni  Ni14  1  0.980863  0.563281  0.000000  1
  Ni  Ni15  1  0.582419  0.019137  0.000000  1
  Ni  Ni16  1  0.564604  0.589431  0.500000  1
  Ni  Ni17  1  0.024827  0.435396  0.500000  1
  Ni  Ni18  1  0.410569  0.975173  0.500000  1
  Ni  Ni19  1  0.078978  0.320980  0.000000  1
  Ni  Ni20  1  0.242001  0.921022  0.000000  1
  Ni  Ni21  1  0.679020  0.757999  0.000000  1
  Ni  Ni22  1  0.931394  0.685353  0.500000  1
  Ni  Ni23  1  0.753958  0.068606  0.500000  1
  Ni  Ni24  1  0.314647  0.246042  0.500000  1
  P  P25  1  0.233680  0.283583  0.000000  1
  P  P26  1  0.049903  0.766320  0.000000  1
  P  P27  1  0.716417  0.950097  0.000000  1
  P  P28  1  0.767464  0.721007  0.500000  1
  P  P29  1  0.953543  0.232536  0.500000  1
  P  P30  1  0.278993  0.046457  0.500000  1
  P  P31  1  0.475653  0.615786  0.000000  1
  P  P32  1  0.140134  0.524347  0.000000  1
  P  P33  1  0.384214  0.859866  0.000000  1
  P  P34  1  0.518056  0.388875  0.500000  1
  P  P35  1  0.870818  0.481944  0.500000  1
  P  P36  1  0.611125  0.129182  0.500000  1
  P  P37  1  0.000000  0.000000  0.000000  1
  Ir  Ir38  1  0.666667  0.333333  0.500000  1
