# generated using pymatgen
data_Cd4CuNi3
_symmetry_space_group_name_H-M   'P 1'
_cell_length_a   8.14438089
_cell_length_b   8.13636119
_cell_length_c   8.14438100
_cell_angle_alpha   59.96739282
_cell_angle_beta   60.00000359
_cell_angle_gamma   59.96739397
_symmetry_Int_Tables_number   1
_chemical_formula_structural   Cd4CuNi3
_chemical_formula_sum   'Cd12 Cu3 Ni9'
_cell_volume   381.43204296
_cell_formula_units_Z   3
loop_
 _symmetry_equiv_pos_site_id
 _symmetry_equiv_pos_as_xyz
  1  'x, y, z'
loop_
 _atom_site_type_symbol
 _atom_site_label
 _atom_site_symmetry_multiplicity
 _atom_site_fract_x
 _atom_site_fract_y
 _atom_site_fract_z
 _atom_site_occupancy
  Cd  Cd0  1  0.801934  0.801934  0.198066  1
  Cd  Cd1  1  0.199499  0.197721  0.801390  1
  Cd  Cd2  1  0.801390  0.197721  0.801390  1
  Cd  Cd3  1  0.198066  0.801934  0.198066  1
  Cd  Cd4  1  0.198066  0.801934  0.801934  1
  Cd  Cd5  1  0.801390  0.197721  0.199499  1
  Cd  Cd6  1  0.448066  0.448066  0.051934  1
  Cd  Cd7  1  0.050501  0.052279  0.448610  1
  Cd  Cd8  1  0.448610  0.052279  0.448610  1
  Cd  Cd9  1  0.051934  0.448066  0.051934  1
  Cd  Cd10  1  0.051934  0.448066  0.448066  1
  Cd  Cd11  1  0.448610  0.052279  0.050501  1
  Cu  Cu12  1  0.125000  0.625000  0.625000  1
  Cu  Cu13  1  0.625000  0.625000  0.125000  1
  Cu  Cu14  1  0.625000  0.625000  0.625000  1
  Ni  Ni15  1  0.625000  0.125000  0.625000  1
  Ni  Ni16  1  0.737493  0.418741  0.421883  1
  Ni  Ni17  1  0.420582  0.738254  0.420582  1
  Ni  Ni18  1  0.421883  0.418741  0.737493  1
  Ni  Ni19  1  0.421883  0.418741  0.421883  1
  Ni  Ni20  1  0.512507  0.831259  0.828117  1
  Ni  Ni21  1  0.829418  0.511746  0.829418  1
  Ni  Ni22  1  0.828117  0.831259  0.512507  1
  Ni  Ni23  1  0.828117  0.831259  0.828117  1
