# generated using pymatgen
data_Dy2Er2Fe5Si10Rh
_symmetry_space_group_name_H-M   'P 1'
_cell_length_a   7.99874146
_cell_length_b   7.99771951
_cell_length_c   7.99771934
_cell_angle_alpha   140.39657948
_cell_angle_beta   108.07989752
_cell_angle_gamma   85.36272762
_symmetry_Int_Tables_number   1
_chemical_formula_structural   Dy2Er2Fe5Si10Rh
_chemical_formula_sum   'Dy2 Er2 Fe5 Si10 Rh1'
_cell_volume   299.28336925
_cell_formula_units_Z   1
loop_
 _symmetry_equiv_pos_site_id
 _symmetry_equiv_pos_as_xyz
  1  'x, y, z'
loop_
 _atom_site_type_symbol
 _atom_site_label
 _atom_site_symmetry_multiplicity
 _atom_site_fract_x
 _atom_site_fract_y
 _atom_site_fract_z
 _atom_site_occupancy
  Dy  Dy0  1  0.871835  0.139441  0.732393  1
  Dy  Dy1  1  0.135511  0.863172  0.272338  1
  Er  Er2  1  0.593135  0.361853  0.231281  1
  Er  Er3  1  0.405477  0.637664  0.767816  1
  Fe  Fe4  1  0.996495  0.746964  0.744584  1
  Fe  Fe5  1  0.448510  0.856840  0.591671  1
  Fe  Fe6  1  0.263372  0.354207  0.909165  1
  Fe  Fe7  1  0.736480  0.644555  0.091925  1
  Fe  Fe8  1  0.996495  0.251911  0.249531  1
  Si  Si9  1  0.248901  0.090979  0.157923  1
  Si  Si10  1  0.735214  0.906614  0.828601  1
  Si  Si11  1  0.075636  0.406392  0.669244  1
  Si  Si12  1  0.923407  0.593786  0.329622  1
  Si  Si13  1  0.796980  0.036185  0.246965  1
  Si  Si14  1  0.210993  0.462706  0.251805  1
  Si  Si15  1  0.210993  0.959187  0.748285  1
  Si  Si16  1  0.502754  0.734433  0.243270  1
  Si  Si17  1  0.502754  0.259483  0.768320  1
  Si  Si18  1  0.796980  0.550015  0.760795  1
  Rh  Rh19  1  0.548079  0.143612  0.404466  1
