# generated using pymatgen
data_La4Yb(In2Ir)2
_symmetry_space_group_name_H-M   'P 1'
_cell_length_a   3.83153800
_cell_length_b   8.37161400
_cell_length_c   19.16565400
_cell_angle_alpha   90.00000000
_cell_angle_beta   90.00000000
_cell_angle_gamma   90.00000000
_symmetry_Int_Tables_number   1
_chemical_formula_structural   La4Yb(In2Ir)2
_chemical_formula_sum   'La8 Yb2 In8 Ir4'
_cell_volume   614.76052982
_cell_formula_units_Z   2
loop_
 _symmetry_equiv_pos_site_id
 _symmetry_equiv_pos_as_xyz
  1  'x, y, z'
loop_
 _atom_site_type_symbol
 _atom_site_label
 _atom_site_symmetry_multiplicity
 _atom_site_fract_x
 _atom_site_fract_y
 _atom_site_fract_z
 _atom_site_occupancy
  La  La0  1  0.000000  0.749132  0.276042  1
  La  La1  1  0.000000  0.250868  0.723958  1
  La  La2  1  0.000000  0.750868  0.776042  1
  La  La3  1  0.000000  0.249132  0.223958  1
  La  La4  1  0.000000  0.617046  0.090939  1
  La  La5  1  0.000000  0.382954  0.909061  1
  La  La6  1  0.000000  0.882954  0.590939  1
  La  La7  1  0.000000  0.117046  0.409061  1
  Yb  Yb8  1  0.000000  0.500000  0.500000  1
  Yb  Yb9  1  0.000000  0.000000  0.000000  1
  In  In10  1  0.500000  0.714206  0.930473  1
  In  In11  1  0.500000  0.285794  0.069527  1
  In  In12  1  0.500000  0.785794  0.430473  1
  In  In13  1  0.500000  0.214206  0.569527  1
  In  In14  1  0.500000  0.554169  0.647946  1
  In  In15  1  0.500000  0.445831  0.352054  1
  In  In16  1  0.500000  0.945831  0.147946  1
  In  In17  1  0.500000  0.054169  0.852054  1
  Ir  Ir18  1  0.500000  0.505545  0.194181  1
  Ir  Ir19  1  0.500000  0.494455  0.805819  1
  Ir  Ir20  1  0.500000  0.994455  0.694181  1
  Ir  Ir21  1  0.500000  0.005545  0.305819  1
