# generated using pymatgen
data_Sr2CuTcN4
_symmetry_space_group_name_H-M   'P 1'
_cell_length_a   5.82616500
_cell_length_b   6.23036778
_cell_length_c   6.80309685
_cell_angle_alpha   73.75315149
_cell_angle_beta   90.00000000
_cell_angle_gamma   90.00000000
_symmetry_Int_Tables_number   1
_chemical_formula_structural   Sr2CuTcN4
_chemical_formula_sum   'Sr4 Cu2 Tc2 N8'
_cell_volume   237.08488450
_cell_formula_units_Z   2
loop_
 _symmetry_equiv_pos_site_id
 _symmetry_equiv_pos_as_xyz
  1  'x, y, z'
loop_
 _atom_site_type_symbol
 _atom_site_label
 _atom_site_symmetry_multiplicity
 _atom_site_fract_x
 _atom_site_fract_y
 _atom_site_fract_z
 _atom_site_occupancy
  Sr  Sr0  1  0.250000  0.251679  0.062931  1
  Sr  Sr1  1  0.750000  0.748321  0.937069  1
  Sr  Sr2  1  0.750000  0.786258  0.430137  1
  Sr  Sr3  1  0.250000  0.213742  0.569863  1
  Cu  Cu4  1  0.750000  0.300780  0.316407  1
  Cu  Cu5  1  0.250000  0.699220  0.683593  1
  Tc  Tc6  1  0.250000  0.709965  0.200976  1
  Tc  Tc7  1  0.750000  0.290035  0.799024  1
  N  N8  1  0.502231  0.474950  0.750715  1
  N  N9  1  0.002231  0.525050  0.249285  1
  N  N10  1  0.497769  0.525050  0.249285  1
  N  N11  1  0.997769  0.474950  0.750715  1
  N  N12  1  0.750000  0.110137  0.618898  1
  N  N13  1  0.250000  0.889863  0.381102  1
  N  N14  1  0.750000  0.124013  0.070964  1
  N  N15  1  0.250000  0.875987  0.929036  1
