# generated using pymatgen
data_Ce2Pr3Bi3Cl
_symmetry_space_group_name_H-M   'P 1'
_cell_length_a   9.62394500
_cell_length_b   9.62394624
_cell_length_c   6.67908600
_cell_angle_alpha   90.00000000
_cell_angle_beta   90.00000000
_cell_angle_gamma   119.99999917
_symmetry_Int_Tables_number   1
_chemical_formula_structural   Ce2Pr3Bi3Cl
_chemical_formula_sum   'Ce4 Pr6 Bi6 Cl2'
_cell_volume   535.73989919
_cell_formula_units_Z   2
loop_
 _symmetry_equiv_pos_site_id
 _symmetry_equiv_pos_as_xyz
  1  'x, y, z'
loop_
 _atom_site_type_symbol
 _atom_site_label
 _atom_site_symmetry_multiplicity
 _atom_site_fract_x
 _atom_site_fract_y
 _atom_site_fract_z
 _atom_site_occupancy
  Ce  Ce0  1  0.333333  0.666667  0.500000  1
  Ce  Ce1  1  0.333333  0.666667  0.000000  1
  Ce  Ce2  1  0.666667  0.333333  0.500000  1
  Ce  Ce3  1  0.666667  0.333333  0.000000  1
  Pr  Pr4  1  0.733205  0.000000  0.750000  1
  Pr  Pr5  1  0.000000  0.266795  0.250000  1
  Pr  Pr6  1  0.733205  0.733205  0.250000  1
  Pr  Pr7  1  0.266795  0.000000  0.250000  1
  Pr  Pr8  1  0.266795  0.266795  0.750000  1
  Pr  Pr9  1  0.000000  0.733205  0.750000  1
  Bi  Bi10  1  0.386705  0.000000  0.750000  1
  Bi  Bi11  1  0.613295  0.000000  0.250000  1
  Bi  Bi12  1  0.000000  0.613295  0.250000  1
  Bi  Bi13  1  0.613295  0.613295  0.750000  1
  Bi  Bi14  1  0.000000  0.386705  0.750000  1
  Bi  Bi15  1  0.386705  0.386705  0.250000  1
  Cl  Cl16  1  0.000000  0.000000  0.500000  1
  Cl  Cl17  1  0.000000  0.000000  0.000000  1
