# generated using pymatgen
data_CaLa4Yb5Sn8
_symmetry_space_group_name_H-M   'P 1'
_cell_length_a   7.97476500
_cell_length_b   8.52530900
_cell_length_c   16.09247100
_cell_angle_alpha   90.00000000
_cell_angle_beta   90.00000000
_cell_angle_gamma   90.00000000
_symmetry_Int_Tables_number   1
_chemical_formula_structural   CaLa4Yb5Sn8
_chemical_formula_sum   'Ca2 La8 Yb10 Sn16'
_cell_volume   1094.08423017
_cell_formula_units_Z   2
loop_
 _symmetry_equiv_pos_site_id
 _symmetry_equiv_pos_as_xyz
  1  'x, y, z'
loop_
 _atom_site_type_symbol
 _atom_site_label
 _atom_site_symmetry_multiplicity
 _atom_site_fract_x
 _atom_site_fract_y
 _atom_site_fract_z
 _atom_site_occupancy
  Ca  Ca0  1  0.161553  0.503835  0.750000  1
  Ca  Ca1  1  0.661553  0.996165  0.750000  1
  La  La2  1  0.494241  0.315435  0.904312  1
  La  La3  1  0.994241  0.184565  0.595688  1
  La  La4  1  0.505831  0.684715  0.404016  1
  La  La5  1  0.005831  0.815285  0.095984  1
  La  La6  1  0.505831  0.684715  0.095984  1
  La  La7  1  0.005831  0.815285  0.404016  1
  La  La8  1  0.494241  0.315435  0.595688  1
  La  La9  1  0.994241  0.184565  0.904312  1
  Yb  Yb10  1  0.333748  0.827232  0.876452  1
  Yb  Yb11  1  0.833748  0.672768  0.623548  1
  Yb  Yb12  1  0.666118  0.172865  0.376288  1
  Yb  Yb13  1  0.166118  0.327135  0.123712  1
  Yb  Yb14  1  0.666118  0.172865  0.123712  1
  Yb  Yb15  1  0.166118  0.327135  0.376288  1
  Yb  Yb16  1  0.333748  0.827232  0.623548  1
  Yb  Yb17  1  0.833748  0.672768  0.876452  1
  Yb  Yb18  1  0.838372  0.495547  0.250000  1
  Yb  Yb19  1  0.338372  0.004453  0.250000  1
  Sn  Sn20  1  0.330920  0.035233  0.038625  1
  Sn  Sn21  1  0.830920  0.464767  0.461375  1
  Sn  Sn22  1  0.669073  0.964786  0.538320  1
  Sn  Sn23  1  0.169073  0.535214  0.961680  1
  Sn  Sn24  1  0.669073  0.964786  0.961680  1
  Sn  Sn25  1  0.169073  0.535214  0.538320  1
  Sn  Sn26  1  0.330920  0.035233  0.461375  1
  Sn  Sn27  1  0.830920  0.464767  0.038625  1
  Sn  Sn28  1  0.535035  0.602889  0.750000  1
  Sn  Sn29  1  0.035035  0.897111  0.750000  1
  Sn  Sn30  1  0.465246  0.397434  0.250000  1
  Sn  Sn31  1  0.965246  0.102566  0.250000  1
  Sn  Sn32  1  0.289104  0.140403  0.750000  1
  Sn  Sn33  1  0.789104  0.359597  0.750000  1
  Sn  Sn34  1  0.710828  0.859249  0.250000  1
  Sn  Sn35  1  0.210828  0.640751  0.250000  1
