# generated using pymatgen
data_Y2Tm7ScCd3Ru
_symmetry_space_group_name_H-M   'P 1'
_cell_length_a   9.45838354
_cell_length_b   9.44636520
_cell_length_c   9.65568400
_cell_angle_alpha   90.00000000
_cell_angle_beta   90.00000000
_cell_angle_gamma   119.95798075
_symmetry_Int_Tables_number   1
_chemical_formula_structural   Y2Tm7ScCd3Ru
_chemical_formula_sum   'Y4 Tm14 Sc2 Cd6 Ru2'
_cell_volume   747.44468644
_cell_formula_units_Z   2
loop_
 _symmetry_equiv_pos_site_id
 _symmetry_equiv_pos_as_xyz
  1  'x, y, z'
loop_
 _atom_site_type_symbol
 _atom_site_label
 _atom_site_symmetry_multiplicity
 _atom_site_fract_x
 _atom_site_fract_y
 _atom_site_fract_z
 _atom_site_occupancy
  Y  Y0  1  0.917793  0.458897  0.250000  1
  Y  Y1  1  0.459907  0.539792  0.750000  1
  Y  Y2  1  0.459907  0.920115  0.750000  1
  Y  Y3  1  0.079674  0.539837  0.750000  1
  Tm  Tm4  1  0.209937  0.791959  0.440431  1
  Tm  Tm5  1  0.209937  0.417978  0.440431  1
  Tm  Tm6  1  0.582074  0.791037  0.440155  1
  Tm  Tm7  1  0.790277  0.208458  0.558390  1
  Tm  Tm8  1  0.790277  0.581819  0.558390  1
  Tm  Tm9  1  0.418551  0.209276  0.557715  1
  Tm  Tm10  1  0.790277  0.208458  0.941610  1
  Tm  Tm11  1  0.790277  0.581819  0.941610  1
  Tm  Tm12  1  0.418551  0.209276  0.942285  1
  Tm  Tm13  1  0.209937  0.791959  0.059569  1
  Tm  Tm14  1  0.209937  0.417978  0.059569  1
  Tm  Tm15  1  0.582074  0.791037  0.059845  1
  Tm  Tm16  1  0.539600  0.459596  0.250000  1
  Tm  Tm17  1  0.539600  0.080004  0.250000  1
  Sc  Sc18  1  0.000164  0.000082  0.500344  1
  Sc  Sc19  1  0.000164  0.000082  0.999656  1
  Cd  Cd20  1  0.887807  0.110888  0.250000  1
  Cd  Cd21  1  0.887807  0.776920  0.250000  1
  Cd  Cd22  1  0.224130  0.112066  0.250000  1
  Cd  Cd23  1  0.111099  0.889195  0.750000  1
  Cd  Cd24  1  0.111099  0.221903  0.750000  1
  Cd  Cd25  1  0.778180  0.889089  0.750000  1
  Ru  Ru26  1  0.334082  0.667042  0.250000  1
  Ru  Ru27  1  0.666879  0.333439  0.750000  1
