# generated using pymatgen
data_CsRbTi6BBr15
_symmetry_space_group_name_H-M   'P 1'
_cell_length_a   10.14848800
_cell_length_b   14.47839800
_cell_length_c   19.43978000
_cell_angle_alpha   90.00000000
_cell_angle_beta   90.00000000
_cell_angle_gamma   90.00000000
_symmetry_Int_Tables_number   1
_chemical_formula_structural   CsRbTi6BBr15
_chemical_formula_sum   'Cs4 Rb4 Ti24 B4 Br60'
_cell_volume   2856.36168671
_cell_formula_units_Z   4
loop_
 _symmetry_equiv_pos_site_id
 _symmetry_equiv_pos_as_xyz
  1  'x, y, z'
loop_
 _atom_site_type_symbol
 _atom_site_label
 _atom_site_symmetry_multiplicity
 _atom_site_fract_x
 _atom_site_fract_y
 _atom_site_fract_z
 _atom_site_occupancy
  Cs  Cs0  1  0.410030  0.500000  0.750000  1
  Cs  Cs1  1  0.589970  0.500000  0.250000  1
  Cs  Cs2  1  0.000000  0.000000  0.500000  1
  Cs  Cs3  1  0.000000  0.000000  0.000000  1
  Rb  Rb4  1  0.838191  0.250954  0.750000  1
  Rb  Rb5  1  0.161809  0.749046  0.250000  1
  Rb  Rb6  1  0.838191  0.749046  0.750000  1
  Rb  Rb7  1  0.161809  0.250954  0.250000  1
  Ti  Ti8  1  0.564968  0.000000  0.750000  1
  Ti  Ti9  1  0.435032  0.000000  0.250000  1
  Ti  Ti10  1  0.075741  0.500000  0.105307  1
  Ti  Ti11  1  0.924259  0.500000  0.894693  1
  Ti  Ti12  1  0.075741  0.500000  0.394693  1
  Ti  Ti13  1  0.924259  0.500000  0.605307  1
  Ti  Ti14  1  0.145736  0.391978  0.527950  1
  Ti  Ti15  1  0.854264  0.608022  0.472050  1
  Ti  Ti16  1  0.145736  0.608022  0.972050  1
  Ti  Ti17  1  0.854264  0.391978  0.472050  1
  Ti  Ti18  1  0.854264  0.391978  0.027950  1
  Ti  Ti19  1  0.145736  0.608022  0.527950  1
  Ti  Ti20  1  0.854264  0.608022  0.027950  1
  Ti  Ti21  1  0.145736  0.391978  0.972050  1
  Ti  Ti22  1  0.348460  0.108534  0.669025  1
  Ti  Ti23  1  0.651540  0.891466  0.330975  1
  Ti  Ti24  1  0.348460  0.891466  0.830975  1
  Ti  Ti25  1  0.651540  0.108534  0.330975  1
  Ti  Ti26  1  0.651540  0.108534  0.169025  1
  Ti  Ti27  1  0.348460  0.891466  0.669025  1
  Ti  Ti28  1  0.651540  0.891466  0.169025  1
  Ti  Ti29  1  0.348460  0.108534  0.830975  1
  Ti  Ti30  1  0.135223  0.000000  0.750000  1
  Ti  Ti31  1  0.864777  0.000000  0.250000  1
  B  B32  1  0.350303  0.000000  0.750000  1
  B  B33  1  0.649697  0.000000  0.250000  1
  B  B34  1  0.000000  0.500000  0.500000  1
  B  B35  1  0.000000  0.500000  0.000000  1
  Br  Br36  1  0.000000  0.253500  0.500000  1
  Br  Br37  1  0.000000  0.746500  0.500000  1
  Br  Br38  1  0.000000  0.746500  0.000000  1
  Br  Br39  1  0.000000  0.253500  0.000000  1
  Br  Br40  1  0.081763  0.378945  0.654949  1
  Br  Br41  1  0.918237  0.621055  0.345051  1
  Br  Br42  1  0.081763  0.621055  0.845051  1
  Br  Br43  1  0.918237  0.378945  0.345051  1
  Br  Br44  1  0.918237  0.378945  0.154949  1
  Br  Br45  1  0.081763  0.621055  0.654949  1
  Br  Br46  1  0.918237  0.621055  0.154949  1
  Br  Br47  1  0.081763  0.378945  0.845051  1
  Br  Br48  1  0.335482  0.500000  0.560836  1
  Br  Br49  1  0.664518  0.500000  0.439164  1
  Br  Br50  1  0.335482  0.500000  0.939164  1
  Br  Br51  1  0.664518  0.500000  0.060836  1
  Br  Br52  1  0.353214  0.247575  0.750000  1
  Br  Br53  1  0.646786  0.752425  0.250000  1
  Br  Br54  1  0.353214  0.752425  0.750000  1
  Br  Br55  1  0.646786  0.247575  0.250000  1
  Br  Br56  1  0.336814  0.250984  0.565466  1
  Br  Br57  1  0.663186  0.749016  0.434534  1
  Br  Br58  1  0.336814  0.749016  0.934534  1
  Br  Br59  1  0.663186  0.250984  0.434534  1
  Br  Br60  1  0.663186  0.250984  0.065466  1
  Br  Br61  1  0.336814  0.749016  0.565466  1
  Br  Br62  1  0.663186  0.749016  0.065466  1
  Br  Br63  1  0.336814  0.250984  0.934534  1
  Br  Br64  1  0.097201  0.123522  0.658629  1
  Br  Br65  1  0.902799  0.876478  0.341371  1
  Br  Br66  1  0.097201  0.876478  0.841371  1
  Br  Br67  1  0.902799  0.123522  0.341371  1
  Br  Br68  1  0.902799  0.123522  0.158629  1
  Br  Br69  1  0.097201  0.876478  0.658629  1
  Br  Br70  1  0.902799  0.876478  0.158629  1
  Br  Br71  1  0.097201  0.123522  0.841371  1
  Br  Br72  1  0.253682  0.375359  0.091454  1
  Br  Br73  1  0.746318  0.624641  0.908546  1
  Br  Br74  1  0.253682  0.624641  0.408546  1
  Br  Br75  1  0.746318  0.375359  0.908546  1
  Br  Br76  1  0.746318  0.375359  0.591454  1
  Br  Br77  1  0.253682  0.624641  0.091454  1
  Br  Br78  1  0.746318  0.624641  0.591454  1
  Br  Br79  1  0.253682  0.375359  0.408546  1
  Br  Br80  1  0.848418  0.000000  0.750000  1
  Br  Br81  1  0.151582  0.000000  0.250000  1
  Br  Br82  1  0.349572  0.000000  0.564852  1
  Br  Br83  1  0.650428  0.000000  0.435148  1
  Br  Br84  1  0.349572  0.000000  0.935148  1
  Br  Br85  1  0.650428  0.000000  0.064852  1
  Br  Br86  1  0.598862  0.123352  0.655453  1
  Br  Br87  1  0.401138  0.876648  0.344547  1
  Br  Br88  1  0.598862  0.876648  0.844547  1
  Br  Br89  1  0.401138  0.123352  0.344547  1
  Br  Br90  1  0.401138  0.123352  0.155453  1
  Br  Br91  1  0.598862  0.876648  0.655453  1
  Br  Br92  1  0.401138  0.876648  0.155453  1
  Br  Br93  1  0.598862  0.123352  0.844547  1
  Br  Br94  1  0.812079  0.500000  0.750000  1
  Br  Br95  1  0.187921  0.500000  0.250000  1
