# generated using pymatgen
data_SmPa3(TcB4)4
_symmetry_space_group_name_H-M   'P 1'
_cell_length_a   3.65615600
_cell_length_b   5.98445304
_cell_length_c   11.57930908
_cell_angle_alpha   89.98684159
_cell_angle_beta   90.00000000
_cell_angle_gamma   90.00000000
_symmetry_Int_Tables_number   1
_chemical_formula_structural   SmPa3(TcB4)4
_chemical_formula_sum   'Sm1 Pa3 Tc4 B16'
_cell_volume   253.35636305
_cell_formula_units_Z   1
loop_
 _symmetry_equiv_pos_site_id
 _symmetry_equiv_pos_as_xyz
  1  'x, y, z'
loop_
 _atom_site_type_symbol
 _atom_site_label
 _atom_site_symmetry_multiplicity
 _atom_site_fract_x
 _atom_site_fract_y
 _atom_site_fract_z
 _atom_site_occupancy
  Sm  Sm0  1  0.000000  0.627561  0.350360  1
  Pa  Pa1  1  0.000000  0.372615  0.649166  1
  Pa  Pa2  1  0.000000  0.127711  0.151030  1
  Pa  Pa3  1  0.000000  0.871888  0.849908  1
  Tc  Tc4  1  0.000000  0.638400  0.090646  1
  Tc  Tc5  1  0.000000  0.360915  0.905557  1
  Tc  Tc6  1  0.000000  0.137959  0.409622  1
  Tc  Tc7  1  0.000000  0.863285  0.595256  1
  B  B8  1  0.500000  0.789524  0.184523  1
  B  B9  1  0.500000  0.210809  0.812866  1
  B  B10  1  0.500000  0.283936  0.313037  1
  B  B11  1  0.500000  0.710860  0.686713  1
  B  B12  1  0.500000  0.865780  0.031586  1
  B  B13  1  0.500000  0.135756  0.967907  1
  B  B14  1  0.500000  0.361778  0.469257  1
  B  B15  1  0.500000  0.636518  0.533562  1
  B  B16  1  0.500000  0.888379  0.454418  1
  B  B17  1  0.500000  0.112443  0.546154  1
  B  B18  1  0.500000  0.387521  0.045966  1
  B  B19  1  0.500000  0.612815  0.953918  1
  B  B20  1  0.500000  0.976897  0.308492  1
  B  B21  1  0.500000  0.027691  0.691680  1
  B  B22  1  0.500000  0.471598  0.189740  1
  B  B23  1  0.500000  0.527361  0.808636  1
