# generated using pymatgen
data_Zr(Mn2Si)2
_symmetry_space_group_name_H-M   'P 1'
_cell_length_a   6.87186300
_cell_length_b   6.87186300
_cell_length_c   3.82752100
_cell_angle_alpha   90.00000000
_cell_angle_beta   90.00000000
_cell_angle_gamma   90.00000000
_symmetry_Int_Tables_number   1
_chemical_formula_structural   Zr(Mn2Si)2
_chemical_formula_sum   'Zr2 Mn8 Si4'
_cell_volume   180.74511460
_cell_formula_units_Z   2
loop_
 _symmetry_equiv_pos_site_id
 _symmetry_equiv_pos_as_xyz
  1  'x, y, z'
loop_
 _atom_site_type_symbol
 _atom_site_label
 _atom_site_symmetry_multiplicity
 _atom_site_fract_x
 _atom_site_fract_y
 _atom_site_fract_z
 _atom_site_occupancy
  Zr  Zr0  1  0.500000  0.500000  0.000000  1
  Zr  Zr1  1  0.000000  0.000000  0.500000  1
  Mn  Mn2  1  0.591715  0.143200  0.500000  1
  Mn  Mn3  1  0.408285  0.856800  0.500000  1
  Mn  Mn4  1  0.143200  0.591715  0.500000  1
  Mn  Mn5  1  0.856800  0.408285  0.500000  1
  Mn  Mn6  1  0.091715  0.356800  0.000000  1
  Mn  Mn7  1  0.908285  0.643200  0.000000  1
  Mn  Mn8  1  0.643200  0.908285  0.000000  1
  Mn  Mn9  1  0.356800  0.091715  0.000000  1
  Si  Si10  1  0.212951  0.787049  0.000000  1
  Si  Si11  1  0.287049  0.287049  0.500000  1
  Si  Si12  1  0.712951  0.712951  0.500000  1
  Si  Si13  1  0.787049  0.212951  0.000000  1
