# generated using pymatgen
data_Hf5Mg2ZrAl14Pd2Pt5
_symmetry_space_group_name_H-M   'P 1'
_cell_length_a   8.81461500
_cell_length_b   8.80615051
_cell_length_c   8.80614900
_cell_angle_alpha   60.02885467
_cell_angle_beta   59.96819718
_cell_angle_gamma   59.96819051
_symmetry_Int_Tables_number   1
_chemical_formula_structural   Hf5Mg2ZrAl14Pd2Pt5
_chemical_formula_sum   'Hf5 Mg2 Zr1 Al14 Pd2 Pt5'
_cell_volume   483.22128385
_cell_formula_units_Z   1
loop_
 _symmetry_equiv_pos_site_id
 _symmetry_equiv_pos_as_xyz
  1  'x, y, z'
loop_
 _atom_site_type_symbol
 _atom_site_label
 _atom_site_symmetry_multiplicity
 _atom_site_fract_x
 _atom_site_fract_y
 _atom_site_fract_z
 _atom_site_occupancy
  Hf  Hf0  1  0.680478  0.680226  0.318892  1
  Hf  Hf1  1  0.321343  0.679254  0.319046  1
  Hf  Hf2  1  0.675056  0.325003  0.324119  1
  Hf  Hf3  1  0.320337  0.318978  0.680191  1
  Hf  Hf4  1  0.679601  0.319802  0.680030  1
  Mg  Mg5  1  0.881095  0.883549  0.354359  1
  Mg  Mg6  1  0.881142  0.354540  0.883416  1
  Zr  Zr7  1  0.316538  0.683461  0.683938  1
  Al  Al8  1  0.361495  0.880226  0.879696  1
  Al  Al9  1  0.878678  0.879799  0.880238  1
  Al  Al10  1  0.119974  0.122918  0.637526  1
  Al  Al11  1  0.119559  0.637274  0.123051  1
  Al  Al12  1  0.640239  0.119672  0.120320  1
  Al  Al13  1  0.119711  0.120198  0.119543  1
  Al  Al14  1  0.664503  0.662576  0.008520  1
  Al  Al15  1  0.665241  0.008194  0.662542  1
  Al  Al16  1  0.006582  0.664207  0.663509  1
  Al  Al17  1  0.666037  0.663510  0.663486  1
  Al  Al18  1  0.336233  0.334928  0.992497  1
  Al  Al19  1  0.335294  0.992814  0.335201  1
  Al  Al20  1  0.991223  0.334626  0.336010  1
  Al  Al21  1  0.337720  0.335692  0.335791  1
  Pd  Pd22  1  0.009210  0.990763  0.990762  1
  Pd  Pd23  1  0.000615  0.000700  0.504929  1
  Pt  Pt24  1  0.493640  0.000812  0.505064  1
  Pt  Pt25  1  0.003055  0.497144  0.496885  1
  Pt  Pt26  1  0.493520  0.504996  0.000818  1
  Pt  Pt27  1  0.000665  0.505243  0.000780  1
  Pt  Pt28  1  0.501211  0.998894  0.998839  1
