# generated using pymatgen
data_Dy5Ge3P9Rh19
_symmetry_space_group_name_H-M   'P 1'
_cell_length_a   12.84457200
_cell_length_b   12.84457180
_cell_length_c   3.92015200
_cell_angle_alpha   90.00000000
_cell_angle_beta   90.00000000
_cell_angle_gamma   119.99999536
_symmetry_Int_Tables_number   1
_chemical_formula_structural   Dy5Ge3P9Rh19
_chemical_formula_sum   'Dy5 Ge3 P9 Rh19'
_cell_volume   560.10935578
_cell_formula_units_Z   1
loop_
 _symmetry_equiv_pos_site_id
 _symmetry_equiv_pos_as_xyz
  1  'x, y, z'
loop_
 _atom_site_type_symbol
 _atom_site_label
 _atom_site_symmetry_multiplicity
 _atom_site_fract_x
 _atom_site_fract_y
 _atom_site_fract_z
 _atom_site_occupancy
  Dy  Dy0  1  0.999078  0.184903  0.500000  1
  Dy  Dy1  1  0.815097  0.814174  0.500000  1
  Dy  Dy2  1  0.185826  0.000922  0.500000  1
  Dy  Dy3  1  0.666667  0.333333  0.000000  1
  Dy  Dy4  1  0.333333  0.666667  0.000000  1
  Ge  Ge5  1  0.480915  0.321667  0.500000  1
  Ge  Ge6  1  0.678333  0.159249  0.500000  1
  Ge  Ge7  1  0.840751  0.519085  0.500000  1
  P  P8  1  0.819455  0.995702  0.000000  1
  P  P9  1  0.176247  0.180545  0.000000  1
  P  P10  1  0.004298  0.823753  0.000000  1
  P  P11  1  0.363747  0.000330  0.000000  1
  P  P12  1  0.517618  0.830250  0.500000  1
  P  P13  1  0.169750  0.687369  0.500000  1
  P  P14  1  0.312631  0.482382  0.500000  1
  P  P15  1  0.999670  0.363417  0.000000  1
  P  P16  1  0.636583  0.636253  0.000000  1
  Rh  Rh17  1  0.812631  0.175511  0.000000  1
  Rh  Rh18  1  0.362880  0.187369  0.000000  1
  Rh  Rh19  1  0.647727  0.526149  0.500000  1
  Rh  Rh20  1  0.878422  0.352273  0.500000  1
  Rh  Rh21  1  0.360308  0.866896  0.500000  1
  Rh  Rh22  1  0.506588  0.639692  0.500000  1
  Rh  Rh23  1  0.133104  0.493412  0.500000  1
  Rh  Rh24  1  0.824489  0.637120  0.000000  1
  Rh  Rh25  1  0.621346  0.815989  0.000000  1
  Rh  Rh26  1  0.184011  0.805357  0.000000  1
  Rh  Rh27  1  0.194643  0.378654  0.000000  1
  Rh  Rh28  1  0.009170  0.727823  0.500000  1
  Rh  Rh29  1  0.272177  0.281347  0.500000  1
  Rh  Rh30  1  0.718653  0.990830  0.500000  1
  Rh  Rh31  1  0.998244  0.543848  0.000000  1
  Rh  Rh32  1  0.456152  0.454396  0.000000  1
  Rh  Rh33  1  0.545604  0.001756  0.000000  1
  Rh  Rh34  1  0.000000  0.000000  0.000000  1
  Rh  Rh35  1  0.473851  0.121578  0.500000  1
