# generated using pymatgen
data_Tb4Sc4B24Mo3Ir
_symmetry_space_group_name_H-M   'P 1'
_cell_length_a   3.56105800
_cell_length_b   9.10206410
_cell_length_c   11.50527539
_cell_angle_alpha   90.05630473
_cell_angle_beta   90.00000000
_cell_angle_gamma   90.00000000
_symmetry_Int_Tables_number   1
_chemical_formula_structural   Tb4Sc4B24Mo3Ir
_chemical_formula_sum   'Tb4 Sc4 B24 Mo3 Ir1'
_cell_volume   372.92006001
_cell_formula_units_Z   1
loop_
 _symmetry_equiv_pos_site_id
 _symmetry_equiv_pos_as_xyz
  1  'x, y, z'
loop_
 _atom_site_type_symbol
 _atom_site_label
 _atom_site_symmetry_multiplicity
 _atom_site_fract_x
 _atom_site_fract_y
 _atom_site_fract_z
 _atom_site_occupancy
  Tb  Tb0  1  0.500000  0.318493  0.415518  1
  Tb  Tb1  1  0.500000  0.679992  0.587380  1
  Tb  Tb2  1  0.500000  0.179194  0.913454  1
  Tb  Tb3  1  0.500000  0.822261  0.083400  1
  Sc  Sc4  1  0.500000  0.443334  0.127535  1
  Sc  Sc5  1  0.500000  0.555353  0.872291  1
  Sc  Sc6  1  0.500000  0.053977  0.627604  1
  Sc  Sc7  1  0.500000  0.945747  0.371455  1
  B  B8  1  0.000000  0.094439  0.473726  1
  B  B9  1  0.000000  0.902065  0.524881  1
  B  B10  1  0.000000  0.404230  0.974670  1
  B  B11  1  0.000000  0.596322  0.027607  1
  B  B12  1  0.000000  0.128653  0.319600  1
  B  B13  1  0.000000  0.870747  0.680814  1
  B  B14  1  0.000000  0.372049  0.818251  1
  B  B15  1  0.000000  0.629181  0.182533  1
  B  B16  1  0.000000  0.053492  0.066945  1
  B  B17  1  0.000000  0.947324  0.933933  1
  B  B18  1  0.000000  0.447689  0.564914  1
  B  B19  1  0.000000  0.556300  0.432365  1
  B  B20  1  0.000000  0.483160  0.286038  1
  B  B21  1  0.000000  0.521123  0.714708  1
  B  B22  1  0.000000  0.020829  0.784208  1
  B  B23  1  0.000000  0.978788  0.215141  1
  B  B24  1  0.000000  0.256414  0.081016  1
  B  B25  1  0.000000  0.743564  0.920217  1
  B  B26  1  0.000000  0.242585  0.579940  1
  B  B27  1  0.000000  0.753897  0.417999  1
  B  B28  1  0.000000  0.298008  0.236723  1
  B  B29  1  0.000000  0.702501  0.764899  1
  B  B30  1  0.000000  0.203397  0.735236  1
  B  B31  1  0.000000  0.793726  0.264752  1
  Mo  Mo32  1  0.500000  0.141531  0.183423  1
  Mo  Mo33  1  0.500000  0.859124  0.818475  1
  Mo  Mo34  1  0.500000  0.359707  0.680150  1
  Ir  Ir35  1  0.500000  0.640807  0.318201  1
