# generated using pymatgen
data_Tb4Tm4B24Ru3W
_symmetry_space_group_name_H-M   'P 1'
_cell_length_a   3.63277800
_cell_length_b   9.14156886
_cell_length_c   11.54513700
_cell_angle_alpha   89.85736524
_cell_angle_beta   90.00000000
_cell_angle_gamma   90.00000000
_symmetry_Int_Tables_number   1
_chemical_formula_structural   Tb4Tm4B24Ru3W
_chemical_formula_sum   'Tb4 Tm4 B24 Ru3 W1'
_cell_volume   383.40461770
_cell_formula_units_Z   1
loop_
 _symmetry_equiv_pos_site_id
 _symmetry_equiv_pos_as_xyz
  1  'x, y, z'
loop_
 _atom_site_type_symbol
 _atom_site_label
 _atom_site_symmetry_multiplicity
 _atom_site_fract_x
 _atom_site_fract_y
 _atom_site_fract_z
 _atom_site_occupancy
  Tb  Tb0  1  0.000000  0.321133  0.413682  1
  Tb  Tb1  1  0.000000  0.677976  0.585582  1
  Tb  Tb2  1  0.000000  0.820552  0.086613  1
  Tb  Tb3  1  0.000000  0.176849  0.914646  1
  Tm  Tm4  1  0.000000  0.946292  0.373156  1
  Tm  Tm5  1  0.000000  0.057730  0.629068  1
  Tm  Tm6  1  0.000000  0.442478  0.125957  1
  Tm  Tm7  1  0.000000  0.556720  0.870761  1
  B  B8  1  0.500000  0.550416  0.436087  1
  B  B9  1  0.500000  0.445354  0.569046  1
  B  B10  1  0.500000  0.054417  0.067281  1
  B  B11  1  0.500000  0.945624  0.932611  1
  B  B12  1  0.500000  0.752960  0.421887  1
  B  B13  1  0.500000  0.251037  0.582015  1
  B  B14  1  0.500000  0.248795  0.080358  1
  B  B15  1  0.500000  0.750711  0.918412  1
  B  B16  1  0.500000  0.795977  0.264207  1
  B  B17  1  0.500000  0.208606  0.734395  1
  B  B18  1  0.500000  0.290491  0.232274  1
  B  B19  1  0.500000  0.709426  0.765907  1
  B  B20  1  0.500000  0.631244  0.181725  1
  B  B21  1  0.500000  0.368557  0.815217  1
  B  B22  1  0.500000  0.131241  0.314281  1
  B  B23  1  0.500000  0.870030  0.685396  1
  B  B24  1  0.500000  0.984190  0.212994  1
  B  B25  1  0.500000  0.016795  0.787815  1
  B  B26  1  0.500000  0.477117  0.285689  1
  B  B27  1  0.500000  0.516093  0.713537  1
  B  B28  1  0.500000  0.604074  0.026767  1
  B  B29  1  0.500000  0.394666  0.970010  1
  B  B30  1  0.500000  0.105681  0.471975  1
  B  B31  1  0.500000  0.898293  0.530172  1
  Ru  Ru32  1  0.000000  0.360769  0.680937  1
  Ru  Ru33  1  0.000000  0.138097  0.178602  1
  Ru  Ru34  1  0.000000  0.861610  0.820092  1
  W  W35  1  0.000000  0.637999  0.320844  1
