# generated using pymatgen
data_Li3La5Pr3Al(ZnRh2)4
_symmetry_space_group_name_H-M   'P 1'
_cell_length_a   4.11622000
_cell_length_b   7.37309555
_cell_length_c   16.57442987
_cell_angle_alpha   89.83852149
_cell_angle_beta   90.00000000
_cell_angle_gamma   90.00000000
_symmetry_Int_Tables_number   1
_chemical_formula_structural   Li3La5Pr3Al(ZnRh2)4
_chemical_formula_sum   'Li3 La5 Pr3 Al1 Zn4 Rh8'
_cell_volume   503.02007074
_cell_formula_units_Z   1
loop_
 _symmetry_equiv_pos_site_id
 _symmetry_equiv_pos_as_xyz
  1  'x, y, z'
loop_
 _atom_site_type_symbol
 _atom_site_label
 _atom_site_symmetry_multiplicity
 _atom_site_fract_x
 _atom_site_fract_y
 _atom_site_fract_z
 _atom_site_occupancy
  Li  Li0  1  0.250000  0.993548  0.440354  1
  Li  Li1  1  0.750000  0.861918  0.851717  1
  Li  Li2  1  0.250000  0.492416  0.060705  1
  La  La3  1  0.250000  0.047875  0.714672  1
  La  La4  1  0.250000  0.542973  0.783604  1
  La  La5  1  0.250000  0.670507  0.560217  1
  La  La6  1  0.250000  0.165964  0.939795  1
  La  La7  1  0.750000  0.954695  0.283383  1
  Pr  Pr8  1  0.750000  0.336565  0.439620  1
  Pr  Pr9  1  0.750000  0.831554  0.060506  1
  Pr  Pr10  1  0.750000  0.461954  0.219516  1
  Al  Al11  1  0.250000  0.134013  0.148910  1
  Zn  Zn12  1  0.750000  0.005409  0.556445  1
  Zn  Zn13  1  0.750000  0.373478  0.647824  1
  Zn  Zn14  1  0.750000  0.504675  0.941973  1
  Zn  Zn15  1  0.250000  0.627263  0.351445  1
  Rh  Rh16  1  0.750000  0.262844  0.812182  1
  Rh  Rh17  1  0.250000  0.246249  0.305987  1
  Rh  Rh18  1  0.250000  0.742186  0.936422  1
  Rh  Rh19  1  0.250000  0.238938  0.567466  1
  Rh  Rh20  1  0.250000  0.769067  0.188656  1
  Rh  Rh21  1  0.750000  0.743932  0.437254  1
  Rh  Rh22  1  0.750000  0.241868  0.068617  1
  Rh  Rh23  1  0.750000  0.750108  0.682728  1
