# generated using pymatgen
data_MnCrNi4(BO5)2
_symmetry_space_group_name_H-M   'P 1'
_cell_length_a   3.01564600
_cell_length_b   9.27234923
_cell_length_c   12.44919483
_cell_angle_alpha   90.68604109
_cell_angle_beta   90.00000000
_cell_angle_gamma   90.00000000
_symmetry_Int_Tables_number   1
_chemical_formula_structural   MnCrNi4(BO5)2
_chemical_formula_sum   'Mn2 Cr2 Ni8 B4 O20'
_cell_volume   348.08096169
_cell_formula_units_Z   2
loop_
 _symmetry_equiv_pos_site_id
 _symmetry_equiv_pos_as_xyz
  1  'x, y, z'
loop_
 _atom_site_type_symbol
 _atom_site_label
 _atom_site_symmetry_multiplicity
 _atom_site_fract_x
 _atom_site_fract_y
 _atom_site_fract_z
 _atom_site_occupancy
  Mn  Mn0  1  0.000000  0.240104  0.384970  1
  Mn  Mn1  1  0.000000  0.759896  0.615030  1
  Cr  Cr2  1  0.000000  0.258486  0.887404  1
  Cr  Cr3  1  0.000000  0.741514  0.112596  1
  Ni  Ni4  1  0.500000  0.000000  0.500000  1
  Ni  Ni5  1  0.500000  0.500000  0.000000  1
  Ni  Ni6  1  0.500000  0.000335  0.216820  1
  Ni  Ni7  1  0.500000  0.999665  0.783180  1
  Ni  Ni8  1  0.500000  0.498951  0.721774  1
  Ni  Ni9  1  0.500000  0.501049  0.278226  1
  Ni  Ni10  1  0.000000  0.000000  0.000000  1
  Ni  Ni11  1  0.000000  0.500000  0.500000  1
  B  B12  1  0.000000  0.274725  0.137309  1
  B  B13  1  0.000000  0.725275  0.862691  1
  B  B14  1  0.000000  0.226166  0.641701  1
  B  B15  1  0.000000  0.773834  0.358299  1
  O  O16  1  0.500000  0.109196  0.356756  1
  O  O17  1  0.500000  0.890804  0.643244  1
  O  O18  1  0.500000  0.390831  0.857846  1
  O  O19  1  0.500000  0.609169  0.142154  1
  O  O20  1  0.000000  0.125061  0.140836  1
  O  O21  1  0.000000  0.874939  0.859164  1
  O  O22  1  0.000000  0.376154  0.640052  1
  O  O23  1  0.000000  0.623846  0.359948  1
  O  O24  1  0.500000  0.381063  0.420665  1
  O  O25  1  0.500000  0.618937  0.579335  1
  O  O26  1  0.500000  0.116271  0.922765  1
  O  O27  1  0.500000  0.883729  0.077235  1
  O  O28  1  0.000000  0.354284  0.231851  1
  O  O29  1  0.000000  0.645716  0.768149  1
  O  O30  1  0.000000  0.155176  0.740155  1
  O  O31  1  0.000000  0.844824  0.259845  1
  O  O32  1  0.000000  0.346737  0.039257  1
  O  O33  1  0.000000  0.653263  0.960743  1
  O  O34  1  0.000000  0.145502  0.547434  1
  O  O35  1  0.000000  0.854498  0.452566  1
