# generated using pymatgen
data_TbHoPa(Ga2Co3)3
_symmetry_space_group_name_H-M   'P 1'
_cell_length_a   4.16701700
_cell_length_b   8.60564291
_cell_length_c   8.58688435
_cell_angle_alpha   60.03727397
_cell_angle_beta   90.00000000
_cell_angle_gamma   90.00000000
_symmetry_Int_Tables_number   1
_chemical_formula_structural   TbHoPa(Ga2Co3)3
_chemical_formula_sum   'Tb1 Ho1 Pa1 Ga6 Co9'
_cell_volume   266.77052036
_cell_formula_units_Z   1
loop_
 _symmetry_equiv_pos_site_id
 _symmetry_equiv_pos_as_xyz
  1  'x, y, z'
loop_
 _atom_site_type_symbol
 _atom_site_label
 _atom_site_symmetry_multiplicity
 _atom_site_fract_x
 _atom_site_fract_y
 _atom_site_fract_z
 _atom_site_occupancy
  Tb  Tb0  1  0.500000  0.666700  0.666676  1
  Ho  Ho1  1  0.500000  0.333200  0.333334  1
  Pa  Pa2  1  0.000000  0.999951  0.000136  1
  Ga  Ga3  1  0.000000  0.494547  0.505088  1
  Ga  Ga4  1  0.000000  0.505297  0.000376  1
  Ga  Ga5  1  0.000000  0.000443  0.494266  1
  Ga  Ga6  1  0.500000  0.722024  0.277727  1
  Ga  Ga7  1  0.500000  0.277643  0.000342  1
  Ga  Ga8  1  0.500000  0.000015  0.722136  1
  Co  Co9  1  0.000000  0.174085  0.173951  1
  Co  Co10  1  0.000000  0.173824  0.652221  1
  Co  Co11  1  0.000000  0.652216  0.173910  1
  Co  Co12  1  0.000000  0.826442  0.826590  1
  Co  Co13  1  0.000000  0.346856  0.826543  1
  Co  Co14  1  0.000000  0.826816  0.346696  1
  Co  Co15  1  0.500000  0.300372  0.699057  1
  Co  Co16  1  0.500000  0.699024  0.000483  1
  Co  Co17  1  0.500000  0.000444  0.300569  1
