# generated using pymatgen
data_Li2IrF6
_symmetry_space_group_name_H-M   'P 1'
_cell_length_a   4.71535200
_cell_length_b   4.71535200
_cell_length_c   9.25711100
_cell_angle_alpha   90.00000000
_cell_angle_beta   90.00000000
_cell_angle_gamma   90.00000000
_symmetry_Int_Tables_number   1
_chemical_formula_structural   Li2IrF6
_chemical_formula_sum   'Li4 Ir2 F12'
_cell_volume   205.82764632
_cell_formula_units_Z   2
loop_
 _symmetry_equiv_pos_site_id
 _symmetry_equiv_pos_as_xyz
  1  'x, y, z'
loop_
 _atom_site_type_symbol
 _atom_site_label
 _atom_site_symmetry_multiplicity
 _atom_site_fract_x
 _atom_site_fract_y
 _atom_site_fract_z
 _atom_site_occupancy
  Li  Li0  1  0.000000  0.000000  0.334457  1
  Li  Li1  1  0.000000  0.000000  0.665543  1
  Li  Li2  1  0.500000  0.500000  0.165543  1
  Li  Li3  1  0.500000  0.500000  0.834457  1
  Ir  Ir4  1  0.500000  0.500000  0.500000  1
  Ir  Ir5  1  0.000000  0.000000  0.000000  1
  F  F6  1  0.706942  0.706942  0.000000  1
  F  F7  1  0.793058  0.206942  0.500000  1
  F  F8  1  0.304267  0.304267  0.338946  1
  F  F9  1  0.195733  0.804267  0.838946  1
  F  F10  1  0.804267  0.195733  0.838946  1
  F  F11  1  0.804267  0.195733  0.161054  1
  F  F12  1  0.195733  0.804267  0.161054  1
  F  F13  1  0.695733  0.695733  0.338946  1
  F  F14  1  0.304267  0.304267  0.661054  1
  F  F15  1  0.695733  0.695733  0.661054  1
  F  F16  1  0.293058  0.293058  0.000000  1
  F  F17  1  0.206942  0.793058  0.500000  1
