# generated using pymatgen
data_Ba4YIrO8
_symmetry_space_group_name_H-M   'P 1'
_cell_length_a   7.42283016
_cell_length_b   7.42282915
_cell_length_c   5.98420300
_cell_angle_alpha   90.00000000
_cell_angle_beta   90.00000000
_cell_angle_gamma   132.69507982
_symmetry_Int_Tables_number   1
_chemical_formula_structural   Ba4YIrO8
_chemical_formula_sum   'Ba4 Y1 Ir1 O8'
_cell_volume   242.33524917
_cell_formula_units_Z   1
loop_
 _symmetry_equiv_pos_site_id
 _symmetry_equiv_pos_as_xyz
  1  'x, y, z'
loop_
 _atom_site_type_symbol
 _atom_site_label
 _atom_site_symmetry_multiplicity
 _atom_site_fract_x
 _atom_site_fract_y
 _atom_site_fract_z
 _atom_site_occupancy
  Ba  Ba0  1  0.354976  0.645024  0.000000  1
  Ba  Ba1  1  0.853815  0.146185  0.500000  1
  Ba  Ba2  1  0.146185  0.853815  0.500000  1
  Ba  Ba3  1  0.645024  0.354976  0.000000  1
  Y  Y4  1  0.000000  0.000000  0.000000  1
  Ir  Ir5  1  0.500000  0.500000  0.500000  1
  O  O6  1  0.261610  0.261610  0.732697  1
  O  O7  1  0.738390  0.738390  0.267303  1
  O  O8  1  0.738390  0.738390  0.732697  1
  O  O9  1  0.261610  0.261610  0.267303  1
  O  O10  1  0.166243  0.833757  0.000000  1
  O  O11  1  0.649316  0.350684  0.500000  1
  O  O12  1  0.350684  0.649316  0.500000  1
  O  O13  1  0.833757  0.166243  0.000000  1
