# generated using pymatgen
data_La7PrNd4(SiBr3)4
_symmetry_space_group_name_H-M   'P 1'
_cell_length_a   10.62771304
_cell_length_b   10.52299015
_cell_length_c   10.62959295
_cell_angle_alpha   109.38477981
_cell_angle_beta   109.86299734
_cell_angle_gamma   109.40429366
_symmetry_Int_Tables_number   1
_chemical_formula_structural   La7PrNd4(SiBr3)4
_chemical_formula_sum   'La7 Pr1 Nd4 Si4 Br12'
_cell_volume   912.39317427
_cell_formula_units_Z   1
loop_
 _symmetry_equiv_pos_site_id
 _symmetry_equiv_pos_as_xyz
  1  'x, y, z'
loop_
 _atom_site_type_symbol
 _atom_site_label
 _atom_site_symmetry_multiplicity
 _atom_site_fract_x
 _atom_site_fract_y
 _atom_site_fract_z
 _atom_site_occupancy
  La  La0  1  0.240683  0.480316  0.489887  1
  La  La1  1  0.010381  0.019950  0.259385  1
  La  La2  1  0.011805  0.492317  0.750855  1
  La  La3  1  0.491929  0.240002  0.478859  1
  La  La4  1  0.749465  0.007666  0.488474  1
  La  La5  1  0.021270  0.260179  0.008300  1
  La  La6  1  0.260961  0.750013  0.239188  1
  Pr  Pr7  1  0.266100  0.013033  0.024677  1
  Nd  Nd8  1  0.486559  0.750088  0.013826  1
  Nd  Nd9  1  0.747993  0.234836  0.262447  1
  Nd  Nd10  1  0.237647  0.265375  0.752114  1
  Nd  Nd11  1  0.473815  0.486246  0.233208  1
  Si  Si12  1  0.250542  0.250733  0.250226  1
  Si  Si13  1  0.000353  0.250048  0.499764  1
  Si  Si14  1  0.249594  0.499838  0.999224  1
  Si  Si15  1  0.501519  0.000246  0.251191  1
  Br  Br16  1  0.002192  0.993321  0.746422  1
  Br  Br17  1  0.749021  0.741558  0.245325  1
  Br  Br18  1  0.992427  0.747865  0.993715  1
  Br  Br19  1  0.250909  0.998870  0.507550  1
  Br  Br20  1  0.742237  0.995994  0.993562  1
  Br  Br21  1  0.503998  0.251743  0.997842  1
  Br  Br22  1  0.745705  0.249990  0.754385  1
  Br  Br23  1  0.506517  0.750564  0.506131  1
  Br  Br24  1  0.752547  0.506672  0.496644  1
  Br  Br25  1  0.254827  0.757338  0.749853  1
  Br  Br26  1  0.506466  0.504033  0.757818  1
  Br  Br27  1  0.992536  0.501167  0.249130  1
