# generated using pymatgen
data_Li4Nd8Si11Sn
_symmetry_space_group_name_H-M   'P 1'
_cell_length_a   11.07018370
_cell_length_b   9.33572586
_cell_length_c   8.43136477
_cell_angle_alpha   77.01923128
_cell_angle_beta   55.19901597
_cell_angle_gamma   47.76334989
_symmetry_Int_Tables_number   1
_chemical_formula_structural   Li4Nd8Si11Sn
_chemical_formula_sum   'Li4 Nd8 Si11 Sn1'
_cell_volume   511.30590732
_cell_formula_units_Z   1
loop_
 _symmetry_equiv_pos_site_id
 _symmetry_equiv_pos_as_xyz
  1  'x, y, z'
loop_
 _atom_site_type_symbol
 _atom_site_label
 _atom_site_symmetry_multiplicity
 _atom_site_fract_x
 _atom_site_fract_y
 _atom_site_fract_z
 _atom_site_occupancy
  Li  Li0  1  0.816154  0.183540  0.841851  1
  Li  Li1  1  0.165015  0.834714  0.168009  1
  Li  Li2  1  0.414944  0.080718  0.418757  1
  Li  Li3  1  0.085068  0.419556  0.080076  1
  Nd  Nd4  1  0.630488  0.617315  0.372585  1
  Nd  Nd5  1  0.382411  0.370661  0.620050  1
  Nd  Nd6  1  0.628352  0.627810  0.871398  1
  Nd  Nd7  1  0.868797  0.873294  0.625635  1
  Nd  Nd8  1  0.120770  0.131198  0.883291  1
  Nd  Nd9  1  0.872213  0.876611  0.133060  1
  Nd  Nd10  1  0.123510  0.133441  0.367382  1
  Nd  Nd11  1  0.373228  0.372482  0.127894  1
  Si  Si12  1  0.339401  0.650416  0.844240  1
  Si  Si13  1  0.664266  0.327460  0.173370  1
  Si  Si14  1  0.835466  0.171576  0.330958  1
  Si  Si15  1  0.077805  0.415041  0.588670  1
  Si  Si16  1  0.919394  0.587349  0.415520  1
  Si  Si17  1  0.590440  0.917957  0.076049  1
  Si  Si18  1  0.416768  0.076282  0.918114  1
  Si  Si19  1  0.670023  0.330000  0.663085  1
  Si  Si20  1  0.343791  0.656863  0.314572  1
  Si  Si21  1  0.582220  0.915884  0.584238  1
  Si  Si22  1  0.917242  0.584078  0.915293  1
  Sn  Sn23  1  0.162234  0.845754  0.665901  1
