# generated using pymatgen
data_Ho3Lu17(Bi2Pt)4
_symmetry_space_group_name_H-M   'P 1'
_cell_length_a   7.92597292
_cell_length_b   8.95887700
_cell_length_c   12.18264041
_cell_angle_alpha   90.00000000
_cell_angle_beta   89.94481853
_cell_angle_gamma   90.00000000
_symmetry_Int_Tables_number   1
_chemical_formula_structural   Ho3Lu17(Bi2Pt)4
_chemical_formula_sum   'Ho3 Lu17 Bi8 Pt4'
_cell_volume   865.06229353
_cell_formula_units_Z   1
loop_
 _symmetry_equiv_pos_site_id
 _symmetry_equiv_pos_as_xyz
  1  'x, y, z'
loop_
 _atom_site_type_symbol
 _atom_site_label
 _atom_site_symmetry_multiplicity
 _atom_site_fract_x
 _atom_site_fract_y
 _atom_site_fract_z
 _atom_site_occupancy
  Ho  Ho0  1  0.872640  0.750000  0.803080  1
  Ho  Ho1  1  0.372553  0.250000  0.697024  1
  Ho  Ho2  1  0.127261  0.250000  0.197152  1
  Lu  Lu3  1  0.165734  0.750000  0.211309  1
  Lu  Lu4  1  0.334630  0.750000  0.710686  1
  Lu  Lu5  1  0.834443  0.250000  0.788933  1
  Lu  Lu6  1  0.665891  0.250000  0.288784  1
  Lu  Lu7  1  0.447927  0.750000  0.000845  1
  Lu  Lu8  1  0.052575  0.750000  0.500436  1
  Lu  Lu9  1  0.552085  0.250000  0.999727  1
  Lu  Lu10  1  0.947538  0.250000  0.499401  1
  Lu  Lu11  1  0.625745  0.750000  0.303924  1
  Lu  Lu12  1  0.824386  0.548483  0.066526  1
  Lu  Lu13  1  0.675633  0.951765  0.565382  1
  Lu  Lu14  1  0.175231  0.047936  0.934151  1
  Lu  Lu15  1  0.325161  0.452475  0.433679  1
  Lu  Lu16  1  0.175231  0.452064  0.934151  1
  Lu  Lu17  1  0.325161  0.047525  0.433679  1
  Lu  Lu18  1  0.824386  0.951517  0.066526  1
  Lu  Lu19  1  0.675633  0.548235  0.565382  1
  Bi  Bi20  1  0.932493  0.511663  0.328586  1
  Bi  Bi21  1  0.565930  0.989139  0.828367  1
  Bi  Bi22  1  0.066046  0.010722  0.671447  1
  Bi  Bi23  1  0.434706  0.489914  0.172015  1
  Bi  Bi24  1  0.066046  0.489278  0.671447  1
  Bi  Bi25  1  0.434706  0.010086  0.172015  1
  Bi  Bi26  1  0.932493  0.988337  0.328586  1
  Bi  Bi27  1  0.565930  0.510861  0.828367  1
  Pt  Pt28  1  0.419602  0.750000  0.487518  1
  Pt  Pt29  1  0.082632  0.750000  0.989103  1
  Pt  Pt30  1  0.582095  0.250000  0.510789  1
  Pt  Pt31  1  0.917477  0.250000  0.010983  1
