# generated using pymatgen
data_Np5PaSb8(PtRh)3
_symmetry_space_group_name_H-M   'P 1'
_cell_length_a   8.43507582
_cell_length_b   8.41979618
_cell_length_c   8.43238431
_cell_angle_alpha   109.39579579
_cell_angle_beta   109.40414225
_cell_angle_gamma   109.64544168
_symmetry_Int_Tables_number   1
_chemical_formula_structural   Np5PaSb8(PtRh)3
_chemical_formula_sum   'Np5 Pa1 Sb8 Pt3 Rh3'
_cell_volume   460.83659296
_cell_formula_units_Z   1
loop_
 _symmetry_equiv_pos_site_id
 _symmetry_equiv_pos_as_xyz
  1  'x, y, z'
loop_
 _atom_site_type_symbol
 _atom_site_label
 _atom_site_symmetry_multiplicity
 _atom_site_fract_x
 _atom_site_fract_y
 _atom_site_fract_z
 _atom_site_occupancy
  Np  Np0  1  0.621027  0.747191  0.373585  1
  Np  Np1  1  0.248909  0.123367  0.870540  1
  Np  Np2  1  0.752663  0.379986  0.631804  1
  Np  Np3  1  0.131300  0.877166  0.253328  1
  Np  Np4  1  0.368763  0.621944  0.743993  1
  Pa  Pa5  1  0.879758  0.256262  0.129437  1
  Sb  Sb6  1  0.671108  0.501803  0.997087  1
  Sb  Sb7  1  0.494132  0.994144  0.668115  1
  Sb  Sb8  1  0.003896  0.678925  0.503950  1
  Sb  Sb9  1  0.827003  0.821633  0.823917  1
  Sb  Sb10  1  0.493959  0.995384  0.172799  1
  Sb  Sb11  1  0.178862  0.505640  0.002114  1
  Sb  Sb12  1  0.003371  0.173998  0.504296  1
  Sb  Sb13  1  0.329043  0.327676  0.328506  1
  Pt  Pt14  1  0.753114  0.885980  0.123343  1
  Pt  Pt15  1  0.632394  0.370575  0.248819  1
  Pt  Pt16  1  0.877925  0.131551  0.762711  1
  Rh  Rh17  1  0.374587  0.247629  0.624786  1
  Rh  Rh18  1  0.123761  0.747323  0.871627  1
  Rh  Rh19  1  0.234425  0.611820  0.365243  1
