# generated using pymatgen
data_TbHo2Pa(Ga3Ir)6
_symmetry_space_group_name_H-M   'P 1'
_cell_length_a   7.61935401
_cell_length_b   7.60902646
_cell_length_c   9.44751700
_cell_angle_alpha   90.00000000
_cell_angle_beta   90.00000000
_cell_angle_gamma   119.88087588
_symmetry_Int_Tables_number   1
_chemical_formula_structural   TbHo2Pa(Ga3Ir)6
_chemical_formula_sum   'Tb1 Ho2 Pa1 Ga18 Ir6'
_cell_volume   474.91471418
_cell_formula_units_Z   1
loop_
 _symmetry_equiv_pos_site_id
 _symmetry_equiv_pos_as_xyz
  1  'x, y, z'
loop_
 _atom_site_type_symbol
 _atom_site_label
 _atom_site_symmetry_multiplicity
 _atom_site_fract_x
 _atom_site_fract_y
 _atom_site_fract_z
 _atom_site_occupancy
  Tb  Tb0  1  0.331007  0.002923  0.750000  1
  Ho  Ho1  1  0.003955  0.331270  0.750000  1
  Ho  Ho2  1  0.669690  0.996404  0.250000  1
  Pa  Pa3  1  0.997588  0.669131  0.250000  1
  Ga  Ga4  1  0.130262  0.130103  0.250000  1
  Ga  Ga5  1  0.872806  0.873823  0.750000  1
  Ga  Ga6  1  0.998591  0.330776  0.080083  1
  Ga  Ga7  1  0.000909  0.665264  0.917018  1
  Ga  Ga8  1  0.000909  0.665264  0.582982  1
  Ga  Ga9  1  0.338381  0.002576  0.419571  1
  Ga  Ga10  1  0.998591  0.330776  0.419917  1
  Ga  Ga11  1  0.665899  0.001724  0.580836  1
  Ga  Ga12  1  0.665899  0.001724  0.919164  1
  Ga  Ga13  1  0.338381  0.002576  0.080429  1
  Ga  Ga14  1  0.331474  0.331622  0.567250  1
  Ga  Ga15  1  0.664120  0.667746  0.434351  1
  Ga  Ga16  1  0.664120  0.667746  0.065649  1
  Ga  Ga17  1  0.331474  0.331622  0.932750  1
  Ga  Ga18  1  0.339350  0.544731  0.250000  1
  Ga  Ga19  1  0.660522  0.452788  0.750000  1
  Ga  Ga20  1  0.544294  0.339967  0.250000  1
  Ga  Ga21  1  0.452814  0.661165  0.750000  1
  Ir  Ir22  1  0.674024  0.331541  0.002167  1
  Ir  Ir23  1  0.326122  0.671184  0.002199  1
  Ir  Ir24  1  0.326122  0.671184  0.497801  1
  Ir  Ir25  1  0.674024  0.331541  0.497833  1
  Ir  Ir26  1  0.999336  0.996416  0.002669  1
  Ir  Ir27  1  0.999336  0.996416  0.497331  1
