# generated using pymatgen
data_Cs2Hg3Te4
_symmetry_space_group_name_H-M   'P 1'
_cell_length_a   10.88113754
_cell_length_b   10.88113713
_cell_length_c   10.88113789
_cell_angle_alpha   142.05494909
_cell_angle_beta   102.93955951
_cell_angle_gamma   89.28241251
_symmetry_Int_Tables_number   1
_chemical_formula_structural   Cs2Hg3Te4
_chemical_formula_sum   'Cs4 Hg6 Te8'
_cell_volume   742.58224429
_cell_formula_units_Z   2
loop_
 _symmetry_equiv_pos_site_id
 _symmetry_equiv_pos_as_xyz
  1  'x, y, z'
loop_
 _atom_site_type_symbol
 _atom_site_label
 _atom_site_symmetry_multiplicity
 _atom_site_fract_x
 _atom_site_fract_y
 _atom_site_fract_z
 _atom_site_occupancy
  Cs  Cs0  1  0.877188  0.728767  0.605956  1
  Cs  Cs1  1  0.377188  0.771233  0.148421  1
  Cs  Cs2  1  0.622812  0.228767  0.851579  1
  Cs  Cs3  1  0.122812  0.271233  0.394044  1
  Hg  Hg4  1  0.962003  0.250000  0.712003  1
  Hg  Hg5  1  0.750000  0.750000  0.000000  1
  Hg  Hg6  1  0.462003  0.750000  0.712003  1
  Hg  Hg7  1  0.537997  0.250000  0.287997  1
  Hg  Hg8  1  0.250000  0.250000  0.000000  1
  Hg  Hg9  1  0.037997  0.750000  0.287997  1
  Te  Te10  1  0.274664  0.923672  0.915636  1
  Te  Te11  1  0.225336  0.140973  0.649009  1
  Te  Te12  1  0.774664  0.859027  0.350991  1
  Te  Te13  1  0.008036  0.359027  0.084364  1
  Te  Te14  1  0.725336  0.076328  0.084364  1
  Te  Te15  1  0.508036  0.423672  0.649009  1
  Te  Te16  1  0.491964  0.576328  0.350991  1
  Te  Te17  1  0.991964  0.640973  0.915636  1
