# generated using pymatgen
data_Ho8Er2(SnSb)3
_symmetry_space_group_name_H-M   'P 1'
_cell_length_a   8.92704700
_cell_length_b   8.91937984
_cell_length_c   6.40196318
_cell_angle_alpha   89.97610391
_cell_angle_beta   90.00000000
_cell_angle_gamma   120.02843594
_symmetry_Int_Tables_number   1
_chemical_formula_structural   Ho8Er2(SnSb)3
_chemical_formula_sum   'Ho8 Er2 Sn3 Sb3'
_cell_volume   441.32824188
_cell_formula_units_Z   1
loop_
 _symmetry_equiv_pos_site_id
 _symmetry_equiv_pos_as_xyz
  1  'x, y, z'
loop_
 _atom_site_type_symbol
 _atom_site_label
 _atom_site_symmetry_multiplicity
 _atom_site_fract_x
 _atom_site_fract_y
 _atom_site_fract_z
 _atom_site_occupancy
  Ho  Ho0  1  0.001122  0.759233  0.749933  1
  Ho  Ho1  1  0.001414  0.243167  0.249994  1
  Ho  Ho2  1  0.758247  0.756833  0.250006  1
  Ho  Ho3  1  0.757049  0.000000  0.750000  1
  Ho  Ho4  1  0.241891  0.240767  0.750067  1
  Ho  Ho5  1  0.239884  0.000000  0.250000  1
  Ho  Ho6  1  0.332788  0.666348  0.500328  1
  Ho  Ho7  1  0.666441  0.333652  0.999672  1
  Er  Er8  1  0.666355  0.333653  0.500209  1
  Er  Er9  1  0.332702  0.666347  0.999791  1
  Sn  Sn10  1  0.393044  0.000000  0.750000  1
  Sn  Sn11  1  0.392521  0.392553  0.250018  1
  Sn  Sn12  1  0.999968  0.607447  0.249982  1
  Sb  Sb13  1  0.999258  0.390698  0.750017  1
  Sb  Sb14  1  0.608560  0.609302  0.749983  1
  Sb  Sb15  1  0.608756  0.000000  0.250000  1
