# generated using pymatgen
data_Mo2(IrRh)3
_symmetry_space_group_name_H-M   'P 1'
_cell_length_a   5.53062000
_cell_length_b   5.53120595
_cell_length_c   4.40010400
_cell_angle_alpha   90.00000000
_cell_angle_beta   90.00000000
_cell_angle_gamma   119.99649577
_symmetry_Int_Tables_number   1
_chemical_formula_structural   Mo2(IrRh)3
_chemical_formula_sum   'Mo2 Ir3 Rh3'
_cell_volume   116.57423024
_cell_formula_units_Z   1
loop_
 _symmetry_equiv_pos_site_id
 _symmetry_equiv_pos_as_xyz
  1  'x, y, z'
loop_
 _atom_site_type_symbol
 _atom_site_label
 _atom_site_symmetry_multiplicity
 _atom_site_fract_x
 _atom_site_fract_y
 _atom_site_fract_z
 _atom_site_occupancy
  Mo  Mo0  1  0.332909  0.665820  0.250000  1
  Mo  Mo1  1  0.666154  0.332308  0.750000  1
  Ir  Ir2  1  0.833959  0.667918  0.250000  1
  Ir  Ir3  1  0.165867  0.833772  0.750000  1
  Ir  Ir4  1  0.667905  0.833772  0.750000  1
  Rh  Rh5  1  0.333291  0.166641  0.250000  1
  Rh  Rh6  1  0.833350  0.166641  0.250000  1
  Rh  Rh7  1  0.166564  0.333128  0.750000  1
