# generated using pymatgen
data_Ce2Nd2Re7Si8W9
_symmetry_space_group_name_H-M   'P 1'
_cell_length_a   4.30738200
_cell_length_b   7.05646338
_cell_length_c   16.26322998
_cell_angle_alpha   89.98454158
_cell_angle_beta   90.00000000
_cell_angle_gamma   90.00000000
_symmetry_Int_Tables_number   1
_chemical_formula_structural   Ce2Nd2Re7Si8W9
_chemical_formula_sum   'Ce2 Nd2 Re7 Si8 W9'
_cell_volume   494.31896005
_cell_formula_units_Z   1
loop_
 _symmetry_equiv_pos_site_id
 _symmetry_equiv_pos_as_xyz
  1  'x, y, z'
loop_
 _atom_site_type_symbol
 _atom_site_label
 _atom_site_symmetry_multiplicity
 _atom_site_fract_x
 _atom_site_fract_y
 _atom_site_fract_z
 _atom_site_occupancy
  Ce  Ce0  1  0.000000  0.593883  0.115312  1
  Ce  Ce1  1  0.000000  0.406144  0.884278  1
  Nd  Nd2  1  0.500000  0.090283  0.381772  1
  Nd  Nd3  1  0.500000  0.907829  0.618377  1
  Re  Re4  1  0.000000  0.561975  0.580089  1
  Re  Re5  1  0.500000  0.932904  0.077055  1
  Re  Re6  1  0.500000  0.066106  0.922034  1
  Re  Re7  1  0.000000  0.004737  0.204889  1
  Re  Re8  1  0.000000  0.995348  0.794725  1
  Re  Re9  1  0.500000  0.507596  0.291223  1
  Re  Re10  1  0.500000  0.494840  0.708419  1
  Si  Si11  1  0.000000  0.825114  0.472627  1
  Si  Si12  1  0.000000  0.170576  0.528561  1
  Si  Si13  1  0.500000  0.332820  0.026990  1
  Si  Si14  1  0.500000  0.666042  0.972714  1
  Si  Si15  1  0.000000  0.315739  0.275445  1
  Si  Si16  1  0.000000  0.685335  0.723409  1
  Si  Si17  1  0.500000  0.818855  0.221448  1
  Si  Si18  1  0.500000  0.184560  0.778120  1
  W  W19  1  0.000000  0.138207  0.051696  1
  W  W20  1  0.000000  0.861160  0.947934  1
  W  W21  1  0.500000  0.638599  0.446938  1
  W  W22  1  0.500000  0.362942  0.554948  1
  W  W23  1  0.000000  0.728577  0.314974  1
  W  W24  1  0.000000  0.271153  0.684492  1
  W  W25  1  0.500000  0.228746  0.182033  1
  W  W26  1  0.500000  0.771362  0.817725  1
  W  W27  1  0.000000  0.438568  0.421773  1
