# generated using pymatgen
data_Tm2Ga3Cu4Si
_symmetry_space_group_name_H-M   'P 1'
_cell_length_a   4.03369000
_cell_length_b   4.03369000
_cell_length_c   10.14445600
_cell_angle_alpha   90.00000000
_cell_angle_beta   90.00000000
_cell_angle_gamma   90.00000000
_symmetry_Int_Tables_number   1
_chemical_formula_structural   Tm2Ga3Cu4Si
_chemical_formula_sum   'Tm2 Ga3 Cu4 Si1'
_cell_volume   165.05694390
_cell_formula_units_Z   1
loop_
 _symmetry_equiv_pos_site_id
 _symmetry_equiv_pos_as_xyz
  1  'x, y, z'
loop_
 _atom_site_type_symbol
 _atom_site_label
 _atom_site_symmetry_multiplicity
 _atom_site_fract_x
 _atom_site_fract_y
 _atom_site_fract_z
 _atom_site_occupancy
  Tm  Tm0  1  0.000000  0.500001  0.241850  1
  Tm  Tm1  1  0.500001  0.000000  0.756587  1
  Ga  Ga2  1  0.000000  0.000000  0.498214  1
  Ga  Ga3  1  0.500001  0.500001  0.498214  1
  Ga  Ga4  1  0.000000  0.500001  0.867633  1
  Cu  Cu5  1  0.000000  0.000000  0.006948  1
  Cu  Cu6  1  0.500001  0.500001  0.006948  1
  Cu  Cu7  1  0.500001  0.000000  0.355337  1
  Cu  Cu8  1  0.000000  0.500001  0.637195  1
  Si  Si9  1  0.500001  0.000000  0.131073  1
