# generated using pymatgen
data_Nd2Y3(LuS4)3
_symmetry_space_group_name_H-M   'P 1'
_cell_length_a   3.94552400
_cell_length_b   10.97844934
_cell_length_c   11.24942500
_cell_angle_alpha   71.27200504
_cell_angle_beta   90.00000000
_cell_angle_gamma   90.00000000
_symmetry_Int_Tables_number   1
_chemical_formula_structural   Nd2Y3(LuS4)3
_chemical_formula_sum   'Nd2 Y3 Lu3 S12'
_cell_volume   461.47750403
_cell_formula_units_Z   1
loop_
 _symmetry_equiv_pos_site_id
 _symmetry_equiv_pos_as_xyz
  1  'x, y, z'
loop_
 _atom_site_type_symbol
 _atom_site_label
 _atom_site_symmetry_multiplicity
 _atom_site_fract_x
 _atom_site_fract_y
 _atom_site_fract_z
 _atom_site_occupancy
  Nd  Nd0  1  0.750000  0.549477  0.803618  1
  Nd  Nd1  1  0.250000  0.449102  0.197239  1
  Y  Y2  1  0.750000  0.180398  0.998396  1
  Y  Y3  1  0.250000  0.818938  0.003714  1
  Y  Y4  1  0.750000  0.942969  0.665072  1
  Lu  Lu5  1  0.250000  0.057969  0.333365  1
  Lu  Lu6  1  0.750000  0.659911  0.413850  1
  Lu  Lu7  1  0.250000  0.341078  0.585683  1
  S  S8  1  0.750000  0.980413  0.887671  1
  S  S9  1  0.250000  0.019604  0.116277  1
  S  S10  1  0.750000  0.304445  0.745209  1
  S  S11  1  0.250000  0.694676  0.255090  1
  S  S12  1  0.750000  0.894076  0.437896  1
  S  S13  1  0.250000  0.110793  0.553602  1
  S  S14  1  0.750000  0.418650  0.407759  1
  S  S15  1  0.250000  0.581977  0.592187  1
  S  S16  1  0.750000  0.232565  0.231420  1
  S  S17  1  0.250000  0.763695  0.771140  1
  S  S18  1  0.750000  0.616511  0.037478  1
  S  S19  1  0.250000  0.382754  0.963335  1
