# generated using pymatgen
data_Np4Tc5(As3Ru)2
_symmetry_space_group_name_H-M   'P 1'
_cell_length_a   7.23569587
_cell_length_b   7.22820133
_cell_length_c   7.24438031
_cell_angle_alpha   109.28294336
_cell_angle_beta   109.69001202
_cell_angle_gamma   109.34621614
_symmetry_Int_Tables_number   1
_chemical_formula_structural   Np4Tc5(As3Ru)2
_chemical_formula_sum   'Np4 Tc5 As6 Ru2'
_cell_volume   292.00517239
_cell_formula_units_Z   1
loop_
 _symmetry_equiv_pos_site_id
 _symmetry_equiv_pos_as_xyz
  1  'x, y, z'
loop_
 _atom_site_type_symbol
 _atom_site_label
 _atom_site_symmetry_multiplicity
 _atom_site_fract_x
 _atom_site_fract_y
 _atom_site_fract_z
 _atom_site_occupancy
  Np  Np0  1  0.998433  0.996955  0.498419  1
  Np  Np1  1  0.501443  0.002868  0.001309  1
  Np  Np2  1  0.998433  0.499988  0.001512  1
  Np  Np3  1  0.501443  0.500175  0.498555  1
  Tc  Tc4  1  0.749669  0.500006  0.250183  1
  Tc  Tc5  1  0.500429  0.749933  0.249847  1
  Tc  Tc6  1  0.499135  0.250093  0.749690  1
  Tc  Tc7  1  0.750492  0.250051  0.500006  1
  Tc  Tc8  1  0.250485  0.749964  0.500931  1
  As  As9  1  0.307847  0.000305  0.307741  1
  As  As10  1  0.000500  0.307733  0.308039  1
  As  As11  1  0.000027  0.692226  0.692533  1
  As  As12  1  0.307762  0.308166  0.999652  1
  As  As13  1  0.690988  0.691713  0.999070  1
  As  As14  1  0.692374  0.999899  0.692322  1
  Ru  Ru15  1  0.250571  0.499937  0.750268  1
  Ru  Ru16  1  0.999967  0.999992  0.999923  1
