# generated using pymatgen
data_CeY2Mg3Ir2Pt
_symmetry_space_group_name_H-M   'P 1'
_cell_length_a   7.33327191
_cell_length_b   7.55954920
_cell_length_c   4.00863600
_cell_angle_alpha   90.00000000
_cell_angle_beta   90.00000000
_cell_angle_gamma   121.02607713
_symmetry_Int_Tables_number   1
_chemical_formula_structural   CeY2Mg3Ir2Pt
_chemical_formula_sum   'Ce1 Y2 Mg3 Ir2 Pt1'
_cell_volume   190.43074934
_cell_formula_units_Z   1
loop_
 _symmetry_equiv_pos_site_id
 _symmetry_equiv_pos_as_xyz
  1  'x, y, z'
loop_
 _atom_site_type_symbol
 _atom_site_label
 _atom_site_symmetry_multiplicity
 _atom_site_fract_x
 _atom_site_fract_y
 _atom_site_fract_z
 _atom_site_occupancy
  Ce  Ce0  1  0.000000  0.425877  0.000000  1
  Y  Y1  1  0.587526  0.586777  0.000000  1
  Y  Y2  1  0.412474  0.999251  0.000000  1
  Mg  Mg3  1  0.000000  0.761032  0.500000  1
  Mg  Mg4  1  0.249799  0.247413  0.500000  1
  Mg  Mg5  1  0.750201  0.997615  0.500000  1
  Ir  Ir6  1  0.319081  0.652185  0.500000  1
  Ir  Ir7  1  0.680919  0.333103  0.500000  1
  Pt  Pt8  1  0.000000  0.996747  0.000000  1
