# generated using pymatgen
data_LiScMn2Ni10P7
_symmetry_space_group_name_H-M   'P 1'
_cell_length_a   9.05320431
_cell_length_b   9.05601294
_cell_length_c   3.56959500
_cell_angle_alpha   90.00000000
_cell_angle_beta   90.00000000
_cell_angle_gamma   120.12397579
_symmetry_Int_Tables_number   1
_chemical_formula_structural   LiScMn2Ni10P7
_chemical_formula_sum   'Li1 Sc1 Mn2 Ni10 P7'
_cell_volume   253.13082115
_cell_formula_units_Z   1
loop_
 _symmetry_equiv_pos_site_id
 _symmetry_equiv_pos_as_xyz
  1  'x, y, z'
loop_
 _atom_site_type_symbol
 _atom_site_label
 _atom_site_symmetry_multiplicity
 _atom_site_fract_x
 _atom_site_fract_y
 _atom_site_fract_z
 _atom_site_occupancy
  Li  Li0  1  0.667256  0.331878  0.500000  1
  Sc  Sc1  1  0.001062  0.002476  0.000000  1
  Mn  Mn2  1  0.110303  0.571454  0.500000  1
  Mn  Mn3  1  0.457978  0.885553  0.500000  1
  Ni  Ni4  1  0.394663  0.290356  0.000000  1
  Ni  Ni5  1  0.896976  0.606813  0.000000  1
  Ni  Ni6  1  0.708003  0.100682  0.000000  1
  Ni  Ni7  1  0.611978  0.783788  0.000000  1
  Ni  Ni8  1  0.177639  0.390702  0.000000  1
  Ni  Ni9  1  0.212020  0.828711  0.000000  1
  Ni  Ni10  1  0.768234  0.717259  0.500000  1
  Ni  Ni11  1  0.948858  0.229369  0.500000  1
  Ni  Ni12  1  0.280407  0.052008  0.500000  1
  Ni  Ni13  1  0.431265  0.537763  0.500000  1
  P  P14  1  0.625840  0.541790  0.000000  1
  P  P15  1  0.918439  0.374131  0.000000  1
  P  P16  1  0.456557  0.082654  0.000000  1
  P  P17  1  0.743363  0.958284  0.500000  1
  P  P18  1  0.214902  0.258300  0.500000  1
  P  P19  1  0.041225  0.786445  0.500000  1
  P  P20  1  0.333031  0.669582  0.000000  1
