# generated using pymatgen
data_YbTaReB6
_symmetry_space_group_name_H-M   'P 1'
_cell_length_a   3.52968700
_cell_length_b   8.91503700
_cell_length_c   11.27335400
_cell_angle_alpha   90.00000000
_cell_angle_beta   90.00000000
_cell_angle_gamma   90.00000000
_symmetry_Int_Tables_number   1
_chemical_formula_structural   YbTaReB6
_chemical_formula_sum   'Yb4 Ta4 Re4 B24'
_cell_volume   354.74190188
_cell_formula_units_Z   4
loop_
 _symmetry_equiv_pos_site_id
 _symmetry_equiv_pos_as_xyz
  1  'x, y, z'
loop_
 _atom_site_type_symbol
 _atom_site_label
 _atom_site_symmetry_multiplicity
 _atom_site_fract_x
 _atom_site_fract_y
 _atom_site_fract_z
 _atom_site_occupancy
  Yb  Yb0  1  0.000000  0.322730  0.414520  1
  Yb  Yb1  1  0.000000  0.677270  0.585480  1
  Yb  Yb2  1  0.000000  0.822730  0.085480  1
  Yb  Yb3  1  0.000000  0.177270  0.914520  1
  Ta  Ta4  1  0.000000  0.946826  0.373442  1
  Ta  Ta5  1  0.000000  0.053174  0.626558  1
  Ta  Ta6  1  0.000000  0.446826  0.126558  1
  Ta  Ta7  1  0.000000  0.553174  0.873442  1
  Re  Re8  1  0.000000  0.644355  0.315786  1
  Re  Re9  1  0.000000  0.355645  0.684214  1
  Re  Re10  1  0.000000  0.144355  0.184214  1
  Re  Re11  1  0.000000  0.855645  0.815786  1
  B  B12  1  0.500000  0.554230  0.433167  1
  B  B13  1  0.500000  0.445770  0.566833  1
  B  B14  1  0.500000  0.054230  0.066833  1
  B  B15  1  0.500000  0.945770  0.933167  1
  B  B16  1  0.500000  0.754319  0.417858  1
  B  B17  1  0.500000  0.245681  0.582142  1
  B  B18  1  0.500000  0.254319  0.082142  1
  B  B19  1  0.500000  0.745681  0.917858  1
  B  B20  1  0.500000  0.798188  0.263158  1
  B  B21  1  0.500000  0.201812  0.736842  1
  B  B22  1  0.500000  0.298188  0.236842  1
  B  B23  1  0.500000  0.701812  0.763158  1
  B  B24  1  0.500000  0.631142  0.180428  1
  B  B25  1  0.500000  0.368858  0.819572  1
  B  B26  1  0.500000  0.131142  0.319572  1
  B  B27  1  0.500000  0.868858  0.680428  1
  B  B28  1  0.500000  0.982186  0.213746  1
  B  B29  1  0.500000  0.017814  0.786254  1
  B  B30  1  0.500000  0.482186  0.286254  1
  B  B31  1  0.500000  0.517814  0.713746  1
  B  B32  1  0.500000  0.599084  0.025932  1
  B  B33  1  0.500000  0.400916  0.974068  1
  B  B34  1  0.500000  0.099084  0.474068  1
  B  B35  1  0.500000  0.900916  0.525932  1
