# generated using pymatgen
data_Dy4Mg2B4IrRh9
_symmetry_space_group_name_H-M   'P 1'
_cell_length_a   9.64947819
_cell_length_b   9.64947819
_cell_length_c   3.19161400
_cell_angle_alpha   90.00000000
_cell_angle_beta   90.00000000
_cell_angle_gamma   89.77747833
_symmetry_Int_Tables_number   1
_chemical_formula_structural   Dy4Mg2B4IrRh9
_chemical_formula_sum   'Dy4 Mg2 B4 Ir1 Rh9'
_cell_volume   297.17669203
_cell_formula_units_Z   1
loop_
 _symmetry_equiv_pos_site_id
 _symmetry_equiv_pos_as_xyz
  1  'x, y, z'
loop_
 _atom_site_type_symbol
 _atom_site_label
 _atom_site_symmetry_multiplicity
 _atom_site_fract_x
 _atom_site_fract_y
 _atom_site_fract_z
 _atom_site_occupancy
  Dy  Dy0  1  0.678001  0.178001  0.000000  1
  Dy  Dy1  1  0.321999  0.821999  0.000000  1
  Dy  Dy2  1  0.176270  0.323730  0.000000  1
  Dy  Dy3  1  0.823730  0.676270  0.000000  1
  Mg  Mg4  1  0.000000  0.000000  0.000000  1
  Mg  Mg5  1  0.500000  0.500000  0.000000  1
  B  B6  1  0.121681  0.621681  0.000000  1
  B  B7  1  0.878319  0.378319  0.000000  1
  B  B8  1  0.621357  0.878643  0.000000  1
  B  B9  1  0.378643  0.121357  0.000000  1
  Ir  Ir10  1  0.500000  0.000000  0.500000  1
  Rh  Rh11  1  0.000000  0.500000  0.500000  1
  Rh  Rh12  1  0.224302  0.070470  0.500000  1
  Rh  Rh13  1  0.775698  0.929530  0.500000  1
  Rh  Rh14  1  0.069261  0.774818  0.500000  1
  Rh  Rh15  1  0.725182  0.430739  0.500000  1
  Rh  Rh16  1  0.930739  0.225182  0.500000  1
  Rh  Rh17  1  0.274818  0.569261  0.500000  1
  Rh  Rh18  1  0.570470  0.724302  0.500000  1
  Rh  Rh19  1  0.429530  0.275698  0.500000  1
