# generated using pymatgen
data_Tm2Lu2InPt
_symmetry_space_group_name_H-M   'P 1'
_cell_length_a   9.55172529
_cell_length_b   9.55172405
_cell_length_c   9.55324400
_cell_angle_alpha   59.99473594
_cell_angle_beta   59.99474024
_cell_angle_gamma   60.01053282
_symmetry_Int_Tables_number   1
_chemical_formula_structural   Tm2Lu2InPt
_chemical_formula_sum   'Tm8 Lu8 In4 Pt4'
_cell_volume   616.31036383
_cell_formula_units_Z   4
loop_
 _symmetry_equiv_pos_site_id
 _symmetry_equiv_pos_as_xyz
  1  'x, y, z'
loop_
 _atom_site_type_symbol
 _atom_site_label
 _atom_site_symmetry_multiplicity
 _atom_site_fract_x
 _atom_site_fract_y
 _atom_site_fract_z
 _atom_site_occupancy
  Tm  Tm0  1  0.188673  0.188673  0.811327  1
  Tm  Tm1  1  0.811327  0.811327  0.188673  1
  Tm  Tm2  1  0.937651  0.562349  0.562349  1
  Tm  Tm3  1  0.562349  0.937651  0.937651  1
  Tm  Tm4  1  0.562349  0.937651  0.562349  1
  Tm  Tm5  1  0.937651  0.562349  0.937651  1
  Tm  Tm6  1  0.562219  0.562219  0.937781  1
  Tm  Tm7  1  0.937781  0.937781  0.562219  1
  Lu  Lu8  1  0.351111  0.351111  0.351422  1
  Lu  Lu9  1  0.351111  0.351111  0.946359  1
  Lu  Lu10  1  0.351422  0.946359  0.351111  1
  Lu  Lu11  1  0.946359  0.351422  0.351111  1
  Lu  Lu12  1  0.811023  0.188977  0.188977  1
  Lu  Lu13  1  0.188977  0.811023  0.811023  1
  Lu  Lu14  1  0.188977  0.811023  0.188977  1
  Lu  Lu15  1  0.811023  0.188977  0.811023  1
  In  In16  1  0.583037  0.583037  0.583113  1
  In  In17  1  0.583037  0.583037  0.250814  1
  In  In18  1  0.583113  0.250814  0.583037  1
  In  In19  1  0.250814  0.583113  0.583037  1
  Pt  Pt20  1  0.142718  0.142718  0.144209  1
  Pt  Pt21  1  0.142718  0.142718  0.570356  1
  Pt  Pt22  1  0.144209  0.570356  0.142718  1
  Pt  Pt23  1  0.570356  0.144209  0.142718  1
