# generated using pymatgen
data_DyLu2Ga7Cu4
_symmetry_space_group_name_H-M   'P 1'
_cell_length_a   7.94001179
_cell_length_b   7.94001156
_cell_length_c   9.33650711
_cell_angle_alpha   54.33024510
_cell_angle_beta   54.33024647
_cell_angle_gamma   30.66386879
_symmetry_Int_Tables_number   1
_chemical_formula_structural   DyLu2Ga7Cu4
_chemical_formula_sum   'Dy1 Lu2 Ga7 Cu4'
_cell_volume   239.10366127
_cell_formula_units_Z   1
loop_
 _symmetry_equiv_pos_site_id
 _symmetry_equiv_pos_as_xyz
  1  'x, y, z'
loop_
 _atom_site_type_symbol
 _atom_site_label
 _atom_site_symmetry_multiplicity
 _atom_site_fract_x
 _atom_site_fract_y
 _atom_site_fract_z
 _atom_site_occupancy
  Dy  Dy0  1  0.302440  0.302440  0.704336  1
  Lu  Lu1  1  0.999550  0.999550  0.000401  1
  Lu  Lu2  1  0.697141  0.697141  0.294369  1
  Ga  Ga3  1  0.859396  0.859396  0.419256  1
  Ga  Ga4  1  0.140982  0.140982  0.579203  1
  Ga  Ga5  1  0.138981  0.138981  0.133473  1
  Ga  Ga6  1  0.860859  0.860859  0.868156  1
  Ga  Ga7  1  0.000466  0.000466  0.499955  1
  Ga  Ga8  1  0.344557  0.344557  0.275678  1
  Ga  Ga9  1  0.654402  0.654402  0.725142  1
  Cu  Cu10  1  0.497418  0.497418  0.311339  1
  Cu  Cu11  1  0.504499  0.504499  0.686873  1
  Cu  Cu12  1  0.655975  0.655975  0.984454  1
  Cu  Cu13  1  0.343332  0.343332  0.017366  1
