# generated using pymatgen
data_Ca7Pt16
_symmetry_space_group_name_H-M   'P 1'
_cell_length_a   9.43905763
_cell_length_b   9.43905722
_cell_length_c   9.43905820
_cell_angle_alpha   131.98816411
_cell_angle_beta   131.98817126
_cell_angle_gamma   70.24772003
_symmetry_Int_Tables_number   1
_chemical_formula_structural   Ca7Pt16
_chemical_formula_sum   'Ca7 Pt16'
_cell_volume   455.38586448
_cell_formula_units_Z   1
loop_
 _symmetry_equiv_pos_site_id
 _symmetry_equiv_pos_as_xyz
  1  'x, y, z'
loop_
 _atom_site_type_symbol
 _atom_site_label
 _atom_site_symmetry_multiplicity
 _atom_site_fract_x
 _atom_site_fract_y
 _atom_site_fract_z
 _atom_site_occupancy
  Ca  Ca0  1  0.109248  0.109248  0.441425  1
  Ca  Ca1  1  0.667822  0.667822  0.558575  1
  Ca  Ca2  1  0.890752  0.332178  0.000000  1
  Ca  Ca3  1  0.750000  0.250000  0.500000  1
  Ca  Ca4  1  0.500000  0.500000  0.000000  1
  Ca  Ca5  1  0.332178  0.890752  0.000000  1
  Ca  Ca6  1  0.250000  0.750000  0.500000  1
  Pt  Pt7  1  0.434936  0.189372  0.000000  1
  Pt  Pt8  1  0.684380  0.936062  0.491380  1
  Pt  Pt9  1  0.936062  0.684380  0.491380  1
  Pt  Pt10  1  0.189372  0.434936  0.000000  1
  Pt  Pt11  1  0.315620  0.806999  0.251681  1
  Pt  Pt12  1  0.938894  0.678581  0.000000  1
  Pt  Pt13  1  0.810628  0.810628  0.245564  1
  Pt  Pt14  1  0.063938  0.555316  0.748319  1
  Pt  Pt15  1  0.061106  0.061106  0.739687  1
  Pt  Pt16  1  0.678581  0.938894  0.000000  1
  Pt  Pt17  1  0.565064  0.565064  0.754436  1
  Pt  Pt18  1  0.806999  0.315620  0.251681  1
  Pt  Pt19  1  0.555316  0.063938  0.748319  1
  Pt  Pt20  1  0.193001  0.444684  0.508620  1
  Pt  Pt21  1  0.321419  0.321419  0.260313  1
  Pt  Pt22  1  0.444684  0.193001  0.508620  1
