# generated using pymatgen
data_CaDyNb2(ReB6)2
_symmetry_space_group_name_H-M   'P 1'
_cell_length_a   3.55704700
_cell_length_b   8.97161411
_cell_length_c   11.34715953
_cell_angle_alpha   90.07235066
_cell_angle_beta   90.00000000
_cell_angle_gamma   90.00000000
_symmetry_Int_Tables_number   1
_chemical_formula_structural   CaDyNb2(ReB6)2
_chemical_formula_sum   'Ca2 Dy2 Nb4 Re4 B24'
_cell_volume   362.11540708
_cell_formula_units_Z   2
loop_
 _symmetry_equiv_pos_site_id
 _symmetry_equiv_pos_as_xyz
  1  'x, y, z'
loop_
 _atom_site_type_symbol
 _atom_site_label
 _atom_site_symmetry_multiplicity
 _atom_site_fract_x
 _atom_site_fract_y
 _atom_site_fract_z
 _atom_site_occupancy
  Ca  Ca0  1  0.000000  0.323201  0.414443  1
  Ca  Ca1  1  0.000000  0.676799  0.585557  1
  Dy  Dy2  1  0.000000  0.822764  0.086607  1
  Dy  Dy3  1  0.000000  0.177236  0.913393  1
  Nb  Nb4  1  0.000000  0.946714  0.375325  1
  Nb  Nb5  1  0.000000  0.053286  0.624675  1
  Nb  Nb6  1  0.000000  0.446612  0.125836  1
  Nb  Nb7  1  0.000000  0.553388  0.874164  1
  Re  Re8  1  0.000000  0.645740  0.315728  1
  Re  Re9  1  0.000000  0.354260  0.684272  1
  Re  Re10  1  0.000000  0.143515  0.181981  1
  Re  Re11  1  0.000000  0.856485  0.818019  1
  B  B12  1  0.500000  0.554371  0.433057  1
  B  B13  1  0.500000  0.445629  0.566943  1
  B  B14  1  0.500000  0.054284  0.066953  1
  B  B15  1  0.500000  0.945716  0.933047  1
  B  B16  1  0.500000  0.754518  0.417733  1
  B  B17  1  0.500000  0.245482  0.582267  1
  B  B18  1  0.500000  0.254989  0.082757  1
  B  B19  1  0.500000  0.745011  0.917243  1
  B  B20  1  0.500000  0.797983  0.262999  1
  B  B21  1  0.500000  0.202017  0.737001  1
  B  B22  1  0.500000  0.298182  0.237476  1
  B  B23  1  0.500000  0.701818  0.762524  1
  B  B24  1  0.500000  0.630546  0.181249  1
  B  B25  1  0.500000  0.369454  0.818751  1
  B  B26  1  0.500000  0.131216  0.319257  1
  B  B27  1  0.500000  0.868784  0.680743  1
  B  B28  1  0.500000  0.982784  0.213863  1
  B  B29  1  0.500000  0.017216  0.786137  1
  B  B30  1  0.500000  0.482374  0.286689  1
  B  B31  1  0.500000  0.517626  0.713311  1
  B  B32  1  0.500000  0.599032  0.025967  1
  B  B33  1  0.500000  0.400968  0.974033  1
  B  B34  1  0.500000  0.098649  0.474081  1
  B  B35  1  0.500000  0.901351  0.525919  1
