# generated using pymatgen
data_Er(MnAl5)2
_symmetry_space_group_name_H-M   'P 1'
_cell_length_a   6.79610688
_cell_length_b   6.79610655
_cell_length_c   9.03512600
_cell_angle_alpha   90.00000000
_cell_angle_beta   90.00000000
_cell_angle_gamma   97.30868216
_symmetry_Int_Tables_number   1
_chemical_formula_structural   Er(MnAl5)2
_chemical_formula_sum   'Er2 Mn4 Al20'
_cell_volume   413.91542796
_cell_formula_units_Z   2
loop_
 _symmetry_equiv_pos_site_id
 _symmetry_equiv_pos_as_xyz
  1  'x, y, z'
loop_
 _atom_site_type_symbol
 _atom_site_label
 _atom_site_symmetry_multiplicity
 _atom_site_fract_x
 _atom_site_fract_y
 _atom_site_fract_z
 _atom_site_occupancy
  Er  Er0  1  0.873349  0.126651  0.750000  1
  Er  Er1  1  0.126651  0.873349  0.250000  1
  Mn  Mn2  1  0.000000  0.500000  0.500000  1
  Mn  Mn3  1  0.000000  0.500000  0.000000  1
  Mn  Mn4  1  0.500000  0.000000  0.000000  1
  Mn  Mn5  1  0.500000  0.000000  0.500000  1
  Al  Al6  1  0.625908  0.374092  0.546609  1
  Al  Al7  1  0.374092  0.625908  0.453391  1
  Al  Al8  1  0.374092  0.625908  0.046609  1
  Al  Al9  1  0.625908  0.374092  0.953391  1
  Al  Al10  1  0.228479  0.228479  0.500000  1
  Al  Al11  1  0.771521  0.771521  0.500000  1
  Al  Al12  1  0.771521  0.771521  0.000000  1
  Al  Al13  1  0.228479  0.228479  0.000000  1
  Al  Al14  1  0.843183  0.156817  0.096461  1
  Al  Al15  1  0.156817  0.843183  0.903539  1
  Al  Al16  1  0.156817  0.843183  0.596461  1
  Al  Al17  1  0.843183  0.156817  0.403539  1
  Al  Al18  1  0.867096  0.586486  0.750000  1
  Al  Al19  1  0.132904  0.413514  0.250000  1
  Al  Al20  1  0.413514  0.132904  0.750000  1
  Al  Al21  1  0.586486  0.867096  0.250000  1
  Al  Al22  1  0.218300  0.475398  0.750000  1
  Al  Al23  1  0.781700  0.524602  0.250000  1
  Al  Al24  1  0.524602  0.781700  0.750000  1
  Al  Al25  1  0.475398  0.218300  0.250000  1
