# generated using pymatgen
data_Er7Tm3(SiBi)4
_symmetry_space_group_name_H-M   'P 1'
_cell_length_a   8.57121484
_cell_length_b   8.57332395
_cell_length_c   7.84476817
_cell_angle_alpha   90.01760653
_cell_angle_beta   90.00308471
_cell_angle_gamma   125.66088373
_symmetry_Int_Tables_number   1
_chemical_formula_structural   Er7Tm3(SiBi)4
_chemical_formula_sum   'Er7 Tm3 Si4 Bi4'
_cell_volume   468.36592652
_cell_formula_units_Z   1
loop_
 _symmetry_equiv_pos_site_id
 _symmetry_equiv_pos_as_xyz
  1  'x, y, z'
loop_
 _atom_site_type_symbol
 _atom_site_label
 _atom_site_symmetry_multiplicity
 _atom_site_fract_x
 _atom_site_fract_y
 _atom_site_fract_z
 _atom_site_occupancy
  Er  Er0  1  0.957583  0.713971  0.663970  1
  Er  Er1  1  0.457547  0.213955  0.836020  1
  Er  Er2  1  0.786156  0.542524  0.164005  1
  Er  Er3  1  0.542445  0.786227  0.163995  1
  Er  Er4  1  0.213818  0.457617  0.836035  1
  Er  Er5  1  0.713861  0.957565  0.663902  1
  Er  Er6  1  0.286140  0.042459  0.335984  1
  Tm  Tm7  1  0.042751  0.285373  0.336276  1
  Tm  Tm8  1  0.000006  0.000133  0.000116  1
  Tm  Tm9  1  0.499785  0.499924  0.499937  1
  Si  Si10  1  0.364330  0.364637  0.134302  1
  Si  Si11  1  0.635361  0.635403  0.865812  1
  Si  Si12  1  0.135299  0.135439  0.633937  1
  Si  Si13  1  0.864742  0.864911  0.365839  1
  Bi  Bi14  1  0.792880  0.207464  0.000289  1
  Bi  Bi15  1  0.207328  0.792733  0.999943  1
  Bi  Bi16  1  0.707604  0.292693  0.499858  1
  Bi  Bi17  1  0.292366  0.706971  0.499780  1
