# generated using pymatgen
data_HoZr(Pa2Ga5)2
_symmetry_space_group_name_H-M   'P 1'
_cell_length_a   5.98191786
_cell_length_b   5.98192017
_cell_length_c   9.41753800
_cell_angle_alpha   90.00000000
_cell_angle_beta   90.00000000
_cell_angle_gamma   102.93294510
_symmetry_Int_Tables_number   1
_chemical_formula_structural   HoZr(Pa2Ga5)2
_chemical_formula_sum   'Ho1 Zr1 Pa4 Ga10'
_cell_volume   328.44253979
_cell_formula_units_Z   1
loop_
 _symmetry_equiv_pos_site_id
 _symmetry_equiv_pos_as_xyz
  1  'x, y, z'
loop_
 _atom_site_type_symbol
 _atom_site_label
 _atom_site_symmetry_multiplicity
 _atom_site_fract_x
 _atom_site_fract_y
 _atom_site_fract_z
 _atom_site_occupancy
  Ho  Ho0  1  0.643310  0.643310  0.250000  1
  Zr  Zr1  1  0.353969  0.353969  0.750000  1
  Pa  Pa2  1  0.793217  0.204218  0.999785  1
  Pa  Pa3  1  0.204218  0.793217  0.999785  1
  Pa  Pa4  1  0.204218  0.793217  0.500215  1
  Pa  Pa5  1  0.793217  0.204218  0.500215  1
  Ga  Ga6  1  0.083263  0.485266  0.250000  1
  Ga  Ga7  1  0.926061  0.512531  0.750000  1
  Ga  Ga8  1  0.485266  0.083263  0.250000  1
  Ga  Ga9  1  0.512531  0.926061  0.750000  1
  Ga  Ga10  1  0.028836  0.028836  0.250000  1
  Ga  Ga11  1  0.977189  0.977189  0.750000  1
  Ga  Ga12  1  0.314496  0.314496  0.047171  1
  Ga  Ga13  1  0.682857  0.682857  0.943546  1
  Ga  Ga14  1  0.682857  0.682857  0.556454  1
  Ga  Ga15  1  0.314496  0.314496  0.452829  1
