# generated using pymatgen
data_U4Ga4Si2Tc7
_symmetry_space_group_name_H-M   'P 1'
_cell_length_a   7.18323817
_cell_length_b   7.18323902
_cell_length_c   7.18853887
_cell_angle_alpha   109.44484552
_cell_angle_beta   109.44485474
_cell_angle_gamma   109.49410888
_symmetry_Int_Tables_number   1
_chemical_formula_structural   U4Ga4Si2Tc7
_chemical_formula_sum   'U4 Ga4 Si2 Tc7'
_cell_volume   285.64007548
_cell_formula_units_Z   1
loop_
 _symmetry_equiv_pos_site_id
 _symmetry_equiv_pos_as_xyz
  1  'x, y, z'
loop_
 _atom_site_type_symbol
 _atom_site_label
 _atom_site_symmetry_multiplicity
 _atom_site_fract_x
 _atom_site_fract_y
 _atom_site_fract_z
 _atom_site_occupancy
  U  U0  1  0.475346  0.475346  0.477993  1
  U  U1  1  0.002855  0.502855  0.005710  1
  U  U2  1  0.502855  0.002855  0.005710  1
  U  U3  1  0.002647  0.002647  0.477993  1
  Ga  Ga4  1  0.709071  0.992116  0.701187  1
  Ga  Ga5  1  0.686765  0.686765  0.984695  1
  Ga  Ga6  1  0.297930  0.297930  0.984695  1
  Ga  Ga7  1  0.992116  0.709071  0.701187  1
  Si  Si8  1  0.994499  0.323192  0.317691  1
  Si  Si9  1  0.323192  0.994499  0.317691  1
  Tc  Tc10  1  0.497139  0.747004  0.244143  1
  Tc  Tc11  1  0.748761  0.248761  0.497522  1
  Tc  Tc12  1  0.248761  0.748761  0.497522  1
  Tc  Tc13  1  0.243368  0.500746  0.744114  1
  Tc  Tc14  1  0.026944  0.026944  0.053888  1
  Tc  Tc15  1  0.500746  0.243368  0.744114  1
  Tc  Tc16  1  0.747004  0.497139  0.244143  1
