# generated using pymatgen
data_GaFe3(PbCl8)2
_symmetry_space_group_name_H-M   'P 1'
_cell_length_a   7.08308607
_cell_length_b   7.83091123
_cell_length_c   12.86369000
_cell_angle_alpha   85.59004853
_cell_angle_beta   90.04380247
_cell_angle_gamma   89.99316139
_symmetry_Int_Tables_number   1
_chemical_formula_structural   GaFe3(PbCl8)2
_chemical_formula_sum   'Ga1 Fe3 Pb2 Cl16'
_cell_volume   711.39789769
_cell_formula_units_Z   1
loop_
 _symmetry_equiv_pos_site_id
 _symmetry_equiv_pos_as_xyz
  1  'x, y, z'
loop_
 _atom_site_type_symbol
 _atom_site_label
 _atom_site_symmetry_multiplicity
 _atom_site_fract_x
 _atom_site_fract_y
 _atom_site_fract_z
 _atom_site_occupancy
  Ga  Ga0  1  0.260762  0.325508  0.918973  1
  Fe  Fe1  1  0.260967  0.675026  0.581124  1
  Fe  Fe2  1  0.739170  0.675078  0.077713  1
  Fe  Fe3  1  0.738933  0.324724  0.422353  1
  Pb  Pb4  1  0.845739  0.502322  0.749128  1
  Pb  Pb5  1  0.152684  0.501062  0.250232  1
  Cl  Cl6  1  0.823222  0.405271  0.114906  1
  Cl  Cl7  1  0.822800  0.594843  0.385770  1
  Cl  Cl8  1  0.301141  0.732710  0.411524  1
  Cl  Cl9  1  0.303195  0.265948  0.087849  1
  Cl  Cl10  1  0.698341  0.265005  0.591508  1
  Cl  Cl11  1  0.697553  0.734588  0.908513  1
  Cl  Cl12  1  0.020757  0.820408  0.641176  1
  Cl  Cl13  1  0.021974  0.179440  0.859134  1
  Cl  Cl14  1  0.978326  0.180105  0.361081  1
  Cl  Cl15  1  0.978524  0.819695  0.139464  1
  Cl  Cl16  1  0.529514  0.736392  0.655925  1
  Cl  Cl17  1  0.527126  0.261353  0.843527  1
  Cl  Cl18  1  0.470817  0.265868  0.345333  1
  Cl  Cl19  1  0.471391  0.733985  0.154644  1
  Cl  Cl20  1  0.178430  0.404678  0.617066  1
  Cl  Cl21  1  0.178635  0.595995  0.883058  1
