# generated using pymatgen
data_YbTh2ScSb5
_symmetry_space_group_name_H-M   'P 1'
_cell_length_a   9.50752700
_cell_length_b   9.51070206
_cell_length_c   6.46539100
_cell_angle_alpha   90.00000000
_cell_angle_beta   90.00000000
_cell_angle_gamma   120.01105398
_symmetry_Int_Tables_number   1
_chemical_formula_structural   YbTh2ScSb5
_chemical_formula_sum   'Yb2 Th4 Sc2 Sb10'
_cell_volume   506.24084784
_cell_formula_units_Z   2
loop_
 _symmetry_equiv_pos_site_id
 _symmetry_equiv_pos_as_xyz
  1  'x, y, z'
loop_
 _atom_site_type_symbol
 _atom_site_label
 _atom_site_symmetry_multiplicity
 _atom_site_fract_x
 _atom_site_fract_y
 _atom_site_fract_z
 _atom_site_occupancy
  Yb  Yb0  1  0.623354  0.624854  0.750000  1
  Yb  Yb1  1  0.623354  0.998499  0.250000  1
  Th  Th2  1  0.388014  0.998909  0.750000  1
  Th  Th3  1  0.388014  0.389104  0.250000  1
  Th  Th4  1  0.995730  0.617127  0.250000  1
  Th  Th5  1  0.995730  0.378603  0.750000  1
  Sc  Sc6  1  0.995752  0.997876  0.000000  1
  Sc  Sc7  1  0.995752  0.997876  0.500000  1
  Sb  Sb8  1  0.663185  0.331592  0.500000  1
  Sb  Sb9  1  0.327580  0.663791  0.000000  1
  Sb  Sb10  1  0.738938  0.000576  0.750000  1
  Sb  Sb11  1  0.738938  0.738362  0.250000  1
  Sb  Sb12  1  0.327580  0.663791  0.500000  1
  Sb  Sb13  1  0.663185  0.331592  0.000000  1
  Sb  Sb14  1  0.263815  0.000789  0.250000  1
  Sb  Sb15  1  0.263815  0.263024  0.750000  1
  Sb  Sb16  1  0.003634  0.738206  0.750000  1
  Sb  Sb17  1  0.003634  0.265429  0.250000  1
