# generated using pymatgen
data_Na2PtRhPb2
_symmetry_space_group_name_H-M   'P 1'
_cell_length_a   6.00349196
_cell_length_b   6.00349134
_cell_length_c   5.33737147
_cell_angle_alpha   105.18308681
_cell_angle_beta   105.18309551
_cell_angle_gamma   122.29715769
_symmetry_Int_Tables_number   1
_chemical_formula_structural   Na2PtRhPb2
_chemical_formula_sum   'Na2 Pt1 Rh1 Pb2'
_cell_volume   136.57170466
_cell_formula_units_Z   1
loop_
 _symmetry_equiv_pos_site_id
 _symmetry_equiv_pos_as_xyz
  1  'x, y, z'
loop_
 _atom_site_type_symbol
 _atom_site_label
 _atom_site_symmetry_multiplicity
 _atom_site_fract_x
 _atom_site_fract_y
 _atom_site_fract_z
 _atom_site_occupancy
  Na  Na0  1  0.923099  0.423099  0.846197  1
  Na  Na1  1  0.576901  0.076901  0.153803  1
  Pt  Pt2  1  0.000000  0.000000  0.000000  1
  Rh  Rh3  1  0.500000  0.500000  0.000000  1
  Pb  Pb4  1  0.087102  0.912898  0.500000  1
  Pb  Pb5  1  0.412898  0.587102  0.500000  1
