# generated using pymatgen
data_Li14(Ca2Ga3)3
_symmetry_space_group_name_H-M   'P 1'
_cell_length_a   9.33856800
_cell_length_b   9.38244381
_cell_length_c   9.42912500
_cell_angle_alpha   120.48384798
_cell_angle_beta   90.00000000
_cell_angle_gamma   119.84542702
_symmetry_Int_Tables_number   1
_chemical_formula_structural   Li14(Ca2Ga3)3
_chemical_formula_sum   'Li14 Ca6 Ga9'
_cell_volume   581.25038501
_cell_formula_units_Z   1
loop_
 _symmetry_equiv_pos_site_id
 _symmetry_equiv_pos_as_xyz
  1  'x, y, z'
loop_
 _atom_site_type_symbol
 _atom_site_label
 _atom_site_symmetry_multiplicity
 _atom_site_fract_x
 _atom_site_fract_y
 _atom_site_fract_z
 _atom_site_occupancy
  Li  Li0  1  0.524022  0.350534  0.175581  1
  Li  Li1  1  0.826512  0.350534  0.175581  1
  Li  Li2  1  0.134115  0.755365  0.373304  1
  Li  Li3  1  0.621251  0.755365  0.373304  1
  Li  Li4  1  0.617850  0.235699  0.375094  1
  Li  Li5  1  0.824379  0.648759  0.472144  1
  Li  Li6  1  0.173753  0.347506  0.522213  1
  Li  Li7  1  0.376186  0.752371  0.621939  1
  Li  Li8  1  0.376828  0.242887  0.619960  1
  Li  Li9  1  0.866060  0.242887  0.619960  1
  Li  Li10  1  0.176631  0.657569  0.833572  1
  Li  Li11  1  0.480938  0.657569  0.833572  1
  Li  Li12  1  0.173158  0.346317  0.830248  1
  Li  Li13  1  0.624370  0.248741  0.870805  1
  Ca  Ca14  1  0.788920  0.001295  0.213243  1
  Ca  Ca15  1  0.215735  0.431468  0.217188  1
  Ca  Ca16  1  0.212374  0.001295  0.213244  1
  Ca  Ca17  1  0.781811  0.994389  0.780318  1
  Ca  Ca18  1  0.212577  0.994389  0.780318  1
  Ca  Ca19  1  0.784471  0.568943  0.780869  1
  Ga  Ga20  1  0.500414  0.000827  0.004939  1
  Ga  Ga21  1  0.998000  0.496514  0.997396  1
  Ga  Ga22  1  0.498515  0.496514  0.997396  1
  Ga  Ga23  1  0.381776  0.763551  0.139796  1
  Ga  Ga24  1  0.830629  0.661256  0.173063  1
  Ga  Ga25  1  0.500655  0.001311  0.501792  1
  Ga  Ga26  1  0.998874  0.997747  0.498455  1
  Ga  Ga27  1  0.001061  0.499200  0.502354  1
  Ga  Ga28  1  0.498139  0.499200  0.502354  1
