# generated using pymatgen
data_CsU2P3O14
_symmetry_space_group_name_H-M   'P 1'
_cell_length_a   10.46570300
_cell_length_b   10.95257800
_cell_length_c   11.30327900
_cell_angle_alpha   90.00000000
_cell_angle_beta   90.00000000
_cell_angle_gamma   90.00000000
_symmetry_Int_Tables_number   1
_chemical_formula_structural   CsU2P3O14
_chemical_formula_sum   'Cs4 U8 P12 O56'
_cell_volume   1295.65450134
_cell_formula_units_Z   4
loop_
 _symmetry_equiv_pos_site_id
 _symmetry_equiv_pos_as_xyz
  1  'x, y, z'
loop_
 _atom_site_type_symbol
 _atom_site_label
 _atom_site_symmetry_multiplicity
 _atom_site_fract_x
 _atom_site_fract_y
 _atom_site_fract_z
 _atom_site_occupancy
  Cs  Cs0  1  0.387720  0.000000  0.250000  1
  Cs  Cs1  1  0.112280  0.500000  0.750000  1
  Cs  Cs2  1  0.887720  0.500000  0.250000  1
  Cs  Cs3  1  0.612280  0.000000  0.750000  1
  U  U4  1  0.677638  0.809115  0.089507  1
  U  U5  1  0.177638  0.309115  0.410493  1
  U  U6  1  0.822362  0.690885  0.589507  1
  U  U7  1  0.177638  0.690885  0.089507  1
  U  U8  1  0.322362  0.190885  0.910493  1
  U  U9  1  0.322362  0.809115  0.589507  1
  U  U10  1  0.822362  0.309115  0.910493  1
  U  U11  1  0.677638  0.190885  0.410493  1
  P  P12  1  0.583293  0.500000  0.750000  1
  P  P13  1  0.430462  0.686612  0.877265  1
  P  P14  1  0.569538  0.686612  0.377265  1
  P  P15  1  0.069538  0.186612  0.122735  1
  P  P16  1  0.930462  0.813388  0.877265  1
  P  P17  1  0.916707  0.000000  0.250000  1
  P  P18  1  0.069538  0.813388  0.377265  1
  P  P19  1  0.569538  0.313388  0.122735  1
  P  P20  1  0.416707  0.500000  0.250000  1
  P  P21  1  0.083293  0.000000  0.750000  1
  P  P22  1  0.930462  0.186612  0.622735  1
  P  P23  1  0.430462  0.313388  0.622735  1
  O  O24  1  0.428805  0.762161  0.763568  1
  O  O25  1  0.747670  0.658704  0.095051  1
  O  O26  1  0.989309  0.948612  0.848785  1
  O  O27  1  0.108702  0.539856  0.084383  1
  O  O28  1  0.203043  0.155202  0.077165  1
  O  O29  1  0.571195  0.237839  0.236432  1
  O  O30  1  0.752330  0.158704  0.904949  1
  O  O31  1  0.843570  0.894919  0.196669  1
  O  O32  1  0.747670  0.341296  0.404949  1
  O  O33  1  0.703043  0.655202  0.422835  1
  O  O34  1  0.489309  0.551388  0.848785  1
  O  O35  1  0.391298  0.039856  0.915617  1
  O  O36  1  0.517078  0.257631  0.529361  1
  O  O37  1  0.928805  0.737839  0.763568  1
  O  O38  1  0.796957  0.155202  0.577165  1
  O  O39  1  0.010691  0.948612  0.348785  1
  O  O40  1  0.428805  0.237839  0.736432  1
  O  O41  1  0.982922  0.242369  0.029361  1
  O  O42  1  0.343570  0.394919  0.303331  1
  O  O43  1  0.843570  0.105081  0.303331  1
  O  O44  1  0.608702  0.039856  0.415617  1
  O  O45  1  0.489309  0.448612  0.651215  1
  O  O46  1  0.017078  0.757631  0.970639  1
  O  O47  1  0.252330  0.341296  0.904949  1
  O  O48  1  0.108702  0.460144  0.415617  1
  O  O49  1  0.252330  0.658704  0.595051  1
  O  O50  1  0.071195  0.737839  0.263568  1
  O  O51  1  0.982922  0.757631  0.470639  1
  O  O52  1  0.156430  0.894919  0.696669  1
  O  O53  1  0.928805  0.262161  0.736432  1
  O  O54  1  0.296957  0.655202  0.922835  1
  O  O55  1  0.247670  0.158704  0.404949  1
  O  O56  1  0.510691  0.448612  0.151215  1
  O  O57  1  0.891298  0.539856  0.584383  1
  O  O58  1  0.571195  0.762161  0.263568  1
  O  O59  1  0.391298  0.960144  0.584383  1
  O  O60  1  0.296957  0.344798  0.577165  1
  O  O61  1  0.517078  0.742369  0.970639  1
  O  O62  1  0.343570  0.605081  0.196669  1
  O  O63  1  0.656430  0.605081  0.696669  1
  O  O64  1  0.010691  0.051388  0.151215  1
  O  O65  1  0.482922  0.742369  0.470639  1
  O  O66  1  0.796957  0.844798  0.922835  1
  O  O67  1  0.891298  0.460144  0.915617  1
  O  O68  1  0.017078  0.242369  0.529361  1
  O  O69  1  0.482922  0.257631  0.029361  1
  O  O70  1  0.656430  0.394919  0.803331  1
  O  O71  1  0.156430  0.105081  0.803331  1
  O  O72  1  0.071195  0.262161  0.236432  1
  O  O73  1  0.247670  0.841296  0.095051  1
  O  O74  1  0.703043  0.344798  0.077165  1
  O  O75  1  0.510691  0.551388  0.348785  1
  O  O76  1  0.608702  0.960144  0.084383  1
  O  O77  1  0.752330  0.841296  0.595051  1
  O  O78  1  0.989309  0.051388  0.651215  1
  O  O79  1  0.203043  0.844798  0.422835  1
