# generated using pymatgen
data_La4Mg(CoB3)2
_symmetry_space_group_name_H-M   'P 1'
_cell_length_a   5.43326657
_cell_length_b   5.43410609
_cell_length_c   8.87012423
_cell_angle_alpha   72.19808654
_cell_angle_beta   72.16555452
_cell_angle_gamma   60.00512620
_symmetry_Int_Tables_number   1
_chemical_formula_structural   La4Mg(CoB3)2
_chemical_formula_sum   'La4 Mg1 Co2 B6'
_cell_volume   212.18393235
_cell_formula_units_Z   1
loop_
 _symmetry_equiv_pos_site_id
 _symmetry_equiv_pos_as_xyz
  1  'x, y, z'
loop_
 _atom_site_type_symbol
 _atom_site_label
 _atom_site_symmetry_multiplicity
 _atom_site_fract_x
 _atom_site_fract_y
 _atom_site_fract_z
 _atom_site_occupancy
  La  La0  1  0.251487  0.250771  0.246255  1
  La  La1  1  0.748513  0.749229  0.753745  1
  La  La2  1  0.415982  0.416374  0.751662  1
  La  La3  1  0.584018  0.583626  0.248338  1
  Mg  Mg4  1  0.000000  0.000000  0.000000  1
  Co  Co5  1  0.122618  0.122980  0.631783  1
  Co  Co6  1  0.877382  0.877020  0.368217  1
  B  B7  1  0.832241  0.500000  0.500000  1
  B  B8  1  0.500024  0.167725  0.500015  1
  B  B9  1  0.167764  0.832275  0.499985  1
  B  B10  1  0.499976  0.832275  0.499985  1
  B  B11  1  0.832236  0.167725  0.500015  1
  B  B12  1  0.167759  0.500000  0.500000  1
