# generated using pymatgen
data_Tb16Cd2NiHg2Ir3
_symmetry_space_group_name_H-M   'P 1'
_cell_length_a   9.60129961
_cell_length_b   9.60129949
_cell_length_c   9.60450512
_cell_angle_alpha   60.32783250
_cell_angle_beta   60.32784410
_cell_angle_gamma   60.33866035
_symmetry_Int_Tables_number   1
_chemical_formula_structural   Tb16Cd2NiHg2Ir3
_chemical_formula_sum   'Tb16 Cd2 Ni1 Hg2 Ir3'
_cell_volume   630.76062798
_cell_formula_units_Z   1
loop_
 _symmetry_equiv_pos_site_id
 _symmetry_equiv_pos_as_xyz
  1  'x, y, z'
loop_
 _atom_site_type_symbol
 _atom_site_label
 _atom_site_symmetry_multiplicity
 _atom_site_fract_x
 _atom_site_fract_y
 _atom_site_fract_z
 _atom_site_occupancy
  Tb  Tb0  1  0.599051  0.599051  0.598597  1
  Tb  Tb1  1  0.599305  0.599305  0.201020  1
  Tb  Tb2  1  0.600094  0.199322  0.599671  1
  Tb  Tb3  1  0.199322  0.600094  0.599671  1
  Tb  Tb4  1  0.060716  0.440170  0.440781  1
  Tb  Tb5  1  0.437929  0.059702  0.059807  1
  Tb  Tb6  1  0.440170  0.060716  0.440781  1
  Tb  Tb7  1  0.059702  0.437929  0.059807  1
  Tb  Tb8  1  0.439876  0.439876  0.061387  1
  Tb  Tb9  1  0.058997  0.058997  0.439186  1
  Tb  Tb10  1  0.188654  0.811191  0.811774  1
  Tb  Tb11  1  0.813268  0.186516  0.188516  1
  Tb  Tb12  1  0.811191  0.188654  0.811774  1
  Tb  Tb13  1  0.186516  0.813268  0.188516  1
  Tb  Tb14  1  0.811000  0.811000  0.189808  1
  Tb  Tb15  1  0.187292  0.187292  0.813588  1
  Cd  Cd16  1  0.830982  0.506622  0.831548  1
  Cd  Cd17  1  0.506622  0.830982  0.831548  1
  Ni  Ni18  1  0.392197  0.392197  0.392867  1
  Hg  Hg19  1  0.833392  0.833392  0.835166  1
  Hg  Hg20  1  0.834934  0.834934  0.494907  1
  Ir  Ir21  1  0.392295  0.392295  0.824343  1
  Ir  Ir22  1  0.392064  0.824433  0.392471  1
  Ir  Ir23  1  0.824433  0.392064  0.392471  1
