# generated using pymatgen
data_TbHo2Al9Si3Os4
_symmetry_space_group_name_H-M   'P 1'
_cell_length_a   8.70630906
_cell_length_b   8.67763737
_cell_length_c   9.55983100
_cell_angle_alpha   90.00000000
_cell_angle_beta   90.00000000
_cell_angle_gamma   120.09735500
_symmetry_Int_Tables_number   1
_chemical_formula_structural   TbHo2Al9Si3Os4
_chemical_formula_sum   'Tb2 Ho4 Al18 Si6 Os8'
_cell_volume   624.86980382
_cell_formula_units_Z   2
loop_
 _symmetry_equiv_pos_site_id
 _symmetry_equiv_pos_as_xyz
  1  'x, y, z'
loop_
 _atom_site_type_symbol
 _atom_site_label
 _atom_site_symmetry_multiplicity
 _atom_site_fract_x
 _atom_site_fract_y
 _atom_site_fract_z
 _atom_site_occupancy
  Tb  Tb0  1  0.197343  0.808555  0.250000  1
  Tb  Tb1  1  0.802657  0.191445  0.750000  1
  Ho  Ho2  1  0.193697  0.387394  0.250000  1
  Ho  Ho3  1  0.806303  0.612606  0.750000  1
  Ho  Ho4  1  0.608751  0.806899  0.250000  1
  Ho  Ho5  1  0.391249  0.193101  0.750000  1
  Al  Al6  1  0.165159  0.330077  0.577538  1
  Al  Al7  1  0.834841  0.669923  0.422462  1
  Al  Al8  1  0.670399  0.834232  0.575640  1
  Al  Al9  1  0.834841  0.669923  0.077538  1
  Al  Al10  1  0.329601  0.165768  0.424360  1
  Al  Al11  1  0.165159  0.330077  0.922462  1
  Al  Al12  1  0.164168  0.834672  0.576310  1
  Al  Al13  1  0.329601  0.165768  0.075640  1
  Al  Al14  1  0.835832  0.165328  0.423690  1
  Al  Al15  1  0.670399  0.834232  0.924360  1
  Al  Al16  1  0.835832  0.165328  0.076310  1
  Al  Al17  1  0.164168  0.834672  0.923690  1
  Al  Al18  1  0.872139  0.432675  0.250000  1
  Al  Al19  1  0.127861  0.567325  0.750000  1
  Al  Al20  1  0.560261  0.432862  0.250000  1
  Al  Al21  1  0.439739  0.567138  0.750000  1
  Al  Al22  1  0.998421  0.999081  0.250000  1
  Al  Al23  1  0.001579  0.000919  0.750000  1
  Si  Si24  1  0.331957  0.663811  0.038467  1
  Si  Si25  1  0.668043  0.336189  0.961533  1
  Si  Si26  1  0.668043  0.336189  0.538467  1
  Si  Si27  1  0.331957  0.663811  0.461533  1
  Si  Si28  1  0.564092  0.127437  0.250000  1
  Si  Si29  1  0.435908  0.872563  0.750000  1
  Os  Os30  1  0.500000  0.000000  0.000000  1
  Os  Os31  1  0.000000  0.500000  0.000000  1
  Os  Os32  1  0.500000  0.000000  0.500000  1
  Os  Os33  1  0.500000  0.500000  0.000000  1
  Os  Os34  1  0.000000  0.500000  0.500000  1
  Os  Os35  1  0.500000  0.500000  0.500000  1
  Os  Os36  1  0.000000  0.000000  0.000000  1
  Os  Os37  1  0.000000  0.000000  0.500000  1
