# generated using pymatgen
data_Tm6LuRh3
_symmetry_space_group_name_H-M   'P 1'
_cell_length_a   9.63168500
_cell_length_b   9.63168361
_cell_length_c   6.11077400
_cell_angle_alpha   90.00000000
_cell_angle_beta   90.00000000
_cell_angle_gamma   120.00000820
_symmetry_Int_Tables_number   1
_chemical_formula_structural   Tm6LuRh3
_chemical_formula_sum   'Tm12 Lu2 Rh6'
_cell_volume   490.94325403
_cell_formula_units_Z   2
loop_
 _symmetry_equiv_pos_site_id
 _symmetry_equiv_pos_as_xyz
  1  'x, y, z'
loop_
 _atom_site_type_symbol
 _atom_site_label
 _atom_site_symmetry_multiplicity
 _atom_site_fract_x
 _atom_site_fract_y
 _atom_site_fract_z
 _atom_site_occupancy
  Tm  Tm0  1  0.123835  0.876165  0.253500  1
  Tm  Tm1  1  0.752330  0.876165  0.253500  1
  Tm  Tm2  1  0.123835  0.247670  0.253500  1
  Tm  Tm3  1  0.876165  0.123835  0.753500  1
  Tm  Tm4  1  0.247670  0.123835  0.753500  1
  Tm  Tm5  1  0.876165  0.752330  0.753500  1
  Tm  Tm6  1  0.540838  0.459162  0.446435  1
  Tm  Tm7  1  0.918322  0.459162  0.446435  1
  Tm  Tm8  1  0.540838  0.081678  0.446435  1
  Tm  Tm9  1  0.459162  0.540838  0.946435  1
  Tm  Tm10  1  0.081678  0.540838  0.946435  1
  Tm  Tm11  1  0.459162  0.918322  0.946435  1
  Lu  Lu12  1  0.333333  0.666667  0.455403  1
  Lu  Lu13  1  0.666667  0.333333  0.955403  1
  Rh  Rh14  1  0.809727  0.190273  0.179358  1
  Rh  Rh15  1  0.380546  0.190273  0.179358  1
  Rh  Rh16  1  0.809727  0.619454  0.179358  1
  Rh  Rh17  1  0.190273  0.809727  0.679358  1
  Rh  Rh18  1  0.619454  0.809727  0.679358  1
  Rh  Rh19  1  0.190273  0.380546  0.679358  1
