# generated using pymatgen
data_Ca2B4PtRh4
_symmetry_space_group_name_H-M   'P 1'
_cell_length_a   7.51304417
_cell_length_b   6.31598670
_cell_length_c   5.64985218
_cell_angle_alpha   77.56606234
_cell_angle_beta   55.18014851
_cell_angle_gamma   47.25378874
_symmetry_Int_Tables_number   1
_chemical_formula_structural   Ca2B4PtRh4
_chemical_formula_sum   'Ca2 B4 Pt1 Rh4'
_cell_volume   154.89346055
_cell_formula_units_Z   1
loop_
 _symmetry_equiv_pos_site_id
 _symmetry_equiv_pos_as_xyz
  1  'x, y, z'
loop_
 _atom_site_type_symbol
 _atom_site_label
 _atom_site_symmetry_multiplicity
 _atom_site_fract_x
 _atom_site_fract_y
 _atom_site_fract_z
 _atom_site_occupancy
  Ca  Ca0  1  0.856910  0.856910  0.143090  1
  Ca  Ca1  1  0.143090  0.143090  0.856910  1
  B  B2  1  0.793537  0.468716  0.531284  1
  B  B3  1  0.206463  0.531284  0.468716  1
  B  B4  1  0.531284  0.206463  0.793537  1
  B  B5  1  0.468716  0.793537  0.206463  1
  Pt  Pt6  1  0.500000  0.500000  0.500000  1
  Rh  Rh7  1  0.500000  0.500000  0.000000  1
  Rh  Rh8  1  0.000000  0.000000  0.500000  1
  Rh  Rh9  1  0.750000  0.750000  0.750000  1
  Rh  Rh10  1  0.250000  0.250000  0.250000  1
