# generated using pymatgen
data_Cs2Ca(IBr)2
_symmetry_space_group_name_H-M   'P 1'
_cell_length_a   10.61471356
_cell_length_b   10.61471313
_cell_length_c   10.61471221
_cell_angle_alpha   148.38864867
_cell_angle_beta   148.38864435
_cell_angle_gamma   45.31197102
_symmetry_Int_Tables_number   1
_chemical_formula_structural   Cs2Ca(IBr)2
_chemical_formula_sum   'Cs2 Ca1 I2 Br2'
_cell_volume   327.52526459
_cell_formula_units_Z   1
loop_
 _symmetry_equiv_pos_site_id
 _symmetry_equiv_pos_as_xyz
  1  'x, y, z'
loop_
 _atom_site_type_symbol
 _atom_site_label
 _atom_site_symmetry_multiplicity
 _atom_site_fract_x
 _atom_site_fract_y
 _atom_site_fract_z
 _atom_site_occupancy
  Cs  Cs0  1  0.363546  0.363546  0.000000  1
  Cs  Cs1  1  0.636454  0.636454  0.000000  1
  Ca  Ca2  1  0.000000  0.000000  0.000000  1
  I  I3  1  0.160627  0.160627  0.000000  1
  I  I4  1  0.839373  0.839373  0.000000  1
  Br  Br5  1  0.500000  0.000000  0.500000  1
  Br  Br6  1  0.000000  0.500000  0.500000  1
