# generated using pymatgen
data_Dy3Sc2(Cd2Pt)2
_symmetry_space_group_name_H-M   'P 1'
_cell_length_a   3.58137200
_cell_length_b   7.90644500
_cell_length_c   17.89888400
_cell_angle_alpha   90.00000000
_cell_angle_beta   90.00000000
_cell_angle_gamma   90.00000000
_symmetry_Int_Tables_number   1
_chemical_formula_structural   Dy3Sc2(Cd2Pt)2
_chemical_formula_sum   'Dy6 Sc4 Cd8 Pt4'
_cell_volume   506.82338072
_cell_formula_units_Z   2
loop_
 _symmetry_equiv_pos_site_id
 _symmetry_equiv_pos_as_xyz
  1  'x, y, z'
loop_
 _atom_site_type_symbol
 _atom_site_label
 _atom_site_symmetry_multiplicity
 _atom_site_fract_x
 _atom_site_fract_y
 _atom_site_fract_z
 _atom_site_occupancy
  Dy  Dy0  1  0.000000  0.243607  0.217129  1
  Dy  Dy1  1  0.000000  0.756393  0.782871  1
  Dy  Dy2  1  0.000000  0.256393  0.717129  1
  Dy  Dy3  1  0.000000  0.743607  0.282871  1
  Dy  Dy4  1  0.000000  0.000000  0.000000  1
  Dy  Dy5  1  0.000000  0.500000  0.500000  1
  Sc  Sc6  1  0.000000  0.113620  0.415624  1
  Sc  Sc7  1  0.000000  0.886380  0.584376  1
  Sc  Sc8  1  0.000000  0.386380  0.915624  1
  Sc  Sc9  1  0.000000  0.613620  0.084376  1
  Cd  Cd10  1  0.500000  0.421556  0.353324  1
  Cd  Cd11  1  0.500000  0.578444  0.646676  1
  Cd  Cd12  1  0.500000  0.078444  0.853324  1
  Cd  Cd13  1  0.500000  0.921556  0.146676  1
  Cd  Cd14  1  0.500000  0.297963  0.060912  1
  Cd  Cd15  1  0.500000  0.702037  0.939088  1
  Cd  Cd16  1  0.500000  0.202037  0.560912  1
  Cd  Cd17  1  0.500000  0.797963  0.439088  1
  Pt  Pt18  1  0.500000  0.033658  0.308210  1
  Pt  Pt19  1  0.500000  0.966342  0.691790  1
  Pt  Pt20  1  0.500000  0.466342  0.808210  1
  Pt  Pt21  1  0.500000  0.533658  0.191790  1
