# generated using pymatgen
data_Yb5Sm3(OsC2)4
_symmetry_space_group_name_H-M   'P 1'
_cell_length_a   5.17719600
_cell_length_b   6.44022111
_cell_length_c   10.28098116
_cell_angle_alpha   90.02051162
_cell_angle_beta   90.00000000
_cell_angle_gamma   90.00000000
_symmetry_Int_Tables_number   1
_chemical_formula_structural   Yb5Sm3(OsC2)4
_chemical_formula_sum   'Yb5 Sm3 Os4 C8'
_cell_volume   342.79140200
_cell_formula_units_Z   1
loop_
 _symmetry_equiv_pos_site_id
 _symmetry_equiv_pos_as_xyz
  1  'x, y, z'
loop_
 _atom_site_type_symbol
 _atom_site_label
 _atom_site_symmetry_multiplicity
 _atom_site_fract_x
 _atom_site_fract_y
 _atom_site_fract_z
 _atom_site_occupancy
  Yb  Yb0  1  0.250000  0.197558  0.948306  1
  Yb  Yb1  1  0.250000  0.530393  0.223466  1
  Yb  Yb2  1  0.750000  0.467160  0.777436  1
  Yb  Yb3  1  0.750000  0.970499  0.728255  1
  Yb  Yb4  1  0.250000  0.031084  0.271377  1
  Sm  Sm5  1  0.250000  0.695028  0.551125  1
  Sm  Sm6  1  0.750000  0.304451  0.445532  1
  Sm  Sm7  1  0.750000  0.806446  0.053431  1
  Os  Os8  1  0.250000  0.728899  0.855046  1
  Os  Os9  1  0.750000  0.272435  0.142659  1
  Os  Os10  1  0.750000  0.773086  0.355394  1
  Os  Os11  1  0.250000  0.228510  0.647944  1
  C  C12  1  0.250000  0.469035  0.756877  1
  C  C13  1  0.750000  0.533544  0.242862  1
  C  C14  1  0.750000  0.033358  0.256069  1
  C  C15  1  0.250000  0.966010  0.741462  1
  C  C16  1  0.250000  0.796689  0.033077  1
  C  C17  1  0.750000  0.195140  0.967623  1
  C  C18  1  0.750000  0.696231  0.533329  1
  C  C19  1  0.250000  0.304444  0.468730  1
