# generated using pymatgen
data_Th10Si16Hg
_symmetry_space_group_name_H-M   'P 1'
_cell_length_a   11.48424142
_cell_length_b   11.39502773
_cell_length_c   11.48424155
_cell_angle_alpha   143.66463373
_cell_angle_beta   137.04300135
_cell_angle_gamma   57.63379130
_symmetry_Int_Tables_number   1
_chemical_formula_structural   Th10Si16Hg
_chemical_formula_sum   'Th10 Si16 Hg1'
_cell_volume   601.30662459
_cell_formula_units_Z   1
loop_
 _symmetry_equiv_pos_site_id
 _symmetry_equiv_pos_as_xyz
  1  'x, y, z'
loop_
 _atom_site_type_symbol
 _atom_site_label
 _atom_site_symmetry_multiplicity
 _atom_site_fract_x
 _atom_site_fract_y
 _atom_site_fract_z
 _atom_site_occupancy
  Th  Th0  1  0.757033  0.758649  0.518063  1
  Th  Th1  1  0.440485  0.971794  0.015563  1
  Th  Th2  1  0.851584  0.367298  0.023319  1
  Th  Th3  1  0.956231  0.971794  0.531308  1
  Th  Th4  1  0.149559  0.163981  0.514285  1
  Th  Th5  1  0.343981  0.367298  0.515715  1
  Th  Th6  1  0.240585  0.758649  0.001616  1
  Th  Th7  1  0.542125  0.560672  0.494620  1
  Th  Th8  1  0.066052  0.560672  0.018547  1
  Th  Th9  1  0.649696  0.163981  0.014421  1
  Si  Si10  1  0.199375  0.614439  0.415062  1
  Si  Si11  1  0.999072  0.087202  0.088130  1
  Si  Si12  1  0.699980  0.287791  0.587811  1
  Si  Si13  1  0.799863  0.203913  0.404050  1
  Si  Si14  1  0.896680  0.499978  0.603297  1
  Si  Si15  1  0.409781  0.856577  0.446796  1
  Si  Si16  1  0.100584  0.703831  0.603247  1
  Si  Si17  1  0.301282  0.895457  0.594175  1
  Si  Si18  1  0.589937  0.038510  0.448572  1
  Si  Si19  1  0.998042  0.427778  0.429735  1
  Si  Si20  1  0.890282  0.833771  0.943489  1
  Si  Si21  1  0.401914  0.499535  0.097622  1
  Si  Si22  1  0.105979  0.050154  0.944176  1
  Si  Si23  1  0.297221  0.236777  0.939557  1
  Si  Si24  1  0.500820  0.403419  0.902599  1
  Si  Si25  1  0.595971  0.704729  0.108758  1
  Hg  Hg26  1  0.715884  0.672852  0.956969  1
