# generated using pymatgen
data_Rb2FeH7
_symmetry_space_group_name_H-M   'P 1'
_cell_length_a   5.89052362
_cell_length_b   6.03899415
_cell_length_c   6.01791340
_cell_angle_alpha   95.61554225
_cell_angle_beta   116.58816612
_cell_angle_gamma   117.84037857
_symmetry_Int_Tables_number   1
_chemical_formula_structural   Rb2FeH7
_chemical_formula_sum   'Rb2 Fe1 H7'
_cell_volume   156.00961079
_cell_formula_units_Z   1
loop_
 _symmetry_equiv_pos_site_id
 _symmetry_equiv_pos_as_xyz
  1  'x, y, z'
loop_
 _atom_site_type_symbol
 _atom_site_label
 _atom_site_symmetry_multiplicity
 _atom_site_fract_x
 _atom_site_fract_y
 _atom_site_fract_z
 _atom_site_occupancy
  Rb  Rb0  1  0.110513  0.086805  0.986527  1
  Rb  Rb1  1  0.113420  0.589168  0.481762  1
  Fe  Fe2  1  0.614617  0.345297  0.742004  1
  H  H3  1  0.628054  0.162469  0.558560  1
  H  H4  1  0.981035  0.509424  0.905627  1
  H  H5  1  0.485576  0.466345  0.852959  1
  H  H6  1  0.251300  0.134350  0.532872  1
  H  H7  1  0.607253  0.155478  0.911370  1
  H  H8  1  0.619152  0.519821  0.557166  1
  H  H9  1  0.707839  0.572646  0.981491  1
