# generated using pymatgen
data_Sr4Al3Ga2
_symmetry_space_group_name_H-M   'P 1'
_cell_length_a   5.83336300
_cell_length_b   5.83338616
_cell_length_c   17.26302700
_cell_angle_alpha   90.00000000
_cell_angle_beta   90.00000000
_cell_angle_gamma   119.99987434
_symmetry_Int_Tables_number   1
_chemical_formula_structural   Sr4Al3Ga2
_chemical_formula_sum   'Sr8 Al6 Ga4'
_cell_volume   508.73059970
_cell_formula_units_Z   2
loop_
 _symmetry_equiv_pos_site_id
 _symmetry_equiv_pos_as_xyz
  1  'x, y, z'
loop_
 _atom_site_type_symbol
 _atom_site_label
 _atom_site_symmetry_multiplicity
 _atom_site_fract_x
 _atom_site_fract_y
 _atom_site_fract_z
 _atom_site_occupancy
  Sr  Sr0  1  0.333338  0.666674  0.065934  1
  Sr  Sr1  1  0.000004  0.000009  0.143704  1
  Sr  Sr2  1  0.000004  0.000009  0.356296  1
  Sr  Sr3  1  0.333338  0.666674  0.434067  1
  Sr  Sr4  1  0.666664  0.333327  0.565934  1
  Sr  Sr5  1  0.999996  0.999991  0.643704  1
  Sr  Sr6  1  0.999996  0.999991  0.856296  1
  Sr  Sr7  1  0.666664  0.333327  0.934066  1
  Al  Al8  1  0.006458  0.503233  0.250000  1
  Al  Al9  1  0.496774  0.503233  0.250000  1
  Al  Al10  1  0.496775  0.993551  0.250000  1
  Al  Al11  1  0.503225  0.006448  0.750000  1
  Al  Al12  1  0.503226  0.496767  0.750000  1
  Al  Al13  1  0.993543  0.496767  0.750000  1
  Ga  Ga14  1  0.666669  0.333337  0.126736  1
  Ga  Ga15  1  0.666669  0.333337  0.373263  1
  Ga  Ga16  1  0.333331  0.666663  0.626737  1
  Ga  Ga17  1  0.333331  0.666663  0.873263  1
