# generated using pymatgen
data_Pr6MnRh17
_symmetry_space_group_name_H-M   'P 1'
_cell_length_a   5.38663100
_cell_length_b   5.38663100
_cell_length_c   17.59477500
_cell_angle_alpha   90.00000000
_cell_angle_beta   90.00000000
_cell_angle_gamma   120.00000613
_symmetry_Int_Tables_number   1
_chemical_formula_structural   Pr6MnRh17
_chemical_formula_sum   'Pr6 Mn1 Rh17'
_cell_volume   442.12876867
_cell_formula_units_Z   1
loop_
 _symmetry_equiv_pos_site_id
 _symmetry_equiv_pos_as_xyz
  1  'x, y, z'
loop_
 _atom_site_type_symbol
 _atom_site_label
 _atom_site_symmetry_multiplicity
 _atom_site_fract_x
 _atom_site_fract_y
 _atom_site_fract_z
 _atom_site_occupancy
  Pr  Pr0  1  0.333333  0.666667  0.540740  1
  Pr  Pr1  1  0.666667  0.333333  0.043755  1
  Pr  Pr2  1  0.666667  0.333333  0.456245  1
  Pr  Pr3  1  0.333333  0.666667  0.959260  1
  Pr  Pr4  1  0.333333  0.666667  0.750000  1
  Pr  Pr5  1  0.666667  0.333333  0.250000  1
  Mn  Mn6  1  0.000000  0.000000  0.250000  1
  Rh  Rh7  1  0.166609  0.333216  0.129286  1
  Rh  Rh8  1  0.833208  0.666418  0.627312  1
  Rh  Rh9  1  0.666784  0.833391  0.129286  1
  Rh  Rh10  1  0.166609  0.833391  0.129286  1
  Rh  Rh11  1  0.833208  0.166792  0.627312  1
  Rh  Rh12  1  0.333582  0.166792  0.627312  1
  Rh  Rh13  1  0.833208  0.666418  0.872688  1
  Rh  Rh14  1  0.833208  0.166792  0.872688  1
  Rh  Rh15  1  0.333582  0.166792  0.872688  1
  Rh  Rh16  1  0.666784  0.833391  0.370714  1
  Rh  Rh17  1  0.166609  0.833391  0.370714  1
  Rh  Rh18  1  0.166609  0.333216  0.370714  1
  Rh  Rh19  1  0.000000  0.000000  0.750000  1
  Rh  Rh20  1  0.333333  0.666667  0.250000  1
  Rh  Rh21  1  0.666667  0.333333  0.750000  1
  Rh  Rh22  1  0.000000  0.000000  0.001539  1
  Rh  Rh23  1  0.000000  0.000000  0.498461  1
