# generated using pymatgen
data_Dy3HoGa17GeIr6
_symmetry_space_group_name_H-M   'P 1'
_cell_length_a   7.60028402
_cell_length_b   7.58136382
_cell_length_c   9.47552001
_cell_angle_alpha   90.07971943
_cell_angle_beta   89.81187784
_cell_angle_gamma   119.87196522
_symmetry_Int_Tables_number   1
_chemical_formula_structural   Dy3HoGa17GeIr6
_chemical_formula_sum   'Dy3 Ho1 Ga17 Ge1 Ir6'
_cell_volume   473.44262199
_cell_formula_units_Z   1
loop_
 _symmetry_equiv_pos_site_id
 _symmetry_equiv_pos_as_xyz
  1  'x, y, z'
loop_
 _atom_site_type_symbol
 _atom_site_label
 _atom_site_symmetry_multiplicity
 _atom_site_fract_x
 _atom_site_fract_y
 _atom_site_fract_z
 _atom_site_occupancy
  Dy  Dy0  1  0.002449  0.330657  0.752824  1
  Dy  Dy1  1  0.672628  0.000363  0.249195  1
  Dy  Dy2  1  0.330300  0.002667  0.749417  1
  Ho  Ho3  1  0.997844  0.667616  0.249234  1
  Ga  Ga4  1  0.131296  0.125654  0.251024  1
  Ga  Ga5  1  0.872388  0.874480  0.749812  1
  Ga  Ga6  1  0.999237  0.670139  0.916924  1
  Ga  Ga7  1  0.000558  0.665861  0.580812  1
  Ga  Ga8  1  0.334546  0.998290  0.419556  1
  Ga  Ga9  1  0.000255  0.335027  0.421730  1
  Ga  Ga10  1  0.665030  0.000400  0.580867  1
  Ga  Ga11  1  0.658997  0.995231  0.917018  1
  Ga  Ga12  1  0.333814  0.997810  0.081093  1
  Ga  Ga13  1  0.331881  0.331218  0.564838  1
  Ga  Ga14  1  0.669097  0.669043  0.435235  1
  Ga  Ga15  1  0.668421  0.669217  0.066558  1
  Ga  Ga16  1  0.336222  0.332060  0.933272  1
  Ga  Ga17  1  0.345733  0.549490  0.251626  1
  Ga  Ga18  1  0.661580  0.452927  0.749087  1
  Ga  Ga19  1  0.547759  0.339536  0.249782  1
  Ga  Ga20  1  0.450999  0.658251  0.749398  1
  Ge  Ge21  1  0.997413  0.334903  0.082132  1
  Ir  Ir22  1  0.674571  0.328636  0.999746  1
  Ir  Ir23  1  0.320181  0.663836  0.000384  1
  Ir  Ir24  1  0.327241  0.670948  0.499908  1
  Ir  Ir25  1  0.671987  0.328267  0.498918  1
  Ir  Ir26  1  0.998500  0.006907  0.000315  1
  Ir  Ir27  1  0.999073  0.000562  0.499297  1
