# generated using pymatgen
data_TbEr3Al18Pd5W
_symmetry_space_group_name_H-M   'P 1'
_cell_length_a   7.61878456
_cell_length_b   7.62300744
_cell_length_c   9.51404003
_cell_angle_alpha   89.63393732
_cell_angle_beta   89.58125938
_cell_angle_gamma   118.82028515
_symmetry_Int_Tables_number   1
_chemical_formula_structural   TbEr3Al18Pd5W
_chemical_formula_sum   'Tb1 Er3 Al18 Pd5 W1'
_cell_volume   484.07111976
_cell_formula_units_Z   1
loop_
 _symmetry_equiv_pos_site_id
 _symmetry_equiv_pos_as_xyz
  1  'x, y, z'
loop_
 _atom_site_type_symbol
 _atom_site_label
 _atom_site_symmetry_multiplicity
 _atom_site_fract_x
 _atom_site_fract_y
 _atom_site_fract_z
 _atom_site_occupancy
  Tb  Tb0  1  0.995229  0.679106  0.246973  1
  Er  Er1  1  0.004770  0.319705  0.753802  1
  Er  Er2  1  0.679824  0.995370  0.246316  1
  Er  Er3  1  0.320045  0.005069  0.753666  1
  Al  Al4  1  0.135872  0.136362  0.249130  1
  Al  Al5  1  0.864294  0.864434  0.750658  1
  Al  Al6  1  0.002777  0.335248  0.076407  1
  Al  Al7  1  0.997348  0.664165  0.922169  1
  Al  Al8  1  0.998808  0.660350  0.579302  1
  Al  Al9  1  0.340104  0.001763  0.421922  1
  Al  Al10  1  0.001129  0.338662  0.422009  1
  Al  Al11  1  0.660572  0.998897  0.578694  1
  Al  Al12  1  0.664014  0.997377  0.922965  1
  Al  Al13  1  0.336784  0.003688  0.076272  1
  Al  Al14  1  0.332970  0.332965  0.555507  1
  Al  Al15  1  0.666344  0.667041  0.445415  1
  Al  Al16  1  0.666447  0.667248  0.052259  1
  Al  Al17  1  0.332940  0.332956  0.946876  1
  Al  Al18  1  0.343121  0.551723  0.250242  1
  Al  Al19  1  0.657219  0.447924  0.749772  1
  Al  Al20  1  0.551174  0.341963  0.250250  1
  Al  Al21  1  0.447950  0.657456  0.749727  1
  Pd  Pd22  1  0.672656  0.327427  0.999925  1
  Pd  Pd23  1  0.327434  0.672607  0.999894  1
  Pd  Pd24  1  0.327964  0.672124  0.500108  1
  Pd  Pd25  1  0.672043  0.327762  0.500108  1
  Pd  Pd26  1  0.000014  0.000159  0.500181  1
  W  W27  1  0.000157  0.000448  0.999451  1
