# generated using pymatgen
data_Nd3GeSe2
_symmetry_space_group_name_H-M   'P 1'
_cell_length_a   7.41263258
_cell_length_b   7.41263211
_cell_length_c   7.41263291
_cell_angle_alpha   146.51837010
_cell_angle_beta   132.19956071
_cell_angle_gamma   59.61701246
_symmetry_Int_Tables_number   1
_chemical_formula_structural   Nd3GeSe2
_chemical_formula_sum   'Nd3 Ge1 Se2'
_cell_volume   164.97204980
_cell_formula_units_Z   1
loop_
 _symmetry_equiv_pos_site_id
 _symmetry_equiv_pos_as_xyz
  1  'x, y, z'
loop_
 _atom_site_type_symbol
 _atom_site_label
 _atom_site_symmetry_multiplicity
 _atom_site_fract_x
 _atom_site_fract_y
 _atom_site_fract_z
 _atom_site_occupancy
  Nd  Nd0  1  0.340030  0.340030  0.000000  1
  Nd  Nd1  1  0.000000  0.000000  0.000000  1
  Nd  Nd2  1  0.659970  0.659970  0.000000  1
  Ge  Ge3  1  0.500000  0.000000  0.500000  1
  Se  Se4  1  0.167170  0.667170  0.500000  1
  Se  Se5  1  0.832830  0.332830  0.500000  1
