# generated using pymatgen
data_Ho5Lu2Sn23Rh6
_symmetry_space_group_name_H-M   'P 1'
_cell_length_a   9.83732801
_cell_length_b   9.83872969
_cell_length_c   10.09464900
_cell_angle_alpha   90.00000000
_cell_angle_beta   90.00276073
_cell_angle_gamma   120.00471492
_symmetry_Int_Tables_number   1
_chemical_formula_structural   Ho5Lu2Sn23Rh6
_chemical_formula_sum   'Ho5 Lu2 Sn23 Rh6'
_cell_volume   846.09163147
_cell_formula_units_Z   1
loop_
 _symmetry_equiv_pos_site_id
 _symmetry_equiv_pos_as_xyz
  1  'x, y, z'
loop_
 _atom_site_type_symbol
 _atom_site_label
 _atom_site_symmetry_multiplicity
 _atom_site_fract_x
 _atom_site_fract_y
 _atom_site_fract_z
 _atom_site_occupancy
  Ho  Ho0  1  0.000083  0.000042  0.999741  1
  Ho  Ho1  1  0.959275  0.479637  0.692251  1
  Ho  Ho2  1  0.040881  0.520441  0.307806  1
  Ho  Ho3  1  0.479610  0.959151  0.307962  1
  Ho  Ho4  1  0.479610  0.520460  0.307962  1
  Lu  Lu5  1  0.520005  0.480207  0.692338  1
  Lu  Lu6  1  0.520005  0.039798  0.692338  1
  Sn  Sn7  1  0.666791  0.333394  0.178991  1
  Sn  Sn8  1  0.665282  0.332641  0.874927  1
  Sn  Sn9  1  0.333097  0.666549  0.123474  1
  Sn  Sn10  1  0.351365  0.350978  0.999628  1
  Sn  Sn11  1  0.000061  0.648819  0.999789  1
  Sn  Sn12  1  0.648911  0.999882  0.999918  1
  Sn  Sn13  1  0.648911  0.649029  0.999918  1
  Sn  Sn14  1  0.333300  0.666650  0.821169  1
  Sn  Sn15  1  0.445069  0.222535  0.456641  1
  Sn  Sn16  1  0.223517  0.778131  0.544778  1
  Sn  Sn17  1  0.223517  0.445385  0.544778  1
  Sn  Sn18  1  0.554824  0.777412  0.545340  1
  Sn  Sn19  1  0.119847  0.880439  0.281641  1
  Sn  Sn20  1  0.777020  0.554904  0.456293  1
  Sn  Sn21  1  0.777020  0.222117  0.456293  1
  Sn  Sn22  1  0.351365  0.000386  0.999628  1
  Sn  Sn23  1  0.119847  0.239407  0.281641  1
  Sn  Sn24  1  0.759632  0.879816  0.281788  1
  Sn  Sn25  1  0.241775  0.120888  0.717843  1
  Sn  Sn26  1  0.879321  0.759714  0.718097  1
  Sn  Sn27  1  0.879321  0.119608  0.718097  1
  Sn  Sn28  1  0.000221  0.000111  0.500129  1
  Sn  Sn29  1  0.000061  0.351241  0.999789  1
  Rh  Rh30  1  0.168962  0.831787  0.801410  1
  Rh  Rh31  1  0.168962  0.337174  0.801410  1
  Rh  Rh32  1  0.662291  0.831145  0.801353  1
  Rh  Rh33  1  0.337447  0.168724  0.198425  1
  Rh  Rh34  1  0.831397  0.662579  0.198206  1
  Rh  Rh35  1  0.831397  0.168819  0.198206  1
