# generated using pymatgen
data_K3LiSn3Se8
_symmetry_space_group_name_H-M   'P 1'
_cell_length_a   8.36893400
_cell_length_b   8.36893400
_cell_length_c   13.55773400
_cell_angle_alpha   90.00000000
_cell_angle_beta   90.00000000
_cell_angle_gamma   90.00000000
_symmetry_Int_Tables_number   1
_chemical_formula_structural   K3LiSn3Se8
_chemical_formula_sum   'K6 Li2 Sn6 Se16'
_cell_volume   949.57089488
_cell_formula_units_Z   2
loop_
 _symmetry_equiv_pos_site_id
 _symmetry_equiv_pos_as_xyz
  1  'x, y, z'
loop_
 _atom_site_type_symbol
 _atom_site_label
 _atom_site_symmetry_multiplicity
 _atom_site_fract_x
 _atom_site_fract_y
 _atom_site_fract_z
 _atom_site_occupancy
  K  K0  1  0.500000  0.500000  0.273883  1
  K  K1  1  0.000000  0.000000  0.726117  1
  K  K2  1  0.000000  0.000000  0.000000  1
  K  K3  1  0.500000  0.500000  0.726117  1
  K  K4  1  0.000000  0.000000  0.273883  1
  K  K5  1  0.500000  0.500000  0.000000  1
  Li  Li6  1  0.000000  0.500000  0.000000  1
  Li  Li7  1  0.500000  0.000000  0.000000  1
  Sn  Sn8  1  0.000000  0.500000  0.239420  1
  Sn  Sn9  1  0.000000  0.500000  0.760580  1
  Sn  Sn10  1  0.500000  0.000000  0.500000  1
  Sn  Sn11  1  0.500000  0.000000  0.239420  1
  Sn  Sn12  1  0.500000  0.000000  0.760580  1
  Sn  Sn13  1  0.000000  0.500000  0.500000  1
  Se  Se14  1  0.324793  0.175207  0.865429  1
  Se  Se15  1  0.336456  0.163544  0.374204  1
  Se  Se16  1  0.824793  0.324793  0.865429  1
  Se  Se17  1  0.824793  0.675207  0.134571  1
  Se  Se18  1  0.336456  0.836456  0.625796  1
  Se  Se19  1  0.324793  0.824793  0.134571  1
  Se  Se20  1  0.663544  0.163544  0.625796  1
  Se  Se21  1  0.163544  0.336456  0.625796  1
  Se  Se22  1  0.836456  0.336456  0.374204  1
  Se  Se23  1  0.663544  0.836456  0.374204  1
  Se  Se24  1  0.175207  0.324793  0.134571  1
  Se  Se25  1  0.175207  0.675207  0.865429  1
  Se  Se26  1  0.836456  0.663544  0.625796  1
  Se  Se27  1  0.675207  0.824793  0.865429  1
  Se  Se28  1  0.675207  0.175207  0.134571  1
  Se  Se29  1  0.163544  0.663544  0.374204  1
