# generated using pymatgen
data_Er5In4OsAu
_symmetry_space_group_name_H-M   'P 1'
_cell_length_a   3.60993800
_cell_length_b   8.16269335
_cell_length_c   18.23476505
_cell_angle_alpha   90.11390649
_cell_angle_beta   90.00000000
_cell_angle_gamma   90.00000000
_symmetry_Int_Tables_number   1
_chemical_formula_structural   Er5In4OsAu
_chemical_formula_sum   'Er10 In8 Os2 Au2'
_cell_volume   537.31942145
_cell_formula_units_Z   2
loop_
 _symmetry_equiv_pos_site_id
 _symmetry_equiv_pos_as_xyz
  1  'x, y, z'
loop_
 _atom_site_type_symbol
 _atom_site_label
 _atom_site_symmetry_multiplicity
 _atom_site_fract_x
 _atom_site_fract_y
 _atom_site_fract_z
 _atom_site_occupancy
  Er  Er0  1  0.000000  0.120523  0.418537  1
  Er  Er1  1  0.000000  0.879477  0.581463  1
  Er  Er2  1  0.000000  0.384620  0.913683  1
  Er  Er3  1  0.000000  0.615380  0.086317  1
  Er  Er4  1  0.000000  0.261474  0.217617  1
  Er  Er5  1  0.000000  0.738526  0.782383  1
  Er  Er6  1  0.000000  0.277082  0.722756  1
  Er  Er7  1  0.000000  0.722918  0.277244  1
  Er  Er8  1  0.000000  0.000000  0.000000  1
  Er  Er9  1  0.000000  0.500000  0.500000  1
  In  In10  1  0.500000  0.427189  0.351137  1
  In  In11  1  0.500000  0.572811  0.648863  1
  In  In12  1  0.500000  0.078958  0.852783  1
  In  In13  1  0.500000  0.921042  0.147217  1
  In  In14  1  0.500000  0.293705  0.067908  1
  In  In15  1  0.500000  0.706295  0.932092  1
  In  In16  1  0.500000  0.209860  0.566487  1
  In  In17  1  0.500000  0.790140  0.433513  1
  Os  Os18  1  0.500000  0.477836  0.803863  1
  Os  Os19  1  0.500000  0.522164  0.196137  1
  Au  Au20  1  0.500000  0.023737  0.302104  1
  Au  Au21  1  0.500000  0.976263  0.697896  1
