# generated using pymatgen
data_Tb2Pa(GaRh)3
_symmetry_space_group_name_H-M   'P 1'
_cell_length_a   7.27704788
_cell_length_b   7.39878320
_cell_length_c   3.78005200
_cell_angle_alpha   90.00000000
_cell_angle_beta   90.00000000
_cell_angle_gamma   120.55494641
_symmetry_Int_Tables_number   1
_chemical_formula_structural   Tb2Pa(GaRh)3
_chemical_formula_sum   'Tb2 Pa1 Ga3 Rh3'
_cell_volume   175.26213526
_cell_formula_units_Z   1
loop_
 _symmetry_equiv_pos_site_id
 _symmetry_equiv_pos_as_xyz
  1  'x, y, z'
loop_
 _atom_site_type_symbol
 _atom_site_label
 _atom_site_symmetry_multiplicity
 _atom_site_fract_x
 _atom_site_fract_y
 _atom_site_fract_z
 _atom_site_occupancy
  Tb  Tb0  1  0.406228  0.411404  0.500000  1
  Tb  Tb1  1  0.593772  0.005175  0.500000  1
  Pa  Pa2  1  0.000000  0.585534  0.500000  1
  Ga  Ga3  1  0.734237  0.747717  0.000000  1
  Ga  Ga4  1  0.265763  0.013480  0.000000  1
  Ga  Ga5  1  0.000000  0.234616  0.000000  1
  Rh  Rh6  1  0.700509  0.362803  0.000000  1
  Rh  Rh7  1  0.299491  0.662295  0.000000  1
  Rh  Rh8  1  0.000000  0.976977  0.500000  1
