# generated using pymatgen
data_Pu2AlZn2Si
_symmetry_space_group_name_H-M   'P 1'
_cell_length_a   5.24502931
_cell_length_b   5.59448129
_cell_length_c   5.26750787
_cell_angle_alpha   61.65521638
_cell_angle_beta   60.14106983
_cell_angle_gamma   62.04563794
_symmetry_Int_Tables_number   1
_chemical_formula_structural   Pu2AlZn2Si
_chemical_formula_sum   'Pu2 Al1 Zn2 Si1'
_cell_volume   112.37499471
_cell_formula_units_Z   1
loop_
 _symmetry_equiv_pos_site_id
 _symmetry_equiv_pos_as_xyz
  1  'x, y, z'
loop_
 _atom_site_type_symbol
 _atom_site_label
 _atom_site_symmetry_multiplicity
 _atom_site_fract_x
 _atom_site_fract_y
 _atom_site_fract_z
 _atom_site_occupancy
  Pu  Pu0  1  0.262358  0.216356  0.258929  1
  Pu  Pu1  1  0.987642  0.033644  0.991071  1
  Al  Al2  1  0.625000  0.625000  0.125000  1
  Zn  Zn3  1  0.125000  0.625000  0.625000  1
  Zn  Zn4  1  0.625000  0.625000  0.625000  1
  Si  Si5  1  0.625000  0.125000  0.625000  1
