# generated using pymatgen
data_Y7Tm3IrOs3
_symmetry_space_group_name_H-M   'P 1'
_cell_length_a   6.38293036
_cell_length_b   7.33526843
_cell_length_c   8.43705054
_cell_angle_alpha   96.71132414
_cell_angle_beta   112.44367198
_cell_angle_gamma   90.21123185
_symmetry_Int_Tables_number   1
_chemical_formula_structural   Y7Tm3IrOs3
_chemical_formula_sum   'Y7 Tm3 Ir1 Os3'
_cell_volume   362.10152725
_cell_formula_units_Z   1
loop_
 _symmetry_equiv_pos_site_id
 _symmetry_equiv_pos_as_xyz
  1  'x, y, z'
loop_
 _atom_site_type_symbol
 _atom_site_label
 _atom_site_symmetry_multiplicity
 _atom_site_fract_x
 _atom_site_fract_y
 _atom_site_fract_z
 _atom_site_occupancy
  Y  Y0  1  0.970139  0.915966  0.180271  1
  Y  Y1  1  0.788494  0.580689  0.816291  1
  Y  Y2  1  0.024260  0.083205  0.813691  1
  Y  Y3  1  0.210157  0.419750  0.181314  1
  Y  Y4  1  0.648200  0.816615  0.438298  1
  Y  Y5  1  0.208283  0.681566  0.563179  1
  Y  Y6  1  0.353819  0.182304  0.564709  1
  Tm  Tm7  1  0.794166  0.320349  0.436856  1
  Tm  Tm8  1  0.423219  0.748966  0.998981  1
  Tm  Tm9  1  0.576703  0.250284  0.000433  1
  Ir  Ir10  1  0.401032  0.077056  0.218846  1
  Os  Os11  1  0.817192  0.573489  0.216362  1
  Os  Os12  1  0.605669  0.925558  0.786612  1
  Os  Os13  1  0.178668  0.424202  0.784158  1
