# generated using pymatgen
data_Tm4Ga20Os5Ru
_symmetry_space_group_name_H-M   'P 1'
_cell_length_a   8.91425701
_cell_length_b   8.91425701
_cell_length_c   6.36623000
_cell_angle_alpha   90.00000000
_cell_angle_beta   90.00000000
_cell_angle_gamma   89.99456239
_symmetry_Int_Tables_number   1
_chemical_formula_structural   Tm4Ga20Os5Ru
_chemical_formula_sum   'Tm4 Ga20 Os5 Ru1'
_cell_volume   505.88595865
_cell_formula_units_Z   1
loop_
 _symmetry_equiv_pos_site_id
 _symmetry_equiv_pos_as_xyz
  1  'x, y, z'
loop_
 _atom_site_type_symbol
 _atom_site_label
 _atom_site_symmetry_multiplicity
 _atom_site_fract_x
 _atom_site_fract_y
 _atom_site_fract_z
 _atom_site_occupancy
  Tm  Tm0  1  0.183260  0.316740  0.000000  1
  Tm  Tm1  1  0.683371  0.183379  0.000000  1
  Tm  Tm2  1  0.816621  0.683379  0.000000  1
  Tm  Tm3  1  0.316621  0.816629  0.000000  1
  Ga  Ga4  1  0.499902  0.000098  0.282576  1
  Ga  Ga5  1  0.499902  0.000098  0.717424  1
  Ga  Ga6  1  0.292699  0.561009  0.707657  1
  Ga  Ga7  1  0.000503  0.499497  0.282570  1
  Ga  Ga8  1  0.000503  0.499497  0.717430  1
  Ga  Ga9  1  0.061371  0.793004  0.707938  1
  Ga  Ga10  1  0.207023  0.061768  0.292441  1
  Ga  Ga11  1  0.061371  0.793004  0.292062  1
  Ga  Ga12  1  0.706996  0.438629  0.707938  1
  Ga  Ga13  1  0.207023  0.061768  0.707559  1
  Ga  Ga14  1  0.938991  0.207301  0.707657  1
  Ga  Ga15  1  0.706996  0.438629  0.292062  1
  Ga  Ga16  1  0.561238  0.706888  0.292025  1
  Ga  Ga17  1  0.938991  0.207301  0.292343  1
  Ga  Ga18  1  0.561238  0.706888  0.707975  1
  Ga  Ga19  1  0.793112  0.938762  0.292025  1
  Ga  Ga20  1  0.438232  0.292977  0.707559  1
  Ga  Ga21  1  0.793112  0.938762  0.707975  1
  Ga  Ga22  1  0.438232  0.292977  0.292441  1
  Ga  Ga23  1  0.292699  0.561009  0.292343  1
  Os  Os24  1  0.321923  0.821834  0.500000  1
  Os  Os25  1  0.821727  0.678273  0.500000  1
  Os  Os26  1  0.999817  0.999779  0.000000  1
  Os  Os27  1  0.678166  0.178077  0.500000  1
  Os  Os28  1  0.500221  0.500183  0.000000  1
  Ru  Ru29  1  0.178141  0.321859  0.500000  1
