# generated using pymatgen
data_Tb14Ho2Cd4CoRu3
_symmetry_space_group_name_H-M   'P 1'
_cell_length_a   9.66386628
_cell_length_b   9.66386639
_cell_length_c   9.59175561
_cell_angle_alpha   59.65115596
_cell_angle_beta   59.65114931
_cell_angle_gamma   59.88202397
_symmetry_Int_Tables_number   1
_chemical_formula_structural   Tb14Ho2Cd4CoRu3
_chemical_formula_sum   'Tb14 Ho2 Cd4 Co1 Ru3'
_cell_volume   629.49191230
_cell_formula_units_Z   1
loop_
 _symmetry_equiv_pos_site_id
 _symmetry_equiv_pos_as_xyz
  1  'x, y, z'
loop_
 _atom_site_type_symbol
 _atom_site_label
 _atom_site_symmetry_multiplicity
 _atom_site_fract_x
 _atom_site_fract_y
 _atom_site_fract_z
 _atom_site_occupancy
  Tb  Tb0  1  0.188185  0.814287  0.810296  1
  Tb  Tb1  1  0.060783  0.060783  0.437135  1
  Tb  Tb2  1  0.439204  0.065488  0.057113  1
  Tb  Tb3  1  0.814287  0.188185  0.810296  1
  Tb  Tb4  1  0.440233  0.060794  0.437691  1
  Tb  Tb5  1  0.593897  0.211720  0.600833  1
  Tb  Tb6  1  0.810875  0.810875  0.189077  1
  Tb  Tb7  1  0.211720  0.593897  0.600833  1
  Tb  Tb8  1  0.810230  0.190007  0.188883  1
  Tb  Tb9  1  0.060794  0.440233  0.437691  1
  Tb  Tb10  1  0.190007  0.810230  0.188883  1
  Tb  Tb11  1  0.595818  0.595818  0.211567  1
  Tb  Tb12  1  0.187762  0.187762  0.810324  1
  Tb  Tb13  1  0.065488  0.439204  0.057113  1
  Ho  Ho14  1  0.438433  0.438433  0.057366  1
  Ho  Ho15  1  0.594219  0.594219  0.601019  1
  Cd  Cd16  1  0.830066  0.830066  0.508334  1
  Cd  Cd17  1  0.830316  0.830316  0.829235  1
  Cd  Cd18  1  0.508995  0.829731  0.829476  1
  Cd  Cd19  1  0.829731  0.508995  0.829476  1
  Co  Co20  1  0.390765  0.390765  0.830486  1
  Ru  Ru21  1  0.388194  0.388194  0.390994  1
  Ru  Ru22  1  0.831004  0.388991  0.392939  1
  Ru  Ru23  1  0.388991  0.831004  0.392939  1
