# generated using pymatgen
data_Nd2HoGa6Ni8Ir
_symmetry_space_group_name_H-M   'P 1'
_cell_length_a   8.79996100
_cell_length_b   8.96317603
_cell_length_c   4.11567400
_cell_angle_alpha   90.00000000
_cell_angle_beta   90.00000000
_cell_angle_gamma   119.39943681
_symmetry_Int_Tables_number   1
_chemical_formula_structural   Nd2HoGa6Ni8Ir
_chemical_formula_sum   'Nd2 Ho1 Ga6 Ni8 Ir1'
_cell_volume   282.82044248
_cell_formula_units_Z   1
loop_
 _symmetry_equiv_pos_site_id
 _symmetry_equiv_pos_as_xyz
  1  'x, y, z'
loop_
 _atom_site_type_symbol
 _atom_site_label
 _atom_site_symmetry_multiplicity
 _atom_site_fract_x
 _atom_site_fract_y
 _atom_site_fract_z
 _atom_site_occupancy
  Nd  Nd0  1  0.334323  0.666182  0.500000  1
  Nd  Nd1  1  0.668142  0.333818  0.500000  1
  Ho  Ho2  1  0.009343  0.000000  0.000000  1
  Ga  Ga3  1  0.472183  0.000000  0.000000  1
  Ga  Ga4  1  0.993422  0.468525  0.000000  1
  Ga  Ga5  1  0.524896  0.531475  0.000000  1
  Ga  Ga6  1  0.732655  0.000000  0.500000  1
  Ga  Ga7  1  0.994718  0.722763  0.500000  1
  Ga  Ga8  1  0.271954  0.277237  0.500000  1
  Ni  Ni9  1  0.198114  0.368942  0.000000  1
  Ni  Ni10  1  0.635167  0.834729  0.000000  1
  Ni  Ni11  1  0.161910  0.782619  0.000000  1
  Ni  Ni12  1  0.829173  0.631058  0.000000  1
  Ni  Ni13  1  0.800437  0.165271  0.000000  1
  Ni  Ni14  1  0.379291  0.217381  0.000000  1
  Ni  Ni15  1  0.996741  0.284046  0.500000  1
  Ni  Ni16  1  0.712695  0.715954  0.500000  1
  Ir  Ir17  1  0.284837  0.000000  0.500000  1
