# generated using pymatgen
data_Ho9Er(Bi2Ru)2
_symmetry_space_group_name_H-M   'P 1'
_cell_length_a   7.93805106
_cell_length_b   8.99434909
_cell_length_c   12.41896611
_cell_angle_alpha   89.98780962
_cell_angle_beta   90.00947972
_cell_angle_gamma   89.98966628
_symmetry_Int_Tables_number   1
_chemical_formula_structural   Ho9Er(Bi2Ru)2
_chemical_formula_sum   'Ho18 Er2 Bi8 Ru4'
_cell_volume   886.68435690
_cell_formula_units_Z   2
loop_
 _symmetry_equiv_pos_site_id
 _symmetry_equiv_pos_as_xyz
  1  'x, y, z'
loop_
 _atom_site_type_symbol
 _atom_site_label
 _atom_site_symmetry_multiplicity
 _atom_site_fract_x
 _atom_site_fract_y
 _atom_site_fract_z
 _atom_site_occupancy
  Ho  Ho0  1  0.840079  0.750034  0.792492  1
  Ho  Ho1  1  0.159921  0.249966  0.207508  1
  Ho  Ho2  1  0.340176  0.249948  0.707416  1
  Ho  Ho3  1  0.659824  0.750052  0.292584  1
  Ho  Ho4  1  0.375553  0.750124  0.690226  1
  Ho  Ho5  1  0.624447  0.249876  0.309774  1
  Ho  Ho6  1  0.875473  0.249970  0.809648  1
  Ho  Ho7  1  0.124527  0.750030  0.190352  1
  Ho  Ho8  1  0.945639  0.750124  0.504301  1
  Ho  Ho9  1  0.054361  0.249876  0.495699  1
  Ho  Ho10  1  0.445629  0.249996  0.995732  1
  Ho  Ho11  1  0.554371  0.750004  0.004268  1
  Ho  Ho12  1  0.174398  0.958277  0.935222  1
  Ho  Ho13  1  0.325580  0.541748  0.435222  1
  Ho  Ho14  1  0.825602  0.041723  0.064778  1
  Ho  Ho15  1  0.674420  0.458252  0.564778  1
  Ho  Ho16  1  0.825595  0.458288  0.064774  1
  Ho  Ho17  1  0.174405  0.541712  0.935226  1
  Er  Er18  1  0.673863  0.041782  0.564713  1
  Er  Er19  1  0.326137  0.958218  0.435287  1
  Bi  Bi20  1  0.567202  0.493204  0.827394  1
  Bi  Bi21  1  0.432798  0.506796  0.172606  1
  Bi  Bi22  1  0.067241  0.506817  0.672581  1
  Bi  Bi23  1  0.432748  0.993204  0.172638  1
  Bi  Bi24  1  0.932759  0.493183  0.327419  1
  Bi  Bi25  1  0.567252  0.006796  0.827362  1
  Bi  Bi26  1  0.932924  0.006792  0.327475  1
  Bi  Bi27  1  0.067076  0.993208  0.672525  1
  Ru  Ru28  1  0.573896  0.750322  0.510047  1
  Ru  Ru29  1  0.426104  0.249678  0.489953  1
  Ru  Ru30  1  0.074112  0.250007  0.989895  1
  Ru  Ru31  1  0.925888  0.749993  0.010105  1
