# generated using pymatgen
data_P4RhPbO14
_symmetry_space_group_name_H-M   'P 1'
_cell_length_a   8.33912111
_cell_length_b   4.94167494
_cell_length_c   7.10999255
_cell_angle_alpha   72.15074409
_cell_angle_beta   89.41610657
_cell_angle_gamma   90.60417182
_symmetry_Int_Tables_number   1
_chemical_formula_structural   P4RhPbO14
_chemical_formula_sum   'P4 Rh1 Pb1 O14'
_cell_volume   278.85099025
_cell_formula_units_Z   1
loop_
 _symmetry_equiv_pos_site_id
 _symmetry_equiv_pos_as_xyz
  1  'x, y, z'
loop_
 _atom_site_type_symbol
 _atom_site_label
 _atom_site_symmetry_multiplicity
 _atom_site_fract_x
 _atom_site_fract_y
 _atom_site_fract_z
 _atom_site_occupancy
  P  P0  1  0.874317  0.602730  0.510097  1
  P  P1  1  0.265166  0.785801  0.100981  1
  P  P2  1  0.791657  0.225148  0.908154  1
  P  P3  1  0.361074  0.392701  0.480168  1
  Rh  Rh4  1  0.052135  0.214985  0.278438  1
  Pb  Pb5  1  0.550833  0.783089  0.729103  1
  O  O6  1  0.753663  0.962585  0.842078  1
  O  O7  1  0.356111  0.880511  0.904033  1
  O  O8  1  0.012285  0.821025  0.460342  1
  O  O9  1  0.705932  0.727447  0.491701  1
  O  O10  1  0.359578  0.571045  0.622794  1
  O  O11  1  0.638159  0.384090  0.931651  1
  O  O12  1  0.906551  0.434325  0.739464  1
  O  O13  1  0.390843  0.599416  0.257234  1
  O  O14  1  0.113744  0.603806  0.098668  1
  O  O15  1  0.876597  0.383855  0.393938  1
  O  O16  1  0.192965  0.256306  0.494068  1
  O  O17  1  0.500639  0.186243  0.507077  1
  O  O18  1  0.890508  0.127214  0.093685  1
  O  O19  1  0.230455  0.057678  0.156329  1
