# generated using pymatgen
data_NdEr2Co8MoP6
_symmetry_space_group_name_H-M   'P 1'
_cell_length_a   3.72515200
_cell_length_b   10.56315600
_cell_length_c   12.27001500
_cell_angle_alpha   90.00000000
_cell_angle_beta   90.00000000
_cell_angle_gamma   90.00000000
_symmetry_Int_Tables_number   1
_chemical_formula_structural   NdEr2Co8MoP6
_chemical_formula_sum   'Nd2 Er4 Co16 Mo2 P12'
_cell_volume   482.81725830
_cell_formula_units_Z   2
loop_
 _symmetry_equiv_pos_site_id
 _symmetry_equiv_pos_as_xyz
  1  'x, y, z'
loop_
 _atom_site_type_symbol
 _atom_site_label
 _atom_site_symmetry_multiplicity
 _atom_site_fract_x
 _atom_site_fract_y
 _atom_site_fract_z
 _atom_site_occupancy
  Nd  Nd0  1  0.750000  0.250000  0.475180  1
  Nd  Nd1  1  0.250000  0.750000  0.524820  1
  Er  Er2  1  0.250000  0.931059  0.796315  1
  Er  Er3  1  0.250000  0.568941  0.796315  1
  Er  Er4  1  0.750000  0.068941  0.203685  1
  Er  Er5  1  0.750000  0.431059  0.203685  1
  Co  Co6  1  0.250000  0.250000  0.294828  1
  Co  Co7  1  0.750000  0.750000  0.705172  1
  Co  Co8  1  0.750000  0.250000  0.013761  1
  Co  Co9  1  0.250000  0.750000  0.986239  1
  Co  Co10  1  0.250000  0.417802  0.009899  1
  Co  Co11  1  0.250000  0.082198  0.009899  1
  Co  Co12  1  0.750000  0.582198  0.990101  1
  Co  Co13  1  0.750000  0.917802  0.990101  1
  Co  Co14  1  0.250000  0.454876  0.570310  1
  Co  Co15  1  0.250000  0.045124  0.570310  1
  Co  Co16  1  0.750000  0.545124  0.429690  1
  Co  Co17  1  0.750000  0.954876  0.429690  1
  Co  Co18  1  0.250000  0.871801  0.290075  1
  Co  Co19  1  0.250000  0.628199  0.290075  1
  Co  Co20  1  0.750000  0.128199  0.709925  1
  Co  Co21  1  0.750000  0.371801  0.709925  1
  Mo  Mo22  1  0.250000  0.250000  0.846006  1
  Mo  Mo23  1  0.750000  0.750000  0.153994  1
  P  P24  1  0.250000  0.250000  0.118149  1
  P  P25  1  0.750000  0.750000  0.881851  1
  P  P26  1  0.250000  0.250000  0.654893  1
  P  P27  1  0.750000  0.750000  0.345107  1
  P  P28  1  0.250000  0.441607  0.381917  1
  P  P29  1  0.250000  0.058393  0.381917  1
  P  P30  1  0.750000  0.558393  0.618083  1
  P  P31  1  0.750000  0.941607  0.618083  1
  P  P32  1  0.250000  0.905653  0.106387  1
  P  P33  1  0.250000  0.594347  0.106387  1
  P  P34  1  0.750000  0.094347  0.893613  1
  P  P35  1  0.750000  0.405653  0.893613  1
