# generated using pymatgen
data_Y4Ga16TcIr2
_symmetry_space_group_name_H-M   'P 1'
_cell_length_a   6.16471500
_cell_length_b   6.16471500
_cell_length_c   11.29270400
_cell_angle_alpha   90.00000000
_cell_angle_beta   90.00000000
_cell_angle_gamma   90.00000000
_symmetry_Int_Tables_number   1
_chemical_formula_structural   Y4Ga16TcIr2
_chemical_formula_sum   'Y4 Ga16 Tc1 Ir2'
_cell_volume   429.16465958
_cell_formula_units_Z   1
loop_
 _symmetry_equiv_pos_site_id
 _symmetry_equiv_pos_as_xyz
  1  'x, y, z'
loop_
 _atom_site_type_symbol
 _atom_site_label
 _atom_site_symmetry_multiplicity
 _atom_site_fract_x
 _atom_site_fract_y
 _atom_site_fract_z
 _atom_site_occupancy
  Y  Y0  1  0.500000  0.000000  0.806688  1
  Y  Y1  1  0.000000  0.500000  0.806688  1
  Y  Y2  1  0.500000  0.000000  0.193312  1
  Y  Y3  1  0.000000  0.500000  0.193312  1
  Ga  Ga4  1  0.248741  0.248741  0.619547  1
  Ga  Ga5  1  0.751259  0.751259  0.619547  1
  Ga  Ga6  1  0.751259  0.248741  0.619547  1
  Ga  Ga7  1  0.248741  0.751259  0.619547  1
  Ga  Ga8  1  0.751259  0.751259  0.380453  1
  Ga  Ga9  1  0.248741  0.248741  0.380453  1
  Ga  Ga10  1  0.248741  0.751259  0.380453  1
  Ga  Ga11  1  0.751259  0.248741  0.380453  1
  Ga  Ga12  1  0.286971  0.286971  0.000000  1
  Ga  Ga13  1  0.713029  0.713029  0.000000  1
  Ga  Ga14  1  0.713029  0.286971  0.000000  1
  Ga  Ga15  1  0.286971  0.713029  0.000000  1
  Ga  Ga16  1  0.500000  0.500000  0.801222  1
  Ga  Ga17  1  0.500000  0.500000  0.198778  1
  Ga  Ga18  1  0.000000  0.000000  0.776810  1
  Ga  Ga19  1  0.000000  0.000000  0.223190  1
  Tc  Tc20  1  0.000000  0.000000  0.000000  1
  Ir  Ir21  1  0.500000  0.000000  0.500000  1
  Ir  Ir22  1  0.000000  0.500000  0.500000  1
