# generated using pymatgen
data_Tb5In4PdRu
_symmetry_space_group_name_H-M   'P 1'
_cell_length_a   18.48069575
_cell_length_b   8.16309095
_cell_length_c   3.62540500
_cell_angle_alpha   90.00000000
_cell_angle_beta   90.00000000
_cell_angle_gamma   90.05256044
_symmetry_Int_Tables_number   1
_chemical_formula_structural   Tb5In4PdRu
_chemical_formula_sum   'Tb10 In8 Pd2 Ru2'
_cell_volume   546.92691875
_cell_formula_units_Z   2
loop_
 _symmetry_equiv_pos_site_id
 _symmetry_equiv_pos_as_xyz
  1  'x, y, z'
loop_
 _atom_site_type_symbol
 _atom_site_label
 _atom_site_symmetry_multiplicity
 _atom_site_fract_x
 _atom_site_fract_y
 _atom_site_fract_z
 _atom_site_occupancy
  Tb  Tb0  1  0.277981  0.731966  0.000000  1
  Tb  Tb1  1  0.722019  0.268033  0.000000  1
  Tb  Tb2  1  0.779788  0.746488  0.000000  1
  Tb  Tb3  1  0.220212  0.253513  0.000000  1
  Tb  Tb4  1  0.086856  0.617918  0.000000  1
  Tb  Tb5  1  0.913144  0.382083  0.000000  1
  Tb  Tb6  1  0.584956  0.879915  0.000000  1
  Tb  Tb7  1  0.415044  0.120085  0.000000  1
  Tb  Tb8  1  0.500000  0.500000  0.000000  1
  Tb  Tb9  1  0.000000  0.000000  0.000000  1
  In  In10  1  0.651024  0.571886  0.500001  1
  In  In11  1  0.348976  0.428114  0.500001  1
  In  In12  1  0.150097  0.925104  0.500001  1
  In  In13  1  0.849903  0.074896  0.500001  1
  In  In14  1  0.930054  0.706440  0.500001  1
  In  In15  1  0.069946  0.293560  0.500001  1
  In  In16  1  0.431738  0.791707  0.500001  1
  In  In17  1  0.568263  0.208293  0.500001  1
  Pd  Pd18  1  0.696250  0.978093  0.500001  1
  Pd  Pd19  1  0.303750  0.021908  0.500001  1
  Ru  Ru20  1  0.194874  0.519430  0.500001  1
  Ru  Ru21  1  0.805126  0.480570  0.500001  1
