# generated using pymatgen
data_Er4AlZn9Sn2
_symmetry_space_group_name_H-M   'P 1'
_cell_length_a   8.32301401
_cell_length_b   8.32301452
_cell_length_c   9.02279718
_cell_angle_alpha   90.78692165
_cell_angle_beta   89.21308433
_cell_angle_gamma   149.75795343
_symmetry_Int_Tables_number   1
_chemical_formula_structural   Er4AlZn9Sn2
_chemical_formula_sum   'Er4 Al1 Zn9 Sn2'
_cell_volume   314.76820592
_cell_formula_units_Z   1
loop_
 _symmetry_equiv_pos_site_id
 _symmetry_equiv_pos_as_xyz
  1  'x, y, z'
loop_
 _atom_site_type_symbol
 _atom_site_label
 _atom_site_symmetry_multiplicity
 _atom_site_fract_x
 _atom_site_fract_y
 _atom_site_fract_z
 _atom_site_occupancy
  Er  Er0  1  0.198792  0.801208  0.245831  1
  Er  Er1  1  0.800332  0.199668  0.752207  1
  Er  Er2  1  0.002279  0.997721  0.503865  1
  Er  Er3  1  0.999985  0.000015  0.001630  1
  Al  Al4  1  0.811898  0.188102  0.392552  1
  Zn  Zn5  1  0.189323  0.810677  0.606349  1
  Zn  Zn6  1  0.811715  0.188285  0.106615  1
  Zn  Zn7  1  0.186426  0.813574  0.889124  1
  Zn  Zn8  1  0.654044  0.345956  0.478077  1
  Zn  Zn9  1  0.347046  0.652954  0.523977  1
  Zn  Zn10  1  0.655310  0.344690  0.018537  1
  Zn  Zn11  1  0.342754  0.657246  0.979572  1
  Zn  Zn12  1  0.387572  0.612428  0.248811  1
  Zn  Zn13  1  0.612306  0.387694  0.749499  1
  Sn  Sn14  1  0.549798  0.450202  0.250693  1
  Sn  Sn15  1  0.450420  0.549580  0.752662  1
