# generated using pymatgen
data_Dy12Ho8Si15Hg
_symmetry_space_group_name_H-M   'P 1'
_cell_length_a   7.43708209
_cell_length_b   7.70077113
_cell_length_c   14.63080602
_cell_angle_alpha   89.95198802
_cell_angle_beta   89.26290820
_cell_angle_gamma   90.12864260
_symmetry_Int_Tables_number   1
_chemical_formula_structural   Dy12Ho8Si15Hg
_chemical_formula_sum   'Dy12 Ho8 Si15 Hg1'
_cell_volume   837.85303439
_cell_formula_units_Z   1
loop_
 _symmetry_equiv_pos_site_id
 _symmetry_equiv_pos_as_xyz
  1  'x, y, z'
loop_
 _atom_site_type_symbol
 _atom_site_label
 _atom_site_symmetry_multiplicity
 _atom_site_fract_x
 _atom_site_fract_y
 _atom_site_fract_z
 _atom_site_occupancy
  Dy  Dy0  1  0.649703  0.990928  0.250344  1
  Dy  Dy1  1  0.152225  0.510758  0.248525  1
  Dy  Dy2  1  0.848138  0.489864  0.747796  1
  Dy  Dy3  1  0.347733  0.011251  0.749549  1
  Dy  Dy4  1  0.977959  0.823593  0.102047  1
  Dy  Dy5  1  0.472076  0.684307  0.401225  1
  Dy  Dy6  1  0.516946  0.312019  0.898817  1
  Dy  Dy7  1  0.029734  0.182135  0.597992  1
  Dy  Dy8  1  0.026928  0.175947  0.899897  1
  Dy  Dy9  1  0.529139  0.315941  0.598174  1
  Dy  Dy10  1  0.476183  0.682739  0.101273  1
  Dy  Dy11  1  0.970313  0.816475  0.400518  1
  Ho  Ho12  1  0.671964  0.830677  0.873448  1
  Ho  Ho13  1  0.182222  0.679716  0.621524  1
  Ho  Ho14  1  0.822992  0.320260  0.126780  1
  Ho  Ho15  1  0.318777  0.178139  0.377811  1
  Ho  Ho16  1  0.324271  0.176763  0.124523  1
  Ho  Ho17  1  0.819777  0.321176  0.377437  1
  Ho  Ho18  1  0.181197  0.675419  0.876784  1
  Ho  Ho19  1  0.681857  0.822555  0.621766  1
  Si  Si20  1  0.768773  0.629261  0.252308  1
  Si  Si21  1  0.268803  0.872541  0.252133  1
  Si  Si22  1  0.732968  0.127270  0.747675  1
  Si  Si23  1  0.229335  0.372620  0.747304  1
  Si  Si24  1  0.024068  0.104468  0.252177  1
  Si  Si25  1  0.524519  0.394752  0.252793  1
  Si  Si26  1  0.475612  0.604958  0.747366  1
  Si  Si27  1  0.976125  0.891563  0.747451  1
  Si  Si28  1  0.354699  0.971464  0.540491  1
  Si  Si29  1  0.653156  0.029997  0.041163  1
  Si  Si30  1  0.146995  0.470305  0.460040  1
  Si  Si31  1  0.162408  0.468969  0.042356  1
  Si  Si32  1  0.646457  0.028730  0.458872  1
  Si  Si33  1  0.347485  0.967674  0.961519  1
  Si  Si34  1  0.854846  0.530315  0.539154  1
  Hg  Hg35  1  0.833614  0.534452  0.960971  1
