# generated using pymatgen
data_Sc2Mn4P7Ir8
_symmetry_space_group_name_H-M   'P 1'
_cell_length_a   9.36588012
_cell_length_b   9.37268421
_cell_length_c   3.80799600
_cell_angle_alpha   90.00000000
_cell_angle_beta   90.00000000
_cell_angle_gamma   120.02730037
_symmetry_Int_Tables_number   1
_chemical_formula_structural   Sc2Mn4P7Ir8
_chemical_formula_sum   'Sc2 Mn4 P7 Ir8'
_cell_volume   289.41441331
_cell_formula_units_Z   1
loop_
 _symmetry_equiv_pos_site_id
 _symmetry_equiv_pos_as_xyz
  1  'x, y, z'
loop_
 _atom_site_type_symbol
 _atom_site_label
 _atom_site_symmetry_multiplicity
 _atom_site_fract_x
 _atom_site_fract_y
 _atom_site_fract_z
 _atom_site_occupancy
  Sc  Sc0  1  0.665978  0.332248  0.000000  1
  Sc  Sc1  1  0.332024  0.666804  0.500000  1
  Mn  Mn2  1  0.269396  0.159580  0.000000  1
  Mn  Mn3  1  0.844030  0.111187  0.000000  1
  Mn  Mn4  1  0.887856  0.730887  0.000000  1
  Mn  Mn5  1  0.127831  0.898182  0.500000  1
  P  P6  1  0.297373  0.409528  0.000000  1
  P  P7  1  0.590635  0.889707  0.000000  1
  P  P8  1  0.111686  0.705311  0.000000  1
  P  P9  1  0.397890  0.119720  0.500000  1
  P  P10  1  0.876465  0.277955  0.500000  1
  P  P11  1  0.724269  0.597357  0.500000  1
  P  P12  1  0.000344  0.999031  0.000000  1
  Ir  Ir13  1  0.069829  0.437098  0.000000  1
  Ir  Ir14  1  0.561914  0.633547  0.000000  1
  Ir  Ir15  1  0.365142  0.931350  0.000000  1
  Ir  Ir16  1  0.452342  0.387469  0.500000  1
  Ir  Ir17  1  0.614060  0.062604  0.500000  1
  Ir  Ir18  1  0.941589  0.552587  0.500000  1
  Ir  Ir19  1  0.100703  0.233320  0.500000  1
  Ir  Ir20  1  0.768638  0.864528  0.500000  1
