# generated using pymatgen
data_Be2Nb3NiRu4
_symmetry_space_group_name_H-M   'P 1'
_cell_length_a   9.28109000
_cell_length_b   9.28109000
_cell_length_c   3.15414200
_cell_angle_alpha   90.00000000
_cell_angle_beta   90.00000000
_cell_angle_gamma   90.00000000
_symmetry_Int_Tables_number   1
_chemical_formula_structural   Be2Nb3NiRu4
_chemical_formula_sum   'Be4 Nb6 Ni2 Ru8'
_cell_volume   271.69347571
_cell_formula_units_Z   2
loop_
 _symmetry_equiv_pos_site_id
 _symmetry_equiv_pos_as_xyz
  1  'x, y, z'
loop_
 _atom_site_type_symbol
 _atom_site_label
 _atom_site_symmetry_multiplicity
 _atom_site_fract_x
 _atom_site_fract_y
 _atom_site_fract_z
 _atom_site_occupancy
  Be  Be0  1  0.611100  0.888900  0.000000  1
  Be  Be1  1  0.388900  0.111100  0.000000  1
  Be  Be2  1  0.111100  0.611100  0.000000  1
  Be  Be3  1  0.888900  0.388900  0.000000  1
  Nb  Nb4  1  0.821021  0.678979  0.000000  1
  Nb  Nb5  1  0.178979  0.321021  0.000000  1
  Nb  Nb6  1  0.321021  0.821021  0.000000  1
  Nb  Nb7  1  0.678979  0.178979  0.000000  1
  Nb  Nb8  1  0.500000  0.500000  0.000000  1
  Nb  Nb9  1  0.000000  0.000000  0.000000  1
  Ni  Ni10  1  0.500000  0.000000  0.500000  1
  Ni  Ni11  1  0.000000  0.500000  0.500000  1
  Ru  Ru12  1  0.561381  0.720477  0.500000  1
  Ru  Ru13  1  0.438619  0.279523  0.500000  1
  Ru  Ru14  1  0.061381  0.779523  0.500000  1
  Ru  Ru15  1  0.938619  0.220477  0.500000  1
  Ru  Ru16  1  0.279523  0.561381  0.500000  1
  Ru  Ru17  1  0.720477  0.438619  0.500000  1
  Ru  Ru18  1  0.220477  0.061381  0.500000  1
  Ru  Ru19  1  0.779523  0.938619  0.500000  1
