# generated using pymatgen
data_Tm5Cu2Sb
_symmetry_space_group_name_H-M   'P 1'
_cell_length_a   8.42620589
_cell_length_b   8.42620657
_cell_length_c   8.42620624
_cell_angle_alpha   125.03707898
_cell_angle_beta   125.03708575
_cell_angle_gamma   81.47662456
_symmetry_Int_Tables_number   1
_chemical_formula_structural   Tm5Cu2Sb
_chemical_formula_sum   'Tm10 Cu4 Sb2'
_cell_volume   386.12106399
_cell_formula_units_Z   2
loop_
 _symmetry_equiv_pos_site_id
 _symmetry_equiv_pos_as_xyz
  1  'x, y, z'
loop_
 _atom_site_type_symbol
 _atom_site_label
 _atom_site_symmetry_multiplicity
 _atom_site_fract_x
 _atom_site_fract_y
 _atom_site_fract_z
 _atom_site_occupancy
  Tm  Tm0  1  0.000000  0.000000  0.000000  1
  Tm  Tm1  1  0.500000  0.500000  0.000000  1
  Tm  Tm2  1  0.796507  0.296507  0.810223  1
  Tm  Tm3  1  0.203493  0.703493  0.189777  1
  Tm  Tm4  1  0.486284  0.986284  0.189777  1
  Tm  Tm5  1  0.296507  0.486284  0.500000  1
  Tm  Tm6  1  0.013716  0.203493  0.500000  1
  Tm  Tm7  1  0.513716  0.013716  0.810223  1
  Tm  Tm8  1  0.703493  0.513716  0.500000  1
  Tm  Tm9  1  0.986284  0.796507  0.500000  1
  Cu  Cu10  1  0.129329  0.629329  0.758659  1
  Cu  Cu11  1  0.870671  0.370671  0.241341  1
  Cu  Cu12  1  0.629329  0.870671  0.500000  1
  Cu  Cu13  1  0.370671  0.129329  0.500000  1
  Sb  Sb14  1  0.250000  0.250000  0.000000  1
  Sb  Sb15  1  0.750000  0.750000  0.000000  1
