# generated using pymatgen
data_GdY5Rh2
_symmetry_space_group_name_H-M   'P 1'
_cell_length_a   6.32364145
_cell_length_b   7.24227066
_cell_length_c   9.53153600
_cell_angle_alpha   90.00000000
_cell_angle_beta   90.00000000
_cell_angle_gamma   89.92240793
_symmetry_Int_Tables_number   1
_chemical_formula_structural   GdY5Rh2
_chemical_formula_sum   'Gd2 Y10 Rh4'
_cell_volume   436.52033830
_cell_formula_units_Z   2
loop_
 _symmetry_equiv_pos_site_id
 _symmetry_equiv_pos_as_xyz
  1  'x, y, z'
loop_
 _atom_site_type_symbol
 _atom_site_label
 _atom_site_symmetry_multiplicity
 _atom_site_fract_x
 _atom_site_fract_y
 _atom_site_fract_z
 _atom_site_occupancy
  Gd  Gd0  1  0.639640  0.034848  0.250000  1
  Gd  Gd1  1  0.360360  0.965152  0.750000  1
  Y  Y2  1  0.137734  0.465336  0.750000  1
  Y  Y3  1  0.862266  0.534664  0.250000  1
  Y  Y4  1  0.169099  0.179637  0.063537  1
  Y  Y5  1  0.830901  0.820363  0.936463  1
  Y  Y6  1  0.671246  0.321988  0.936177  1
  Y  Y7  1  0.830901  0.820363  0.563537  1
  Y  Y8  1  0.328754  0.678012  0.063823  1
  Y  Y9  1  0.169099  0.179637  0.436463  1
  Y  Y10  1  0.328754  0.678012  0.436177  1
  Y  Y11  1  0.671246  0.321988  0.563823  1
  Rh  Rh12  1  0.444058  0.382576  0.250000  1
  Rh  Rh13  1  0.555942  0.617424  0.750000  1
  Rh  Rh14  1  0.944528  0.117484  0.750000  1
  Rh  Rh15  1  0.055472  0.882516  0.250000  1
