# generated using pymatgen
data_Sr3NdTa2Mn2O12
_symmetry_space_group_name_H-M   'P 1'
_cell_length_a   5.80463604
_cell_length_b   9.81528087
_cell_length_c   9.80884134
_cell_angle_alpha   71.31287319
_cell_angle_beta   91.51596365
_cell_angle_gamma   88.89714724
_symmetry_Int_Tables_number   1
_chemical_formula_structural   Sr3NdTa2Mn2O12
_chemical_formula_sum   'Sr6 Nd2 Ta4 Mn4 O24'
_cell_volume   528.97679217
_cell_formula_units_Z   2
loop_
 _symmetry_equiv_pos_site_id
 _symmetry_equiv_pos_as_xyz
  1  'x, y, z'
loop_
 _atom_site_type_symbol
 _atom_site_label
 _atom_site_symmetry_multiplicity
 _atom_site_fract_x
 _atom_site_fract_y
 _atom_site_fract_z
 _atom_site_occupancy
  Sr  Sr0  1  0.535093  0.116820  0.632522  1
  Sr  Sr1  1  0.538360  0.622502  0.128544  1
  Sr  Sr2  1  0.028180  0.875800  0.872686  1
  Sr  Sr3  1  0.030762  0.374568  0.375153  1
  Sr  Sr4  1  0.469501  0.881497  0.369410  1
  Sr  Sr5  1  0.465471  0.378450  0.872538  1
  Nd  Nd6  1  0.950480  0.120440  0.128071  1
  Nd  Nd7  1  0.942397  0.620704  0.626183  1
  Ta  Ta8  1  0.492148  0.752294  0.747772  1
  Ta  Ta9  1  0.500174  0.252361  0.249318  1
  Ta  Ta10  1  0.003430  0.246454  0.753684  1
  Ta  Ta11  1  0.002874  0.749192  0.249792  1
  Mn  Mn12  1  0.000417  0.498505  0.000489  1
  Mn  Mn13  1  0.492767  0.498603  0.500891  1
  Mn  Mn14  1  0.000440  0.998480  0.501160  1
  Mn  Mn15  1  0.498057  0.999772  0.999733  1
  O  O16  1  0.527043  0.668518  0.590933  1
  O  O17  1  0.532228  0.154913  0.089382  1
  O  O18  1  0.992286  0.154782  0.594236  1
  O  O19  1  0.974901  0.666480  0.095811  1
  O  O20  1  0.484774  0.328559  0.408610  1
  O  O21  1  0.476200  0.842580  0.909002  1
  O  O22  1  0.006564  0.835022  0.420719  1
  O  O23  1  0.027022  0.319281  0.920332  1
  O  O24  1  0.734028  0.089248  0.368209  1
  O  O25  1  0.702961  0.595470  0.863698  1
  O  O26  1  0.804011  0.095226  0.871205  1
  O  O27  1  0.804324  0.600931  0.376598  1
  O  O28  1  0.277863  0.912907  0.620923  1
  O  O29  1  0.310063  0.409315  0.124672  1
  O  O30  1  0.188718  0.915876  0.136623  1
  O  O31  1  0.194055  0.410920  0.635603  1
  O  O32  1  0.228738  0.128409  0.317231  1
  O  O33  1  0.211058  0.635409  0.816479  1
  O  O34  1  0.293245  0.123039  0.840954  1
  O  O35  1  0.280956  0.636026  0.328590  1
  O  O36  1  0.763122  0.870779  0.667358  1
  O  O37  1  0.783346  0.358389  0.167232  1
  O  O38  1  0.716238  0.884239  0.157016  1
  O  O39  1  0.735706  0.377248  0.670634  1
