# generated using pymatgen
data_Rb4Zr5Sn3Se16
_symmetry_space_group_name_H-M   'P 1'
_cell_length_a   6.96827968
_cell_length_b   7.94537900
_cell_length_c   16.87043619
_cell_angle_alpha   90.00000000
_cell_angle_beta   90.39872980
_cell_angle_gamma   90.00000000
_symmetry_Int_Tables_number   1
_chemical_formula_structural   Rb4Zr5Sn3Se16
_chemical_formula_sum   'Rb4 Zr5 Sn3 Se16'
_cell_volume   934.01959308
_cell_formula_units_Z   1
loop_
 _symmetry_equiv_pos_site_id
 _symmetry_equiv_pos_as_xyz
  1  'x, y, z'
loop_
 _atom_site_type_symbol
 _atom_site_label
 _atom_site_symmetry_multiplicity
 _atom_site_fract_x
 _atom_site_fract_y
 _atom_site_fract_z
 _atom_site_occupancy
  Rb  Rb0  1  0.346858  0.000000  0.998087  1
  Rb  Rb1  1  0.647648  0.500000  0.501178  1
  Rb  Rb2  1  0.028499  0.000000  0.501068  1
  Rb  Rb3  1  0.971085  0.500000  0.001729  1
  Zr  Zr4  1  0.998297  0.500000  0.747311  1
  Zr  Zr5  1  0.499999  0.249932  0.250065  1
  Zr  Zr6  1  0.499566  0.751262  0.749900  1
  Zr  Zr7  1  0.499999  0.750068  0.250065  1
  Zr  Zr8  1  0.499566  0.248738  0.749900  1
  Sn  Sn9  1  0.004739  0.000000  0.247204  1
  Sn  Sn10  1  0.004443  0.000000  0.752560  1
  Sn  Sn11  1  0.995135  0.500000  0.252916  1
  Se  Se12  1  0.815713  0.247994  0.343828  1
  Se  Se13  1  0.820779  0.736989  0.658063  1
  Se  Se14  1  0.184401  0.748313  0.156282  1
  Se  Se15  1  0.180451  0.267755  0.842130  1
  Se  Se16  1  0.184401  0.251687  0.156282  1
  Se  Se17  1  0.180451  0.732245  0.842130  1
  Se  Se18  1  0.815713  0.752006  0.343828  1
  Se  Se19  1  0.820779  0.263011  0.658063  1
  Se  Se20  1  0.660902  0.000000  0.159740  1
  Se  Se21  1  0.647960  0.000000  0.841262  1
  Se  Se22  1  0.338849  0.500000  0.340195  1
  Se  Se23  1  0.325823  0.500000  0.658611  1
  Se  Se24  1  0.342715  0.000000  0.340752  1
  Se  Se25  1  0.356582  0.000000  0.657856  1
  Se  Se26  1  0.656713  0.500000  0.159489  1
  Se  Se27  1  0.671932  0.500000  0.839509  1
