# generated using pymatgen
data_Ho3Cd3CuAu2
_symmetry_space_group_name_H-M   'P 1'
_cell_length_a   7.73910100
_cell_length_b   7.73910156
_cell_length_c   3.82095700
_cell_angle_alpha   90.00000000
_cell_angle_beta   90.00000000
_cell_angle_gamma   119.99999335
_symmetry_Int_Tables_number   1
_chemical_formula_structural   Ho3Cd3CuAu2
_chemical_formula_sum   'Ho3 Cd3 Cu1 Au2'
_cell_volume   198.19097371
_cell_formula_units_Z   1
loop_
 _symmetry_equiv_pos_site_id
 _symmetry_equiv_pos_as_xyz
  1  'x, y, z'
loop_
 _atom_site_type_symbol
 _atom_site_label
 _atom_site_symmetry_multiplicity
 _atom_site_fract_x
 _atom_site_fract_y
 _atom_site_fract_z
 _atom_site_occupancy
  Ho  Ho0  1  0.594034  0.000000  0.000000  1
  Ho  Ho1  1  0.000000  0.594034  0.000000  1
  Ho  Ho2  1  0.405966  0.405966  0.000000  1
  Cd  Cd3  1  0.248831  0.000000  0.500000  1
  Cd  Cd4  1  0.000000  0.248831  0.500000  1
  Cd  Cd5  1  0.751169  0.751169  0.500000  1
  Cu  Cu6  1  0.000000  0.000000  0.000000  1
  Au  Au7  1  0.333333  0.666667  0.500000  1
  Au  Au8  1  0.666667  0.333333  0.500000  1
