# generated using pymatgen
data_Sr(Nb3S4)4
_symmetry_space_group_name_H-M   'P 1'
_cell_length_a   6.79927536
_cell_length_b   9.68183068
_cell_length_c   10.26119186
_cell_angle_alpha   118.16002245
_cell_angle_beta   109.33090934
_cell_angle_gamma   89.98078588
_symmetry_Int_Tables_number   1
_chemical_formula_structural   Sr(Nb3S4)4
_chemical_formula_sum   'Sr1 Nb12 S16'
_cell_volume   552.00458140
_cell_formula_units_Z   1
loop_
 _symmetry_equiv_pos_site_id
 _symmetry_equiv_pos_as_xyz
  1  'x, y, z'
loop_
 _atom_site_type_symbol
 _atom_site_label
 _atom_site_symmetry_multiplicity
 _atom_site_fract_x
 _atom_site_fract_y
 _atom_site_fract_z
 _atom_site_occupancy
  Sr  Sr0  1  0.000000  0.000000  0.000000  1
  Nb  Nb1  1  0.679556  0.625474  0.111624  1
  Nb  Nb2  1  0.181111  0.623491  0.110847  1
  Nb  Nb3  1  0.883565  0.889089  0.513305  1
  Nb  Nb4  1  0.379007  0.888247  0.512812  1
  Nb  Nb5  1  0.810268  0.487094  0.375425  1
  Nb  Nb6  1  0.315003  0.486708  0.375935  1
  Nb  Nb7  1  0.818889  0.376509  0.889153  1
  Nb  Nb8  1  0.320444  0.374526  0.888376  1
  Nb  Nb9  1  0.620993  0.111753  0.487188  1
  Nb  Nb10  1  0.116435  0.110911  0.486695  1
  Nb  Nb11  1  0.684997  0.513292  0.624065  1
  Nb  Nb12  1  0.189732  0.512906  0.624575  1
  S  S13  1  0.269307  0.944268  0.285051  1
  S  S14  1  0.767734  0.942603  0.286200  1
  S  S15  1  0.452104  0.714212  0.655813  1
  S  S16  1  0.956129  0.714717  0.659382  1
  S  S17  1  0.153821  0.340207  0.055448  1
  S  S18  1  0.653957  0.345130  0.058417  1
  S  S19  1  0.232266  0.057397  0.713800  1
  S  S20  1  0.730693  0.055732  0.714949  1
  S  S21  1  0.043871  0.285283  0.340618  1
  S  S22  1  0.547896  0.285788  0.344187  1
  S  S23  1  0.346043  0.654870  0.941583  1
  S  S24  1  0.846179  0.659793  0.944552  1
  S  S25  1  0.458726  0.332895  0.666308  1
  S  S26  1  0.958246  0.333782  0.667067  1
  S  S27  1  0.041754  0.666218  0.332933  1
  S  S28  1  0.541274  0.667105  0.333692  1
