# generated using pymatgen
data_Ho5(In2Cu)2
_symmetry_space_group_name_H-M   'P 1'
_cell_length_a   3.63457500
_cell_length_b   8.03529400
_cell_length_c   18.00291900
_cell_angle_alpha   90.00000000
_cell_angle_beta   90.00000000
_cell_angle_gamma   90.00000000
_symmetry_Int_Tables_number   1
_chemical_formula_structural   Ho5(In2Cu)2
_chemical_formula_sum   'Ho10 In8 Cu4'
_cell_volume   525.77306546
_cell_formula_units_Z   2
loop_
 _symmetry_equiv_pos_site_id
 _symmetry_equiv_pos_as_xyz
  1  'x, y, z'
loop_
 _atom_site_type_symbol
 _atom_site_label
 _atom_site_symmetry_multiplicity
 _atom_site_fract_x
 _atom_site_fract_y
 _atom_site_fract_z
 _atom_site_occupancy
  Ho  Ho0  1  0.000000  0.500000  0.500000  1
  Ho  Ho1  1  0.000000  0.000000  0.000000  1
  Ho  Ho2  1  0.000000  0.739044  0.279740  1
  Ho  Ho3  1  0.000000  0.260956  0.720260  1
  Ho  Ho4  1  0.000000  0.760956  0.779740  1
  Ho  Ho5  1  0.000000  0.239044  0.220260  1
  Ho  Ho6  1  0.000000  0.615283  0.082572  1
  Ho  Ho7  1  0.000000  0.384717  0.917428  1
  Ho  Ho8  1  0.000000  0.884717  0.582572  1
  Ho  Ho9  1  0.000000  0.115283  0.417428  1
  In  In10  1  0.500000  0.711283  0.930662  1
  In  In11  1  0.500000  0.288717  0.069338  1
  In  In12  1  0.500000  0.788717  0.430662  1
  In  In13  1  0.500000  0.211283  0.569338  1
  In  In14  1  0.500000  0.580924  0.649585  1
  In  In15  1  0.500000  0.419076  0.350415  1
  In  In16  1  0.500000  0.919076  0.149585  1
  In  In17  1  0.500000  0.080924  0.850415  1
  Cu  Cu18  1  0.500000  0.524438  0.196890  1
  Cu  Cu19  1  0.500000  0.475562  0.803110  1
  Cu  Cu20  1  0.500000  0.975562  0.696890  1
  Cu  Cu21  1  0.500000  0.024438  0.303110  1
