# generated using pymatgen
data_Rb2Hg6S7
_symmetry_space_group_name_H-M   'P 1'
_cell_length_a   14.25507400
_cell_length_b   14.25507400
_cell_length_c   4.19799400
_cell_angle_alpha   90.00000000
_cell_angle_beta   90.00000000
_cell_angle_gamma   90.00000000
_symmetry_Int_Tables_number   1
_chemical_formula_structural   Rb2Hg6S7
_chemical_formula_sum   'Rb4 Hg12 S14'
_cell_volume   853.06233242
_cell_formula_units_Z   2
loop_
 _symmetry_equiv_pos_site_id
 _symmetry_equiv_pos_as_xyz
  1  'x, y, z'
loop_
 _atom_site_type_symbol
 _atom_site_label
 _atom_site_symmetry_multiplicity
 _atom_site_fract_x
 _atom_site_fract_y
 _atom_site_fract_z
 _atom_site_occupancy
  Rb  Rb0  1  0.170633  0.829367  0.728909  1
  Rb  Rb1  1  0.670633  0.670633  0.228909  1
  Rb  Rb2  1  0.329367  0.329367  0.228909  1
  Rb  Rb3  1  0.829367  0.170633  0.728909  1
  Hg  Hg4  1  0.902211  0.902211  0.312797  1
  Hg  Hg5  1  0.402211  0.597789  0.812797  1
  Hg  Hg6  1  0.597789  0.402211  0.812797  1
  Hg  Hg7  1  0.097789  0.097789  0.312797  1
  Hg  Hg8  1  0.154969  0.571728  0.224294  1
  Hg  Hg9  1  0.845031  0.428272  0.224294  1
  Hg  Hg10  1  0.928272  0.654969  0.724294  1
  Hg  Hg11  1  0.071728  0.345031  0.724294  1
  Hg  Hg12  1  0.428272  0.845031  0.224294  1
  Hg  Hg13  1  0.345031  0.071728  0.724294  1
  Hg  Hg14  1  0.654969  0.928272  0.724294  1
  Hg  Hg15  1  0.571728  0.154969  0.224294  1
  S  S16  1  0.817145  0.817145  0.709395  1
  S  S17  1  0.317145  0.682855  0.209395  1
  S  S18  1  0.682855  0.317145  0.209395  1
  S  S19  1  0.182855  0.182855  0.709395  1
  S  S20  1  0.500000  0.500000  0.483787  1
  S  S21  1  0.000000  0.000000  0.983787  1
  S  S22  1  0.028180  0.694362  0.224499  1
  S  S23  1  0.971820  0.305638  0.224499  1
  S  S24  1  0.805638  0.528180  0.724499  1
  S  S25  1  0.194362  0.471820  0.724499  1
  S  S26  1  0.305638  0.971820  0.224499  1
  S  S27  1  0.471820  0.194362  0.724499  1
  S  S28  1  0.694362  0.028180  0.224499  1
  S  S29  1  0.528180  0.805638  0.724499  1
