# generated using pymatgen
data_Y2Mn2C3
_symmetry_space_group_name_H-M   'P 1'
_cell_length_a   5.36586509
_cell_length_b   5.36586473
_cell_length_c   5.51912012
_cell_angle_alpha   75.72087339
_cell_angle_beta   75.72087416
_cell_angle_gamma   37.04738322
_symmetry_Int_Tables_number   1
_chemical_formula_structural   Y2Mn2C3
_chemical_formula_sum   'Y2 Mn2 C3'
_cell_volume   92.44317857
_cell_formula_units_Z   1
loop_
 _symmetry_equiv_pos_site_id
 _symmetry_equiv_pos_as_xyz
  1  'x, y, z'
loop_
 _atom_site_type_symbol
 _atom_site_label
 _atom_site_symmetry_multiplicity
 _atom_site_fract_x
 _atom_site_fract_y
 _atom_site_fract_z
 _atom_site_occupancy
  Y  Y0  1  0.394643  0.394643  0.316144  1
  Y  Y1  1  0.605357  0.605357  0.683856  1
  Mn  Mn2  1  0.157350  0.157350  0.105574  1
  Mn  Mn3  1  0.842650  0.842650  0.894426  1
  C  C4  1  0.709317  0.709317  0.223843  1
  C  C5  1  0.290683  0.290683  0.776157  1
  C  C6  1  0.000000  0.000000  0.000000  1
