# generated using pymatgen
data_TbDyYAlC3
_symmetry_space_group_name_H-M   'P 1'
_cell_length_a   3.58603400
_cell_length_b   7.08054597
_cell_length_c   10.00231985
_cell_angle_alpha   89.92855825
_cell_angle_beta   90.00000000
_cell_angle_gamma   90.00000000
_symmetry_Int_Tables_number   1
_chemical_formula_structural   TbDyYAlC3
_chemical_formula_sum   'Tb2 Dy2 Y2 Al2 C6'
_cell_volume   253.96949192
_cell_formula_units_Z   2
loop_
 _symmetry_equiv_pos_site_id
 _symmetry_equiv_pos_as_xyz
  1  'x, y, z'
loop_
 _atom_site_type_symbol
 _atom_site_label
 _atom_site_symmetry_multiplicity
 _atom_site_fract_x
 _atom_site_fract_y
 _atom_site_fract_z
 _atom_site_occupancy
  Tb  Tb0  1  0.000000  0.749800  0.458674  1
  Tb  Tb1  1  0.000000  0.250200  0.541326  1
  Dy  Dy2  1  0.500000  0.511119  0.199727  1
  Dy  Dy3  1  0.500000  0.488881  0.800273  1
  Y  Y4  1  0.500000  0.990272  0.199282  1
  Y  Y5  1  0.500000  0.009728  0.800718  1
  Al  Al6  1  0.000000  0.750993  0.006082  1
  Al  Al7  1  0.000000  0.249007  0.993918  1
  C  C8  1  0.500000  0.508852  0.565961  1
  C  C9  1  0.500000  0.491148  0.434039  1
  C  C10  1  0.500000  0.990941  0.565852  1
  C  C11  1  0.500000  0.009059  0.434148  1
  C  C12  1  0.000000  0.748868  0.208526  1
  C  C13  1  0.000000  0.251132  0.791474  1
