# generated using pymatgen
data_Tb10PtPb6Br
_symmetry_space_group_name_H-M   'P 1'
_cell_length_a   9.28996013
_cell_length_b   9.28952728
_cell_length_c   6.77334404
_cell_angle_alpha   89.99843117
_cell_angle_beta   89.99123922
_cell_angle_gamma   119.98910936
_symmetry_Int_Tables_number   1
_chemical_formula_structural   Tb10PtPb6Br
_chemical_formula_sum   'Tb10 Pt1 Pb6 Br1'
_cell_volume   506.27778714
_cell_formula_units_Z   1
loop_
 _symmetry_equiv_pos_site_id
 _symmetry_equiv_pos_as_xyz
  1  'x, y, z'
loop_
 _atom_site_type_symbol
 _atom_site_label
 _atom_site_symmetry_multiplicity
 _atom_site_fract_x
 _atom_site_fract_y
 _atom_site_fract_z
 _atom_site_occupancy
  Tb  Tb0  1  0.255779  0.000060  0.259845  1
  Tb  Tb1  1  0.744221  0.999940  0.740155  1
  Tb  Tb2  1  0.000035  0.255758  0.260286  1
  Tb  Tb3  1  0.999965  0.744242  0.739714  1
  Tb  Tb4  1  0.744136  0.744132  0.260205  1
  Tb  Tb5  1  0.255864  0.255868  0.739795  1
  Tb  Tb6  1  0.333245  0.666569  0.000134  1
  Tb  Tb7  1  0.666755  0.333431  0.999866  1
  Tb  Tb8  1  0.666673  0.333434  0.499860  1
  Tb  Tb9  1  0.333327  0.666566  0.500140  1
  Pt  Pt10  1  0.000000  0.000000  0.500000  1
  Pb  Pb11  1  0.607518  0.000235  0.247734  1
  Pb  Pb12  1  0.392482  0.999765  0.752266  1
  Pb  Pb13  1  0.000208  0.607629  0.247732  1
  Pb  Pb14  1  0.999792  0.392371  0.752268  1
  Pb  Pb15  1  0.392290  0.392387  0.247920  1
  Pb  Pb16  1  0.607710  0.607613  0.752080  1
  Br  Br17  1  0.000000  0.000000  0.000000  1
