# generated using pymatgen
data_SmMnCdPt3
_symmetry_space_group_name_H-M   'P 1'
_cell_length_a   5.28136660
_cell_length_b   5.28136568
_cell_length_c   5.28136692
_cell_angle_alpha   63.14797541
_cell_angle_beta   63.14797330
_cell_angle_gamma   63.14797911
_symmetry_Int_Tables_number   1
_chemical_formula_structural   SmMnCdPt3
_chemical_formula_sum   'Sm1 Mn1 Cd1 Pt3'
_cell_volume   111.43690551
_cell_formula_units_Z   1
loop_
 _symmetry_equiv_pos_site_id
 _symmetry_equiv_pos_as_xyz
  1  'x, y, z'
loop_
 _atom_site_type_symbol
 _atom_site_label
 _atom_site_symmetry_multiplicity
 _atom_site_fract_x
 _atom_site_fract_y
 _atom_site_fract_z
 _atom_site_occupancy
  Sm  Sm0  1  0.247736  0.247736  0.247736  1
  Mn  Mn1  1  0.626600  0.626600  0.626600  1
  Cd  Cd2  1  0.996785  0.996785  0.996785  1
  Pt  Pt3  1  0.627215  0.627215  0.124449  1
  Pt  Pt4  1  0.627215  0.124449  0.627215  1
  Pt  Pt5  1  0.124449  0.627215  0.627215  1
