# generated using pymatgen
data_Tm20FeNi3Bi8
_symmetry_space_group_name_H-M   'P 1'
_cell_length_a   7.90892413
_cell_length_b   8.88230700
_cell_length_c   12.22424378
_cell_angle_alpha   90.00000000
_cell_angle_beta   90.06162890
_cell_angle_gamma   90.00000000
_symmetry_Int_Tables_number   1
_chemical_formula_structural   Tm20FeNi3Bi8
_chemical_formula_sum   'Tm20 Fe1 Ni3 Bi8'
_cell_volume   858.74642149
_cell_formula_units_Z   1
loop_
 _symmetry_equiv_pos_site_id
 _symmetry_equiv_pos_as_xyz
  1  'x, y, z'
loop_
 _atom_site_type_symbol
 _atom_site_label
 _atom_site_symmetry_multiplicity
 _atom_site_fract_x
 _atom_site_fract_y
 _atom_site_fract_z
 _atom_site_occupancy
  Tm  Tm0  1  0.840297  0.750000  0.792769  1
  Tm  Tm1  1  0.158643  0.250000  0.205132  1
  Tm  Tm2  1  0.344165  0.250000  0.703653  1
  Tm  Tm3  1  0.653434  0.750000  0.299829  1
  Tm  Tm4  1  0.385879  0.750000  0.689828  1
  Tm  Tm5  1  0.617538  0.250000  0.307975  1
  Tm  Tm6  1  0.881643  0.250000  0.809338  1
  Tm  Tm7  1  0.117911  0.750000  0.189955  1
  Tm  Tm8  1  0.942208  0.750000  0.501728  1
  Tm  Tm9  1  0.054317  0.250000  0.498469  1
  Tm  Tm10  1  0.448172  0.250000  0.999789  1
  Tm  Tm11  1  0.552723  0.750000  0.001509  1
  Tm  Tm12  1  0.674120  0.034876  0.563272  1
  Tm  Tm13  1  0.326524  0.954270  0.437199  1
  Tm  Tm14  1  0.175996  0.957851  0.934993  1
  Tm  Tm15  1  0.326524  0.545730  0.437199  1
  Tm  Tm16  1  0.824507  0.042934  0.064368  1
  Tm  Tm17  1  0.674120  0.465124  0.563272  1
  Tm  Tm18  1  0.824507  0.457066  0.064368  1
  Tm  Tm19  1  0.175996  0.542149  0.934993  1
  Fe  Fe20  1  0.572533  0.750000  0.510541  1
  Ni  Ni21  1  0.425608  0.250000  0.489469  1
  Ni  Ni22  1  0.073001  0.250000  0.990377  1
  Ni  Ni23  1  0.927341  0.750000  0.008394  1
  Bi  Bi24  1  0.571042  0.489378  0.828354  1
  Bi  Bi25  1  0.428953  0.510362  0.172481  1
  Bi  Bi26  1  0.070547  0.509352  0.673139  1
  Bi  Bi27  1  0.428953  0.989638  0.172481  1
  Bi  Bi28  1  0.930603  0.490237  0.326816  1
  Bi  Bi29  1  0.571042  0.010622  0.828354  1
  Bi  Bi30  1  0.930603  0.009763  0.326816  1
  Bi  Bi31  1  0.070547  0.990648  0.673139  1
