# generated using pymatgen
data_Li3Nb12Ga8NiN4
_symmetry_space_group_name_H-M   'P 1'
_cell_length_a   8.26779594
_cell_length_b   8.24599625
_cell_length_c   8.24599700
_cell_angle_alpha   60.00000102
_cell_angle_beta   60.08718403
_cell_angle_gamma   60.08719173
_symmetry_Int_Tables_number   1
_chemical_formula_structural   Li3Nb12Ga8NiN4
_chemical_formula_sum   'Li3 Nb12 Ga8 Ni1 N4'
_cell_volume   398.04496735
_cell_formula_units_Z   1
loop_
 _symmetry_equiv_pos_site_id
 _symmetry_equiv_pos_as_xyz
  1  'x, y, z'
loop_
 _atom_site_type_symbol
 _atom_site_label
 _atom_site_symmetry_multiplicity
 _atom_site_fract_x
 _atom_site_fract_y
 _atom_site_fract_z
 _atom_site_occupancy
  Li  Li0  1  0.625000  0.625000  0.125000  1
  Li  Li1  1  0.625000  0.125000  0.625000  1
  Li  Li2  1  0.625000  0.625000  0.625000  1
  Nb  Nb3  1  0.436658  0.437287  0.063027  1
  Nb  Nb4  1  0.061230  0.435740  0.067290  1
  Nb  Nb5  1  0.436658  0.063027  0.063027  1
  Nb  Nb6  1  0.061230  0.067290  0.435740  1
  Nb  Nb7  1  0.436658  0.063027  0.437287  1
  Nb  Nb8  1  0.061230  0.435740  0.435740  1
  Nb  Nb9  1  0.813342  0.812713  0.186973  1
  Nb  Nb10  1  0.188770  0.814260  0.182710  1
  Nb  Nb11  1  0.813342  0.186973  0.186973  1
  Nb  Nb12  1  0.188770  0.182710  0.814260  1
  Nb  Nb13  1  0.813342  0.186973  0.812713  1
  Nb  Nb14  1  0.188770  0.814260  0.814260  1
  Ga  Ga15  1  0.837946  0.833215  0.495624  1
  Ga  Ga16  1  0.837946  0.495624  0.833215  1
  Ga  Ga17  1  0.500089  0.833304  0.833304  1
  Ga  Ga18  1  0.837946  0.833215  0.833215  1
  Ga  Ga19  1  0.412054  0.416785  0.754376  1
  Ga  Ga20  1  0.412054  0.754376  0.416785  1
  Ga  Ga21  1  0.749911  0.416696  0.416696  1
  Ga  Ga22  1  0.412054  0.416785  0.416785  1
  Ni  Ni23  1  0.125000  0.625000  0.625000  1
  N  N24  1  0.125000  0.125000  0.625000  1
  N  N25  1  0.125000  0.625000  0.125000  1
  N  N26  1  0.625000  0.125000  0.125000  1
  N  N27  1  0.125000  0.125000  0.125000  1
