# generated using pymatgen
data_Cu4NiSn(RhO4)2
_symmetry_space_group_name_H-M   'P 1'
_cell_length_a   5.44078885
_cell_length_b   6.80333207
_cell_length_c   6.28097001
_cell_angle_alpha   117.49961207
_cell_angle_beta   89.99115539
_cell_angle_gamma   105.37898622
_symmetry_Int_Tables_number   1
_chemical_formula_structural   Cu4NiSn(RhO4)2
_chemical_formula_sum   'Cu4 Ni1 Sn1 Rh2 O8'
_cell_volume   196.79683463
_cell_formula_units_Z   1
loop_
 _symmetry_equiv_pos_site_id
 _symmetry_equiv_pos_as_xyz
  1  'x, y, z'
loop_
 _atom_site_type_symbol
 _atom_site_label
 _atom_site_symmetry_multiplicity
 _atom_site_fract_x
 _atom_site_fract_y
 _atom_site_fract_z
 _atom_site_occupancy
  Cu  Cu0  1  0.000729  0.994925  0.498093  1
  Cu  Cu1  1  0.999285  0.005070  0.001912  1
  Cu  Cu2  1  0.499998  0.000003  0.249999  1
  Cu  Cu3  1  0.499996  0.000002  0.750000  1
  Ni  Ni4  1  0.499997  0.500001  0.250001  1
  Sn  Sn5  1  0.499999  0.500003  0.750002  1
  Rh  Rh6  1  0.999948  0.499892  0.496255  1
  Rh  Rh7  1  0.000058  0.500116  0.003747  1
  O  O8  1  0.391798  0.680025  0.588392  1
  O  O9  1  0.391957  0.680095  0.091798  1
  O  O10  1  0.608039  0.319910  0.408204  1
  O  O11  1  0.608198  0.319978  0.911610  1
  O  O12  1  0.893541  0.675978  0.338164  1
  O  O13  1  0.898827  0.682525  0.841177  1
  O  O14  1  0.101171  0.317466  0.658816  1
  O  O15  1  0.106457  0.324012  0.161831  1
