# generated using pymatgen
data_Sr6TaNb(P3O)2
_symmetry_space_group_name_H-M   'P 1'
_cell_length_a   6.31556800
_cell_length_b   10.54997500
_cell_length_c   12.79447600
_cell_angle_alpha   90.00000000
_cell_angle_beta   90.00000000
_cell_angle_gamma   90.00000000
_symmetry_Int_Tables_number   1
_chemical_formula_structural   Sr6TaNb(P3O)2
_chemical_formula_sum   'Sr12 Ta2 Nb2 P12 O4'
_cell_volume   852.48422268
_cell_formula_units_Z   2
loop_
 _symmetry_equiv_pos_site_id
 _symmetry_equiv_pos_as_xyz
  1  'x, y, z'
loop_
 _atom_site_type_symbol
 _atom_site_label
 _atom_site_symmetry_multiplicity
 _atom_site_fract_x
 _atom_site_fract_y
 _atom_site_fract_z
 _atom_site_occupancy
  Sr  Sr0  1  0.248382  0.040853  0.629734  1
  Sr  Sr1  1  0.748382  0.459147  0.870266  1
  Sr  Sr2  1  0.752023  0.541274  0.370558  1
  Sr  Sr3  1  0.252023  0.958726  0.129442  1
  Sr  Sr4  1  0.248382  0.459147  0.629734  1
  Sr  Sr5  1  0.752023  0.958726  0.370558  1
  Sr  Sr6  1  0.768800  0.250000  0.130936  1
  Sr  Sr7  1  0.268800  0.250000  0.369064  1
  Sr  Sr8  1  0.231791  0.750000  0.869623  1
  Sr  Sr9  1  0.731791  0.750000  0.630377  1
  Sr  Sr10  1  0.252023  0.541274  0.129442  1
  Sr  Sr11  1  0.748382  0.040853  0.870266  1
  Ta  Ta12  1  0.336790  0.250000  0.950841  1
  Ta  Ta13  1  0.836790  0.250000  0.549159  1
  Nb  Nb14  1  0.663555  0.750000  0.049306  1
  Nb  Nb15  1  0.163555  0.750000  0.450694  1
  P  P16  1  0.236634  0.750000  0.633278  1
  P  P17  1  0.736634  0.750000  0.866722  1
  P  P18  1  0.764182  0.250000  0.366788  1
  P  P19  1  0.264182  0.250000  0.133212  1
  P  P20  1  0.237527  0.449514  0.877366  1
  P  P21  1  0.737527  0.050486  0.622634  1
  P  P22  1  0.237527  0.050486  0.877366  1
  P  P23  1  0.737527  0.449514  0.622634  1
  P  P24  1  0.762911  0.550144  0.122580  1
  P  P25  1  0.262911  0.550144  0.377420  1
  P  P26  1  0.262911  0.949856  0.377420  1
  P  P27  1  0.762911  0.949856  0.122580  1
  O  O28  1  0.636541  0.250000  0.944844  1
  O  O29  1  0.136541  0.250000  0.555156  1
  O  O30  1  0.360022  0.750000  0.055115  1
  O  O31  1  0.860022  0.750000  0.444885  1
