# generated using pymatgen
data_YLu3Ga18(NiIr2)2
_symmetry_space_group_name_H-M   'P 1'
_cell_length_a   7.51618597
_cell_length_b   7.51566575
_cell_length_c   9.37179700
_cell_angle_alpha   90.00000000
_cell_angle_beta   90.00000000
_cell_angle_gamma   120.27363714
_symmetry_Int_Tables_number   1
_chemical_formula_structural   YLu3Ga18(NiIr2)2
_chemical_formula_sum   'Y1 Lu3 Ga18 Ni2 Ir4'
_cell_volume   457.20856869
_cell_formula_units_Z   1
loop_
 _symmetry_equiv_pos_site_id
 _symmetry_equiv_pos_as_xyz
  1  'x, y, z'
loop_
 _atom_site_type_symbol
 _atom_site_label
 _atom_site_symmetry_multiplicity
 _atom_site_fract_x
 _atom_site_fract_y
 _atom_site_fract_z
 _atom_site_occupancy
  Y  Y0  1  0.341771  0.004380  0.750000  1
  Lu  Lu1  1  0.996055  0.656244  0.250000  1
  Lu  Lu2  1  0.004323  0.342458  0.750000  1
  Lu  Lu3  1  0.656760  0.996375  0.250000  1
  Ga  Ga4  1  0.103447  0.103931  0.250000  1
  Ga  Ga5  1  0.891911  0.893052  0.750000  1
  Ga  Ga6  1  0.997789  0.325275  0.079873  1
  Ga  Ga7  1  0.001015  0.673207  0.922228  1
  Ga  Ga8  1  0.001015  0.673207  0.577772  1
  Ga  Ga9  1  0.325295  0.997652  0.418962  1
  Ga  Ga10  1  0.997789  0.325275  0.420127  1
  Ga  Ga11  1  0.675753  0.002122  0.577679  1
  Ga  Ga12  1  0.675753  0.002122  0.922321  1
  Ga  Ga13  1  0.325295  0.997652  0.081038  1
  Ga  Ga14  1  0.326202  0.327274  0.566997  1
  Ga  Ga15  1  0.675389  0.675436  0.429454  1
  Ga  Ga16  1  0.675389  0.675436  0.070546  1
  Ga  Ga17  1  0.326202  0.327274  0.933003  1
  Ga  Ga18  1  0.335736  0.537804  0.250000  1
  Ga  Ga19  1  0.665393  0.462769  0.750000  1
  Ga  Ga20  1  0.537922  0.336063  0.250000  1
  Ga  Ga21  1  0.461420  0.663588  0.750000  1
  Ni  Ni22  1  0.000627  0.000217  0.999825  1
  Ni  Ni23  1  0.000627  0.000217  0.500175  1
  Ir  Ir24  1  0.671933  0.328858  0.000765  1
  Ir  Ir25  1  0.328629  0.671625  0.000667  1
  Ir  Ir26  1  0.328629  0.671625  0.499333  1
  Ir  Ir27  1  0.671933  0.328858  0.499235  1
