# generated using pymatgen
data_Sc4AgRh
_symmetry_space_group_name_H-M   'P 1'
_cell_length_a   8.94303742
_cell_length_b   8.94303763
_cell_length_c   8.94303700
_cell_angle_alpha   60.00000602
_cell_angle_beta   60.00000524
_cell_angle_gamma   60.00000214
_symmetry_Int_Tables_number   1
_chemical_formula_structural   Sc4AgRh
_chemical_formula_sum   'Sc16 Ag4 Rh4'
_cell_volume   505.75499374
_cell_formula_units_Z   4
loop_
 _symmetry_equiv_pos_site_id
 _symmetry_equiv_pos_as_xyz
  1  'x, y, z'
loop_
 _atom_site_type_symbol
 _atom_site_label
 _atom_site_symmetry_multiplicity
 _atom_site_fract_x
 _atom_site_fract_y
 _atom_site_fract_z
 _atom_site_occupancy
  Sc  Sc0  1  0.605758  0.605758  0.605758  1
  Sc  Sc1  1  0.605758  0.605758  0.182728  1
  Sc  Sc2  1  0.605758  0.182728  0.605758  1
  Sc  Sc3  1  0.182728  0.605758  0.605758  1
  Sc  Sc4  1  0.062062  0.437938  0.437938  1
  Sc  Sc5  1  0.437938  0.062062  0.062062  1
  Sc  Sc6  1  0.437938  0.062062  0.437938  1
  Sc  Sc7  1  0.062062  0.437938  0.062062  1
  Sc  Sc8  1  0.437938  0.437938  0.062062  1
  Sc  Sc9  1  0.062062  0.062062  0.437938  1
  Sc  Sc10  1  0.184544  0.815456  0.815456  1
  Sc  Sc11  1  0.815456  0.184544  0.184544  1
  Sc  Sc12  1  0.815456  0.184544  0.815456  1
  Sc  Sc13  1  0.184544  0.815456  0.184544  1
  Sc  Sc14  1  0.815456  0.815456  0.184544  1
  Sc  Sc15  1  0.184544  0.184544  0.815456  1
  Ag  Ag16  1  0.833370  0.833370  0.833370  1
  Ag  Ag17  1  0.833370  0.833370  0.499890  1
  Ag  Ag18  1  0.833370  0.499890  0.833370  1
  Ag  Ag19  1  0.499890  0.833370  0.833370  1
  Rh  Rh20  1  0.394744  0.394744  0.394744  1
  Rh  Rh21  1  0.394744  0.394744  0.815767  1
  Rh  Rh22  1  0.394744  0.815767  0.394744  1
  Rh  Rh23  1  0.815767  0.394744  0.394744  1
