# generated using pymatgen
data_PrTm2RuO7
_symmetry_space_group_name_H-M   'P 1'
_cell_length_a   6.39811833
_cell_length_b   6.39811912
_cell_length_c   7.47706100
_cell_angle_alpha   90.00000000
_cell_angle_beta   90.00000000
_cell_angle_gamma   109.83980315
_symmetry_Int_Tables_number   1
_chemical_formula_structural   PrTm2RuO7
_chemical_formula_sum   'Pr2 Tm4 Ru2 O14'
_cell_volume   287.91306126
_cell_formula_units_Z   2
loop_
 _symmetry_equiv_pos_site_id
 _symmetry_equiv_pos_as_xyz
  1  'x, y, z'
loop_
 _atom_site_type_symbol
 _atom_site_label
 _atom_site_symmetry_multiplicity
 _atom_site_fract_x
 _atom_site_fract_y
 _atom_site_fract_z
 _atom_site_occupancy
  Pr  Pr0  1  0.000000  0.000000  0.500000  1
  Pr  Pr1  1  0.000000  0.000000  0.000000  1
  Tm  Tm2  1  0.483766  0.934515  0.750000  1
  Tm  Tm3  1  0.516234  0.065485  0.250000  1
  Tm  Tm4  1  0.934515  0.483766  0.750000  1
  Tm  Tm5  1  0.065485  0.516234  0.250000  1
  Ru  Ru6  1  0.500000  0.500000  0.500000  1
  Ru  Ru7  1  0.500000  0.500000  0.000000  1
  O  O8  1  0.592212  0.592212  0.750000  1
  O  O9  1  0.407788  0.407788  0.250000  1
  O  O10  1  0.834675  0.121732  0.750000  1
  O  O11  1  0.165325  0.878268  0.250000  1
  O  O12  1  0.121732  0.834675  0.750000  1
  O  O13  1  0.878268  0.165325  0.250000  1
  O  O14  1  0.440912  0.179643  0.963366  1
  O  O15  1  0.559088  0.820357  0.463366  1
  O  O16  1  0.179643  0.440912  0.963366  1
  O  O17  1  0.820357  0.559088  0.463366  1
  O  O18  1  0.440912  0.179643  0.536634  1
  O  O19  1  0.559088  0.820357  0.036634  1
  O  O20  1  0.820357  0.559088  0.036634  1
  O  O21  1  0.179643  0.440912  0.536634  1
