# generated using pymatgen
data_Tb5Er7Ru4
_symmetry_space_group_name_H-M   'P 1'
_cell_length_a   6.29573378
_cell_length_b   7.29535659
_cell_length_c   9.12811035
_cell_angle_alpha   89.98398162
_cell_angle_beta   90.13933613
_cell_angle_gamma   90.04303785
_symmetry_Int_Tables_number   1
_chemical_formula_structural   Tb5Er7Ru4
_chemical_formula_sum   'Tb5 Er7 Ru4'
_cell_volume   419.24929209
_cell_formula_units_Z   1
loop_
 _symmetry_equiv_pos_site_id
 _symmetry_equiv_pos_as_xyz
  1  'x, y, z'
loop_
 _atom_site_type_symbol
 _atom_site_label
 _atom_site_symmetry_multiplicity
 _atom_site_fract_x
 _atom_site_fract_y
 _atom_site_fract_z
 _atom_site_occupancy
  Tb  Tb0  1  0.331150  0.676837  0.064371  1
  Tb  Tb1  1  0.866420  0.539615  0.250560  1
  Tb  Tb2  1  0.633528  0.040255  0.250308  1
  Tb  Tb3  1  0.132879  0.459782  0.749475  1
  Tb  Tb4  1  0.367096  0.960230  0.749519  1
  Er  Er5  1  0.168566  0.176573  0.435322  1
  Er  Er6  1  0.668743  0.323598  0.564750  1
  Er  Er7  1  0.831402  0.823835  0.934805  1
  Er  Er8  1  0.669234  0.323135  0.934769  1
  Er  Er9  1  0.831561  0.823702  0.564783  1
  Er  Er10  1  0.331293  0.676162  0.435950  1
  Er  Er11  1  0.168160  0.176280  0.064708  1
  Ru  Ru12  1  0.041399  0.885302  0.250681  1
  Ru  Ru13  1  0.457870  0.384006  0.250817  1
  Ru  Ru14  1  0.957637  0.115513  0.750226  1
  Ru  Ru15  1  0.543061  0.615173  0.748957  1
