# generated using pymatgen
data_Pr7Nd(InSi2)4
_symmetry_space_group_name_H-M   'P 1'
_cell_length_a   4.38131900
_cell_length_b   7.58382007
_cell_length_c   14.75989573
_cell_angle_alpha   90.21101114
_cell_angle_beta   90.00000000
_cell_angle_gamma   90.00000000
_symmetry_Int_Tables_number   1
_chemical_formula_structural   Pr7Nd(InSi2)4
_chemical_formula_sum   'Pr7 Nd1 In4 Si8'
_cell_volume   490.42572160
_cell_formula_units_Z   1
loop_
 _symmetry_equiv_pos_site_id
 _symmetry_equiv_pos_as_xyz
  1  'x, y, z'
loop_
 _atom_site_type_symbol
 _atom_site_label
 _atom_site_symmetry_multiplicity
 _atom_site_fract_x
 _atom_site_fract_y
 _atom_site_fract_z
 _atom_site_occupancy
  Pr  Pr0  1  0.500000  0.752534  0.035404  1
  Pr  Pr1  1  0.500000  0.247926  0.964772  1
  Pr  Pr2  1  0.500000  0.251782  0.463948  1
  Pr  Pr3  1  0.500000  0.747853  0.535649  1
  Pr  Pr4  1  0.500000  0.613938  0.283357  1
  Pr  Pr5  1  0.500000  0.385746  0.716473  1
  Pr  Pr6  1  0.500000  0.113766  0.216791  1
  Nd  Nd7  1  0.500000  0.886101  0.783719  1
  In  In8  1  0.000000  0.938420  0.377429  1
  In  In9  1  0.000000  0.061915  0.622271  1
  In  In10  1  0.000000  0.438197  0.122824  1
  In  In11  1  0.000000  0.561430  0.877575  1
  Si  Si12  1  0.000000  0.553316  0.423666  1
  Si  Si13  1  0.000000  0.446366  0.575978  1
  Si  Si14  1  0.000000  0.053568  0.076537  1
  Si  Si15  1  0.000000  0.946566  0.923362  1
  Si  Si16  1  0.000000  0.819755  0.184431  1
  Si  Si17  1  0.000000  0.179879  0.815661  1
  Si  Si18  1  0.000000  0.319379  0.315448  1
  Si  Si19  1  0.000000  0.681559  0.684706  1
