# generated using pymatgen
data_Th4Al24TcPd8
_symmetry_space_group_name_H-M   'P 1'
_cell_length_a   7.61263142
_cell_length_b   7.62175255
_cell_length_c   13.33596688
_cell_angle_alpha   84.59009873
_cell_angle_beta   100.70681341
_cell_angle_gamma   119.46137361
_symmetry_Int_Tables_number   1
_chemical_formula_structural   Th4Al24TcPd8
_chemical_formula_sum   'Th4 Al24 Tc1 Pd8'
_cell_volume   661.98263931
_cell_formula_units_Z   1
loop_
 _symmetry_equiv_pos_site_id
 _symmetry_equiv_pos_as_xyz
  1  'x, y, z'
loop_
 _atom_site_type_symbol
 _atom_site_label
 _atom_site_symmetry_multiplicity
 _atom_site_fract_x
 _atom_site_fract_y
 _atom_site_fract_z
 _atom_site_occupancy
  Th  Th0  1  0.437626  0.827433  0.808444  1
  Th  Th1  1  0.562374  0.172567  0.191556  1
  Th  Th2  1  0.765805  0.502538  0.808027  1
  Th  Th3  1  0.234195  0.497462  0.191973  1
  Al  Al4  1  0.478651  0.168400  0.947328  1
  Al  Al5  1  0.521349  0.831600  0.052672  1
  Al  Al6  1  0.021871  0.166514  0.559966  1
  Al  Al7  1  0.978129  0.833486  0.440034  1
  Al  Al8  1  0.354025  0.834806  0.558083  1
  Al  Al9  1  0.645975  0.165194  0.441917  1
  Al  Al10  1  0.621958  0.835387  0.332983  1
  Al  Al11  1  0.378042  0.164613  0.667017  1
  Al  Al12  1  0.054982  0.489403  0.666639  1
  Al  Al13  1  0.945018  0.510597  0.333361  1
  Al  Al14  1  0.734081  0.844129  0.663585  1
  Al  Al15  1  0.265919  0.155871  0.336415  1
  Al  Al16  1  0.150679  0.496082  0.948065  1
  Al  Al17  1  0.849321  0.503918  0.051935  1
  Al  Al18  1  0.818038  0.831507  0.960560  1
  Al  Al19  1  0.181962  0.168493  0.039440  1
  Al  Al20  1  0.311440  0.499197  0.442374  1
  Al  Al21  1  0.688560  0.500803  0.557626  1
  Al  Al22  1  0.101744  0.838529  0.184087  1
  Al  Al23  1  0.898256  0.161471  0.815913  1
  Al  Al24  1  0.302083  0.363732  0.818383  1
  Al  Al25  1  0.697917  0.636268  0.181617  1
  Al  Al26  1  0.100387  0.961507  0.815204  1
  Al  Al27  1  0.899613  0.038493  0.184796  1
  Tc  Tc28  1  0.500000  0.500000  0.000000  1
  Pd  Pd29  1  0.387430  0.507082  0.638294  1
  Pd  Pd30  1  0.612570  0.492918  0.361706  1
  Pd  Pd31  1  0.172073  0.828885  0.999416  1
  Pd  Pd32  1  0.827927  0.171115  0.000584  1
  Pd  Pd33  1  0.294017  0.832597  0.363680  1
  Pd  Pd34  1  0.705983  0.167403  0.636320  1
  Pd  Pd35  1  0.048204  0.826899  0.636022  1
  Pd  Pd36  1  0.951796  0.173101  0.363978  1
