# generated using pymatgen
data_Nd3(CdAu2)2
_symmetry_space_group_name_H-M   'P 1'
_cell_length_a   3.90032500
_cell_length_b   8.08538803
_cell_length_c   8.02453780
_cell_angle_alpha   120.25117104
_cell_angle_beta   90.00000000
_cell_angle_gamma   90.00000000
_symmetry_Int_Tables_number   1
_chemical_formula_structural   Nd3(CdAu2)2
_chemical_formula_sum   'Nd3 Cd2 Au4'
_cell_volume   218.59869505
_cell_formula_units_Z   1
loop_
 _symmetry_equiv_pos_site_id
 _symmetry_equiv_pos_as_xyz
  1  'x, y, z'
loop_
 _atom_site_type_symbol
 _atom_site_label
 _atom_site_symmetry_multiplicity
 _atom_site_fract_x
 _atom_site_fract_y
 _atom_site_fract_z
 _atom_site_occupancy
  Nd  Nd0  1  0.000000  0.414998  0.000000  1
  Nd  Nd1  1  0.000000  0.607314  0.623816  1
  Nd  Nd2  1  0.000000  0.983498  0.376184  1
  Cd  Cd3  1  0.500000  0.269667  0.263554  1
  Cd  Cd4  1  0.500000  0.006113  0.736446  1
  Au  Au5  1  0.500000  0.665659  0.346032  1
  Au  Au6  1  0.500000  0.319626  0.653968  1
  Au  Au7  1  0.000000  0.008972  0.000000  1
  Au  Au8  1  0.500000  0.724252  0.000000  1
