# generated using pymatgen
data_Dy2Co2P6Ru3Rh5
_symmetry_space_group_name_H-M   'P 1'
_cell_length_a   3.84382100
_cell_length_b   10.81628200
_cell_length_c   12.26282000
_cell_angle_alpha   90.00000000
_cell_angle_beta   90.00000000
_cell_angle_gamma   90.00000000
_symmetry_Int_Tables_number   1
_chemical_formula_structural   Dy2Co2P6Ru3Rh5
_chemical_formula_sum   'Dy4 Co4 P12 Ru6 Rh10'
_cell_volume   509.83718812
_cell_formula_units_Z   2
loop_
 _symmetry_equiv_pos_site_id
 _symmetry_equiv_pos_as_xyz
  1  'x, y, z'
loop_
 _atom_site_type_symbol
 _atom_site_label
 _atom_site_symmetry_multiplicity
 _atom_site_fract_x
 _atom_site_fract_y
 _atom_site_fract_z
 _atom_site_occupancy
  Dy  Dy0  1  0.250000  0.586228  0.706478  1
  Dy  Dy1  1  0.250000  0.913772  0.206478  1
  Dy  Dy2  1  0.750000  0.412843  0.293903  1
  Dy  Dy3  1  0.750000  0.087157  0.793903  1
  Co  Co4  1  0.250000  0.464266  0.933273  1
  Co  Co5  1  0.250000  0.035734  0.433273  1
  Co  Co6  1  0.750000  0.535110  0.066133  1
  Co  Co7  1  0.750000  0.964890  0.566133  1
  P  P8  1  0.250000  0.423763  0.106375  1
  P  P9  1  0.250000  0.076237  0.606375  1
  P  P10  1  0.750000  0.576307  0.893171  1
  P  P11  1  0.750000  0.923693  0.393171  1
  P  P12  1  0.250000  0.269721  0.877896  1
  P  P13  1  0.250000  0.230279  0.377896  1
  P  P14  1  0.750000  0.727057  0.123843  1
  P  P15  1  0.750000  0.772943  0.623843  1
  P  P16  1  0.250000  0.595917  0.391156  1
  P  P17  1  0.250000  0.904083  0.891156  1
  P  P18  1  0.750000  0.400981  0.607018  1
  P  P19  1  0.750000  0.099019  0.107018  1
  Ru  Ru20  1  0.250000  0.717555  0.989546  1
  Ru  Ru21  1  0.250000  0.782445  0.489546  1
  Ru  Ru22  1  0.750000  0.284254  0.009755  1
  Ru  Ru23  1  0.750000  0.215746  0.509755  1
  Ru  Ru24  1  0.250000  0.407442  0.489900  1
  Ru  Ru25  1  0.250000  0.092558  0.989900  1
  Rh  Rh26  1  0.750000  0.594427  0.513234  1
  Rh  Rh27  1  0.750000  0.905573  0.013234  1
  Rh  Rh28  1  0.250000  0.231553  0.180933  1
  Rh  Rh29  1  0.250000  0.268447  0.680933  1
  Rh  Rh30  1  0.750000  0.769340  0.819025  1
  Rh  Rh31  1  0.750000  0.730660  0.319025  1
  Rh  Rh32  1  0.250000  0.889917  0.700527  1
  Rh  Rh33  1  0.250000  0.610083  0.200527  1
  Rh  Rh34  1  0.750000  0.109096  0.297832  1
  Rh  Rh35  1  0.750000  0.390904  0.797832  1
