# generated using pymatgen
data_Li3GaPd2
_symmetry_space_group_name_H-M   'P 1'
_cell_length_a   4.33038929
_cell_length_b   4.33039050
_cell_length_c   5.21004920
_cell_angle_alpha   90.18655293
_cell_angle_beta   90.18655494
_cell_angle_gamma   59.95099153
_symmetry_Int_Tables_number   1
_chemical_formula_structural   Li3GaPd2
_chemical_formula_sum   'Li3 Ga1 Pd2'
_cell_volume   84.56851506
_cell_formula_units_Z   1
loop_
 _symmetry_equiv_pos_site_id
 _symmetry_equiv_pos_as_xyz
  1  'x, y, z'
loop_
 _atom_site_type_symbol
 _atom_site_label
 _atom_site_symmetry_multiplicity
 _atom_site_fract_x
 _atom_site_fract_y
 _atom_site_fract_z
 _atom_site_occupancy
  Li  Li0  1  0.334626  0.334626  0.180252  1
  Li  Li1  1  0.666956  0.666956  0.336135  1
  Li  Li2  1  0.332212  0.332212  0.678052  1
  Ga  Ga3  1  0.000132  0.000132  0.985722  1
  Pd  Pd4  1  0.999828  0.999828  0.486315  1
  Pd  Pd5  1  0.666246  0.666246  0.833523  1
