# generated using pymatgen
data_Sc3Mn3Si2P
_symmetry_space_group_name_H-M   'P 1'
_cell_length_a   6.45893000
_cell_length_b   6.45892910
_cell_length_c   3.82170800
_cell_angle_alpha   90.00000000
_cell_angle_beta   90.00000000
_cell_angle_gamma   119.99999436
_symmetry_Int_Tables_number   1
_chemical_formula_structural   Sc3Mn3Si2P
_chemical_formula_sum   'Sc3 Mn3 Si2 P1'
_cell_volume   138.07315636
_cell_formula_units_Z   1
loop_
 _symmetry_equiv_pos_site_id
 _symmetry_equiv_pos_as_xyz
  1  'x, y, z'
loop_
 _atom_site_type_symbol
 _atom_site_label
 _atom_site_symmetry_multiplicity
 _atom_site_fract_x
 _atom_site_fract_y
 _atom_site_fract_z
 _atom_site_occupancy
  Sc  Sc0  1  0.418294  0.416818  0.500000  1
  Sc  Sc1  1  0.583182  0.001477  0.500000  1
  Sc  Sc2  1  0.998523  0.581706  0.500000  1
  Mn  Mn3  1  0.996245  0.231048  0.000000  1
  Mn  Mn4  1  0.234803  0.003755  0.000000  1
  Mn  Mn5  1  0.768952  0.765197  0.000000  1
  Si  Si6  1  0.000000  0.000000  0.500000  1
  Si  Si7  1  0.333333  0.666667  0.000000  1
  P  P8  1  0.666667  0.333333  0.000000  1
