# generated using pymatgen
data_Sr6CrIn2FeO12
_symmetry_space_group_name_H-M   'P 1'
_cell_length_a   6.81184409
_cell_length_b   6.81182416
_cell_length_c   6.81182075
_cell_angle_alpha   92.28970572
_cell_angle_beta   92.28912941
_cell_angle_gamma   92.28942230
_symmetry_Int_Tables_number   1
_chemical_formula_structural   Sr6CrIn2FeO12
_chemical_formula_sum   'Sr6 Cr1 In2 Fe1 O12'
_cell_volume   315.29817856
_cell_formula_units_Z   1
loop_
 _symmetry_equiv_pos_site_id
 _symmetry_equiv_pos_as_xyz
  1  'x, y, z'
loop_
 _atom_site_type_symbol
 _atom_site_label
 _atom_site_symmetry_multiplicity
 _atom_site_fract_x
 _atom_site_fract_y
 _atom_site_fract_z
 _atom_site_occupancy
  Sr  Sr0  1  0.615401  0.884683  0.249714  1
  Sr  Sr1  1  0.884688  0.249718  0.615408  1
  Sr  Sr2  1  0.249715  0.615407  0.884688  1
  Sr  Sr3  1  0.115309  0.750284  0.384595  1
  Sr  Sr4  1  0.750282  0.384594  0.115314  1
  Sr  Sr5  1  0.384587  0.115306  0.750288  1
  Cr  Cr6  1  0.000078  0.000025  0.999985  1
  In  In7  1  0.250089  0.250092  0.250085  1
  In  In8  1  0.749910  0.749906  0.749908  1
  Fe  Fe9  1  0.499996  0.499995  0.500001  1
  O  O10  1  0.541547  0.212305  0.409593  1
  O  O11  1  0.212305  0.409601  0.541554  1
  O  O12  1  0.409592  0.541557  0.212310  1
  O  O13  1  0.040721  0.910151  0.714543  1
  O  O14  1  0.910144  0.714539  0.040732  1
  O  O15  1  0.714538  0.040726  0.910156  1
  O  O16  1  0.458445  0.787685  0.590404  1
  O  O17  1  0.787686  0.590395  0.458441  1
  O  O18  1  0.590398  0.458435  0.787686  1
  O  O19  1  0.959268  0.089858  0.285468  1
  O  O20  1  0.089846  0.285463  0.959273  1
  O  O21  1  0.285455  0.959277  0.089850  1
