# generated using pymatgen
data_YLuZr2(Al8Pt3)3
_symmetry_space_group_name_H-M   'P 1'
_cell_length_a   7.50619930
_cell_length_b   7.51390104
_cell_length_c   13.04821670
_cell_angle_alpha   84.53401431
_cell_angle_beta   78.96509743
_cell_angle_gamma   59.94536684
_symmetry_Int_Tables_number   1
_chemical_formula_structural   YLuZr2(Al8Pt3)3
_chemical_formula_sum   'Y1 Lu1 Zr2 Al24 Pt9'
_cell_volume   625.20574698
_cell_formula_units_Z   1
loop_
 _symmetry_equiv_pos_site_id
 _symmetry_equiv_pos_as_xyz
  1  'x, y, z'
loop_
 _atom_site_type_symbol
 _atom_site_label
 _atom_site_symmetry_multiplicity
 _atom_site_fract_x
 _atom_site_fract_y
 _atom_site_fract_z
 _atom_site_occupancy
  Y  Y0  1  0.733392  0.498472  0.808387  1
  Lu  Lu1  1  0.265810  0.501404  0.193316  1
  Zr  Zr2  1  0.393532  0.168018  0.810277  1
  Zr  Zr3  1  0.606349  0.832376  0.189567  1
  Al  Al4  1  0.681214  0.836245  0.944008  1
  Al  Al5  1  0.318287  0.164784  0.057440  1
  Al  Al6  1  0.146120  0.832980  0.562797  1
  Al  Al7  1  0.854145  0.166820  0.436759  1
  Al  Al8  1  0.479875  0.166916  0.560882  1
  Al  Al9  1  0.520221  0.833135  0.438526  1
  Al  Al10  1  0.221010  0.163471  0.326027  1
  Al  Al11  1  0.779465  0.836563  0.672922  1
  Al  Al12  1  0.436399  0.504339  0.673055  1
  Al  Al13  1  0.563687  0.495699  0.325903  1
  Al  Al14  1  0.111166  0.160148  0.671759  1
  Al  Al15  1  0.889488  0.839613  0.327141  1
  Al  Al16  1  0.352705  0.497161  0.943250  1
  Al  Al17  1  0.645446  0.503131  0.058647  1
  Al  Al18  1  0.018636  0.167499  0.951340  1
  Al  Al19  1  0.981943  0.831523  0.050043  1
  Al  Al20  1  0.186731  0.499715  0.440362  1
  Al  Al21  1  0.813568  0.500266  0.559190  1
  Al  Al22  1  0.732593  0.159634  0.183554  1
  Al  Al23  1  0.266198  0.841294  0.816309  1
  Al  Al24  1  0.066200  0.626769  0.815265  1
  Al  Al25  1  0.934872  0.373545  0.184601  1
  Al  Al26  1  0.850852  0.040537  0.815776  1
  Al  Al27  1  0.149528  0.957957  0.184131  1
  Pt  Pt28  1  0.120241  0.490970  0.639190  1
  Pt  Pt29  1  0.880909  0.509022  0.360356  1
  Pt  Pt30  1  0.656763  0.172751  0.999636  1
  Pt  Pt31  1  0.342976  0.827324  0.000495  1
  Pt  Pt32  1  0.536688  0.167408  0.361166  1
  Pt  Pt33  1  0.462683  0.833398  0.638296  1
  Pt  Pt34  1  0.778535  0.175632  0.637513  1
  Pt  Pt35  1  0.221712  0.823381  0.362016  1
  Pt  Pt36  1  0.000063  0.500099  0.000094  1
