# generated using pymatgen
data_Sm2Tc2I
_symmetry_space_group_name_H-M   'P 1'
_cell_length_a   4.14809500
_cell_length_b   4.14809456
_cell_length_c   18.03849600
_cell_angle_alpha   90.00000000
_cell_angle_beta   90.00000000
_cell_angle_gamma   119.99997962
_symmetry_Int_Tables_number   1
_chemical_formula_structural   Sm2Tc2I
_chemical_formula_sum   'Sm4 Tc4 I2'
_cell_volume   268.79945691
_cell_formula_units_Z   2
loop_
 _symmetry_equiv_pos_site_id
 _symmetry_equiv_pos_as_xyz
  1  'x, y, z'
loop_
 _atom_site_type_symbol
 _atom_site_label
 _atom_site_symmetry_multiplicity
 _atom_site_fract_x
 _atom_site_fract_y
 _atom_site_fract_z
 _atom_site_occupancy
  Sm  Sm0  1  0.000000  0.000000  0.113575  1
  Sm  Sm1  1  0.000000  0.000000  0.613575  1
  Sm  Sm2  1  0.000000  0.000000  0.386425  1
  Sm  Sm3  1  0.000000  0.000000  0.886425  1
  Tc  Tc4  1  0.666667  0.333333  0.984675  1
  Tc  Tc5  1  0.333333  0.666667  0.015325  1
  Tc  Tc6  1  0.666667  0.333333  0.515325  1
  Tc  Tc7  1  0.333333  0.666667  0.484675  1
  I  I8  1  0.666667  0.333333  0.250000  1
  I  I9  1  0.333333  0.666667  0.750000  1
