# generated using pymatgen
data_AcTb12Nd7Sn16
_symmetry_space_group_name_H-M   'P 1'
_cell_length_a   8.17921389
_cell_length_b   8.34058991
_cell_length_c   15.77462158
_cell_angle_alpha   90.03334650
_cell_angle_beta   89.74512779
_cell_angle_gamma   89.32095475
_symmetry_Int_Tables_number   1
_chemical_formula_structural   AcTb12Nd7Sn16
_chemical_formula_sum   'Ac1 Tb12 Nd7 Sn16'
_cell_volume   1076.04986581
_cell_formula_units_Z   1
loop_
 _symmetry_equiv_pos_site_id
 _symmetry_equiv_pos_as_xyz
  1  'x, y, z'
loop_
 _atom_site_type_symbol
 _atom_site_label
 _atom_site_symmetry_multiplicity
 _atom_site_fract_x
 _atom_site_fract_y
 _atom_site_fract_z
 _atom_site_occupancy
  Ac  Ac0  1  0.013519  0.180584  0.405660  1
  Tb  Tb1  1  0.367160  0.837495  0.120241  1
  Tb  Tb2  1  0.136376  0.338402  0.623451  1
  Tb  Tb3  1  0.480148  0.678115  0.900803  1
  Tb  Tb4  1  0.867547  0.662212  0.120053  1
  Tb  Tb5  1  0.134716  0.337580  0.877822  1
  Tb  Tb6  1  0.199059  0.503010  0.247747  1
  Tb  Tb7  1  0.698805  0.996715  0.248690  1
  Tb  Tb8  1  0.481190  0.679409  0.599888  1
  Tb  Tb9  1  0.302141  0.001771  0.751677  1
  Tb  Tb10  1  0.635899  0.163724  0.624252  1
  Tb  Tb11  1  0.800816  0.498600  0.749845  1
  Tb  Tb12  1  0.864408  0.662188  0.378056  1
  Nd  Nd13  1  0.017336  0.179854  0.096677  1
  Nd  Nd14  1  0.982503  0.818087  0.901142  1
  Nd  Nd15  1  0.633400  0.163526  0.878890  1
  Nd  Nd16  1  0.518211  0.322153  0.095674  1
  Nd  Nd17  1  0.365057  0.835896  0.378216  1
  Nd  Nd18  1  0.984505  0.817031  0.599332  1
  Nd  Nd19  1  0.518118  0.324006  0.402100  1
  Sn  Sn20  1  0.791550  0.464965  0.544471  1
  Sn  Sn21  1  0.698283  0.954371  0.462206  1
  Sn  Sn22  1  0.670512  0.852677  0.749475  1
  Sn  Sn23  1  0.205771  0.541917  0.461305  1
  Sn  Sn24  1  0.291896  0.035011  0.957501  1
  Sn  Sn25  1  0.820928  0.360746  0.246222  1
  Sn  Sn26  1  0.795670  0.467175  0.956406  1
  Sn  Sn27  1  0.565942  0.621045  0.248245  1
  Sn  Sn28  1  0.207154  0.540959  0.039763  1
  Sn  Sn29  1  0.433890  0.383053  0.749963  1
  Sn  Sn30  1  0.177619  0.642353  0.749983  1
  Sn  Sn31  1  0.937322  0.122175  0.748622  1
  Sn  Sn32  1  0.305044  0.034129  0.548036  1
  Sn  Sn33  1  0.704672  0.960310  0.043762  1
  Sn  Sn34  1  0.329237  0.144664  0.247053  1
  Sn  Sn35  1  0.063598  0.874089  0.246773  1
