# generated using pymatgen
data_Ti2MnCo5B2
_symmetry_space_group_name_H-M   'P 1'
_cell_length_a   8.49614200
_cell_length_b   8.49614200
_cell_length_c   2.95228800
_cell_angle_alpha   90.00000000
_cell_angle_beta   90.00000000
_cell_angle_gamma   90.00000000
_symmetry_Int_Tables_number   1
_chemical_formula_structural   Ti2MnCo5B2
_chemical_formula_sum   'Ti4 Mn2 Co10 B4'
_cell_volume   213.10922318
_cell_formula_units_Z   2
loop_
 _symmetry_equiv_pos_site_id
 _symmetry_equiv_pos_as_xyz
  1  'x, y, z'
loop_
 _atom_site_type_symbol
 _atom_site_label
 _atom_site_symmetry_multiplicity
 _atom_site_fract_x
 _atom_site_fract_y
 _atom_site_fract_z
 _atom_site_occupancy
  Ti  Ti0  1  0.675992  0.175992  0.000000  1
  Ti  Ti1  1  0.324008  0.824008  0.000000  1
  Ti  Ti2  1  0.175992  0.324008  0.000000  1
  Ti  Ti3  1  0.824008  0.675992  0.000000  1
  Mn  Mn4  1  0.500000  0.500000  0.000000  1
  Mn  Mn5  1  0.000000  0.000000  0.000000  1
  Co  Co6  1  0.569307  0.718951  0.500000  1
  Co  Co7  1  0.430693  0.281049  0.500000  1
  Co  Co8  1  0.069307  0.781049  0.500000  1
  Co  Co9  1  0.930693  0.218951  0.500000  1
  Co  Co10  1  0.281049  0.569307  0.500000  1
  Co  Co11  1  0.718951  0.430693  0.500000  1
  Co  Co12  1  0.218951  0.069307  0.500000  1
  Co  Co13  1  0.781049  0.930693  0.500000  1
  Co  Co14  1  0.500000  0.000000  0.500000  1
  Co  Co15  1  0.000000  0.500000  0.500000  1
  B  B16  1  0.121058  0.621058  0.000000  1
  B  B17  1  0.878942  0.378942  0.000000  1
  B  B18  1  0.621058  0.878942  0.000000  1
  B  B19  1  0.378942  0.121058  0.000000  1
