# generated using pymatgen
data_Hf4Mg3Zr2Al13Pd7
_symmetry_space_group_name_H-M   'P 1'
_cell_length_a   8.86283783
_cell_length_b   8.86283832
_cell_length_c   8.85709701
_cell_angle_alpha   60.00593117
_cell_angle_beta   60.00593167
_cell_angle_gamma   59.93240906
_symmetry_Int_Tables_number   1
_chemical_formula_structural   Hf4Mg3Zr2Al13Pd7
_chemical_formula_sum   'Hf4 Mg3 Zr2 Al13 Pd7'
_cell_volume   491.74345335
_cell_formula_units_Z   1
loop_
 _symmetry_equiv_pos_site_id
 _symmetry_equiv_pos_as_xyz
  1  'x, y, z'
loop_
 _atom_site_type_symbol
 _atom_site_label
 _atom_site_symmetry_multiplicity
 _atom_site_fract_x
 _atom_site_fract_y
 _atom_site_fract_z
 _atom_site_occupancy
  Hf  Hf0  1  0.681747  0.681747  0.316419  1
  Hf  Hf1  1  0.323387  0.677249  0.322538  1
  Hf  Hf2  1  0.677249  0.323387  0.322538  1
  Hf  Hf3  1  0.321585  0.321585  0.678132  1
  Mg  Mg4  1  0.882946  0.882946  0.353980  1
  Mg  Mg5  1  0.882710  0.354310  0.883051  1
  Mg  Mg6  1  0.354310  0.882710  0.883051  1
  Zr  Zr7  1  0.683628  0.315413  0.682801  1
  Zr  Zr8  1  0.315413  0.683628  0.682801  1
  Al  Al9  1  0.878697  0.878697  0.878946  1
  Al  Al10  1  0.121579  0.121579  0.636654  1
  Al  Al11  1  0.121216  0.637069  0.121559  1
  Al  Al12  1  0.637069  0.121216  0.121559  1
  Al  Al13  1  0.120328  0.120328  0.120668  1
  Al  Al14  1  0.663755  0.663755  0.006951  1
  Al  Al15  1  0.664066  0.006216  0.663731  1
  Al  Al16  1  0.006216  0.664066  0.663731  1
  Al  Al17  1  0.665315  0.665315  0.664777  1
  Al  Al18  1  0.334980  0.334980  0.994058  1
  Al  Al19  1  0.335516  0.993108  0.334955  1
  Al  Al20  1  0.993108  0.335516  0.334955  1
  Al  Al21  1  0.336477  0.336477  0.336050  1
  Pd  Pd22  1  0.994650  0.994650  0.994188  1
  Pd  Pd23  1  0.000592  0.000592  0.504195  1
  Pd  Pd24  1  0.497973  0.002394  0.497314  1
  Pd  Pd25  1  0.002394  0.497973  0.497314  1
  Pd  Pd26  1  0.497861  0.497861  0.002311  1
  Pd  Pd27  1  0.000218  0.505012  0.000387  1
  Pd  Pd28  1  0.505012  0.000218  0.000387  1
