# generated using pymatgen
data_Cs2Zn(GaAu2)3
_symmetry_space_group_name_H-M   'P 1'
_cell_length_a   5.81672719
_cell_length_b   7.24752285
_cell_length_c   13.65831200
_cell_angle_alpha   90.00000000
_cell_angle_beta   90.00000000
_cell_angle_gamma   89.38552734
_symmetry_Int_Tables_number   1
_chemical_formula_structural   Cs2Zn(GaAu2)3
_chemical_formula_sum   'Cs4 Zn2 Ga6 Au12'
_cell_volume   575.75847851
_cell_formula_units_Z   2
loop_
 _symmetry_equiv_pos_site_id
 _symmetry_equiv_pos_as_xyz
  1  'x, y, z'
loop_
 _atom_site_type_symbol
 _atom_site_label
 _atom_site_symmetry_multiplicity
 _atom_site_fract_x
 _atom_site_fract_y
 _atom_site_fract_z
 _atom_site_occupancy
  Cs  Cs0  1  0.250300  0.094097  0.070418  1
  Cs  Cs1  1  0.249700  0.405903  0.570418  1
  Cs  Cs2  1  0.750606  0.905406  0.929670  1
  Cs  Cs3  1  0.749394  0.594594  0.429670  1
  Zn  Zn4  1  0.997905  0.908152  0.656539  1
  Zn  Zn5  1  0.502095  0.591848  0.156539  1
  Ga  Ga6  1  0.498891  0.094150  0.342865  1
  Ga  Ga7  1  0.001109  0.405850  0.842865  1
  Ga  Ga8  1  0.002603  0.092355  0.344399  1
  Ga  Ga9  1  0.497397  0.407645  0.844399  1
  Ga  Ga10  1  0.501949  0.906093  0.656227  1
  Ga  Ga11  1  0.998051  0.593907  0.156227  1
  Au  Au12  1  0.250896  0.119289  0.785229  1
  Au  Au13  1  0.249104  0.380711  0.285229  1
  Au  Au14  1  0.751242  0.880342  0.215926  1
  Au  Au15  1  0.748758  0.619658  0.715926  1
  Au  Au16  1  0.248305  0.712305  0.791090  1
  Au  Au17  1  0.251695  0.787695  0.291090  1
  Au  Au18  1  0.753275  0.288629  0.207543  1
  Au  Au19  1  0.746725  0.211371  0.707543  1
  Au  Au20  1  0.246769  0.578154  0.995007  1
  Au  Au21  1  0.253231  0.921846  0.495007  1
  Au  Au22  1  0.749045  0.422642  0.005088  1
  Au  Au23  1  0.750955  0.077358  0.505088  1
