# generated using pymatgen
data_Li8YEr7(Sn3Bi)2
_symmetry_space_group_name_H-M   'P 1'
_cell_length_a   9.42890490
_cell_length_b   9.42146655
_cell_length_c   7.18908473
_cell_angle_alpha   90.12018660
_cell_angle_beta   89.75551646
_cell_angle_gamma   120.02458256
_symmetry_Int_Tables_number   1
_chemical_formula_structural   Li8YEr7(Sn3Bi)2
_chemical_formula_sum   'Li8 Y1 Er7 Sn6 Bi2'
_cell_volume   552.93287677
_cell_formula_units_Z   1
loop_
 _symmetry_equiv_pos_site_id
 _symmetry_equiv_pos_as_xyz
  1  'x, y, z'
loop_
 _atom_site_type_symbol
 _atom_site_label
 _atom_site_symmetry_multiplicity
 _atom_site_fract_x
 _atom_site_fract_y
 _atom_site_fract_z
 _atom_site_occupancy
  Li  Li0  1  0.164413  0.828612  0.196682  1
  Li  Li1  1  0.336059  0.171504  0.697225  1
  Li  Li2  1  0.829111  0.663129  0.693043  1
  Li  Li3  1  0.165828  0.336571  0.192488  1
  Li  Li4  1  0.665514  0.831970  0.197157  1
  Li  Li5  1  0.833396  0.168194  0.697822  1
  Li  Li6  1  0.334518  0.664063  0.813647  1
  Li  Li7  1  0.670427  0.335920  0.313509  1
  Y  Y8  1  0.992595  0.999695  0.485538  1
  Er  Er9  1  0.515361  0.492899  0.988615  1
  Er  Er10  1  0.022492  0.507040  0.488685  1
  Er  Er11  1  0.496206  0.975976  0.491327  1
  Er  Er12  1  0.520072  0.023991  0.991307  1
  Er  Er13  1  0.972027  0.482262  0.993560  1
  Er  Er14  1  0.489846  0.517818  0.493578  1
  Er  Er15  1  0.992458  0.000380  0.985135  1
  Sn  Sn16  1  0.832997  0.665992  0.253195  1
  Sn  Sn17  1  0.166770  0.333575  0.754944  1
  Sn  Sn18  1  0.666152  0.833420  0.754794  1
  Sn  Sn19  1  0.832644  0.166778  0.252828  1
  Sn  Sn20  1  0.333687  0.667787  0.225123  1
  Sn  Sn21  1  0.665899  0.332203  0.725052  1
  Bi  Bi22  1  0.167496  0.833894  0.753314  1
  Bi  Bi23  1  0.334034  0.166328  0.251436  1
