# generated using pymatgen
data_LaTb2Co8P6Ru
_symmetry_space_group_name_H-M   'P 1'
_cell_length_a   3.73601600
_cell_length_b   10.60426000
_cell_length_c   12.30448700
_cell_angle_alpha   90.00000000
_cell_angle_beta   90.00000000
_cell_angle_gamma   90.00000000
_symmetry_Int_Tables_number   1
_chemical_formula_structural   LaTb2Co8P6Ru
_chemical_formula_sum   'La2 Tb4 Co16 P12 Ru2'
_cell_volume   487.47529040
_cell_formula_units_Z   2
loop_
 _symmetry_equiv_pos_site_id
 _symmetry_equiv_pos_as_xyz
  1  'x, y, z'
loop_
 _atom_site_type_symbol
 _atom_site_label
 _atom_site_symmetry_multiplicity
 _atom_site_fract_x
 _atom_site_fract_y
 _atom_site_fract_z
 _atom_site_occupancy
  La  La0  1  0.000000  0.500000  0.526518  1
  La  La1  1  0.500000  0.000000  0.473482  1
  Tb  Tb2  1  0.500000  0.816306  0.204611  1
  Tb  Tb3  1  0.500000  0.183694  0.204611  1
  Tb  Tb4  1  0.000000  0.683694  0.795389  1
  Tb  Tb5  1  0.000000  0.316306  0.795389  1
  Co  Co6  1  0.500000  0.500000  0.706776  1
  Co  Co7  1  0.000000  0.000000  0.293224  1
  Co  Co8  1  0.000000  0.500000  0.986295  1
  Co  Co9  1  0.500000  0.000000  0.013705  1
  Co  Co10  1  0.500000  0.332500  0.991066  1
  Co  Co11  1  0.500000  0.667500  0.991066  1
  Co  Co12  1  0.000000  0.167500  0.008934  1
  Co  Co13  1  0.000000  0.832500  0.008934  1
  Co  Co14  1  0.500000  0.297576  0.428847  1
  Co  Co15  1  0.500000  0.702424  0.428847  1
  Co  Co16  1  0.000000  0.202424  0.571153  1
  Co  Co17  1  0.000000  0.797576  0.571153  1
  Co  Co18  1  0.500000  0.880486  0.711816  1
  Co  Co19  1  0.500000  0.119514  0.711816  1
  Co  Co20  1  0.000000  0.619514  0.288184  1
  Co  Co21  1  0.000000  0.380486  0.288184  1
  P  P22  1  0.500000  0.500000  0.883787  1
  P  P23  1  0.000000  0.000000  0.116213  1
  P  P24  1  0.500000  0.500000  0.344404  1
  P  P25  1  0.000000  0.000000  0.655596  1
  P  P26  1  0.500000  0.305215  0.618100  1
  P  P27  1  0.500000  0.694785  0.618100  1
  P  P28  1  0.000000  0.194785  0.381900  1
  P  P29  1  0.000000  0.805215  0.381900  1
  P  P30  1  0.500000  0.846637  0.895165  1
  P  P31  1  0.500000  0.153363  0.895165  1
  P  P32  1  0.000000  0.653363  0.104835  1
  P  P33  1  0.000000  0.346637  0.104835  1
  Ru  Ru34  1  0.500000  0.500000  0.156386  1
  Ru  Ru35  1  0.000000  0.000000  0.843614  1
