# generated using pymatgen
data_Pa3(GeRh)4
_symmetry_space_group_name_H-M   'P 1'
_cell_length_a   4.15722736
_cell_length_b   6.93861290
_cell_length_c   8.14349025
_cell_angle_alpha   115.21536760
_cell_angle_beta   104.78831559
_cell_angle_gamma   90.00000214
_symmetry_Int_Tables_number   1
_chemical_formula_structural   Pa3(GeRh)4
_chemical_formula_sum   'Pa3 Ge4 Rh4'
_cell_volume   203.88552937
_cell_formula_units_Z   1
loop_
 _symmetry_equiv_pos_site_id
 _symmetry_equiv_pos_as_xyz
  1  'x, y, z'
loop_
 _atom_site_type_symbol
 _atom_site_label
 _atom_site_symmetry_multiplicity
 _atom_site_fract_x
 _atom_site_fract_y
 _atom_site_fract_z
 _atom_site_occupancy
  Pa  Pa0  1  0.000000  0.500000  0.000000  1
  Pa  Pa1  1  0.130122  0.130122  0.260245  1
  Pa  Pa2  1  0.869877  0.869878  0.739755  1
  Ge  Ge3  1  0.500000  0.198358  0.000000  1
  Ge  Ge4  1  0.500000  0.801641  0.000000  1
  Ge  Ge5  1  0.210229  0.710229  0.420459  1
  Ge  Ge6  1  0.789771  0.289771  0.579541  1
  Rh  Rh7  1  0.675721  0.466301  0.351444  1
  Rh  Rh8  1  0.675721  0.885142  0.351444  1
  Rh  Rh9  1  0.324279  0.114857  0.648557  1
  Rh  Rh10  1  0.324279  0.533700  0.648557  1
