# generated using pymatgen
data_Yb12Ta2Ti3Ga12(SbO16)3
_symmetry_space_group_name_H-M   'P 1'
_cell_length_a   10.66958549
_cell_length_b   10.66958514
_cell_length_c   10.63301600
_cell_angle_alpha   109.40180775
_cell_angle_beta   109.40180709
_cell_angle_gamma   109.54054286
_symmetry_Int_Tables_number   1
_chemical_formula_structural   Yb12Ta2Ti3Ga12(SbO16)3
_chemical_formula_sum   'Yb12 Ta2 Ti3 Ga12 Sb3 O48'
_cell_volume   932.61197801
_cell_formula_units_Z   1
loop_
 _symmetry_equiv_pos_site_id
 _symmetry_equiv_pos_as_xyz
  1  'x, y, z'
loop_
 _atom_site_type_symbol
 _atom_site_label
 _atom_site_symmetry_multiplicity
 _atom_site_fract_x
 _atom_site_fract_y
 _atom_site_fract_z
 _atom_site_occupancy
  Yb  Yb0  1  0.249969  0.370950  0.120809  1
  Yb  Yb1  1  0.378371  0.746391  0.121907  1
  Yb  Yb2  1  0.368020  0.121629  0.243536  1
  Yb  Yb3  1  0.870949  0.620980  0.250141  1
  Yb  Yb4  1  0.120980  0.250031  0.370839  1
  Yb  Yb5  1  0.753609  0.131979  0.375516  1
  Yb  Yb6  1  0.246391  0.868019  0.624484  1
  Yb  Yb7  1  0.879020  0.749969  0.629161  1
  Yb  Yb8  1  0.129049  0.379020  0.749859  1
  Yb  Yb9  1  0.631980  0.878371  0.756464  1
  Yb  Yb10  1  0.621629  0.253609  0.878091  1
  Yb  Yb11  1  0.750031  0.629050  0.879191  1
  Ta  Ta12  1  0.499999  0.000000  0.000000  1
  Ta  Ta13  1  0.500000  0.000000  0.500000  1
  Ti  Ti14  1  0.000000  0.000000  0.000000  1
  Ti  Ti15  1  0.500000  0.500000  0.000000  1
  Ti  Ti16  1  0.000000  0.500000  0.500000  1
  Ga  Ga17  1  0.750168  0.871359  0.123292  1
  Ga  Ga18  1  0.878810  0.250169  0.126876  1
  Ga  Ga19  1  0.628641  0.378810  0.251933  1
  Ga  Ga20  1  0.122407  0.876576  0.247494  1
  Ga  Ga21  1  0.623424  0.745832  0.370916  1
  Ga  Ga22  1  0.245832  0.622407  0.374916  1
  Ga  Ga23  1  0.754168  0.377593  0.625084  1
  Ga  Ga24  1  0.376576  0.254168  0.629084  1
  Ga  Ga25  1  0.877593  0.123424  0.752507  1
  Ga  Ga26  1  0.371359  0.621190  0.748067  1
  Ga  Ga27  1  0.249833  0.128641  0.876708  1
  Ga  Ga28  1  0.121190  0.749832  0.873124  1
  Sb  Sb29  1  0.000000  0.499999  0.000000  1
  Sb  Sb30  1  0.000000  0.000000  0.499999  1
  Sb  Sb31  1  0.499999  0.499999  0.499999  1
  O  O32  1  0.321204  0.904097  0.024114  1
  O  O33  1  0.203022  0.116501  0.024978  1
  O  O34  1  0.702941  0.676887  0.086473  1
  O  O35  1  0.878245  0.405169  0.083937  1
  O  O36  1  0.972394  0.677736  0.094561  1
  O  O37  1  0.616501  0.413480  0.091523  1
  O  O38  1  0.595903  0.917107  0.120017  1
  O  O39  1  0.026052  0.202940  0.116466  1
  O  O40  1  0.473516  0.591369  0.176899  1
  O  O41  1  0.206062  0.584621  0.178567  1
  O  O42  1  0.117852  0.026483  0.203382  1
  O  O43  1  0.582893  0.178796  0.202909  1
  O  O44  1  0.473074  0.378245  0.294308  1
  O  O45  1  0.319964  0.913610  0.295857  1
  O  O46  1  0.905169  0.026926  0.321233  1
  O  O47  1  0.913479  0.296977  0.321956  1
  O  O48  1  0.294659  0.472394  0.377833  1
  O  O49  1  0.586389  0.906352  0.382244  1
  O  O50  1  0.823112  0.526052  0.409585  1
  O  O51  1  0.084621  0.878559  0.406054  1
  O  O52  1  0.822264  0.794659  0.416826  1
  O  O53  1  0.091370  0.617852  0.414470  1
  O  O54  1  0.593647  0.180036  0.475892  1
  O  O55  1  0.378559  0.293938  0.472505  1
  O  O56  1  0.621441  0.706062  0.527495  1
  O  O57  1  0.406351  0.819963  0.524107  1
  O  O58  1  0.908630  0.382147  0.585530  1
  O  O59  1  0.177736  0.205341  0.583174  1
  O  O60  1  0.915379  0.121441  0.593946  1
  O  O61  1  0.176887  0.473947  0.590413  1
  O  O62  1  0.413611  0.093648  0.617755  1
  O  O63  1  0.705341  0.527606  0.622167  1
  O  O64  1  0.086520  0.703023  0.678044  1
  O  O65  1  0.094831  0.973074  0.678767  1
  O  O66  1  0.680036  0.086389  0.704143  1
  O  O67  1  0.526926  0.621755  0.705692  1
  O  O68  1  0.417107  0.821204  0.797091  1
  O  O69  1  0.882147  0.973516  0.796616  1
  O  O70  1  0.793938  0.415379  0.821433  1
  O  O71  1  0.526483  0.408629  0.823100  1
  O  O72  1  0.973947  0.797058  0.883533  1
  O  O73  1  0.404097  0.082893  0.879983  1
  O  O74  1  0.383498  0.586520  0.908477  1
  O  O75  1  0.027606  0.322264  0.905439  1
  O  O76  1  0.121755  0.594831  0.916063  1
  O  O77  1  0.297059  0.323113  0.913526  1
  O  O78  1  0.678796  0.095903  0.975886  1
  O  O79  1  0.796976  0.883498  0.975021  1
