# generated using pymatgen
data_CaNdReC2
_symmetry_space_group_name_H-M   'P 1'
_cell_length_a   5.27414100
_cell_length_b   6.62174700
_cell_length_c   10.45400800
_cell_angle_alpha   90.00000000
_cell_angle_beta   90.00000000
_cell_angle_gamma   90.00000000
_symmetry_Int_Tables_number   1
_chemical_formula_structural   CaNdReC2
_chemical_formula_sum   'Ca4 Nd4 Re4 C8'
_cell_volume   365.09606125
_cell_formula_units_Z   4
loop_
 _symmetry_equiv_pos_site_id
 _symmetry_equiv_pos_as_xyz
  1  'x, y, z'
loop_
 _atom_site_type_symbol
 _atom_site_label
 _atom_site_symmetry_multiplicity
 _atom_site_fract_x
 _atom_site_fract_y
 _atom_site_fract_z
 _atom_site_occupancy
  Ca  Ca0  1  0.250000  0.465615  0.776492  1
  Ca  Ca1  1  0.750000  0.034385  0.276492  1
  Ca  Ca2  1  0.250000  0.965615  0.723508  1
  Ca  Ca3  1  0.750000  0.534385  0.223508  1
  Nd  Nd4  1  0.250000  0.803989  0.050496  1
  Nd  Nd5  1  0.750000  0.696011  0.550496  1
  Nd  Nd6  1  0.250000  0.303989  0.449504  1
  Nd  Nd7  1  0.750000  0.196011  0.949504  1
  Re  Re8  1  0.250000  0.271021  0.145061  1
  Re  Re9  1  0.750000  0.228979  0.645061  1
  Re  Re10  1  0.250000  0.771021  0.354939  1
  Re  Re11  1  0.750000  0.728979  0.854939  1
  C  C12  1  0.250000  0.692622  0.529294  1
  C  C13  1  0.750000  0.807378  0.029294  1
  C  C14  1  0.250000  0.192622  0.970706  1
  C  C15  1  0.750000  0.307378  0.470706  1
  C  C16  1  0.250000  0.035679  0.257711  1
  C  C17  1  0.750000  0.464321  0.757711  1
  C  C18  1  0.250000  0.535679  0.242289  1
  C  C19  1  0.750000  0.964321  0.742289  1
