# generated using pymatgen
data_Ca2Si6Pd20Rh
_symmetry_space_group_name_H-M   'P 1'
_cell_length_a   8.65749783
_cell_length_b   8.65749775
_cell_length_c   8.69291400
_cell_angle_alpha   60.13468055
_cell_angle_beta   60.13468126
_cell_angle_gamma   59.99999486
_symmetry_Int_Tables_number   1
_chemical_formula_structural   Ca2Si6Pd20Rh
_chemical_formula_sum   'Ca2 Si6 Pd20 Rh1'
_cell_volume   461.65362238
_cell_formula_units_Z   1
loop_
 _symmetry_equiv_pos_site_id
 _symmetry_equiv_pos_as_xyz
  1  'x, y, z'
loop_
 _atom_site_type_symbol
 _atom_site_label
 _atom_site_symmetry_multiplicity
 _atom_site_fract_x
 _atom_site_fract_y
 _atom_site_fract_z
 _atom_site_occupancy
  Ca  Ca0  1  0.748538  0.748538  0.754387  1
  Ca  Ca1  1  0.250081  0.250081  0.249756  1
  Si  Si2  1  0.729567  0.729567  0.267310  1
  Si  Si3  1  0.273556  0.729567  0.267310  1
  Si  Si4  1  0.729567  0.273556  0.267310  1
  Si  Si5  1  0.267220  0.267220  0.732533  1
  Si  Si6  1  0.733026  0.267220  0.732533  1
  Si  Si7  1  0.267220  0.733026  0.732533  1
  Pd  Pd8  1  0.000189  0.000189  0.999432  1
  Pd  Pd9  1  0.615623  0.153472  0.615283  1
  Pd  Pd10  1  0.153472  0.615623  0.615283  1
  Pd  Pd11  1  0.615623  0.615623  0.615283  1
  Pd  Pd12  1  0.383979  0.383979  0.848063  1
  Pd  Pd13  1  0.382938  0.847548  0.386576  1
  Pd  Pd14  1  0.847548  0.382938  0.386576  1
  Pd  Pd15  1  0.382938  0.382938  0.386576  1
  Pd  Pd16  1  0.000376  0.000376  0.341007  1
  Pd  Pd17  1  0.658241  0.000376  0.341007  1
  Pd  Pd18  1  0.000376  0.658241  0.341007  1
  Pd  Pd19  1  0.658313  0.342267  0.999025  1
  Pd  Pd20  1  0.000395  0.342267  0.999025  1
  Pd  Pd21  1  0.999833  0.343574  0.656760  1
  Pd  Pd22  1  0.342267  0.658313  0.999025  1
  Pd  Pd23  1  0.343574  0.999833  0.656760  1
  Pd  Pd24  1  0.342267  0.000395  0.999025  1
  Pd  Pd25  1  0.999833  0.999833  0.656760  1
  Pd  Pd26  1  0.000395  0.658313  0.999025  1
  Pd  Pd27  1  0.658313  0.000395  0.999025  1
  Rh  Rh28  1  0.614732  0.614732  0.155805  1
