# generated using pymatgen
data_Nb12Al4Ga2PdPtN4
_symmetry_space_group_name_H-M   'P 1'
_cell_length_a   7.05453600
_cell_length_b   7.07264250
_cell_length_c   7.07952500
_cell_angle_alpha   90.00000000
_cell_angle_beta   90.00000000
_cell_angle_gamma   90.39900389
_symmetry_Int_Tables_number   1
_chemical_formula_structural   Nb12Al4Ga2PdPtN4
_chemical_formula_sum   'Nb12 Al4 Ga2 Pd1 Pt1 N4'
_cell_volume   353.21874988
_cell_formula_units_Z   1
loop_
 _symmetry_equiv_pos_site_id
 _symmetry_equiv_pos_as_xyz
  1  'x, y, z'
loop_
 _atom_site_type_symbol
 _atom_site_label
 _atom_site_symmetry_multiplicity
 _atom_site_fract_x
 _atom_site_fract_y
 _atom_site_fract_z
 _atom_site_occupancy
  Nb  Nb0  1  0.789581  0.957457  0.377780  1
  Nb  Nb1  1  0.709909  0.042456  0.876995  1
  Nb  Nb2  1  0.208286  0.452854  0.125529  1
  Nb  Nb3  1  0.291818  0.546000  0.625718  1
  Nb  Nb4  1  0.955358  0.379944  0.790014  1
  Nb  Nb5  1  0.042075  0.870553  0.710194  1
  Nb  Nb6  1  0.458769  0.130195  0.209376  1
  Nb  Nb7  1  0.545106  0.619517  0.290023  1
  Nb  Nb8  1  0.379621  0.788652  0.954703  1
  Nb  Nb9  1  0.872157  0.708076  0.042307  1
  Nb  Nb10  1  0.120344  0.211758  0.455458  1
  Nb  Nb11  1  0.627782  0.291539  0.543236  1
  Al  Al12  1  0.563385  0.421768  0.926458  1
  Al  Al13  1  0.420055  0.933802  0.569638  1
  Al  Al14  1  0.936877  0.578707  0.426343  1
  Al  Al15  1  0.079641  0.065926  0.070172  1
  Ga  Ga16  1  0.823502  0.320369  0.176450  1
  Ga  Ga17  1  0.676288  0.679767  0.676535  1
  Pd  Pd18  1  0.182275  0.823133  0.317612  1
  Pt  Pt19  1  0.317708  0.177221  0.817672  1
  N  N20  1  0.878280  0.121809  0.628535  1
  N  N21  1  0.621136  0.878190  0.128511  1
  N  N22  1  0.126772  0.624743  0.880538  1
  N  N23  1  0.373276  0.375565  0.380205  1
