# generated using pymatgen
data_La3Pr7(AsPb3)2
_symmetry_space_group_name_H-M   'P 1'
_cell_length_a   9.68658700
_cell_length_b   9.68658652
_cell_length_c   7.16941800
_cell_angle_alpha   90.00000000
_cell_angle_beta   90.00000000
_cell_angle_gamma   120.00001188
_symmetry_Int_Tables_number   1
_chemical_formula_structural   La3Pr7(AsPb3)2
_chemical_formula_sum   'La3 Pr7 As2 Pb6'
_cell_volume   582.58061148
_cell_formula_units_Z   1
loop_
 _symmetry_equiv_pos_site_id
 _symmetry_equiv_pos_as_xyz
  1  'x, y, z'
loop_
 _atom_site_type_symbol
 _atom_site_label
 _atom_site_symmetry_multiplicity
 _atom_site_fract_x
 _atom_site_fract_y
 _atom_site_fract_z
 _atom_site_occupancy
  La  La0  1  0.244443  0.244443  0.250000  1
  La  La1  1  0.755557  0.000000  0.250000  1
  La  La2  1  0.000000  0.755557  0.250000  1
  Pr  Pr3  1  0.755625  0.755625  0.750000  1
  Pr  Pr4  1  0.244375  0.000000  0.750000  1
  Pr  Pr5  1  0.000000  0.244375  0.750000  1
  Pr  Pr6  1  0.666667  0.333333  0.998815  1
  Pr  Pr7  1  0.333333  0.666667  0.998815  1
  Pr  Pr8  1  0.333333  0.666667  0.501185  1
  Pr  Pr9  1  0.666667  0.333333  0.501185  1
  As  As10  1  0.000000  0.000000  0.998571  1
  As  As11  1  0.000000  0.000000  0.501429  1
  Pb  Pb12  1  0.398435  0.398435  0.750000  1
  Pb  Pb13  1  0.601565  0.000000  0.750000  1
  Pb  Pb14  1  0.000000  0.601565  0.750000  1
  Pb  Pb15  1  0.600348  0.600348  0.250000  1
  Pb  Pb16  1  0.399652  0.000000  0.250000  1
  Pb  Pb17  1  0.000000  0.399652  0.250000  1
