# generated using pymatgen
data_TbEr4Pt9
_symmetry_space_group_name_H-M   'P 1'
_cell_length_a   9.75650087
_cell_length_b   9.73243088
_cell_length_c   5.76449100
_cell_angle_alpha   90.00000000
_cell_angle_beta   90.00000000
_cell_angle_gamma   90.08807410
_symmetry_Int_Tables_number   1
_chemical_formula_structural   TbEr4Pt9
_chemical_formula_sum   'Tb2 Er8 Pt18'
_cell_volume   547.36354340
_cell_formula_units_Z   2
loop_
 _symmetry_equiv_pos_site_id
 _symmetry_equiv_pos_as_xyz
  1  'x, y, z'
loop_
 _atom_site_type_symbol
 _atom_site_label
 _atom_site_symmetry_multiplicity
 _atom_site_fract_x
 _atom_site_fract_y
 _atom_site_fract_z
 _atom_site_occupancy
  Tb  Tb0  1  0.452593  0.808815  0.000000  1
  Tb  Tb1  1  0.547407  0.191185  0.000000  1
  Er  Er2  1  0.190748  0.547243  0.000000  1
  Er  Er3  1  0.809252  0.452757  0.000000  1
  Er  Er4  1  0.500000  0.500000  0.500000  1
  Er  Er5  1  0.308692  0.047506  0.500000  1
  Er  Er6  1  0.691308  0.952494  0.500000  1
  Er  Er7  1  0.952621  0.691006  0.500000  1
  Er  Er8  1  0.047379  0.308994  0.500000  1
  Er  Er9  1  0.000000  0.000000  0.000000  1
  Pt  Pt10  1  0.190943  0.808072  0.251312  1
  Pt  Pt11  1  0.809057  0.191928  0.748688  1
  Pt  Pt12  1  0.809057  0.191928  0.251312  1
  Pt  Pt13  1  0.190943  0.808072  0.748688  1
  Pt  Pt14  1  0.440982  0.781916  0.500000  1
  Pt  Pt15  1  0.559018  0.218084  0.500000  1
  Pt  Pt16  1  0.218087  0.558922  0.500000  1
  Pt  Pt17  1  0.781913  0.441078  0.500000  1
  Pt  Pt18  1  0.307275  0.308452  0.249925  1
  Pt  Pt19  1  0.692725  0.691548  0.750075  1
  Pt  Pt20  1  0.692725  0.691548  0.249925  1
  Pt  Pt21  1  0.307275  0.308452  0.750075  1
  Pt  Pt22  1  0.280513  0.059348  0.000000  1
  Pt  Pt23  1  0.719487  0.940652  0.000000  1
  Pt  Pt24  1  0.941194  0.717923  0.000000  1
  Pt  Pt25  1  0.058806  0.282077  0.000000  1
  Pt  Pt26  1  0.000000  0.000000  0.500000  1
  Pt  Pt27  1  0.500000  0.500000  0.000000  1
