# generated using pymatgen
data_LiY6Ho10Cd3Pt4
_symmetry_space_group_name_H-M   'P 1'
_cell_length_a   9.68586277
_cell_length_b   9.68586320
_cell_length_c   9.68586362
_cell_angle_alpha   59.86617982
_cell_angle_beta   59.86617992
_cell_angle_gamma   59.86617522
_symmetry_Int_Tables_number   1
_chemical_formula_structural   LiY6Ho10Cd3Pt4
_chemical_formula_sum   'Li1 Y6 Ho10 Cd3 Pt4'
_cell_volume   640.58859480
_cell_formula_units_Z   1
loop_
 _symmetry_equiv_pos_site_id
 _symmetry_equiv_pos_as_xyz
  1  'x, y, z'
loop_
 _atom_site_type_symbol
 _atom_site_label
 _atom_site_symmetry_multiplicity
 _atom_site_fract_x
 _atom_site_fract_y
 _atom_site_fract_z
 _atom_site_occupancy
  Li  Li0  1  0.572117  0.572117  0.572117  1
  Y  Y1  1  0.936821  0.564623  0.564623  1
  Y  Y2  1  0.563147  0.936583  0.936583  1
  Y  Y3  1  0.564623  0.936821  0.564623  1
  Y  Y4  1  0.936583  0.563147  0.936583  1
  Y  Y5  1  0.564623  0.564623  0.936821  1
  Y  Y6  1  0.936583  0.936583  0.563147  1
  Ho  Ho7  1  0.350896  0.350896  0.350896  1
  Ho  Ho8  1  0.352096  0.352096  0.944742  1
  Ho  Ho9  1  0.352096  0.944742  0.352096  1
  Ho  Ho10  1  0.944742  0.352096  0.352096  1
  Ho  Ho11  1  0.810050  0.191573  0.191573  1
  Ho  Ho12  1  0.187713  0.812713  0.812713  1
  Ho  Ho13  1  0.191573  0.810050  0.191573  1
  Ho  Ho14  1  0.812713  0.187713  0.812713  1
  Ho  Ho15  1  0.191573  0.191573  0.810050  1
  Ho  Ho16  1  0.812713  0.812713  0.187713  1
  Cd  Cd17  1  0.582012  0.582012  0.254428  1
  Cd  Cd18  1  0.582012  0.254428  0.582012  1
  Cd  Cd19  1  0.254428  0.582012  0.582012  1
  Pt  Pt20  1  0.143973  0.143973  0.143973  1
  Pt  Pt21  1  0.142873  0.142873  0.571169  1
  Pt  Pt22  1  0.142873  0.571169  0.142873  1
  Pt  Pt23  1  0.571169  0.142873  0.142873  1
