# generated using pymatgen
data_Dy6Nb5Ga11Os7
_symmetry_space_group_name_H-M   'P 1'
_cell_length_a   9.09836978
_cell_length_b   9.09837048
_cell_length_c   9.03015371
_cell_angle_alpha   59.74979065
_cell_angle_beta   59.74978984
_cell_angle_gamma   60.00000162
_symmetry_Int_Tables_number   1
_chemical_formula_structural   Dy6Nb5Ga11Os7
_chemical_formula_sum   'Dy6 Nb5 Ga11 Os7'
_cell_volume   526.56803246
_cell_formula_units_Z   1
loop_
 _symmetry_equiv_pos_site_id
 _symmetry_equiv_pos_as_xyz
  1  'x, y, z'
loop_
 _atom_site_type_symbol
 _atom_site_label
 _atom_site_symmetry_multiplicity
 _atom_site_fract_x
 _atom_site_fract_y
 _atom_site_fract_z
 _atom_site_occupancy
  Dy  Dy0  1  0.707851  0.707851  0.294485  1
  Dy  Dy1  1  0.289811  0.707851  0.294485  1
  Dy  Dy2  1  0.707851  0.289811  0.294485  1
  Dy  Dy3  1  0.296562  0.296562  0.710791  1
  Dy  Dy4  1  0.696084  0.296562  0.710791  1
  Dy  Dy5  1  0.296562  0.696084  0.710791  1
  Nb  Nb6  1  0.878167  0.878167  0.365500  1
  Nb  Nb7  1  0.875489  0.368812  0.880212  1
  Nb  Nb8  1  0.368812  0.875489  0.880212  1
  Nb  Nb9  1  0.875489  0.875489  0.880212  1
  Nb  Nb10  1  0.127884  0.127884  0.616348  1
  Ga  Ga11  1  0.116398  0.647937  0.119266  1
  Ga  Ga12  1  0.647937  0.116398  0.119266  1
  Ga  Ga13  1  0.116398  0.116398  0.119266  1
  Ga  Ga14  1  0.661437  0.661437  0.015691  1
  Ga  Ga15  1  0.663828  0.009797  0.662545  1
  Ga  Ga16  1  0.009797  0.663828  0.662545  1
  Ga  Ga17  1  0.663828  0.663828  0.662545  1
  Ga  Ga18  1  0.333179  0.333179  0.000463  1
  Ga  Ga19  1  0.337884  0.992376  0.331855  1
  Ga  Ga20  1  0.992376  0.337884  0.331855  1
  Ga  Ga21  1  0.337884  0.337884  0.331855  1
  Os  Os22  1  0.007176  0.007176  0.978471  1
  Os  Os23  1  0.998392  0.998392  0.508629  1
  Os  Os24  1  0.494586  0.998392  0.508629  1
  Os  Os25  1  0.998392  0.494586  0.508629  1
  Os  Os26  1  0.502280  0.502280  0.000058  1
  Os  Os27  1  0.995382  0.502280  0.000058  1
  Os  Os28  1  0.502280  0.995382  0.000058  1
