# generated using pymatgen
data_Ti6Ge2CN
_symmetry_space_group_name_H-M   'P 1'
_cell_length_a   5.51424605
_cell_length_b   5.51424610
_cell_length_c   8.23277788
_cell_angle_alpha   90.41916412
_cell_angle_beta   89.58083593
_cell_angle_gamma   146.51295761
_symmetry_Int_Tables_number   1
_chemical_formula_structural   Ti6Ge2CN
_chemical_formula_sum   'Ti6 Ge2 C1 N1'
_cell_volume   138.11698232
_cell_formula_units_Z   1
loop_
 _symmetry_equiv_pos_site_id
 _symmetry_equiv_pos_as_xyz
  1  'x, y, z'
loop_
 _atom_site_type_symbol
 _atom_site_label
 _atom_site_symmetry_multiplicity
 _atom_site_fract_x
 _atom_site_fract_y
 _atom_site_fract_z
 _atom_site_occupancy
  Ti  Ti0  1  0.873568  0.126430  0.043549  1
  Ti  Ti1  1  0.545360  0.454638  0.248274  1
  Ti  Ti2  1  0.872679  0.127319  0.452715  1
  Ti  Ti3  1  0.127319  0.872679  0.547286  1
  Ti  Ti4  1  0.454638  0.545360  0.751726  1
  Ti  Ti5  1  0.126430  0.873568  0.956450  1
  Ge  Ge6  1  0.247391  0.752607  0.248589  1
  Ge  Ge7  1  0.752607  0.247391  0.751411  1
  C  C8  1  0.499999  0.499999  0.500000  1
  N  N9  1  0.499999  0.499999  0.000000  1
