# generated using pymatgen
data_Tb7Dy3(SiHg)4
_symmetry_space_group_name_H-M   'P 1'
_cell_length_a   8.81250688
_cell_length_b   8.81199222
_cell_length_c   7.58687901
_cell_angle_alpha   89.99624285
_cell_angle_beta   90.00593267
_cell_angle_gamma   129.13555476
_symmetry_Int_Tables_number   1
_chemical_formula_structural   Tb7Dy3(SiHg)4
_chemical_formula_sum   'Tb7 Dy3 Si4 Hg4'
_cell_volume   456.98849502
_cell_formula_units_Z   1
loop_
 _symmetry_equiv_pos_site_id
 _symmetry_equiv_pos_as_xyz
  1  'x, y, z'
loop_
 _atom_site_type_symbol
 _atom_site_label
 _atom_site_symmetry_multiplicity
 _atom_site_fract_x
 _atom_site_fract_y
 _atom_site_fract_z
 _atom_site_occupancy
  Tb  Tb0  1  0.055893  0.310595  0.323786  1
  Tb  Tb1  1  0.944157  0.689429  0.676197  1
  Tb  Tb2  1  0.444088  0.189371  0.823762  1
  Tb  Tb3  1  0.810622  0.555900  0.176252  1
  Tb  Tb4  1  0.555864  0.810599  0.176245  1
  Tb  Tb5  1  0.189389  0.444107  0.823774  1
  Tb  Tb6  1  0.689414  0.944109  0.676221  1
  Dy  Dy7  1  0.310503  0.055859  0.323816  1
  Dy  Dy8  1  0.000039  0.999996  0.000033  1
  Dy  Dy9  1  0.499984  0.499970  0.499989  1
  Si  Si10  1  0.381847  0.381758  0.121550  1
  Si  Si11  1  0.618140  0.618130  0.878521  1
  Si  Si12  1  0.118169  0.118122  0.621386  1
  Si  Si13  1  0.881967  0.881921  0.378519  1
  Hg  Hg14  1  0.781681  0.218331  0.999999  1
  Hg  Hg15  1  0.218349  0.781752  0.000078  1
  Hg  Hg16  1  0.718200  0.281612  0.499932  1
  Hg  Hg17  1  0.281693  0.718441  0.499939  1
