# generated using pymatgen
data_Er16Cd4Ni3Os
_symmetry_space_group_name_H-M   'P 1'
_cell_length_a   9.50036312
_cell_length_b   9.50036255
_cell_length_c   9.50036381
_cell_angle_alpha   59.49207380
_cell_angle_beta   59.49207480
_cell_angle_gamma   59.49207870
_symmetry_Int_Tables_number   1
_chemical_formula_structural   Er16Cd4Ni3Os
_chemical_formula_sum   'Er16 Cd4 Ni3 Os1'
_cell_volume   599.32086782
_cell_formula_units_Z   1
loop_
 _symmetry_equiv_pos_site_id
 _symmetry_equiv_pos_as_xyz
  1  'x, y, z'
loop_
 _atom_site_type_symbol
 _atom_site_label
 _atom_site_symmetry_multiplicity
 _atom_site_fract_x
 _atom_site_fract_y
 _atom_site_fract_z
 _atom_site_occupancy
  Er  Er0  1  0.347122  0.347122  0.347122  1
  Er  Er1  1  0.351838  0.351838  0.953680  1
  Er  Er2  1  0.351838  0.953680  0.351838  1
  Er  Er3  1  0.953680  0.351838  0.351838  1
  Er  Er4  1  0.810233  0.187873  0.187873  1
  Er  Er5  1  0.186120  0.811278  0.811278  1
  Er  Er6  1  0.187873  0.810233  0.187873  1
  Er  Er7  1  0.811278  0.186120  0.811278  1
  Er  Er8  1  0.187873  0.187873  0.810233  1
  Er  Er9  1  0.811278  0.811278  0.186120  1
  Er  Er10  1  0.935213  0.566539  0.566539  1
  Er  Er11  1  0.557004  0.939597  0.939597  1
  Er  Er12  1  0.566539  0.935213  0.566539  1
  Er  Er13  1  0.939597  0.557004  0.939597  1
  Er  Er14  1  0.566539  0.566539  0.935213  1
  Er  Er15  1  0.939597  0.939597  0.557004  1
  Cd  Cd16  1  0.580091  0.580091  0.580091  1
  Cd  Cd17  1  0.579579  0.579579  0.255333  1
  Cd  Cd18  1  0.579579  0.255333  0.579579  1
  Cd  Cd19  1  0.255333  0.579579  0.579579  1
  Ni  Ni20  1  0.141571  0.141571  0.574995  1
  Ni  Ni21  1  0.141571  0.574995  0.141571  1
  Ni  Ni22  1  0.574995  0.141571  0.141571  1
  Os  Os23  1  0.143660  0.143660  0.143660  1
