# generated using pymatgen
data_Nb4Si4IrPd2Ru
_symmetry_space_group_name_H-M   'P 1'
_cell_length_a   3.79787300
_cell_length_b   6.47964118
_cell_length_c   7.41941921
_cell_angle_alpha   89.97275809
_cell_angle_beta   90.00000000
_cell_angle_gamma   90.00000000
_symmetry_Int_Tables_number   1
_chemical_formula_structural   Nb4Si4IrPd2Ru
_chemical_formula_sum   'Nb4 Si4 Ir1 Pd2 Ru1'
_cell_volume   182.58338568
_cell_formula_units_Z   1
loop_
 _symmetry_equiv_pos_site_id
 _symmetry_equiv_pos_as_xyz
  1  'x, y, z'
loop_
 _atom_site_type_symbol
 _atom_site_label
 _atom_site_symmetry_multiplicity
 _atom_site_fract_x
 _atom_site_fract_y
 _atom_site_fract_z
 _atom_site_occupancy
  Nb  Nb0  1  0.750000  0.524440  0.827966  1
  Nb  Nb1  1  0.250000  0.972451  0.328572  1
  Nb  Nb2  1  0.750000  0.027328  0.669094  1
  Nb  Nb3  1  0.250000  0.471499  0.173882  1
  Si  Si4  1  0.250000  0.231999  0.866693  1
  Si  Si5  1  0.250000  0.729735  0.630826  1
  Si  Si6  1  0.750000  0.764125  0.122838  1
  Si  Si7  1  0.750000  0.264377  0.379812  1
  Ir  Ir8  1  0.250000  0.855877  0.941266  1
  Pd  Pd9  1  0.750000  0.649683  0.436038  1
  Pd  Pd10  1  0.750000  0.150731  0.063668  1
  Ru  Ru11  1  0.250000  0.357752  0.559345  1
