# generated using pymatgen
data_Zn4Os7RuO24
_symmetry_space_group_name_H-M   'P 1'
_cell_length_a   4.62286820
_cell_length_b   10.45076992
_cell_length_c   9.22577135
_cell_angle_alpha   63.80584588
_cell_angle_beta   89.96258135
_cell_angle_gamma   89.98223661
_symmetry_Int_Tables_number   1
_chemical_formula_structural   Zn4Os7RuO24
_chemical_formula_sum   'Zn4 Os7 Ru1 O24'
_cell_volume   399.94632627
_cell_formula_units_Z   1
loop_
 _symmetry_equiv_pos_site_id
 _symmetry_equiv_pos_as_xyz
  1  'x, y, z'
loop_
 _atom_site_type_symbol
 _atom_site_label
 _atom_site_symmetry_multiplicity
 _atom_site_fract_x
 _atom_site_fract_y
 _atom_site_fract_z
 _atom_site_occupancy
  Zn  Zn0  1  0.999048  0.999924  0.498206  1
  Zn  Zn1  1  0.500009  0.500159  0.999921  1
  Zn  Zn2  1  0.000911  0.999939  0.001851  1
  Zn  Zn3  1  0.499999  0.502080  0.498965  1
  Os  Os4  1  0.001192  0.670539  0.662947  1
  Os  Os5  1  0.998784  0.670517  0.166495  1
  Os  Os6  1  0.000029  0.331149  0.334187  1
  Os  Os7  1  0.000023  0.331165  0.834674  1
  Os  Os8  1  0.500023  0.167508  0.166271  1
  Os  Os9  1  0.500027  0.169728  0.665154  1
  Os  Os10  1  0.499967  0.830085  0.834949  1
  Ru  Ru11  1  0.499949  0.830241  0.334804  1
  O  O12  1  0.316788  0.002864  0.341493  1
  O  O13  1  0.316406  0.000323  0.840767  1
  O  O14  1  0.683584  0.000322  0.658926  1
  O  O15  1  0.683250  0.002875  0.155657  1
  O  O16  1  0.181441  0.500160  0.841731  1
  O  O17  1  0.182989  0.500067  0.341240  1
  O  O18  1  0.818546  0.500144  0.158108  1
  O  O19  1  0.817032  0.500079  0.658723  1
  O  O20  1  0.294185  0.320996  0.192499  1
  O  O21  1  0.295001  0.322521  0.692011  1
  O  O22  1  0.206536  0.822303  0.691709  1
  O  O23  1  0.200040  0.822557  0.189455  1
  O  O24  1  0.294134  0.676422  0.014354  1
  O  O25  1  0.294655  0.673765  0.516902  1
  O  O26  1  0.205565  0.178105  0.013641  1
  O  O27  1  0.204883  0.178433  0.514110  1
  O  O28  1  0.793415  0.822302  0.985973  1
  O  O29  1  0.799873  0.822537  0.487947  1
  O  O30  1  0.705865  0.320991  0.986512  1
  O  O31  1  0.705017  0.322512  0.485504  1
  O  O32  1  0.705849  0.676422  0.809209  1
  O  O33  1  0.705317  0.673752  0.309319  1
  O  O34  1  0.794487  0.178075  0.308298  1
  O  O35  1  0.795180  0.178441  0.807488  1
