# generated using pymatgen
data_Ho2LuAlGa4Ni
_symmetry_space_group_name_H-M   'P 1'
_cell_length_a   6.80529226
_cell_length_b   6.89079715
_cell_length_c   4.22424500
_cell_angle_alpha   90.00000000
_cell_angle_beta   90.00000000
_cell_angle_gamma   119.99744623
_symmetry_Int_Tables_number   1
_chemical_formula_structural   Ho2LuAlGa4Ni
_chemical_formula_sum   'Ho2 Lu1 Al1 Ga4 Ni1'
_cell_volume   171.55649008
_cell_formula_units_Z   1
loop_
 _symmetry_equiv_pos_site_id
 _symmetry_equiv_pos_as_xyz
  1  'x, y, z'
loop_
 _atom_site_type_symbol
 _atom_site_label
 _atom_site_symmetry_multiplicity
 _atom_site_fract_x
 _atom_site_fract_y
 _atom_site_fract_z
 _atom_site_occupancy
  Ho  Ho0  1  0.594740  0.001361  0.500000  1
  Ho  Ho1  1  0.407024  0.409153  0.500000  1
  Lu  Lu2  1  0.999297  0.594688  0.500000  1
  Al  Al3  1  0.228662  0.999589  0.000000  1
  Ga  Ga4  1  0.003487  0.238849  0.000000  1
  Ga  Ga5  1  0.666538  0.331343  0.000000  1
  Ga  Ga6  1  0.330409  0.669227  0.000000  1
  Ga  Ga7  1  0.764636  0.760993  0.000000  1
  Ni  Ni8  1  0.005208  0.994798  0.500000  1
