# generated using pymatgen
data_Zr7Nb3Si8
_symmetry_space_group_name_H-M   'P 1'
_cell_length_a   7.03117037
_cell_length_b   7.02970416
_cell_length_c   12.96188898
_cell_angle_alpha   90.02444304
_cell_angle_beta   90.03724342
_cell_angle_gamma   89.99903437
_symmetry_Int_Tables_number   1
_chemical_formula_structural   Zr7Nb3Si8
_chemical_formula_sum   'Zr14 Nb6 Si16'
_cell_volume   640.66770999
_cell_formula_units_Z   2
loop_
 _symmetry_equiv_pos_site_id
 _symmetry_equiv_pos_as_xyz
  1  'x, y, z'
loop_
 _atom_site_type_symbol
 _atom_site_label
 _atom_site_symmetry_multiplicity
 _atom_site_fract_x
 _atom_site_fract_y
 _atom_site_fract_z
 _atom_site_occupancy
  Zr  Zr0  1  0.999730  0.655931  0.031300  1
  Zr  Zr1  1  0.001191  0.345027  0.534709  1
  Zr  Zr2  1  0.653514  0.999260  0.968310  1
  Zr  Zr3  1  0.155791  0.500471  0.785100  1
  Zr  Zr4  1  0.845944  0.499285  0.280832  1
  Zr  Zr5  1  0.497586  0.152640  0.215406  1
  Zr  Zr6  1  0.500184  0.846471  0.719149  1
  Zr  Zr7  1  0.347547  0.996626  0.465637  1
  Zr  Zr8  1  0.354277  0.501172  0.375936  1
  Zr  Zr9  1  0.852065  0.994000  0.372280  1
  Zr  Zr10  1  0.000762  0.146783  0.126548  1
  Zr  Zr11  1  0.998752  0.852354  0.626365  1
  Zr  Zr12  1  0.648188  0.498415  0.876787  1
  Zr  Zr13  1  0.502809  0.351434  0.624857  1
  Nb  Nb14  1  0.489910  0.648748  0.123076  1
  Nb  Nb15  1  0.149117  0.005904  0.875640  1
  Nb  Nb16  1  0.674391  0.672803  0.499261  1
  Nb  Nb17  1  0.828612  0.173269  0.751248  1
  Nb  Nb18  1  0.172779  0.824764  0.247911  1
  Nb  Nb19  1  0.325509  0.328601  0.999974  1
  Si  Si20  1  0.047352  0.696427  0.435271  1
  Si  Si21  1  0.954168  0.297787  0.935826  1
  Si  Si22  1  0.698815  0.045281  0.563955  1
  Si  Si23  1  0.200220  0.454763  0.184772  1
  Si  Si24  1  0.802070  0.547802  0.686346  1
  Si  Si25  1  0.450861  0.198159  0.815732  1
  Si  Si26  1  0.545220  0.799520  0.310703  1
  Si  Si27  1  0.299683  0.951599  0.062695  1
  Si  Si28  1  0.862409  0.799168  0.823814  1
  Si  Si29  1  0.144466  0.203761  0.321234  1
  Si  Si30  1  0.787481  0.853943  0.174816  1
  Si  Si31  1  0.298037  0.645066  0.571453  1
  Si  Si32  1  0.701942  0.363506  0.073671  1
  Si  Si33  1  0.646819  0.294819  0.428650  1
  Si  Si34  1  0.357282  0.711086  0.928223  1
  Si  Si35  1  0.204519  0.143355  0.682517  1
