# generated using pymatgen
data_Tb8Ho12Sn15Bi
_symmetry_space_group_name_H-M   'P 1'
_cell_length_a   8.07176014
_cell_length_b   8.18265709
_cell_length_c   15.44584697
_cell_angle_alpha   90.09720007
_cell_angle_beta   90.53278875
_cell_angle_gamma   90.02073891
_symmetry_Int_Tables_number   1
_chemical_formula_structural   Tb8Ho12Sn15Bi
_chemical_formula_sum   'Tb8 Ho12 Sn15 Bi1'
_cell_volume   1020.12853185
_cell_formula_units_Z   1
loop_
 _symmetry_equiv_pos_site_id
 _symmetry_equiv_pos_as_xyz
  1  'x, y, z'
loop_
 _atom_site_type_symbol
 _atom_site_label
 _atom_site_symmetry_multiplicity
 _atom_site_fract_x
 _atom_site_fract_y
 _atom_site_fract_z
 _atom_site_occupancy
  Tb  Tb0  1  0.526515  0.325446  0.900066  1
  Tb  Tb1  1  0.019972  0.178398  0.597310  1
  Tb  Tb2  1  0.480196  0.677987  0.402941  1
  Tb  Tb3  1  0.968796  0.818953  0.100704  1
  Tb  Tb4  1  0.477615  0.673170  0.099041  1
  Tb  Tb5  1  0.979673  0.821420  0.402737  1
  Tb  Tb6  1  0.519976  0.320978  0.597036  1
  Tb  Tb7  1  0.019972  0.181430  0.899417  1
  Ho  Ho8  1  0.372599  0.835177  0.876608  1
  Ho  Ho9  1  0.867719  0.663630  0.622346  1
  Ho  Ho10  1  0.633615  0.162553  0.376914  1
  Ho  Ho11  1  0.128822  0.342569  0.122796  1
  Ho  Ho12  1  0.634286  0.162269  0.122226  1
  Ho  Ho13  1  0.133832  0.337739  0.377196  1
  Ho  Ho14  1  0.366132  0.837878  0.622834  1
  Ho  Ho15  1  0.869101  0.662264  0.877999  1
  Ho  Ho16  1  0.198893  0.502864  0.749720  1
  Ho  Ho17  1  0.698866  0.997368  0.750255  1
  Ho  Ho18  1  0.800849  0.497064  0.250957  1
  Ho  Ho19  1  0.301428  0.002400  0.253146  1
  Sn  Sn20  1  0.794835  0.461206  0.458462  1
  Sn  Sn21  1  0.704998  0.961763  0.541560  1
  Sn  Sn22  1  0.210275  0.536029  0.957815  1
  Sn  Sn23  1  0.712847  0.964919  0.957524  1
  Sn  Sn24  1  0.205523  0.538180  0.541726  1
  Sn  Sn25  1  0.295132  0.038669  0.458702  1
  Sn  Sn26  1  0.790952  0.462850  0.042051  1
  Sn  Sn27  1  0.565933  0.620625  0.749071  1
  Sn  Sn28  1  0.065583  0.880090  0.751351  1
  Sn  Sn29  1  0.434879  0.378022  0.248846  1
  Sn  Sn30  1  0.935979  0.120370  0.249012  1
  Sn  Sn31  1  0.331216  0.147232  0.749754  1
  Sn  Sn32  1  0.830334  0.353660  0.748182  1
  Sn  Sn33  1  0.667174  0.851626  0.250727  1
  Sn  Sn34  1  0.168769  0.648605  0.250737  1
  Bi  Bi35  1  0.286713  0.034598  0.042231  1
