# generated using pymatgen
data_Er3Al3CuSiNi
_symmetry_space_group_name_H-M   'P 1'
_cell_length_a   6.86315700
_cell_length_b   6.86315648
_cell_length_c   4.07431100
_cell_angle_alpha   90.00000000
_cell_angle_beta   90.00000000
_cell_angle_gamma   119.99999769
_symmetry_Int_Tables_number   1
_chemical_formula_structural   Er3Al3CuSiNi
_chemical_formula_sum   'Er3 Al3 Cu1 Si1 Ni1'
_cell_volume   166.20062514
_cell_formula_units_Z   1
loop_
 _symmetry_equiv_pos_site_id
 _symmetry_equiv_pos_as_xyz
  1  'x, y, z'
loop_
 _atom_site_type_symbol
 _atom_site_label
 _atom_site_symmetry_multiplicity
 _atom_site_fract_x
 _atom_site_fract_y
 _atom_site_fract_z
 _atom_site_occupancy
  Er  Er0  1  0.412596  0.002987  0.500000  1
  Er  Er1  1  0.997013  0.409609  0.500000  1
  Er  Er2  1  0.590391  0.587404  0.500000  1
  Al  Al3  1  0.767466  0.005365  0.000000  1
  Al  Al4  1  0.994635  0.762102  0.000000  1
  Al  Al5  1  0.237898  0.232534  0.000000  1
  Cu  Cu6  1  0.666667  0.333333  0.000000  1
  Si  Si7  1  0.333333  0.666667  0.000000  1
  Ni  Ni8  1  0.000000  0.000000  0.500000  1
