# generated using pymatgen
data_Sm2Nb2Co5(P2Ru)3
_symmetry_space_group_name_H-M   'P 1'
_cell_length_a   3.73256800
_cell_length_b   10.81855100
_cell_length_c   12.36893000
_cell_angle_alpha   90.00000000
_cell_angle_beta   90.00000000
_cell_angle_gamma   90.00000000
_symmetry_Int_Tables_number   1
_chemical_formula_structural   Sm2Nb2Co5(P2Ru)3
_chemical_formula_sum   'Sm4 Nb4 Co10 P12 Ru6'
_cell_volume   499.46948117
_cell_formula_units_Z   2
loop_
 _symmetry_equiv_pos_site_id
 _symmetry_equiv_pos_as_xyz
  1  'x, y, z'
loop_
 _atom_site_type_symbol
 _atom_site_label
 _atom_site_symmetry_multiplicity
 _atom_site_fract_x
 _atom_site_fract_y
 _atom_site_fract_z
 _atom_site_occupancy
  Sm  Sm0  1  0.250000  0.583740  0.709271  1
  Sm  Sm1  1  0.250000  0.916260  0.209271  1
  Sm  Sm2  1  0.750000  0.419132  0.291044  1
  Sm  Sm3  1  0.750000  0.080868  0.791044  1
  Nb  Nb4  1  0.250000  0.700775  0.987614  1
  Nb  Nb5  1  0.250000  0.799225  0.487614  1
  Nb  Nb6  1  0.750000  0.300709  0.011331  1
  Nb  Nb7  1  0.750000  0.199291  0.511331  1
  Co  Co8  1  0.750000  0.774684  0.820420  1
  Co  Co9  1  0.750000  0.725316  0.320420  1
  Co  Co10  1  0.250000  0.882504  0.696673  1
  Co  Co11  1  0.250000  0.617496  0.196673  1
  Co  Co12  1  0.750000  0.110293  0.306834  1
  Co  Co13  1  0.750000  0.389707  0.806834  1
  Co  Co14  1  0.250000  0.465531  0.936326  1
  Co  Co15  1  0.250000  0.034469  0.436326  1
  Co  Co16  1  0.750000  0.537562  0.065331  1
  Co  Co17  1  0.750000  0.962438  0.565331  1
  P  P18  1  0.250000  0.429104  0.114804  1
  P  P19  1  0.250000  0.070896  0.614804  1
  P  P20  1  0.750000  0.575964  0.885157  1
  P  P21  1  0.750000  0.924036  0.385157  1
  P  P22  1  0.250000  0.271841  0.865593  1
  P  P23  1  0.250000  0.228159  0.365593  1
  P  P24  1  0.750000  0.727024  0.138594  1
  P  P25  1  0.750000  0.772976  0.638594  1
  P  P26  1  0.250000  0.597968  0.381813  1
  P  P27  1  0.250000  0.902032  0.881813  1
  P  P28  1  0.750000  0.406133  0.614765  1
  P  P29  1  0.750000  0.093867  0.114765  1
  Ru  Ru30  1  0.250000  0.405808  0.487085  1
  Ru  Ru31  1  0.250000  0.094192  0.987085  1
  Ru  Ru32  1  0.750000  0.599422  0.508539  1
  Ru  Ru33  1  0.750000  0.900578  0.008539  1
  Ru  Ru34  1  0.250000  0.222232  0.178808  1
  Ru  Ru35  1  0.250000  0.277768  0.678808  1
