# generated using pymatgen
data_La3Er(MoO6)2
_symmetry_space_group_name_H-M   'P 1'
_cell_length_a   5.57706123
_cell_length_b   10.28792653
_cell_length_c   10.28800050
_cell_angle_alpha   68.62425632
_cell_angle_beta   75.04521476
_cell_angle_gamma   75.04545859
_symmetry_Int_Tables_number   1
_chemical_formula_structural   La3Er(MoO6)2
_chemical_formula_sum   'La6 Er2 Mo4 O24'
_cell_volume   522.16720172
_cell_formula_units_Z   2
loop_
 _symmetry_equiv_pos_site_id
 _symmetry_equiv_pos_as_xyz
  1  'x, y, z'
loop_
 _atom_site_type_symbol
 _atom_site_label
 _atom_site_symmetry_multiplicity
 _atom_site_fract_x
 _atom_site_fract_y
 _atom_site_fract_z
 _atom_site_occupancy
  La  La0  1  0.618865  0.786267  0.552579  1
  La  La1  1  0.118834  0.552575  0.786283  1
  La  La2  1  0.381152  0.213723  0.447413  1
  La  La3  1  0.881163  0.447425  0.213717  1
  La  La4  1  0.750021  0.862597  0.137399  1
  La  La5  1  0.249978  0.137415  0.862597  1
  Er  Er6  1  0.749990  0.399172  0.600825  1
  Er  Er7  1  0.250004  0.600834  0.399173  1
  Mo  Mo8  1  0.065019  0.006905  0.297809  1
  Mo  Mo9  1  0.434990  0.702200  0.993086  1
  Mo  Mo10  1  0.934989  0.993095  0.702192  1
  Mo  Mo11  1  0.565029  0.297807  0.006916  1
  O  O12  1  0.926078  0.568509  0.603817  1
  O  O13  1  0.573921  0.396173  0.431488  1
  O  O14  1  0.073932  0.431486  0.396178  1
  O  O15  1  0.426069  0.603822  0.568517  1
  O  O16  1  0.942998  0.804478  0.338151  1
  O  O17  1  0.557008  0.661841  0.195521  1
  O  O18  1  0.056995  0.195519  0.661847  1
  O  O19  1  0.443001  0.338162  0.804466  1
  O  O20  1  0.371456  0.888837  0.329578  1
  O  O21  1  0.128536  0.670426  0.111162  1
  O  O22  1  0.628533  0.111157  0.670429  1
  O  O23  1  0.871459  0.329580  0.888843  1
  O  O24  1  0.632994  0.288941  0.175272  1
  O  O25  1  0.867010  0.824725  0.711054  1
  O  O26  1  0.367007  0.711057  0.824732  1
  O  O27  1  0.132979  0.175267  0.288946  1
  O  O28  1  0.519660  0.118480  0.043935  1
  O  O29  1  0.980334  0.956065  0.881525  1
  O  O30  1  0.767070  0.022507  0.426730  1
  O  O31  1  0.019672  0.043934  0.118475  1
  O  O32  1  0.267076  0.426731  0.022506  1
  O  O33  1  0.232933  0.977492  0.573275  1
  O  O34  1  0.732923  0.573269  0.977498  1
  O  O35  1  0.480328  0.881527  0.956072  1
