# generated using pymatgen
data_U8TaNb9(Si8W)2
_symmetry_space_group_name_H-M   'P 1'
_cell_length_a   7.00978119
_cell_length_b   7.01346049
_cell_length_c   12.95064513
_cell_angle_alpha   89.98494879
_cell_angle_beta   90.04542646
_cell_angle_gamma   90.09581845
_symmetry_Int_Tables_number   1
_chemical_formula_structural   U8TaNb9(Si8W)2
_chemical_formula_sum   'U8 Ta1 Nb9 Si16 W2'
_cell_volume   636.68916746
_cell_formula_units_Z   1
loop_
 _symmetry_equiv_pos_site_id
 _symmetry_equiv_pos_as_xyz
  1  'x, y, z'
loop_
 _atom_site_type_symbol
 _atom_site_label
 _atom_site_symmetry_multiplicity
 _atom_site_fract_x
 _atom_site_fract_y
 _atom_site_fract_z
 _atom_site_occupancy
  U  U0  1  0.994293  0.329396  0.219840  1
  U  U1  1  0.005665  0.670699  0.719865  1
  U  U2  1  0.168759  0.494491  0.468978  1
  U  U3  1  0.504712  0.832539  0.030752  1
  U  U4  1  0.831701  0.505180  0.968894  1
  U  U5  1  0.495009  0.167809  0.530794  1
  U  U6  1  0.329795  0.994594  0.780092  1
  U  U7  1  0.670240  0.005268  0.280194  1
  Ta  Ta8  1  0.166939  0.166850  0.999680  1
  Nb  Nb9  1  0.832869  0.833073  0.499762  1
  Nb  Nb10  1  0.330049  0.668402  0.250485  1
  Nb  Nb11  1  0.669832  0.331461  0.750670  1
  Nb  Nb12  1  0.499363  0.659866  0.624486  1
  Nb  Nb13  1  0.341900  0.500708  0.875914  1
  Nb  Nb14  1  0.500420  0.339654  0.124314  1
  Nb  Nb15  1  0.657703  0.499108  0.375830  1
  Nb  Nb16  1  0.001876  0.156861  0.625221  1
  Nb  Nb17  1  0.998362  0.843253  0.124915  1
  Si  Si18  1  0.294747  0.038559  0.186167  1
  Si  Si19  1  0.705199  0.961606  0.686417  1
  Si  Si20  1  0.458528  0.797533  0.433910  1
  Si  Si21  1  0.203440  0.538611  0.065520  1
  Si  Si22  1  0.540692  0.202350  0.933923  1
  Si  Si23  1  0.796312  0.460646  0.565680  1
  Si  Si24  1  0.037912  0.293221  0.815645  1
  Si  Si25  1  0.962281  0.706866  0.315556  1
  Si  Si26  1  0.370728  0.289621  0.316951  1
  Si  Si27  1  0.629431  0.710266  0.816978  1
  Si  Si28  1  0.205600  0.871197  0.563669  1
  Si  Si29  1  0.125494  0.796193  0.933730  1
  Si  Si30  1  0.794972  0.129080  0.063626  1
  Si  Si31  1  0.874793  0.204351  0.433787  1
  Si  Si32  1  0.294110  0.372194  0.684124  1
  Si  Si33  1  0.705767  0.627879  0.184090  1
  W  W34  1  0.159009  0.001488  0.374549  1
  W  W35  1  0.841497  0.999127  0.874987  1
