# generated using pymatgen
data_Ta4Al6NiAu
_symmetry_space_group_name_H-M   'P 1'
_cell_length_a   5.17930800
_cell_length_b   5.17930910
_cell_length_c   7.99585700
_cell_angle_alpha   90.00000000
_cell_angle_beta   90.00000000
_cell_angle_gamma   120.00000572
_symmetry_Int_Tables_number   1
_chemical_formula_structural   Ta4Al6NiAu
_chemical_formula_sum   'Ta4 Al6 Ni1 Au1'
_cell_volume   185.75443605
_cell_formula_units_Z   1
loop_
 _symmetry_equiv_pos_site_id
 _symmetry_equiv_pos_as_xyz
  1  'x, y, z'
loop_
 _atom_site_type_symbol
 _atom_site_label
 _atom_site_symmetry_multiplicity
 _atom_site_fract_x
 _atom_site_fract_y
 _atom_site_fract_z
 _atom_site_occupancy
  Ta  Ta0  1  0.666666  0.333333  0.070868  1
  Ta  Ta1  1  0.666666  0.333333  0.427510  1
  Ta  Ta2  1  0.333334  0.666667  0.572488  1
  Ta  Ta3  1  0.333334  0.666667  0.929132  1
  Al  Al4  1  0.170528  0.341056  0.262819  1
  Al  Al5  1  0.170528  0.829471  0.262819  1
  Al  Al6  1  0.658943  0.829471  0.262819  1
  Al  Al7  1  0.341056  0.170527  0.737181  1
  Al  Al8  1  0.829470  0.170527  0.737181  1
  Al  Al9  1  0.829471  0.658944  0.737181  1
  Ni  Ni10  1  0.000000  0.000000  0.499999  1
  Au  Au11  1  0.000000  0.000000  0.000000  1
