# generated using pymatgen
data_YHoP7Ru12
_symmetry_space_group_name_H-M   'P 1'
_cell_length_a   9.40608100
_cell_length_b   9.40608067
_cell_length_c   3.95959500
_cell_angle_alpha   90.00000000
_cell_angle_beta   90.00000000
_cell_angle_gamma   119.99999765
_symmetry_Int_Tables_number   1
_chemical_formula_structural   YHoP7Ru12
_chemical_formula_sum   'Y1 Ho1 P7 Ru12'
_cell_volume   303.38829578
_cell_formula_units_Z   1
loop_
 _symmetry_equiv_pos_site_id
 _symmetry_equiv_pos_as_xyz
  1  'x, y, z'
loop_
 _atom_site_type_symbol
 _atom_site_label
 _atom_site_symmetry_multiplicity
 _atom_site_fract_x
 _atom_site_fract_y
 _atom_site_fract_z
 _atom_site_occupancy
  Y  Y0  1  0.333333  0.666667  0.000000  1
  Ho  Ho1  1  0.666667  0.333333  0.500000  1
  P  P2  1  0.601142  0.718690  0.500000  1
  P  P3  1  0.000000  0.000000  0.000000  1
  P  P4  1  0.281310  0.882452  0.500000  1
  P  P5  1  0.117548  0.398858  0.500000  1
  P  P6  1  0.885112  0.573386  0.000000  1
  P  P7  1  0.426614  0.311727  0.000000  1
  P  P8  1  0.688273  0.114888  0.000000  1
  Ru  Ru9  1  0.556718  0.950576  0.500000  1
  Ru  Ru10  1  0.393860  0.443282  0.500000  1
  Ru  Ru11  1  0.914840  0.121705  0.500000  1
  Ru  Ru12  1  0.206865  0.085160  0.500000  1
  Ru  Ru13  1  0.878295  0.793135  0.500000  1
  Ru  Ru14  1  0.728039  0.892520  0.000000  1
  Ru  Ru15  1  0.107480  0.835518  0.000000  1
  Ru  Ru16  1  0.164482  0.271961  0.000000  1
  Ru  Ru17  1  0.423547  0.066868  0.000000  1
  Ru  Ru18  1  0.933132  0.356680  0.000000  1
  Ru  Ru19  1  0.643320  0.576453  0.000000  1
  Ru  Ru20  1  0.049424  0.606140  0.500000  1
