# generated using pymatgen
data_Y5Hf3(Ni4P3)4
_symmetry_space_group_name_H-M   'P 1'
_cell_length_a   12.33830300
_cell_length_b   12.33830252
_cell_length_c   3.80495900
_cell_angle_alpha   90.00000000
_cell_angle_beta   90.00000000
_cell_angle_gamma   120.00000396
_symmetry_Int_Tables_number   1
_chemical_formula_structural   Y5Hf3(Ni4P3)4
_chemical_formula_sum   'Y5 Hf3 Ni16 P12'
_cell_volume   501.63917125
_cell_formula_units_Z   1
loop_
 _symmetry_equiv_pos_site_id
 _symmetry_equiv_pos_as_xyz
  1  'x, y, z'
loop_
 _atom_site_type_symbol
 _atom_site_label
 _atom_site_symmetry_multiplicity
 _atom_site_fract_x
 _atom_site_fract_y
 _atom_site_fract_z
 _atom_site_occupancy
  Y  Y0  1  0.184349  0.184349  0.500000  1
  Y  Y1  1  0.815651  0.000000  0.500000  1
  Y  Y2  1  0.000000  0.815651  0.500000  1
  Y  Y3  1  0.333333  0.666667  0.000000  1
  Y  Y4  1  0.666667  0.333333  0.000000  1
  Hf  Hf5  1  0.561511  0.561511  0.000000  1
  Hf  Hf6  1  0.438489  0.000000  0.000000  1
  Hf  Hf7  1  0.000000  0.438489  0.000000  1
  Ni  Ni8  1  0.724892  0.724892  0.500000  1
  Ni  Ni9  1  0.275108  0.000000  0.500000  1
  Ni  Ni10  1  0.000000  0.275108  0.500000  1
  Ni  Ni11  1  0.184380  0.376855  0.000000  1
  Ni  Ni12  1  0.623145  0.807525  0.000000  1
  Ni  Ni13  1  0.192475  0.815620  0.000000  1
  Ni  Ni14  1  0.807525  0.623145  0.000000  1
  Ni  Ni15  1  0.815620  0.192475  0.000000  1
  Ni  Ni16  1  0.376855  0.184380  0.000000  1
  Ni  Ni17  1  0.360899  0.484500  0.500000  1
  Ni  Ni18  1  0.515500  0.876400  0.500000  1
  Ni  Ni19  1  0.123600  0.639101  0.500000  1
  Ni  Ni20  1  0.876400  0.515500  0.500000  1
  Ni  Ni21  1  0.639101  0.123600  0.500000  1
  Ni  Ni22  1  0.484500  0.360899  0.500000  1
  Ni  Ni23  1  0.000000  0.000000  0.000000  1
  P  P24  1  0.821959  0.821959  0.000000  1
  P  P25  1  0.178041  0.000000  0.000000  1
  P  P26  1  0.000000  0.178041  0.000000  1
  P  P27  1  0.169885  0.476276  0.500000  1
  P  P28  1  0.523724  0.693609  0.500000  1
  P  P29  1  0.306391  0.830115  0.500000  1
  P  P30  1  0.693609  0.523724  0.500000  1
  P  P31  1  0.830115  0.306391  0.500000  1
  P  P32  1  0.476276  0.169885  0.500000  1
  P  P33  1  0.356562  0.356562  0.000000  1
  P  P34  1  0.643438  0.000000  0.000000  1
  P  P35  1  0.000000  0.643438  0.000000  1
