# generated using pymatgen
data_DyHo4In4PtAu
_symmetry_space_group_name_H-M   'P 1'
_cell_length_a   3.64528500
_cell_length_b   8.16379251
_cell_length_c   18.32162201
_cell_angle_alpha   90.06239965
_cell_angle_beta   90.00000000
_cell_angle_gamma   90.00000000
_symmetry_Int_Tables_number   1
_chemical_formula_structural   DyHo4In4PtAu
_chemical_formula_sum   'Dy2 Ho8 In8 Pt2 Au2'
_cell_volume   545.23924558
_cell_formula_units_Z   2
loop_
 _symmetry_equiv_pos_site_id
 _symmetry_equiv_pos_as_xyz
  1  'x, y, z'
loop_
 _atom_site_type_symbol
 _atom_site_label
 _atom_site_symmetry_multiplicity
 _atom_site_fract_x
 _atom_site_fract_y
 _atom_site_fract_z
 _atom_site_occupancy
  Dy  Dy0  1  0.000000  0.000000  0.000000  1
  Dy  Dy1  1  0.000000  0.500000  0.500000  1
  Ho  Ho2  1  0.000000  0.119494  0.419272  1
  Ho  Ho3  1  0.000000  0.880506  0.580728  1
  Ho  Ho4  1  0.000000  0.384500  0.916260  1
  Ho  Ho5  1  0.000000  0.615500  0.083740  1
  Ho  Ho6  1  0.000000  0.252959  0.216736  1
  Ho  Ho7  1  0.000000  0.747041  0.783264  1
  Ho  Ho8  1  0.000000  0.268249  0.721059  1
  Ho  Ho9  1  0.000000  0.731751  0.278941  1
  In  In10  1  0.500000  0.422069  0.352434  1
  In  In11  1  0.500000  0.577931  0.647566  1
  In  In12  1  0.500000  0.078143  0.852696  1
  In  In13  1  0.500000  0.921857  0.147304  1
  In  In14  1  0.500000  0.291670  0.065489  1
  In  In15  1  0.500000  0.708330  0.934511  1
  In  In16  1  0.500000  0.210019  0.567374  1
  In  In17  1  0.500000  0.789981  0.432626  1
  Pt  Pt18  1  0.500000  0.472283  0.804045  1
  Pt  Pt19  1  0.500000  0.527717  0.195955  1
  Au  Au20  1  0.500000  0.029337  0.302328  1
  Au  Au21  1  0.500000  0.970663  0.697672  1
