# generated using pymatgen
data_LuSc3TcRu7
_symmetry_space_group_name_H-M   'P 1'
_cell_length_a   5.12656209
_cell_length_b   5.23577827
_cell_length_c   8.76311694
_cell_angle_alpha   90.00000073
_cell_angle_beta   89.93457536
_cell_angle_gamma   120.70727559
_symmetry_Int_Tables_number   1
_chemical_formula_structural   LuSc3TcRu7
_chemical_formula_sum   'Lu1 Sc3 Tc1 Ru7'
_cell_volume   202.23521705
_cell_formula_units_Z   1
loop_
 _symmetry_equiv_pos_site_id
 _symmetry_equiv_pos_as_xyz
  1  'x, y, z'
loop_
 _atom_site_type_symbol
 _atom_site_label
 _atom_site_symmetry_multiplicity
 _atom_site_fract_x
 _atom_site_fract_y
 _atom_site_fract_z
 _atom_site_occupancy
  Lu  Lu0  1  0.328561  0.664281  0.433676  1
  Sc  Sc1  1  0.659742  0.329870  0.570768  1
  Sc  Sc2  1  0.660587  0.330293  0.933501  1
  Sc  Sc3  1  0.329728  0.664865  0.065843  1
  Tc  Tc4  1  0.671542  0.835770  0.751254  1
  Ru  Ru5  1  0.983318  0.991659  0.499556  1
  Ru  Ru6  1  0.980785  0.990392  0.999777  1
  Ru  Ru7  1  0.833811  0.169574  0.247651  1
  Ru  Ru8  1  0.833811  0.664238  0.247651  1
  Ru  Ru9  1  0.354266  0.177134  0.247443  1
  Ru  Ru10  1  0.181923  0.832399  0.751440  1
  Ru  Ru11  1  0.181923  0.349525  0.751440  1
