# generated using pymatgen
data_LiHf5Si2(Tc3As2)2
_symmetry_space_group_name_H-M   'P 1'
_cell_length_a   7.76439003
_cell_length_b   7.74752397
_cell_length_c   7.76439122
_cell_angle_alpha   126.64053219
_cell_angle_beta   127.55816452
_cell_angle_gamma   78.14069646
_symmetry_Int_Tables_number   1
_chemical_formula_structural   LiHf5Si2(Tc3As2)2
_chemical_formula_sum   'Li1 Hf5 Si2 Tc6 As4'
_cell_volume   287.74995905
_cell_formula_units_Z   1
loop_
 _symmetry_equiv_pos_site_id
 _symmetry_equiv_pos_as_xyz
  1  'x, y, z'
loop_
 _atom_site_type_symbol
 _atom_site_label
 _atom_site_symmetry_multiplicity
 _atom_site_fract_x
 _atom_site_fract_y
 _atom_site_fract_z
 _atom_site_occupancy
  Li  Li0  1  0.447464  0.647829  0.700365  1
  Hf  Hf1  1  0.550863  0.255514  0.204650  1
  Hf  Hf2  1  0.754535  0.860053  0.605517  1
  Hf  Hf3  1  0.247897  0.850623  0.102725  1
  Hf  Hf4  1  0.051503  0.255966  0.704462  1
  Hf  Hf5  1  0.948353  0.650644  0.202292  1
  Si  Si6  1  0.255873  0.263408  0.507535  1
  Si  Si7  1  0.748590  0.251937  0.003347  1
  Tc  Tc8  1  0.500253  0.504534  0.008174  1
  Tc  Tc9  1  0.996360  0.504534  0.504281  1
  Tc  Tc10  1  0.120777  0.250069  0.119503  1
  Tc  Tc11  1  0.881209  0.004934  0.134554  1
  Tc  Tc12  1  0.370380  0.004934  0.623725  1
  Tc  Tc13  1  0.630566  0.250069  0.629292  1
  As  As14  1  0.336886  0.589312  0.266605  1
  As  As15  1  0.660872  0.912966  0.238054  1
  As  As16  1  0.174912  0.912966  0.752093  1
  As  As17  1  0.822706  0.589312  0.752424  1
