# generated using pymatgen
data_Er2Mn2Co5(NiP2)3
_symmetry_space_group_name_H-M   'P 1'
_cell_length_a   3.66597600
_cell_length_b   10.30341600
_cell_length_c   11.83891300
_cell_angle_alpha   90.00000000
_cell_angle_beta   90.00000000
_cell_angle_gamma   90.00000000
_symmetry_Int_Tables_number   1
_chemical_formula_structural   Er2Mn2Co5(NiP2)3
_chemical_formula_sum   'Er4 Mn4 Co10 Ni6 P12'
_cell_volume   447.18031892
_cell_formula_units_Z   2
loop_
 _symmetry_equiv_pos_site_id
 _symmetry_equiv_pos_as_xyz
  1  'x, y, z'
loop_
 _atom_site_type_symbol
 _atom_site_label
 _atom_site_symmetry_multiplicity
 _atom_site_fract_x
 _atom_site_fract_y
 _atom_site_fract_z
 _atom_site_occupancy
  Er  Er0  1  0.250000  0.582404  0.705776  1
  Er  Er1  1  0.250000  0.917596  0.205776  1
  Er  Er2  1  0.750000  0.419775  0.295105  1
  Er  Er3  1  0.750000  0.080225  0.795105  1
  Mn  Mn4  1  0.250000  0.708666  0.986361  1
  Mn  Mn5  1  0.250000  0.791334  0.486361  1
  Mn  Mn6  1  0.750000  0.289118  0.012688  1
  Mn  Mn7  1  0.750000  0.210882  0.512688  1
  Co  Co8  1  0.750000  0.776929  0.823059  1
  Co  Co9  1  0.750000  0.723071  0.323059  1
  Co  Co10  1  0.250000  0.881452  0.698257  1
  Co  Co11  1  0.250000  0.618548  0.198257  1
  Co  Co12  1  0.750000  0.118284  0.301042  1
  Co  Co13  1  0.750000  0.381716  0.801042  1
  Co  Co14  1  0.250000  0.465921  0.932454  1
  Co  Co15  1  0.250000  0.034079  0.432454  1
  Co  Co16  1  0.750000  0.534052  0.067599  1
  Co  Co17  1  0.750000  0.965948  0.567599  1
  Ni  Ni18  1  0.250000  0.408572  0.486824  1
  Ni  Ni19  1  0.250000  0.091428  0.986824  1
  Ni  Ni20  1  0.750000  0.593573  0.513348  1
  Ni  Ni21  1  0.750000  0.906427  0.013348  1
  Ni  Ni22  1  0.250000  0.223593  0.177373  1
  Ni  Ni23  1  0.250000  0.276407  0.677373  1
  P  P24  1  0.250000  0.423664  0.113036  1
  P  P25  1  0.250000  0.076336  0.613036  1
  P  P26  1  0.750000  0.579828  0.886732  1
  P  P27  1  0.750000  0.920172  0.386732  1
  P  P28  1  0.250000  0.269973  0.868131  1
  P  P29  1  0.250000  0.230027  0.368131  1
  P  P30  1  0.750000  0.729616  0.133932  1
  P  P31  1  0.750000  0.770384  0.633932  1
  P  P32  1  0.250000  0.604949  0.387435  1
  P  P33  1  0.250000  0.895051  0.887435  1
  P  P34  1  0.750000  0.400447  0.610849  1
  P  P35  1  0.750000  0.099553  0.110849  1
