# generated using pymatgen
data_La19Er(Ir2Ru)4
_symmetry_space_group_name_H-M   'P 1'
_cell_length_a   11.34661000
_cell_length_b   11.34661000
_cell_length_c   6.65642500
_cell_angle_alpha   90.00000000
_cell_angle_beta   90.00000000
_cell_angle_gamma   90.00000000
_symmetry_Int_Tables_number   1
_chemical_formula_structural   La19Er(Ir2Ru)4
_chemical_formula_sum   'La19 Er1 Ir8 Ru4'
_cell_volume   856.98515419
_cell_formula_units_Z   1
loop_
 _symmetry_equiv_pos_site_id
 _symmetry_equiv_pos_as_xyz
  1  'x, y, z'
loop_
 _atom_site_type_symbol
 _atom_site_label
 _atom_site_symmetry_multiplicity
 _atom_site_fract_x
 _atom_site_fract_y
 _atom_site_fract_z
 _atom_site_occupancy
  La  La0  1  0.294799  0.088996  0.384172  1
  La  La1  1  0.294550  0.911493  0.884720  1
  La  La2  1  0.705450  0.088507  0.884720  1
  La  La3  1  0.705201  0.911004  0.384172  1
  La  La4  1  0.588351  0.792439  0.884351  1
  La  La5  1  0.588871  0.209059  0.386712  1
  La  La6  1  0.411129  0.790941  0.386712  1
  La  La7  1  0.411649  0.207561  0.884351  1
  La  La8  1  0.209059  0.411129  0.613288  1
  La  La9  1  0.207561  0.588351  0.115649  1
  La  La10  1  0.792439  0.411649  0.115649  1
  La  La11  1  0.790941  0.588871  0.613288  1
  La  La12  1  0.911493  0.705450  0.115280  1
  La  La13  1  0.911004  0.294799  0.615828  1
  La  La14  1  0.088996  0.705201  0.615828  1
  La  La15  1  0.088507  0.294550  0.115280  1
  La  La16  1  0.000000  0.000000  0.500000  1
  La  La17  1  0.000000  0.000000  0.000000  1
  La  La18  1  0.500000  0.500000  0.000000  1
  Er  Er19  1  0.500000  0.500000  0.500000  1
  Ir  Ir20  1  0.847158  0.153271  0.249689  1
  Ir  Ir21  1  0.846729  0.847158  0.750311  1
  Ir  Ir22  1  0.153271  0.152842  0.750311  1
  Ir  Ir23  1  0.152842  0.846729  0.249689  1
  Ir  Ir24  1  0.650073  0.350553  0.743945  1
  Ir  Ir25  1  0.649447  0.650073  0.256055  1
  Ir  Ir26  1  0.350553  0.349927  0.256055  1
  Ir  Ir27  1  0.349927  0.649447  0.743945  1
  Ru  Ru28  1  0.500000  0.000000  0.118985  1
  Ru  Ru29  1  0.500000  0.000000  0.619259  1
  Ru  Ru30  1  0.000000  0.500000  0.881015  1
  Ru  Ru31  1  0.000000  0.500000  0.380741  1
