# generated using pymatgen
data_Nd8TlCd3Au8
_symmetry_space_group_name_H-M   'P 1'
_cell_length_a   8.16542700
_cell_length_b   8.16542700
_cell_length_c   7.75851900
_cell_angle_alpha   90.00000000
_cell_angle_beta   90.00000000
_cell_angle_gamma   90.00000000
_symmetry_Int_Tables_number   1
_chemical_formula_structural   Nd8TlCd3Au8
_chemical_formula_sum   'Nd8 Tl1 Cd3 Au8'
_cell_volume   517.29303271
_cell_formula_units_Z   1
loop_
 _symmetry_equiv_pos_site_id
 _symmetry_equiv_pos_as_xyz
  1  'x, y, z'
loop_
 _atom_site_type_symbol
 _atom_site_label
 _atom_site_symmetry_multiplicity
 _atom_site_fract_x
 _atom_site_fract_y
 _atom_site_fract_z
 _atom_site_occupancy
  Nd  Nd0  1  0.830506  0.172927  0.499969  1
  Nd  Nd1  1  0.169494  0.827073  0.499969  1
  Nd  Nd2  1  0.327073  0.330506  0.000031  1
  Nd  Nd3  1  0.672927  0.669494  0.000031  1
  Nd  Nd4  1  0.677549  0.672576  0.500499  1
  Nd  Nd5  1  0.322451  0.327424  0.500499  1
  Nd  Nd6  1  0.172576  0.822451  0.999501  1
  Nd  Nd7  1  0.827424  0.177549  0.999501  1
  Tl  Tl8  1  0.000000  0.500000  0.250000  1
  Cd  Cd9  1  0.500000  0.000000  0.250000  1
  Cd  Cd10  1  0.000000  0.500000  0.750000  1
  Cd  Cd11  1  0.500000  0.000000  0.750000  1
  Au  Au12  1  0.620631  0.368715  0.253970  1
  Au  Au13  1  0.379369  0.631285  0.253970  1
  Au  Au14  1  0.128719  0.125002  0.753790  1
  Au  Au15  1  0.871281  0.874998  0.753790  1
  Au  Au16  1  0.374998  0.628719  0.746210  1
  Au  Au17  1  0.625002  0.371281  0.746210  1
  Au  Au18  1  0.868715  0.879369  0.246030  1
  Au  Au19  1  0.131285  0.120631  0.246030  1
