# generated using pymatgen
data_TlTc2Mo4S7
_symmetry_space_group_name_H-M   'P 1'
_cell_length_a   9.69192263
_cell_length_b   9.68914205
_cell_length_c   9.68655200
_cell_angle_alpha   60.00824149
_cell_angle_beta   59.83223475
_cell_angle_gamma   59.81201259
_symmetry_Int_Tables_number   1
_chemical_formula_structural   TlTc2Mo4S7
_chemical_formula_sum   'Tl2 Tc4 Mo8 S14'
_cell_volume   641.51003727
_cell_formula_units_Z   2
loop_
 _symmetry_equiv_pos_site_id
 _symmetry_equiv_pos_as_xyz
  1  'x, y, z'
loop_
 _atom_site_type_symbol
 _atom_site_label
 _atom_site_symmetry_multiplicity
 _atom_site_fract_x
 _atom_site_fract_y
 _atom_site_fract_z
 _atom_site_occupancy
  Tl  Tl0  1  0.304328  0.352042  0.389787  1
  Tl  Tl1  1  0.636695  0.644503  0.653101  1
  Tc  Tc2  1  0.129396  0.988125  0.299929  1
  Tc  Tc3  1  0.014050  0.699141  0.871227  1
  Tc  Tc4  1  0.700892  0.873724  0.010878  1
  Tc  Tc5  1  0.056163  0.204484  0.880523  1
  Mo  Mo6  1  0.302594  0.128235  0.987003  1
  Mo  Mo7  1  0.206072  0.884352  0.052973  1
  Mo  Mo8  1  0.885144  0.056155  0.201627  1
  Mo  Mo9  1  0.946881  0.796713  0.114873  1
  Mo  Mo10  1  0.797212  0.119666  0.943922  1
  Mo  Mo11  1  0.120568  0.945837  0.792342  1
  Mo  Mo12  1  0.990763  0.301394  0.125250  1
  Mo  Mo13  1  0.875548  0.010818  0.697579  1
  S  S14  1  0.967067  0.246529  0.649911  1
  S  S15  1  0.244914  0.650002  0.959718  1
  S  S16  1  0.651793  0.965391  0.240508  1
  S  S17  1  0.036555  0.758834  0.347129  1
  S  S18  1  0.764545  0.348961  0.026890  1
  S  S19  1  0.347310  0.038399  0.755632  1
  S  S20  1  0.162497  0.416224  0.822483  1
  S  S21  1  0.416712  0.825386  0.162288  1
  S  S22  1  0.832604  0.159165  0.414619  1
  S  S23  1  0.840953  0.588334  0.167362  1
  S  S24  1  0.586523  0.169577  0.841813  1
  S  S25  1  0.178709  0.832972  0.584910  1
  S  S26  1  0.784979  0.780885  0.785668  1
  S  S27  1  0.218529  0.214153  0.220054  1
