# generated using pymatgen
data_Er3Sb(PN2)6
_symmetry_space_group_name_H-M   'P 1'
_cell_length_a   7.38201762
_cell_length_b   7.38201694
_cell_length_c   7.38201500
_cell_angle_alpha   109.34264670
_cell_angle_beta   109.34265308
_cell_angle_gamma   109.34262099
_symmetry_Int_Tables_number   1
_chemical_formula_structural   Er3Sb(PN2)6
_chemical_formula_sum   'Er3 Sb1 P6 N12'
_cell_volume   311.13834699
_cell_formula_units_Z   1
loop_
 _symmetry_equiv_pos_site_id
 _symmetry_equiv_pos_as_xyz
  1  'x, y, z'
loop_
 _atom_site_type_symbol
 _atom_site_label
 _atom_site_symmetry_multiplicity
 _atom_site_fract_x
 _atom_site_fract_y
 _atom_site_fract_z
 _atom_site_occupancy
  Er  Er0  1  0.023063  0.379424  0.023063  1
  Er  Er1  1  0.023063  0.023063  0.379424  1
  Er  Er2  1  0.379424  0.023063  0.023063  1
  Sb  Sb3  1  0.933742  0.933742  0.933742  1
  P  P4  1  0.506177  0.260155  0.747862  1
  P  P5  1  0.260155  0.747862  0.506177  1
  P  P6  1  0.747862  0.506177  0.260155  1
  P  P7  1  0.747862  0.260155  0.506177  1
  P  P8  1  0.506177  0.747862  0.260155  1
  P  P9  1  0.260155  0.506177  0.747862  1
  N  N10  1  0.377774  0.663388  0.377774  1
  N  N11  1  0.663388  0.377774  0.377774  1
  N  N12  1  0.377774  0.377774  0.663388  1
  N  N13  1  0.723514  0.307546  0.723514  1
  N  N14  1  0.000503  0.588978  0.309923  1
  N  N15  1  0.309923  0.588978  0.000503  1
  N  N16  1  0.309923  0.000503  0.588978  1
  N  N17  1  0.000503  0.309923  0.588978  1
  N  N18  1  0.723514  0.723514  0.307546  1
  N  N19  1  0.588978  0.000503  0.309923  1
  N  N20  1  0.307546  0.723514  0.723514  1
  N  N21  1  0.588978  0.309923  0.000503  1
