# generated using pymatgen
data_Na4CSO7
_symmetry_space_group_name_H-M   'P 1'
_cell_length_a   6.96921500
_cell_length_b   5.14909200
_cell_length_c   8.99811921
_cell_angle_alpha   89.88161483
_cell_angle_beta   90.00000000
_cell_angle_gamma   90.00000000
_symmetry_Int_Tables_number   1
_chemical_formula_structural   Na4CSO7
_chemical_formula_sum   'Na8 C2 S2 O14'
_cell_volume   322.89798108
_cell_formula_units_Z   2
loop_
 _symmetry_equiv_pos_site_id
 _symmetry_equiv_pos_as_xyz
  1  'x, y, z'
loop_
 _atom_site_type_symbol
 _atom_site_label
 _atom_site_symmetry_multiplicity
 _atom_site_fract_x
 _atom_site_fract_y
 _atom_site_fract_z
 _atom_site_occupancy
  Na  Na0  1  0.750000  0.757888  0.078303  1
  Na  Na1  1  0.007924  0.242265  0.251715  1
  Na  Na2  1  0.492076  0.242265  0.251715  1
  Na  Na3  1  0.507924  0.757735  0.748285  1
  Na  Na4  1  0.992076  0.757735  0.748285  1
  Na  Na5  1  0.250000  0.242112  0.921697  1
  Na  Na6  1  0.250000  0.765976  0.362306  1
  Na  Na7  1  0.750000  0.234024  0.637694  1
  C  C8  1  0.250000  0.735197  0.057641  1
  C  C9  1  0.750000  0.264803  0.942359  1
  S  S10  1  0.750000  0.699769  0.403823  1
  S  S11  1  0.250000  0.300231  0.596177  1
  O  O12  1  0.750000  0.278895  0.087355  1
  O  O13  1  0.250000  0.961271  0.121497  1
  O  O14  1  0.250000  0.522405  0.135714  1
  O  O15  1  0.922805  0.791480  0.321270  1
  O  O16  1  0.577195  0.791480  0.321270  1
  O  O17  1  0.750000  0.409927  0.407142  1
  O  O18  1  0.250000  0.201346  0.440664  1
  O  O19  1  0.750000  0.798654  0.559336  1
  O  O20  1  0.250000  0.590073  0.592858  1
  O  O21  1  0.422805  0.208520  0.678730  1
  O  O22  1  0.077195  0.208520  0.678730  1
  O  O23  1  0.750000  0.477595  0.864286  1
  O  O24  1  0.750000  0.038729  0.878503  1
  O  O25  1  0.250000  0.721105  0.912645  1
