# generated using pymatgen
data_Nb2Fe5SiB2
_symmetry_space_group_name_H-M   'P 1'
_cell_length_a   8.67884000
_cell_length_b   8.67884000
_cell_length_c   2.86676400
_cell_angle_alpha   90.00000000
_cell_angle_beta   90.00000000
_cell_angle_gamma   90.00000000
_symmetry_Int_Tables_number   1
_chemical_formula_structural   Nb2Fe5SiB2
_chemical_formula_sum   'Nb4 Fe10 Si2 B4'
_cell_volume   215.93115410
_cell_formula_units_Z   2
loop_
 _symmetry_equiv_pos_site_id
 _symmetry_equiv_pos_as_xyz
  1  'x, y, z'
loop_
 _atom_site_type_symbol
 _atom_site_label
 _atom_site_symmetry_multiplicity
 _atom_site_fract_x
 _atom_site_fract_y
 _atom_site_fract_z
 _atom_site_occupancy
  Nb  Nb0  1  0.824063  0.675937  0.000000  1
  Nb  Nb1  1  0.175937  0.324063  0.000000  1
  Nb  Nb2  1  0.324063  0.824063  0.000000  1
  Nb  Nb3  1  0.675937  0.175937  0.000000  1
  Fe  Fe4  1  0.566873  0.714242  0.500000  1
  Fe  Fe5  1  0.433127  0.285758  0.500000  1
  Fe  Fe6  1  0.066873  0.785758  0.500000  1
  Fe  Fe7  1  0.933127  0.214242  0.500000  1
  Fe  Fe8  1  0.285758  0.566873  0.500000  1
  Fe  Fe9  1  0.714242  0.433127  0.500000  1
  Fe  Fe10  1  0.214242  0.066873  0.500000  1
  Fe  Fe11  1  0.785758  0.933127  0.500000  1
  Fe  Fe12  1  0.500000  0.000000  0.500000  1
  Fe  Fe13  1  0.000000  0.500000  0.500000  1
  Si  Si14  1  0.500000  0.500000  0.000000  1
  Si  Si15  1  0.000000  0.000000  0.000000  1
  B  B16  1  0.622523  0.877477  0.000000  1
  B  B17  1  0.377477  0.122523  0.000000  1
  B  B18  1  0.122523  0.622523  0.000000  1
  B  B19  1  0.877477  0.377477  0.000000  1
