# generated using pymatgen
data_Ho16Al3ZnNi4
_symmetry_space_group_name_H-M   'P 1'
_cell_length_a   9.39722294
_cell_length_b   9.37222308
_cell_length_c   9.37222400
_cell_angle_alpha   60.00000383
_cell_angle_beta   60.08796836
_cell_angle_gamma   60.08796775
_symmetry_Int_Tables_number   1
_chemical_formula_structural   Ho16Al3ZnNi4
_chemical_formula_sum   'Ho16 Al3 Zn1 Ni4'
_cell_volume   584.44816338
_cell_formula_units_Z   1
loop_
 _symmetry_equiv_pos_site_id
 _symmetry_equiv_pos_as_xyz
  1  'x, y, z'
loop_
 _atom_site_type_symbol
 _atom_site_label
 _atom_site_symmetry_multiplicity
 _atom_site_fract_x
 _atom_site_fract_y
 _atom_site_fract_z
 _atom_site_occupancy
  Ho  Ho0  1  0.351176  0.351577  0.351577  1
  Ho  Ho1  1  0.351176  0.351577  0.945669  1
  Ho  Ho2  1  0.351176  0.945669  0.351577  1
  Ho  Ho3  1  0.946654  0.351115  0.351115  1
  Ho  Ho4  1  0.806985  0.192579  0.192579  1
  Ho  Ho5  1  0.191732  0.809159  0.809159  1
  Ho  Ho6  1  0.191732  0.809159  0.189948  1
  Ho  Ho7  1  0.806985  0.192579  0.807856  1
  Ho  Ho8  1  0.191732  0.189948  0.809159  1
  Ho  Ho9  1  0.806985  0.807856  0.192579  1
  Ho  Ho10  1  0.937988  0.563985  0.563984  1
  Ho  Ho11  1  0.564569  0.935717  0.935716  1
  Ho  Ho12  1  0.564570  0.935717  0.563997  1
  Ho  Ho13  1  0.937988  0.563985  0.934043  1
  Ho  Ho14  1  0.564569  0.563998  0.935716  1
  Ho  Ho15  1  0.937988  0.934044  0.563984  1
  Al  Al16  1  0.576399  0.577179  0.577179  1
  Al  Al17  1  0.576399  0.577179  0.269244  1
  Al  Al18  1  0.576399  0.269244  0.577179  1
  Zn  Zn19  1  0.264349  0.578550  0.578550  1
  Ni  Ni20  1  0.144314  0.141470  0.141470  1
  Ni  Ni21  1  0.144314  0.141470  0.572746  1
  Ni  Ni22  1  0.144314  0.572746  0.141470  1
  Ni  Ni23  1  0.569499  0.143500  0.143500  1
