# generated using pymatgen
data_Ca5Tb3(CdIn)4
_symmetry_space_group_name_H-M   'P 1'
_cell_length_a   7.52431293
_cell_length_b   5.44501000
_cell_length_c   10.90468613
_cell_angle_alpha   90.00000000
_cell_angle_beta   89.94539548
_cell_angle_gamma   90.00000000
_symmetry_Int_Tables_number   1
_chemical_formula_structural   Ca5Tb3(CdIn)4
_chemical_formula_sum   'Ca5 Tb3 Cd4 In4'
_cell_volume   446.76434250
_cell_formula_units_Z   1
loop_
 _symmetry_equiv_pos_site_id
 _symmetry_equiv_pos_as_xyz
  1  'x, y, z'
loop_
 _atom_site_type_symbol
 _atom_site_label
 _atom_site_symmetry_multiplicity
 _atom_site_fract_x
 _atom_site_fract_y
 _atom_site_fract_z
 _atom_site_occupancy
  Ca  Ca0  1  0.999111  0.250000  0.373410  1
  Ca  Ca1  1  0.999445  0.750000  0.627819  1
  Ca  Ca2  1  0.500836  0.750000  0.629242  1
  Ca  Ca3  1  0.001709  0.250000  0.870457  1
  Ca  Ca4  1  0.499599  0.250000  0.870772  1
  Tb  Tb5  1  0.496777  0.750000  0.126472  1
  Tb  Tb6  1  0.002582  0.750000  0.128532  1
  Tb  Tb7  1  0.499836  0.250000  0.373678  1
  Cd  Cd8  1  0.749297  0.250000  0.121452  1
  Cd  Cd9  1  0.252939  0.750000  0.377537  1
  Cd  Cd10  1  0.748427  0.250000  0.617015  1
  Cd  Cd11  1  0.249652  0.750000  0.883703  1
  In  In12  1  0.250672  0.250000  0.123414  1
  In  In13  1  0.745298  0.750000  0.374334  1
  In  In14  1  0.252248  0.250000  0.617303  1
  In  In15  1  0.751573  0.750000  0.884860  1
