# generated using pymatgen
data_KRb2Ga3F12
_symmetry_space_group_name_H-M   'P 1'
_cell_length_a   7.46928744
_cell_length_b   7.46928725
_cell_length_c   12.83003366
_cell_angle_alpha   73.47586167
_cell_angle_beta   73.47586166
_cell_angle_gamma   59.86851345
_symmetry_Int_Tables_number   1
_chemical_formula_structural   KRb2Ga3F12
_chemical_formula_sum   'K2 Rb4 Ga6 F24'
_cell_volume   584.77831311
_cell_formula_units_Z   2
loop_
 _symmetry_equiv_pos_site_id
 _symmetry_equiv_pos_as_xyz
  1  'x, y, z'
loop_
 _atom_site_type_symbol
 _atom_site_label
 _atom_site_symmetry_multiplicity
 _atom_site_fract_x
 _atom_site_fract_y
 _atom_site_fract_z
 _atom_site_occupancy
  K  K0  1  0.225163  0.774837  0.750000  1
  K  K1  1  0.774837  0.225163  0.250000  1
  Rb  Rb2  1  0.894500  0.476582  0.685352  1
  Rb  Rb3  1  0.105500  0.523418  0.314648  1
  Rb  Rb4  1  0.523418  0.105500  0.814648  1
  Rb  Rb5  1  0.476582  0.894500  0.185352  1
  Ga  Ga6  1  0.500000  0.000000  0.500000  1
  Ga  Ga7  1  0.000000  0.500000  0.000000  1
  Ga  Ga8  1  0.000000  0.000000  0.500000  1
  Ga  Ga9  1  0.000000  0.000000  0.000000  1
  Ga  Ga10  1  0.500000  0.500000  0.500000  1
  Ga  Ga11  1  0.500000  0.500000  0.000000  1
  F  F12  1  0.887027  0.972688  0.648442  1
  F  F13  1  0.521176  0.891056  0.647521  1
  F  F14  1  0.279425  0.410143  0.029689  1
  F  F15  1  0.697544  0.195933  0.029155  1
  F  F16  1  0.891056  0.521176  0.147521  1
  F  F17  1  0.108944  0.478824  0.852479  1
  F  F18  1  0.478824  0.108944  0.352479  1
  F  F19  1  0.804067  0.302456  0.470845  1
  F  F20  1  0.112973  0.027312  0.351558  1
  F  F21  1  0.589857  0.720575  0.470311  1
  F  F22  1  0.451883  0.512580  0.146683  1
  F  F23  1  0.410143  0.279425  0.529689  1
  F  F24  1  0.512580  0.451883  0.646683  1
  F  F25  1  0.803630  0.929360  0.463410  1
  F  F26  1  0.196370  0.070640  0.536590  1
  F  F27  1  0.548117  0.487420  0.853317  1
  F  F28  1  0.929360  0.803630  0.963410  1
  F  F29  1  0.487420  0.548117  0.353317  1
  F  F30  1  0.720575  0.589857  0.970311  1
  F  F31  1  0.972688  0.887027  0.148442  1
  F  F32  1  0.070640  0.196370  0.036590  1
  F  F33  1  0.302456  0.804067  0.970845  1
  F  F34  1  0.027312  0.112973  0.851558  1
  F  F35  1  0.195933  0.697544  0.529155  1
