# generated using pymatgen
data_Dy3Er(AlGa2)2
_symmetry_space_group_name_H-M   'P 1'
_cell_length_a   6.99621389
_cell_length_b   6.99621389
_cell_length_c   4.46905500
_cell_angle_alpha   90.00000000
_cell_angle_beta   90.00000000
_cell_angle_gamma   90.14867297
_symmetry_Int_Tables_number   1
_chemical_formula_structural   Dy3Er(AlGa2)2
_chemical_formula_sum   'Dy3 Er1 Al2 Ga4'
_cell_volume   218.74613786
_cell_formula_units_Z   1
loop_
 _symmetry_equiv_pos_site_id
 _symmetry_equiv_pos_as_xyz
  1  'x, y, z'
loop_
 _atom_site_type_symbol
 _atom_site_label
 _atom_site_symmetry_multiplicity
 _atom_site_fract_x
 _atom_site_fract_y
 _atom_site_fract_z
 _atom_site_occupancy
  Dy  Dy0  1  0.826415  0.673813  0.500000  1
  Dy  Dy1  1  0.173813  0.326415  0.500000  1
  Dy  Dy2  1  0.673370  0.173370  0.500000  1
  Er  Er3  1  0.326302  0.826302  0.500000  1
  Al  Al4  1  0.499915  0.500142  0.000000  1
  Al  Al5  1  0.000142  0.999915  0.000000  1
  Ga  Ga6  1  0.869279  0.369279  0.000000  1
  Ga  Ga7  1  0.369098  0.130384  0.000000  1
  Ga  Ga8  1  0.131283  0.631283  0.000000  1
  Ga  Ga9  1  0.630384  0.869098  0.000000  1
