# generated using pymatgen
data_AcPrZn5Pb
_symmetry_space_group_name_H-M   'P 1'
_cell_length_a   8.79342731
_cell_length_b   8.79342869
_cell_length_c   9.33277000
_cell_angle_alpha   90.00000000
_cell_angle_beta   90.00000000
_cell_angle_gamma   149.48300943
_symmetry_Int_Tables_number   1
_chemical_formula_structural   AcPrZn5Pb
_chemical_formula_sum   'Ac2 Pr2 Zn10 Pb2'
_cell_volume   366.44974454
_cell_formula_units_Z   2
loop_
 _symmetry_equiv_pos_site_id
 _symmetry_equiv_pos_as_xyz
  1  'x, y, z'
loop_
 _atom_site_type_symbol
 _atom_site_label
 _atom_site_symmetry_multiplicity
 _atom_site_fract_x
 _atom_site_fract_y
 _atom_site_fract_z
 _atom_site_occupancy
  Ac  Ac0  1  0.000000  0.000000  0.500000  1
  Ac  Ac1  1  0.000000  0.000000  0.000000  1
  Pr  Pr2  1  0.207475  0.792525  0.250000  1
  Pr  Pr3  1  0.792525  0.207475  0.750000  1
  Zn  Zn4  1  0.811937  0.188063  0.388882  1
  Zn  Zn5  1  0.188063  0.811937  0.611118  1
  Zn  Zn6  1  0.811937  0.188063  0.111118  1
  Zn  Zn7  1  0.188063  0.811937  0.888882  1
  Zn  Zn8  1  0.662114  0.337886  0.488541  1
  Zn  Zn9  1  0.337886  0.662114  0.511459  1
  Zn  Zn10  1  0.662114  0.337886  0.011459  1
  Zn  Zn11  1  0.337886  0.662114  0.988541  1
  Zn  Zn12  1  0.393084  0.606916  0.250000  1
  Zn  Zn13  1  0.606916  0.393084  0.750000  1
  Pb  Pb14  1  0.560733  0.439267  0.250000  1
  Pb  Pb15  1  0.439267  0.560733  0.750000  1
