# generated using pymatgen
data_Er7Lu3(CoBi2)2
_symmetry_space_group_name_H-M   'P 1'
_cell_length_a   7.84842519
_cell_length_b   8.83816251
_cell_length_c   12.33266868
_cell_angle_alpha   89.93758785
_cell_angle_beta   90.06230435
_cell_angle_gamma   90.05953103
_symmetry_Int_Tables_number   1
_chemical_formula_structural   Er7Lu3(CoBi2)2
_chemical_formula_sum   'Er14 Lu6 Co4 Bi8'
_cell_volume   855.46219519
_cell_formula_units_Z   2
loop_
 _symmetry_equiv_pos_site_id
 _symmetry_equiv_pos_as_xyz
  1  'x, y, z'
loop_
 _atom_site_type_symbol
 _atom_site_label
 _atom_site_symmetry_multiplicity
 _atom_site_fract_x
 _atom_site_fract_y
 _atom_site_fract_z
 _atom_site_occupancy
  Er  Er0  1  0.653720  0.749685  0.699605  1
  Er  Er1  1  0.346280  0.250315  0.300395  1
  Er  Er2  1  0.153312  0.250176  0.800155  1
  Er  Er3  1  0.846688  0.749824  0.199845  1
  Er  Er4  1  0.120655  0.750800  0.815259  1
  Er  Er5  1  0.879345  0.249200  0.184741  1
  Er  Er6  1  0.619774  0.251806  0.684949  1
  Er  Er7  1  0.380226  0.748194  0.315051  1
  Er  Er8  1  0.556695  0.749365  0.996582  1
  Er  Er9  1  0.443305  0.250635  0.003418  1
  Er  Er10  1  0.054572  0.251878  0.502701  1
  Er  Er11  1  0.945428  0.748122  0.497299  1
  Er  Er12  1  0.674517  0.036293  0.435935  1
  Er  Er13  1  0.325483  0.963707  0.564065  1
  Lu  Lu14  1  0.829127  0.463754  0.936184  1
  Lu  Lu15  1  0.170873  0.536246  0.063816  1
  Lu  Lu16  1  0.329292  0.537470  0.564150  1
  Lu  Lu17  1  0.171021  0.963343  0.063742  1
  Lu  Lu18  1  0.670708  0.462530  0.435850  1
  Lu  Lu19  1  0.828979  0.036657  0.936258  1
  Co  Co20  1  0.937556  0.749841  0.994034  1
  Co  Co21  1  0.062444  0.250159  0.005966  1
  Co  Co22  1  0.436262  0.251475  0.506868  1
  Co  Co23  1  0.563738  0.748525  0.493132  1
  Bi  Bi24  1  0.932242  0.007730  0.672931  1
  Bi  Bi25  1  0.067758  0.992270  0.327069  1
  Bi  Bi26  1  0.434972  0.993146  0.827182  1
  Bi  Bi27  1  0.065463  0.506924  0.326320  1
  Bi  Bi28  1  0.565028  0.006854  0.172818  1
  Bi  Bi29  1  0.934537  0.493076  0.673680  1
  Bi  Bi30  1  0.566027  0.492535  0.172746  1
  Bi  Bi31  1  0.433973  0.507465  0.827254  1
