# generated using pymatgen
data_Er3HfZn2Ir3
_symmetry_space_group_name_H-M   'P 1'
_cell_length_a   7.15683714
_cell_length_b   7.15683677
_cell_length_c   4.07632500
_cell_angle_alpha   90.00000000
_cell_angle_beta   90.00000000
_cell_angle_gamma   120.93826954
_symmetry_Int_Tables_number   1
_chemical_formula_structural   Er3HfZn2Ir3
_chemical_formula_sum   'Er3 Hf1 Zn2 Ir3'
_cell_volume   179.08427355
_cell_formula_units_Z   1
loop_
 _symmetry_equiv_pos_site_id
 _symmetry_equiv_pos_as_xyz
  1  'x, y, z'
loop_
 _atom_site_type_symbol
 _atom_site_label
 _atom_site_symmetry_multiplicity
 _atom_site_fract_x
 _atom_site_fract_y
 _atom_site_fract_z
 _atom_site_occupancy
  Er  Er0  1  0.387600  0.387600  0.500000  1
  Er  Er1  1  0.583646  0.012374  0.500000  1
  Er  Er2  1  0.012374  0.583646  0.500000  1
  Hf  Hf3  1  0.759838  0.759838  0.000000  1
  Zn  Zn4  1  0.250452  0.997277  0.000000  1
  Zn  Zn5  1  0.997277  0.250452  0.000000  1
  Ir  Ir6  1  0.672169  0.347740  0.000000  1
  Ir  Ir7  1  0.347740  0.672169  0.000000  1
  Ir  Ir8  1  0.988903  0.988903  0.500000  1
