# generated using pymatgen
data_LaNd3(AuBr6)4
_symmetry_space_group_name_H-M   'P 1'
_cell_length_a   8.29748363
_cell_length_b   10.64364615
_cell_length_c   15.28215642
_cell_angle_alpha   103.52041531
_cell_angle_beta   95.91982341
_cell_angle_gamma   112.25797292
_symmetry_Int_Tables_number   1
_chemical_formula_structural   LaNd3(AuBr6)4
_chemical_formula_sum   'La1 Nd3 Au4 Br24'
_cell_volume   1186.59218139
_cell_formula_units_Z   1
loop_
 _symmetry_equiv_pos_site_id
 _symmetry_equiv_pos_as_xyz
  1  'x, y, z'
loop_
 _atom_site_type_symbol
 _atom_site_label
 _atom_site_symmetry_multiplicity
 _atom_site_fract_x
 _atom_site_fract_y
 _atom_site_fract_z
 _atom_site_occupancy
  La  La0  1  0.580741  0.923072  0.621549  1
  Nd  Nd1  1  0.419551  0.077669  0.377974  1
  Nd  Nd2  1  0.976656  0.312648  0.871472  1
  Nd  Nd3  1  0.023869  0.688039  0.129088  1
  Au  Au4  1  0.294637  0.630821  0.762644  1
  Au  Au5  1  0.704841  0.368800  0.237560  1
  Au  Au6  1  0.499782  0.499287  0.499811  1
  Au  Au7  1  0.000040  0.000080  0.000032  1
  Br  Br8  1  0.610255  0.729980  0.748643  1
  Br  Br9  1  0.390205  0.268003  0.252878  1
  Br  Br10  1  0.273440  0.845183  0.736316  1
  Br  Br11  1  0.724102  0.154622  0.264972  1
  Br  Br12  1  0.977854  0.532916  0.773734  1
  Br  Br13  1  0.021905  0.466869  0.226169  1
  Br  Br14  1  0.313372  0.413210  0.785777  1
  Br  Br15  1  0.686507  0.586726  0.214224  1
  Br  Br16  1  0.690654  0.368508  0.506183  1
  Br  Br17  1  0.305868  0.627639  0.491951  1
  Br  Br18  1  0.763567  0.725713  0.523851  1
  Br  Br19  1  0.237666  0.272205  0.474998  1
  Br  Br20  1  0.785479  0.106127  0.975917  1
  Br  Br21  1  0.214539  0.893905  0.024109  1
  Br  Br22  1  0.768258  0.795190  0.030685  1
  Br  Br23  1  0.232071  0.205057  0.969675  1
  Br  Br24  1  0.617515  0.195616  0.748209  1
  Br  Br25  1  0.383218  0.807875  0.253381  1
  Br  Br26  1  0.956614  0.057038  0.729241  1
  Br  Br27  1  0.047620  0.944811  0.271993  1
  Br  Br28  1  0.729758  0.051168  0.478805  1
  Br  Br29  1  0.268987  0.950722  0.517734  1
  Br  Br30  1  0.761962  0.436041  0.978514  1
  Br  Br31  1  0.238468  0.564460  0.021910  1
