# generated using pymatgen
data_KRuOF4
_symmetry_space_group_name_H-M   'P 1'
_cell_length_a   5.43001100
_cell_length_b   5.60965200
_cell_length_c   14.24378500
_cell_angle_alpha   90.00000000
_cell_angle_beta   90.00000000
_cell_angle_gamma   90.00000000
_symmetry_Int_Tables_number   1
_chemical_formula_structural   KRuOF4
_chemical_formula_sum   'K4 Ru4 O4 F16'
_cell_volume   433.87241511
_cell_formula_units_Z   4
loop_
 _symmetry_equiv_pos_site_id
 _symmetry_equiv_pos_as_xyz
  1  'x, y, z'
loop_
 _atom_site_type_symbol
 _atom_site_label
 _atom_site_symmetry_multiplicity
 _atom_site_fract_x
 _atom_site_fract_y
 _atom_site_fract_z
 _atom_site_occupancy
  K  K0  1  0.266348  0.750000  0.587185  1
  K  K1  1  0.266348  0.250000  0.912815  1
  K  K2  1  0.733652  0.250000  0.412815  1
  K  K3  1  0.733652  0.750000  0.087185  1
  Ru  Ru4  1  0.188181  0.750000  0.324494  1
  Ru  Ru5  1  0.188181  0.250000  0.175506  1
  Ru  Ru6  1  0.811819  0.250000  0.675506  1
  Ru  Ru7  1  0.811819  0.750000  0.824494  1
  O  O8  1  0.081246  0.500000  0.250000  1
  O  O9  1  0.918754  0.000000  0.750000  1
  O  O10  1  0.918754  0.500000  0.750000  1
  O  O11  1  0.081246  0.000000  0.250000  1
  F  F12  1  0.105232  0.750000  0.902328  1
  F  F13  1  0.105232  0.250000  0.597672  1
  F  F14  1  0.894768  0.250000  0.097672  1
  F  F15  1  0.894768  0.750000  0.402328  1
  F  F16  1  0.318457  0.520146  0.413799  1
  F  F17  1  0.318457  0.479854  0.086201  1
  F  F18  1  0.681543  0.020146  0.586201  1
  F  F19  1  0.681543  0.979854  0.913799  1
  F  F20  1  0.681543  0.479854  0.586201  1
  F  F21  1  0.681543  0.520146  0.913799  1
  F  F22  1  0.318457  0.979854  0.413799  1
  F  F23  1  0.318457  0.020146  0.086201  1
  F  F24  1  0.502010  0.750000  0.261989  1
  F  F25  1  0.502010  0.250000  0.238011  1
  F  F26  1  0.497990  0.250000  0.738011  1
  F  F27  1  0.497990  0.750000  0.761989  1
