# generated using pymatgen
data_Na20ZrTi(SnP6)2
_symmetry_space_group_name_H-M   'P 1'
_cell_length_a   7.44378860
_cell_length_b   8.26834016
_cell_length_c   15.76873134
_cell_angle_alpha   57.84765825
_cell_angle_beta   89.94725200
_cell_angle_gamma   89.92691558
_symmetry_Int_Tables_number   1
_chemical_formula_structural   Na20ZrTi(SnP6)2
_chemical_formula_sum   'Na20 Zr1 Ti1 Sn2 P12'
_cell_volume   821.68534228
_cell_formula_units_Z   1
loop_
 _symmetry_equiv_pos_site_id
 _symmetry_equiv_pos_as_xyz
  1  'x, y, z'
loop_
 _atom_site_type_symbol
 _atom_site_label
 _atom_site_symmetry_multiplicity
 _atom_site_fract_x
 _atom_site_fract_y
 _atom_site_fract_z
 _atom_site_occupancy
  Na  Na0  1  0.492380  0.078653  0.242924  1
  Na  Na1  1  0.989366  0.907673  0.264165  1
  Na  Na2  1  0.506843  0.913982  0.757949  1
  Na  Na3  1  0.010013  0.087714  0.740093  1
  Na  Na4  1  0.039064  0.416032  0.414154  1
  Na  Na5  1  0.537051  0.588670  0.086760  1
  Na  Na6  1  0.966614  0.589714  0.584880  1
  Na  Na7  1  0.468956  0.410600  0.912681  1
  Na  Na8  1  0.514993  0.257891  0.409025  1
  Na  Na9  1  0.017454  0.747179  0.091834  1
  Na  Na10  1  0.478891  0.747463  0.587966  1
  Na  Na11  1  0.977681  0.250928  0.908883  1
  Na  Na12  1  0.658021  0.989931  0.085054  1
  Na  Na13  1  0.157663  0.006546  0.416793  1
  Na  Na14  1  0.340207  0.004789  0.918489  1
  Na  Na15  1  0.838195  0.997553  0.579474  1
  Na  Na16  1  0.849916  0.315915  0.262628  1
  Na  Na17  1  0.354227  0.682131  0.241050  1
  Na  Na18  1  0.146058  0.686656  0.741575  1
  Na  Na19  1  0.646374  0.314669  0.755837  1
  Zr  Zr20  1  0.139056  0.347045  0.082998  1
  Ti  Ti21  1  0.638983  0.650799  0.418236  1
  Sn  Sn22  1  0.362237  0.347109  0.583249  1
  Sn  Sn23  1  0.858954  0.657152  0.914295  1
  P  P24  1  0.711279  0.340125  0.568572  1
  P  P25  1  0.211303  0.670923  0.924875  1
  P  P26  1  0.309019  0.675557  0.422223  1
  P  P27  1  0.794261  0.329401  0.076713  1
  P  P28  1  0.757973  0.920733  0.420481  1
  P  P29  1  0.260786  0.063971  0.079924  1
  P  P30  1  0.237317  0.064931  0.579043  1
  P  P31  1  0.736721  0.937578  0.920412  1
  P  P32  1  0.733549  0.638712  0.276006  1
  P  P33  1  0.237535  0.359025  0.232638  1
  P  P34  1  0.260750  0.365895  0.731429  1
  P  P35  1  0.760313  0.636354  0.766690  1
