# generated using pymatgen
data_Eu2Sc3Pb4
_symmetry_space_group_name_H-M   'P 1'
_cell_length_a   8.11460900
_cell_length_b   8.20778700
_cell_length_c   15.42439100
_cell_angle_alpha   90.00000000
_cell_angle_beta   90.00000000
_cell_angle_gamma   90.00000000
_symmetry_Int_Tables_number   1
_chemical_formula_structural   Eu2Sc3Pb4
_chemical_formula_sum   'Eu8 Sc12 Pb16'
_cell_volume   1027.31044015
_cell_formula_units_Z   4
loop_
 _symmetry_equiv_pos_site_id
 _symmetry_equiv_pos_as_xyz
  1  'x, y, z'
loop_
 _atom_site_type_symbol
 _atom_site_label
 _atom_site_symmetry_multiplicity
 _atom_site_fract_x
 _atom_site_fract_y
 _atom_site_fract_z
 _atom_site_occupancy
  Eu  Eu0  1  0.012585  0.174111  0.091999  1
  Eu  Eu1  1  0.512585  0.325889  0.408001  1
  Eu  Eu2  1  0.487415  0.674111  0.908001  1
  Eu  Eu3  1  0.987415  0.825889  0.591999  1
  Eu  Eu4  1  0.987415  0.825889  0.908001  1
  Eu  Eu5  1  0.487415  0.674111  0.591999  1
  Eu  Eu6  1  0.512585  0.325889  0.091999  1
  Eu  Eu7  1  0.012585  0.174111  0.408001  1
  Sc  Sc8  1  0.842725  0.653174  0.125927  1
  Sc  Sc9  1  0.342725  0.846826  0.374073  1
  Sc  Sc10  1  0.657275  0.153174  0.874073  1
  Sc  Sc11  1  0.157275  0.346826  0.625927  1
  Sc  Sc12  1  0.157275  0.346826  0.874073  1
  Sc  Sc13  1  0.657275  0.153174  0.625927  1
  Sc  Sc14  1  0.342725  0.846826  0.125927  1
  Sc  Sc15  1  0.842725  0.653174  0.374073  1
  Sc  Sc16  1  0.681078  0.996781  0.250000  1
  Sc  Sc17  1  0.181078  0.503219  0.250000  1
  Sc  Sc18  1  0.818922  0.496781  0.750000  1
  Sc  Sc19  1  0.318922  0.003219  0.750000  1
  Pb  Pb20  1  0.035485  0.865322  0.250000  1
  Pb  Pb21  1  0.535485  0.634678  0.250000  1
  Pb  Pb22  1  0.464515  0.365322  0.750000  1
  Pb  Pb23  1  0.964515  0.134678  0.750000  1
  Pb  Pb24  1  0.819188  0.354547  0.250000  1
  Pb  Pb25  1  0.319188  0.145453  0.250000  1
  Pb  Pb26  1  0.680812  0.854547  0.750000  1
  Pb  Pb27  1  0.180812  0.645453  0.750000  1
  Pb  Pb28  1  0.822267  0.452317  0.954112  1
  Pb  Pb29  1  0.322267  0.047683  0.545888  1
  Pb  Pb30  1  0.677733  0.952317  0.045888  1
  Pb  Pb31  1  0.177733  0.547683  0.454112  1
  Pb  Pb32  1  0.177733  0.547683  0.045888  1
  Pb  Pb33  1  0.677733  0.952317  0.454112  1
  Pb  Pb34  1  0.322267  0.047683  0.954112  1
  Pb  Pb35  1  0.822267  0.452317  0.545888  1
