# generated using pymatgen
data_Dy5Tm11(InRu)4
_symmetry_space_group_name_H-M   'P 1'
_cell_length_a   9.58929745
_cell_length_b   9.54875619
_cell_length_c   9.54875504
_cell_angle_alpha   59.76287013
_cell_angle_beta   59.85945119
_cell_angle_gamma   59.85945338
_symmetry_Int_Tables_number   1
_chemical_formula_structural   Dy5Tm11(InRu)4
_chemical_formula_sum   'Dy5 Tm11 In4 Ru4'
_cell_volume   615.82657773
_cell_formula_units_Z   1
loop_
 _symmetry_equiv_pos_site_id
 _symmetry_equiv_pos_as_xyz
  1  'x, y, z'
loop_
 _atom_site_type_symbol
 _atom_site_label
 _atom_site_symmetry_multiplicity
 _atom_site_fract_x
 _atom_site_fract_y
 _atom_site_fract_z
 _atom_site_occupancy
  Dy  Dy0  1  0.806468  0.193532  0.193532  1
  Dy  Dy1  1  0.808478  0.190795  0.808087  1
  Dy  Dy2  1  0.192640  0.808087  0.190795  1
  Dy  Dy3  1  0.808478  0.808087  0.190795  1
  Dy  Dy4  1  0.192640  0.190795  0.808087  1
  Tm  Tm5  1  0.597547  0.598280  0.598280  1
  Tm  Tm6  1  0.597348  0.598976  0.206328  1
  Tm  Tm7  1  0.597348  0.206328  0.598976  1
  Tm  Tm8  1  0.205893  0.598280  0.598280  1
  Tm  Tm9  1  0.060060  0.439940  0.439940  1
  Tm  Tm10  1  0.439960  0.060040  0.060040  1
  Tm  Tm11  1  0.440628  0.059340  0.439793  1
  Tm  Tm12  1  0.060240  0.439793  0.059340  1
  Tm  Tm13  1  0.440628  0.439793  0.059340  1
  Tm  Tm14  1  0.060240  0.059340  0.439793  1
  Tm  Tm15  1  0.193288  0.806712  0.806712  1
  In  In16  1  0.834146  0.831756  0.831756  1
  In  In17  1  0.832287  0.831586  0.503840  1
  In  In18  1  0.832287  0.503840  0.831586  1
  In  In19  1  0.502342  0.831756  0.831756  1
  Ru  Ru20  1  0.388772  0.390394  0.390394  1
  Ru  Ru21  1  0.388922  0.392879  0.829277  1
  Ru  Ru22  1  0.388922  0.829277  0.392879  1
  Ru  Ru23  1  0.830442  0.390394  0.390394  1
