# generated using pymatgen
data_Th4IrPd3
_symmetry_space_group_name_H-M   'P 1'
_cell_length_a   7.34891129
_cell_length_b   4.54113900
_cell_length_c   5.86476192
_cell_angle_alpha   90.00000000
_cell_angle_beta   90.34538463
_cell_angle_gamma   90.00000000
_symmetry_Int_Tables_number   1
_chemical_formula_structural   Th4IrPd3
_chemical_formula_sum   'Th4 Ir1 Pd3'
_cell_volume   195.71778701
_cell_formula_units_Z   1
loop_
 _symmetry_equiv_pos_site_id
 _symmetry_equiv_pos_as_xyz
  1  'x, y, z'
loop_
 _atom_site_type_symbol
 _atom_site_label
 _atom_site_symmetry_multiplicity
 _atom_site_fract_x
 _atom_site_fract_y
 _atom_site_fract_z
 _atom_site_occupancy
  Th  Th0  1  0.177673  0.250001  0.137871  1
  Th  Th1  1  0.826220  0.750000  0.849616  1
  Th  Th2  1  0.683838  0.250001  0.365721  1
  Th  Th3  1  0.310035  0.750000  0.638328  1
  Ir  Ir4  1  0.049396  0.250001  0.664703  1
  Pd  Pd5  1  0.950313  0.750000  0.339122  1
  Pd  Pd6  1  0.547284  0.250001  0.854337  1
  Pd  Pd7  1  0.455240  0.750000  0.150302  1
