# generated using pymatgen
data_Yb6AlGa3Pd4
_symmetry_space_group_name_H-M   'P 1'
_cell_length_a   5.74992100
_cell_length_b   7.86279600
_cell_length_c   13.87865800
_cell_angle_alpha   90.00000000
_cell_angle_beta   90.00000000
_cell_angle_gamma   90.00000000
_symmetry_Int_Tables_number   1
_chemical_formula_structural   Yb6AlGa3Pd4
_chemical_formula_sum   'Yb12 Al2 Ga6 Pd8'
_cell_volume   627.46045462
_cell_formula_units_Z   2
loop_
 _symmetry_equiv_pos_site_id
 _symmetry_equiv_pos_as_xyz
  1  'x, y, z'
loop_
 _atom_site_type_symbol
 _atom_site_label
 _atom_site_symmetry_multiplicity
 _atom_site_fract_x
 _atom_site_fract_y
 _atom_site_fract_z
 _atom_site_occupancy
  Yb  Yb0  1  0.145131  0.605231  0.096550  1
  Yb  Yb1  1  0.145131  0.894769  0.903450  1
  Yb  Yb2  1  0.854869  0.105231  0.403450  1
  Yb  Yb3  1  0.854869  0.394769  0.596550  1
  Yb  Yb4  1  0.854325  0.398292  0.902982  1
  Yb  Yb5  1  0.854325  0.101708  0.097018  1
  Yb  Yb6  1  0.145675  0.898292  0.597018  1
  Yb  Yb7  1  0.145675  0.601708  0.402982  1
  Yb  Yb8  1  0.369474  0.248784  0.250345  1
  Yb  Yb9  1  0.369474  0.251216  0.749655  1
  Yb  Yb10  1  0.630526  0.748784  0.249655  1
  Yb  Yb11  1  0.630526  0.751216  0.750345  1
  Al  Al12  1  0.370158  0.250000  0.000000  1
  Al  Al13  1  0.629842  0.750000  0.500000  1
  Ga  Ga14  1  0.639375  0.750000  0.000000  1
  Ga  Ga15  1  0.360625  0.250000  0.500000  1
  Ga  Ga16  1  0.866408  0.398604  0.249775  1
  Ga  Ga17  1  0.866408  0.101396  0.750225  1
  Ga  Ga18  1  0.133592  0.898604  0.250225  1
  Ga  Ga19  1  0.133592  0.601396  0.749775  1
  Pd  Pd20  1  0.632730  0.462367  0.093195  1
  Pd  Pd21  1  0.632730  0.037633  0.906805  1
  Pd  Pd22  1  0.367270  0.962367  0.406805  1
  Pd  Pd23  1  0.367270  0.537633  0.593195  1
  Pd  Pd24  1  0.363573  0.532755  0.907268  1
  Pd  Pd25  1  0.363573  0.967245  0.092732  1
  Pd  Pd26  1  0.636427  0.032755  0.592732  1
  Pd  Pd27  1  0.636427  0.467245  0.407268  1
