# generated using pymatgen
data_Nd3HgPd3Au2
_symmetry_space_group_name_H-M   'P 1'
_cell_length_a   7.72932981
_cell_length_b   7.67839123
_cell_length_c   3.95847700
_cell_angle_alpha   90.00000000
_cell_angle_beta   90.00000000
_cell_angle_gamma   119.78220748
_symmetry_Int_Tables_number   1
_chemical_formula_structural   Nd3HgPd3Au2
_chemical_formula_sum   'Nd3 Hg1 Pd3 Au2'
_cell_volume   203.90119340
_cell_formula_units_Z   1
loop_
 _symmetry_equiv_pos_site_id
 _symmetry_equiv_pos_as_xyz
  1  'x, y, z'
loop_
 _atom_site_type_symbol
 _atom_site_label
 _atom_site_symmetry_multiplicity
 _atom_site_fract_x
 _atom_site_fract_y
 _atom_site_fract_z
 _atom_site_occupancy
  Nd  Nd0  1  0.404045  0.393605  0.500000  1
  Nd  Nd1  1  0.595955  0.989561  0.500000  1
  Nd  Nd2  1  0.000000  0.622058  0.500000  1
  Hg  Hg3  1  0.000000  0.263439  0.000000  1
  Pd  Pd4  1  0.668562  0.331613  0.000000  1
  Pd  Pd5  1  0.331438  0.663052  0.000000  1
  Pd  Pd6  1  0.000000  0.003229  0.500000  1
  Au  Au7  1  0.732851  0.733147  0.000000  1
  Au  Au8  1  0.267149  0.000296  0.000000  1
