# generated using pymatgen
data_Dy4Ho2CrB14Os
_symmetry_space_group_name_H-M   'P 1'
_cell_length_a   8.06455607
_cell_length_b   8.06455535
_cell_length_c   9.32343300
_cell_angle_alpha   90.00000000
_cell_angle_beta   90.00000000
_cell_angle_gamma   155.06429054
_symmetry_Int_Tables_number   1
_chemical_formula_structural   Dy4Ho2CrB14Os
_chemical_formula_sum   'Dy4 Ho2 Cr1 B14 Os1'
_cell_volume   255.64566066
_cell_formula_units_Z   1
loop_
 _symmetry_equiv_pos_site_id
 _symmetry_equiv_pos_as_xyz
  1  'x, y, z'
loop_
 _atom_site_type_symbol
 _atom_site_label
 _atom_site_symmetry_multiplicity
 _atom_site_fract_x
 _atom_site_fract_y
 _atom_site_fract_z
 _atom_site_occupancy
  Dy  Dy0  1  0.105667  0.894333  0.062115  1
  Dy  Dy1  1  0.894349  0.105651  0.940692  1
  Dy  Dy2  1  0.105667  0.894333  0.437885  1
  Dy  Dy3  1  0.894349  0.105651  0.559308  1
  Ho  Ho4  1  0.758306  0.241694  0.250000  1
  Ho  Ho5  1  0.243695  0.756305  0.750000  1
  Cr  Cr6  1  0.946958  0.053042  0.250000  1
  B  B7  1  0.726907  0.273093  0.534100  1
  B  B8  1  0.272184  0.727816  0.466460  1
  B  B9  1  0.272184  0.727816  0.033540  1
  B  B10  1  0.726907  0.273093  0.965900  1
  B  B11  1  0.520732  0.479268  0.904575  1
  B  B12  1  0.478714  0.521286  0.096359  1
  B  B13  1  0.478714  0.521286  0.403641  1
  B  B14  1  0.520732  0.479268  0.595425  1
  B  B15  1  0.457508  0.542492  0.750000  1
  B  B16  1  0.541244  0.458756  0.250000  1
  B  B17  1  0.631846  0.368154  0.650013  1
  B  B18  1  0.368606  0.631394  0.348163  1
  B  B19  1  0.368606  0.631394  0.151837  1
  B  B20  1  0.631846  0.368154  0.849987  1
  Os  Os21  1  0.054280  0.945720  0.750000  1
