# generated using pymatgen
data_Nd2Dy2Si4Ag
_symmetry_space_group_name_H-M   'P 1'
_cell_length_a   7.10855700
_cell_length_b   7.79359400
_cell_length_c   14.89713700
_cell_angle_alpha   90.00000000
_cell_angle_beta   90.00000000
_cell_angle_gamma   90.00000000
_symmetry_Int_Tables_number   1
_chemical_formula_structural   Nd2Dy2Si4Ag
_chemical_formula_sum   'Nd8 Dy8 Si16 Ag4'
_cell_volume   825.31937338
_cell_formula_units_Z   4
loop_
 _symmetry_equiv_pos_site_id
 _symmetry_equiv_pos_as_xyz
  1  'x, y, z'
loop_
 _atom_site_type_symbol
 _atom_site_label
 _atom_site_symmetry_multiplicity
 _atom_site_fract_x
 _atom_site_fract_y
 _atom_site_fract_z
 _atom_site_occupancy
  Nd  Nd0  1  0.978084  0.814245  0.101688  1
  Nd  Nd1  1  0.478084  0.685755  0.398312  1
  Nd  Nd2  1  0.521916  0.314245  0.898312  1
  Nd  Nd3  1  0.021916  0.185755  0.601688  1
  Nd  Nd4  1  0.021916  0.185755  0.898312  1
  Nd  Nd5  1  0.521916  0.314245  0.601688  1
  Nd  Nd6  1  0.478084  0.685755  0.101688  1
  Nd  Nd7  1  0.978084  0.814245  0.398312  1
  Dy  Dy8  1  0.676649  0.818424  0.872383  1
  Dy  Dy9  1  0.176649  0.681576  0.627617  1
  Dy  Dy10  1  0.823351  0.318424  0.127617  1
  Dy  Dy11  1  0.323351  0.181576  0.372383  1
  Dy  Dy12  1  0.323351  0.181576  0.127617  1
  Dy  Dy13  1  0.823351  0.318424  0.372383  1
  Dy  Dy14  1  0.176649  0.681576  0.872383  1
  Dy  Dy15  1  0.676649  0.818424  0.627617  1
  Si  Si16  1  0.771191  0.616527  0.250000  1
  Si  Si17  1  0.271191  0.883473  0.250000  1
  Si  Si18  1  0.728809  0.116527  0.750000  1
  Si  Si19  1  0.228809  0.383473  0.750000  1
  Si  Si20  1  0.018592  0.087240  0.250000  1
  Si  Si21  1  0.518592  0.412760  0.250000  1
  Si  Si22  1  0.481408  0.587240  0.750000  1
  Si  Si23  1  0.981408  0.912760  0.750000  1
  Si  Si24  1  0.847103  0.535479  0.967825  1
  Si  Si25  1  0.347103  0.964521  0.532175  1
  Si  Si26  1  0.652897  0.035479  0.032175  1
  Si  Si27  1  0.152897  0.464521  0.467825  1
  Si  Si28  1  0.152897  0.464521  0.032175  1
  Si  Si29  1  0.652897  0.035479  0.467825  1
  Si  Si30  1  0.347103  0.964521  0.967825  1
  Si  Si31  1  0.847103  0.535479  0.532175  1
  Ag  Ag32  1  0.650675  0.976441  0.250000  1
  Ag  Ag33  1  0.150675  0.523559  0.250000  1
  Ag  Ag34  1  0.849325  0.476441  0.750000  1
  Ag  Ag35  1  0.349325  0.023559  0.750000  1
