# generated using pymatgen
data_Lu10TlBi5Se2
_symmetry_space_group_name_H-M   'P 1'
_cell_length_a   9.03416500
_cell_length_b   9.04310111
_cell_length_c   6.58629200
_cell_angle_alpha   90.00000000
_cell_angle_beta   90.00000000
_cell_angle_gamma   120.03271855
_symmetry_Int_Tables_number   1
_chemical_formula_structural   Lu10TlBi5Se2
_chemical_formula_sum   'Lu10 Tl1 Bi5 Se2'
_cell_volume   465.83674136
_cell_formula_units_Z   1
loop_
 _symmetry_equiv_pos_site_id
 _symmetry_equiv_pos_as_xyz
  1  'x, y, z'
loop_
 _atom_site_type_symbol
 _atom_site_label
 _atom_site_symmetry_multiplicity
 _atom_site_fract_x
 _atom_site_fract_y
 _atom_site_fract_z
 _atom_site_occupancy
  Lu  Lu0  1  0.671484  0.335095  0.001519  1
  Lu  Lu1  1  0.328516  0.663612  0.001519  1
  Lu  Lu2  1  0.328516  0.663612  0.498481  1
  Lu  Lu3  1  0.671484  0.335095  0.498481  1
  Lu  Lu4  1  0.744791  0.745341  0.750000  1
  Lu  Lu5  1  0.255209  0.000549  0.750000  1
  Lu  Lu6  1  0.000000  0.254818  0.750000  1
  Lu  Lu7  1  0.250473  0.257256  0.250000  1
  Lu  Lu8  1  0.749527  0.006783  0.250000  1
  Lu  Lu9  1  0.000000  0.741936  0.250000  1
  Tl  Tl10  1  0.000000  0.395289  0.250000  1
  Bi  Bi11  1  0.395347  0.393908  0.750000  1
  Bi  Bi12  1  0.604653  0.998561  0.750000  1
  Bi  Bi13  1  0.000000  0.604470  0.750000  1
  Bi  Bi14  1  0.604996  0.606710  0.250000  1
  Bi  Bi15  1  0.395004  0.001715  0.250000  1
  Se  Se16  1  0.000000  0.997625  0.999517  1
  Se  Se17  1  0.000000  0.997625  0.500483  1
