# generated using pymatgen
data_Dy3ZnCoSn3Ir
_symmetry_space_group_name_H-M   'P 1'
_cell_length_a   7.46758300
_cell_length_b   7.46758448
_cell_length_c   3.94666900
_cell_angle_alpha   90.00000000
_cell_angle_beta   90.00000000
_cell_angle_gamma   119.99999789
_symmetry_Int_Tables_number   1
_chemical_formula_structural   Dy3ZnCoSn3Ir
_chemical_formula_sum   'Dy3 Zn1 Co1 Sn3 Ir1'
_cell_volume   190.59940827
_cell_formula_units_Z   1
loop_
 _symmetry_equiv_pos_site_id
 _symmetry_equiv_pos_as_xyz
  1  'x, y, z'
loop_
 _atom_site_type_symbol
 _atom_site_label
 _atom_site_symmetry_multiplicity
 _atom_site_fract_x
 _atom_site_fract_y
 _atom_site_fract_z
 _atom_site_occupancy
  Dy  Dy0  1  0.607104  0.016966  0.000000  1
  Dy  Dy1  1  0.983034  0.590139  0.000000  1
  Dy  Dy2  1  0.409861  0.392896  0.000000  1
  Zn  Zn3  1  0.333333  0.666667  0.500000  1
  Co  Co4  1  0.000000  0.000000  0.000000  1
  Sn  Sn5  1  0.247218  0.998070  0.500000  1
  Sn  Sn6  1  0.001930  0.249148  0.500000  1
  Sn  Sn7  1  0.750852  0.752782  0.500000  1
  Ir  Ir8  1  0.666667  0.333333  0.500000  1
