# generated using pymatgen
data_Pr4In4PdRh3
_symmetry_space_group_name_H-M   'P 1'
_cell_length_a   4.47955300
_cell_length_b   7.31818712
_cell_length_c   8.55233344
_cell_angle_alpha   89.97327921
_cell_angle_beta   90.00000000
_cell_angle_gamma   90.00000000
_symmetry_Int_Tables_number   1
_chemical_formula_structural   Pr4In4PdRh3
_chemical_formula_sum   'Pr4 In4 Pd1 Rh3'
_cell_volume   280.36433496
_cell_formula_units_Z   1
loop_
 _symmetry_equiv_pos_site_id
 _symmetry_equiv_pos_as_xyz
  1  'x, y, z'
loop_
 _atom_site_type_symbol
 _atom_site_label
 _atom_site_symmetry_multiplicity
 _atom_site_fract_x
 _atom_site_fract_y
 _atom_site_fract_z
 _atom_site_occupancy
  Pr  Pr0  1  0.250000  0.033990  0.326393  1
  Pr  Pr1  1  0.250000  0.545002  0.178942  1
  Pr  Pr2  1  0.750000  0.963082  0.680482  1
  Pr  Pr3  1  0.750000  0.465314  0.814684  1
  In  In4  1  0.250000  0.642098  0.563332  1
  In  In5  1  0.250000  0.139032  0.935582  1
  In  In6  1  0.750000  0.360558  0.436080  1
  In  In7  1  0.750000  0.855566  0.063044  1
  Pd  Pd8  1  0.750000  0.243013  0.121622  1
  Rh  Rh9  1  0.250000  0.253368  0.619954  1
  Rh  Rh10  1  0.250000  0.750628  0.880730  1
  Rh  Rh11  1  0.750000  0.748347  0.379154  1
