# generated using pymatgen
data_Cs2CrTc11Se14
_symmetry_space_group_name_H-M   'P 1'
_cell_length_a   9.81837479
_cell_length_b   9.81534261
_cell_length_c   9.83585624
_cell_angle_alpha   60.56735239
_cell_angle_beta   60.55357224
_cell_angle_gamma   60.70704417
_symmetry_Int_Tables_number   1
_chemical_formula_structural   Cs2CrTc11Se14
_chemical_formula_sum   'Cs2 Cr1 Tc11 Se14'
_cell_volume   679.47870090
_cell_formula_units_Z   1
loop_
 _symmetry_equiv_pos_site_id
 _symmetry_equiv_pos_as_xyz
  1  'x, y, z'
loop_
 _atom_site_type_symbol
 _atom_site_label
 _atom_site_symmetry_multiplicity
 _atom_site_fract_x
 _atom_site_fract_y
 _atom_site_fract_z
 _atom_site_occupancy
  Cs  Cs0  1  0.377515  0.378062  0.378368  1
  Cs  Cs1  1  0.622017  0.621675  0.621967  1
  Cr  Cr2  1  0.301890  0.125000  0.000842  1
  Tc  Tc3  1  0.192942  0.884656  0.063391  1
  Tc  Tc4  1  0.884345  0.063239  0.195261  1
  Tc  Tc5  1  0.939232  0.805999  0.112941  1
  Tc  Tc6  1  0.807096  0.115270  0.935549  1
  Tc  Tc7  1  0.114785  0.938822  0.806661  1
  Tc  Tc8  1  0.996971  0.301997  0.122544  1
  Tc  Tc9  1  0.875594  0.005967  0.694715  1
  Tc  Tc10  1  0.123858  0.995603  0.301677  1
  Tc  Tc11  1  0.006811  0.693576  0.874739  1
  Tc  Tc12  1  0.696261  0.875152  0.005695  1
  Tc  Tc13  1  0.059653  0.195908  0.884172  1
  Se  Se14  1  0.987478  0.236187  0.643043  1
  Se  Se15  1  0.236166  0.644764  0.985606  1
  Se  Se16  1  0.645527  0.986422  0.233318  1
  Se  Se17  1  0.012232  0.764346  0.355780  1
  Se  Se18  1  0.763441  0.356263  0.012782  1
  Se  Se19  1  0.351699  0.013865  0.766450  1
  Se  Se20  1  0.171947  0.411086  0.821516  1
  Se  Se21  1  0.413336  0.821208  0.168664  1
  Se  Se22  1  0.818807  0.169926  0.414650  1
  Se  Se23  1  0.829958  0.585287  0.183405  1
  Se  Se24  1  0.584930  0.179796  0.830940  1
  Se  Se25  1  0.183224  0.830137  0.586100  1
  Se  Se26  1  0.779272  0.778570  0.779603  1
  Se  Se27  1  0.223013  0.221218  0.219621  1
