# generated using pymatgen
data_TmNbCrB6
_symmetry_space_group_name_H-M   'P 1'
_cell_length_a   3.39052500
_cell_length_b   8.90686100
_cell_length_c   11.25776800
_cell_angle_alpha   90.00000000
_cell_angle_beta   90.00000000
_cell_angle_gamma   90.00000000
_symmetry_Int_Tables_number   1
_chemical_formula_structural   TmNbCrB6
_chemical_formula_sum   'Tm4 Nb4 Cr4 B24'
_cell_volume   339.97260286
_cell_formula_units_Z   4
loop_
 _symmetry_equiv_pos_site_id
 _symmetry_equiv_pos_as_xyz
  1  'x, y, z'
loop_
 _atom_site_type_symbol
 _atom_site_label
 _atom_site_symmetry_multiplicity
 _atom_site_fract_x
 _atom_site_fract_y
 _atom_site_fract_z
 _atom_site_occupancy
  Tm  Tm0  1  0.000000  0.822085  0.086130  1
  Tm  Tm1  1  0.000000  0.177915  0.913870  1
  Tm  Tm2  1  0.000000  0.322085  0.413870  1
  Tm  Tm3  1  0.000000  0.677915  0.586130  1
  Nb  Nb4  1  0.000000  0.444592  0.127740  1
  Nb  Nb5  1  0.000000  0.555408  0.872260  1
  Nb  Nb6  1  0.000000  0.944592  0.372260  1
  Nb  Nb7  1  0.000000  0.055408  0.627740  1
  Cr  Cr8  1  0.000000  0.143200  0.183131  1
  Cr  Cr9  1  0.000000  0.856800  0.816869  1
  Cr  Cr10  1  0.000000  0.643200  0.316869  1
  Cr  Cr11  1  0.000000  0.356800  0.683131  1
  B  B12  1  0.500000  0.053850  0.066728  1
  B  B13  1  0.500000  0.946150  0.933272  1
  B  B14  1  0.500000  0.553850  0.433272  1
  B  B15  1  0.500000  0.446150  0.566728  1
  B  B16  1  0.500000  0.252813  0.081742  1
  B  B17  1  0.500000  0.747187  0.918258  1
  B  B18  1  0.500000  0.752813  0.418258  1
  B  B19  1  0.500000  0.247187  0.581742  1
  B  B20  1  0.500000  0.296175  0.236696  1
  B  B21  1  0.500000  0.703825  0.763304  1
  B  B22  1  0.500000  0.796175  0.263304  1
  B  B23  1  0.500000  0.203825  0.736696  1
  B  B24  1  0.500000  0.130032  0.317473  1
  B  B25  1  0.500000  0.869968  0.682527  1
  B  B26  1  0.500000  0.630032  0.182527  1
  B  B27  1  0.500000  0.369968  0.817473  1
  B  B28  1  0.500000  0.481392  0.287480  1
  B  B29  1  0.500000  0.518608  0.712520  1
  B  B30  1  0.500000  0.981392  0.212520  1
  B  B31  1  0.500000  0.018608  0.787480  1
  B  B32  1  0.500000  0.100038  0.473469  1
  B  B33  1  0.500000  0.899962  0.526531  1
  B  B34  1  0.500000  0.600038  0.026531  1
  B  B35  1  0.500000  0.399962  0.973469  1
