# generated using pymatgen
data_Dy4YBi2Ru
_symmetry_space_group_name_H-M   'P 1'
_cell_length_a   7.97831100
_cell_length_b   9.00942800
_cell_length_c   12.49484800
_cell_angle_alpha   90.00000000
_cell_angle_beta   90.00000000
_cell_angle_gamma   90.00000000
_symmetry_Int_Tables_number   1
_chemical_formula_structural   Dy4YBi2Ru
_chemical_formula_sum   'Dy16 Y4 Bi8 Ru4'
_cell_volume   898.12990560
_cell_formula_units_Z   4
loop_
 _symmetry_equiv_pos_site_id
 _symmetry_equiv_pos_as_xyz
  1  'x, y, z'
loop_
 _atom_site_type_symbol
 _atom_site_label
 _atom_site_symmetry_multiplicity
 _atom_site_fract_x
 _atom_site_fract_y
 _atom_site_fract_z
 _atom_site_occupancy
  Dy  Dy0  1  0.375661  0.750000  0.691879  1
  Dy  Dy1  1  0.624339  0.250000  0.308121  1
  Dy  Dy2  1  0.875661  0.250000  0.808121  1
  Dy  Dy3  1  0.124339  0.750000  0.191879  1
  Dy  Dy4  1  0.946155  0.750000  0.504100  1
  Dy  Dy5  1  0.053845  0.250000  0.495900  1
  Dy  Dy6  1  0.446155  0.250000  0.995900  1
  Dy  Dy7  1  0.553845  0.750000  0.004100  1
  Dy  Dy8  1  0.675272  0.041298  0.563957  1
  Dy  Dy9  1  0.324728  0.958702  0.436043  1
  Dy  Dy10  1  0.175272  0.958702  0.936043  1
  Dy  Dy11  1  0.324728  0.541298  0.436043  1
  Dy  Dy12  1  0.824728  0.041298  0.063957  1
  Dy  Dy13  1  0.675272  0.458702  0.563957  1
  Dy  Dy14  1  0.824728  0.458702  0.063957  1
  Dy  Dy15  1  0.175272  0.541298  0.936043  1
  Y  Y16  1  0.841894  0.750000  0.792263  1
  Y  Y17  1  0.158106  0.250000  0.207737  1
  Y  Y18  1  0.341894  0.250000  0.707737  1
  Y  Y19  1  0.658106  0.750000  0.292263  1
  Bi  Bi20  1  0.569091  0.493107  0.827580  1
  Bi  Bi21  1  0.430909  0.506893  0.172420  1
  Bi  Bi22  1  0.069091  0.506893  0.672420  1
  Bi  Bi23  1  0.430909  0.993107  0.172420  1
  Bi  Bi24  1  0.930909  0.493107  0.327580  1
  Bi  Bi25  1  0.569091  0.006893  0.827580  1
  Bi  Bi26  1  0.930909  0.006893  0.327580  1
  Bi  Bi27  1  0.069091  0.993107  0.672420  1
  Ru  Ru28  1  0.573199  0.750000  0.511888  1
  Ru  Ru29  1  0.426801  0.250000  0.488112  1
  Ru  Ru30  1  0.073199  0.250000  0.988112  1
  Ru  Ru31  1  0.926801  0.750000  0.011888  1
