# generated using pymatgen
data_Pr4Ho4Tc3B24Os
_symmetry_space_group_name_H-M   'P 1'
_cell_length_a   3.74001500
_cell_length_b   9.24504858
_cell_length_c   11.69984812
_cell_angle_alpha   89.96557348
_cell_angle_beta   90.00000000
_cell_angle_gamma   90.00000000
_symmetry_Int_Tables_number   1
_chemical_formula_structural   Pr4Ho4Tc3B24Os
_chemical_formula_sum   'Pr4 Ho4 Tc3 B24 Os1'
_cell_volume   404.54113377
_cell_formula_units_Z   1
loop_
 _symmetry_equiv_pos_site_id
 _symmetry_equiv_pos_as_xyz
  1  'x, y, z'
loop_
 _atom_site_type_symbol
 _atom_site_label
 _atom_site_symmetry_multiplicity
 _atom_site_fract_x
 _atom_site_fract_y
 _atom_site_fract_z
 _atom_site_occupancy
  Pr  Pr0  1  0.000000  0.322972  0.414191  1
  Pr  Pr1  1  0.000000  0.675904  0.584131  1
  Pr  Pr2  1  0.000000  0.822765  0.086800  1
  Pr  Pr3  1  0.000000  0.178087  0.915175  1
  Ho  Ho4  1  0.000000  0.942512  0.368812  1
  Ho  Ho5  1  0.000000  0.058548  0.631034  1
  Ho  Ho6  1  0.000000  0.442711  0.131475  1
  Ho  Ho7  1  0.000000  0.557004  0.868399  1
  Tc  Tc8  1  0.000000  0.639310  0.319089  1
  Tc  Tc9  1  0.000000  0.360653  0.681543  1
  Tc  Tc10  1  0.000000  0.138806  0.180303  1
  B  B11  1  0.500000  0.555314  0.429856  1
  B  B12  1  0.500000  0.444594  0.569908  1
  B  B13  1  0.500000  0.055428  0.070050  1
  B  B14  1  0.500000  0.944154  0.929850  1
  B  B15  1  0.500000  0.749688  0.415445  1
  B  B16  1  0.500000  0.250072  0.584658  1
  B  B17  1  0.500000  0.250293  0.084612  1
  B  B18  1  0.500000  0.750418  0.915025  1
  B  B19  1  0.500000  0.790855  0.265972  1
  B  B20  1  0.500000  0.209428  0.734500  1
  B  B21  1  0.500000  0.290599  0.234191  1
  B  B22  1  0.500000  0.709916  0.765589  1
  B  B23  1  0.500000  0.629558  0.186251  1
  B  B24  1  0.500000  0.370466  0.814170  1
  B  B25  1  0.500000  0.129228  0.313401  1
  B  B26  1  0.500000  0.870407  0.686474  1
  B  B27  1  0.500000  0.984184  0.213127  1
  B  B28  1  0.500000  0.014827  0.787135  1
  B  B29  1  0.500000  0.484510  0.286653  1
  B  B30  1  0.500000  0.515317  0.713016  1
  B  B31  1  0.500000  0.596878  0.026434  1
  B  B32  1  0.500000  0.403983  0.973396  1
  B  B33  1  0.500000  0.096439  0.473617  1
  B  B34  1  0.500000  0.903683  0.526853  1
  Os  Os35  1  0.000000  0.860491  0.818861  1
