# generated using pymatgen
data_Nb3Tl5F19
_symmetry_space_group_name_H-M   'P 1'
_cell_length_a   7.97372268
_cell_length_b   11.87695042
_cell_length_c   11.87695100
_cell_angle_alpha   83.53697660
_cell_angle_beta   70.39293514
_cell_angle_gamma   70.39293090
_symmetry_Int_Tables_number   1
_chemical_formula_structural   Nb3Tl5F19
_chemical_formula_sum   'Nb6 Tl10 F38'
_cell_volume   998.13126176
_cell_formula_units_Z   2
loop_
 _symmetry_equiv_pos_site_id
 _symmetry_equiv_pos_as_xyz
  1  'x, y, z'
loop_
 _atom_site_type_symbol
 _atom_site_label
 _atom_site_symmetry_multiplicity
 _atom_site_fract_x
 _atom_site_fract_y
 _atom_site_fract_z
 _atom_site_occupancy
  Nb  Nb0  1  0.656395  0.499996  0.186723  1
  Nb  Nb1  1  0.156395  0.186723  0.499996  1
  Nb  Nb2  1  0.843108  0.813259  0.499996  1
  Nb  Nb3  1  0.343108  0.499996  0.813259  1
  Nb  Nb4  1  0.244314  0.000019  0.999998  1
  Nb  Nb5  1  0.744314  0.999998  0.000019  1
  Tl  Tl6  1  0.760287  0.499987  0.499983  1
  Tl  Tl7  1  0.260287  0.499983  0.499987  1
  Tl  Tl8  1  0.811601  0.142130  0.309286  1
  Tl  Tl9  1  0.953687  0.309308  0.857906  1
  Tl  Tl10  1  0.120890  0.690712  0.142133  1
  Tl  Tl11  1  0.263032  0.857889  0.690708  1
  Tl  Tl12  1  0.620890  0.142133  0.690712  1
  Tl  Tl13  1  0.453687  0.857906  0.309308  1
  Tl  Tl14  1  0.311601  0.309286  0.142130  1
  Tl  Tl15  1  0.763032  0.690708  0.857889  1
  F  F16  1  0.993757  0.000008  0.000000  1
  F  F17  1  0.493757  0.000000  0.000008  1
  F  F18  1  0.390725  0.499975  0.229197  1
  F  F19  1  0.890725  0.229197  0.499975  1
  F  F20  1  0.619969  0.770712  0.499978  1
  F  F21  1  0.119969  0.499978  0.770712  1
  F  F22  1  0.988983  0.670136  0.389226  1
  F  F23  1  0.659123  0.389243  0.329845  1
  F  F24  1  0.378209  0.610780  0.670161  1
  F  F25  1  0.048230  0.329826  0.610801  1
  F  F26  1  0.878209  0.670161  0.610780  1
  F  F27  1  0.159123  0.329845  0.389243  1
  F  F28  1  0.488983  0.389226  0.670136  1
  F  F29  1  0.548230  0.610801  0.329826  1
  F  F30  1  0.599082  0.499961  0.792465  1
  F  F31  1  0.099082  0.792465  0.499961  1
  F  F32  1  0.391423  0.207688  0.500080  1
  F  F33  1  0.891423  0.500080  0.207688  1
  F  F34  1  0.358358  0.837704  0.927779  1
  F  F35  1  0.196110  0.927835  0.162290  1
  F  F36  1  0.286150  0.072251  0.837739  1
  F  F37  1  0.123862  0.162324  0.072235  1
  F  F38  1  0.786150  0.837739  0.072251  1
  F  F39  1  0.696110  0.162290  0.927835  1
  F  F40  1  0.858358  0.927779  0.837704  1
  F  F41  1  0.623862  0.072235  0.162324  1
  F  F42  1  0.197279  0.122551  0.342674  1
  F  F43  1  0.319983  0.342654  0.877414  1
  F  F44  1  0.540127  0.657254  0.122443  1
  F  F45  1  0.662554  0.877444  0.657319  1
  F  F46  1  0.040127  0.122443  0.657254  1
  F  F47  1  0.819983  0.877414  0.342654  1
  F  F48  1  0.697279  0.342674  0.122551  1
  F  F49  1  0.162554  0.657319  0.877444  1
  F  F50  1  0.340186  0.500001  0.982513  1
  F  F51  1  0.840186  0.982513  0.500001  1
  F  F52  1  0.322877  0.017510  0.499950  1
  F  F53  1  0.822877  0.499950  0.017510  1
