# generated using pymatgen
data_Rb2Hf(TeO4)3
_symmetry_space_group_name_H-M   'P 1'
_cell_length_a   7.32495469
_cell_length_b   7.32531036
_cell_length_c   7.39975130
_cell_angle_alpha   89.99999827
_cell_angle_beta   60.33898187
_cell_angle_gamma   120.00161039
_symmetry_Int_Tables_number   1
_chemical_formula_structural   Rb2Hf(TeO4)3
_chemical_formula_sum   'Rb2 Hf1 Te3 O12'
_cell_volume   282.18175260
_cell_formula_units_Z   1
loop_
 _symmetry_equiv_pos_site_id
 _symmetry_equiv_pos_as_xyz
  1  'x, y, z'
loop_
 _atom_site_type_symbol
 _atom_site_label
 _atom_site_symmetry_multiplicity
 _atom_site_fract_x
 _atom_site_fract_y
 _atom_site_fract_z
 _atom_site_occupancy
  Rb  Rb0  1  0.254834  0.131358  0.117613  1
  Rb  Rb1  1  0.745166  0.876524  0.882387  1
  Hf  Hf2  1  0.000000  0.503758  0.000000  1
  Te  Te3  1  0.499955  0.003774  0.500014  1
  Te  Te4  1  0.500045  0.503819  0.499986  1
  Te  Te5  1  0.000000  0.503863  0.500000  1
  O  O6  1  0.643767  0.825619  0.431515  1
  O  O7  1  0.862356  0.434900  0.805420  1
  O  O8  1  0.263416  0.835975  0.805422  1
  O  O9  1  0.246622  0.428486  0.431501  1
  O  O10  1  0.263386  0.434896  0.805399  1
  O  O11  1  0.246590  0.825645  0.431535  1
  O  O12  1  0.356233  0.181853  0.568485  1
  O  O13  1  0.137644  0.572544  0.194580  1
  O  O14  1  0.736614  0.171509  0.194601  1
  O  O15  1  0.753410  0.579055  0.568465  1
  O  O16  1  0.736584  0.572559  0.194578  1
  O  O17  1  0.753378  0.181863  0.568499  1
