# generated using pymatgen
data_Sc4TiZn(B2Ir5)2
_symmetry_space_group_name_H-M   'P 1'
_cell_length_a   9.43749000
_cell_length_b   9.43749000
_cell_length_c   3.08692100
_cell_angle_alpha   90.00000000
_cell_angle_beta   90.00000000
_cell_angle_gamma   90.00000000
_symmetry_Int_Tables_number   1
_chemical_formula_structural   Sc4TiZn(B2Ir5)2
_chemical_formula_sum   'Sc4 Ti1 Zn1 B4 Ir10'
_cell_volume   274.94037719
_cell_formula_units_Z   1
loop_
 _symmetry_equiv_pos_site_id
 _symmetry_equiv_pos_as_xyz
  1  'x, y, z'
loop_
 _atom_site_type_symbol
 _atom_site_label
 _atom_site_symmetry_multiplicity
 _atom_site_fract_x
 _atom_site_fract_y
 _atom_site_fract_z
 _atom_site_occupancy
  Sc  Sc0  1  0.678441  0.173927  0.000000  1
  Sc  Sc1  1  0.173927  0.321559  0.000000  1
  Sc  Sc2  1  0.826073  0.678441  0.000000  1
  Sc  Sc3  1  0.321559  0.826073  0.000000  1
  Ti  Ti4  1  0.500000  0.500000  0.000000  1
  Zn  Zn5  1  0.000000  0.000000  0.000000  1
  B  B6  1  0.371454  0.118436  0.000000  1
  B  B7  1  0.881564  0.371454  0.000000  1
  B  B8  1  0.118436  0.628546  0.000000  1
  B  B9  1  0.628546  0.881564  0.000000  1
  Ir  Ir10  1  0.500000  0.000000  0.500000  1
  Ir  Ir11  1  0.217169  0.071451  0.500000  1
  Ir  Ir12  1  0.928549  0.217169  0.500000  1
  Ir  Ir13  1  0.430693  0.283020  0.500000  1
  Ir  Ir14  1  0.716980  0.430693  0.500000  1
  Ir  Ir15  1  0.000000  0.500000  0.500000  1
  Ir  Ir16  1  0.283020  0.569307  0.500000  1
  Ir  Ir17  1  0.569307  0.716980  0.500000  1
  Ir  Ir18  1  0.071451  0.782831  0.500000  1
  Ir  Ir19  1  0.782831  0.928549  0.500000  1
