# generated using pymatgen
data_Y2HoEr(WO6)2
_symmetry_space_group_name_H-M   'P 1'
_cell_length_a   5.40077600
_cell_length_b   7.70467733
_cell_length_c   11.44295005
_cell_angle_alpha   75.56203194
_cell_angle_beta   90.00000000
_cell_angle_gamma   90.00000000
_symmetry_Int_Tables_number   1
_chemical_formula_structural   Y2HoEr(WO6)2
_chemical_formula_sum   'Y4 Ho2 Er2 W4 O24'
_cell_volume   461.11743449
_cell_formula_units_Z   2
loop_
 _symmetry_equiv_pos_site_id
 _symmetry_equiv_pos_as_xyz
  1  'x, y, z'
loop_
 _atom_site_type_symbol
 _atom_site_label
 _atom_site_symmetry_multiplicity
 _atom_site_fract_x
 _atom_site_fract_y
 _atom_site_fract_z
 _atom_site_occupancy
  Y  Y0  1  0.684057  0.500000  0.250000  1
  Y  Y1  1  0.316280  0.500000  0.750000  1
  Y  Y2  1  0.741106  0.000000  0.250000  1
  Y  Y3  1  0.258956  0.000000  0.750000  1
  Ho  Ho4  1  0.183514  0.205902  0.422099  1
  Ho  Ho5  1  0.183514  0.794098  0.077901  1
  Er  Er6  1  0.816538  0.793606  0.578205  1
  Er  Er7  1  0.816538  0.206394  0.921795  1
  W  W8  1  0.255973  0.276341  0.114358  1
  W  W9  1  0.255973  0.723659  0.385642  1
  W  W10  1  0.744243  0.723629  0.885082  1
  W  W11  1  0.744243  0.276371  0.614918  1
  O  O12  1  0.456668  0.208959  0.272976  1
  O  O13  1  0.456668  0.791041  0.227024  1
  O  O14  1  0.543947  0.790853  0.726323  1
  O  O15  1  0.543947  0.209147  0.773677  1
  O  O16  1  0.045498  0.060530  0.103431  1
  O  O17  1  0.045498  0.939470  0.396569  1
  O  O18  1  0.953193  0.940420  0.896170  1
  O  O19  1  0.953193  0.059580  0.603830  1
  O  O20  1  0.981620  0.289155  0.228609  1
  O  O21  1  0.981620  0.710845  0.271391  1
  O  O22  1  0.018631  0.711328  0.770962  1
  O  O23  1  0.018631  0.288672  0.729038  1
  O  O24  1  0.849599  0.364989  0.451852  1
  O  O25  1  0.849599  0.635011  0.048148  1
  O  O26  1  0.149427  0.635086  0.548538  1
  O  O27  1  0.149427  0.364914  0.951462  1
  O  O28  1  0.641094  0.510530  0.614245  1
  O  O29  1  0.641094  0.489470  0.885755  1
  O  O30  1  0.359786  0.489890  0.386057  1
  O  O31  1  0.359786  0.510110  0.113943  1
  O  O32  1  0.464750  0.154838  0.569009  1
  O  O33  1  0.464750  0.845162  0.930991  1
  O  O34  1  0.535319  0.845288  0.432011  1
  O  O35  1  0.535319  0.154712  0.067989  1
