# generated using pymatgen
data_Pa3Ni8MoP6
_symmetry_space_group_name_H-M   'P 1'
_cell_length_a   3.80227300
_cell_length_b   10.62118300
_cell_length_c   12.40187000
_cell_angle_alpha   90.00000000
_cell_angle_beta   90.00000000
_cell_angle_gamma   90.00000000
_symmetry_Int_Tables_number   1
_chemical_formula_structural   Pa3Ni8MoP6
_chemical_formula_sum   'Pa6 Ni16 Mo2 P12'
_cell_volume   500.84502240
_cell_formula_units_Z   2
loop_
 _symmetry_equiv_pos_site_id
 _symmetry_equiv_pos_as_xyz
  1  'x, y, z'
loop_
 _atom_site_type_symbol
 _atom_site_label
 _atom_site_symmetry_multiplicity
 _atom_site_fract_x
 _atom_site_fract_y
 _atom_site_fract_z
 _atom_site_occupancy
  Pa  Pa0  1  0.751866  0.000000  0.475683  1
  Pa  Pa1  1  0.251866  0.500000  0.524317  1
  Pa  Pa2  1  0.251797  0.682556  0.793594  1
  Pa  Pa3  1  0.251797  0.317444  0.793594  1
  Pa  Pa4  1  0.751797  0.817444  0.206406  1
  Pa  Pa5  1  0.751797  0.182556  0.206406  1
  Ni  Ni6  1  0.751824  0.000000  0.017422  1
  Ni  Ni7  1  0.251824  0.500000  0.982578  1
  Ni  Ni8  1  0.251866  0.196962  0.571555  1
  Ni  Ni9  1  0.251866  0.803038  0.571555  1
  Ni  Ni10  1  0.751866  0.303038  0.428445  1
  Ni  Ni11  1  0.751866  0.696962  0.428445  1
  Ni  Ni12  1  0.251792  0.620021  0.292475  1
  Ni  Ni13  1  0.251792  0.379979  0.292475  1
  Ni  Ni14  1  0.751792  0.879979  0.707525  1
  Ni  Ni15  1  0.751792  0.120021  0.707525  1
  Ni  Ni16  1  0.251783  0.168514  0.010628  1
  Ni  Ni17  1  0.251783  0.831486  0.010628  1
  Ni  Ni18  1  0.751783  0.331486  0.989372  1
  Ni  Ni19  1  0.751783  0.668514  0.989372  1
  Ni  Ni20  1  0.252184  0.000000  0.302538  1
  Ni  Ni21  1  0.752184  0.500000  0.697462  1
  Mo  Mo22  1  0.251796  0.000000  0.844784  1
  Mo  Mo23  1  0.751796  0.500000  0.155216  1
  P  P24  1  0.251769  0.188548  0.386537  1
  P  P25  1  0.251769  0.811452  0.386537  1
  P  P26  1  0.751769  0.311452  0.613463  1
  P  P27  1  0.751769  0.688548  0.613463  1
  P  P28  1  0.251807  0.000000  0.122592  1
  P  P29  1  0.751807  0.500000  0.877408  1
  P  P30  1  0.251746  0.653348  0.107840  1
  P  P31  1  0.251746  0.346652  0.107840  1
  P  P32  1  0.751746  0.846652  0.892160  1
  P  P33  1  0.751746  0.153348  0.892160  1
  P  P34  1  0.251818  0.000000  0.654011  1
  P  P35  1  0.751818  0.500000  0.345989  1
