# generated using pymatgen
data_Dy11In9CoNiAu2
_symmetry_space_group_name_H-M   'P 1'
_cell_length_a   3.65631100
_cell_length_b   13.07947346
_cell_length_c   13.13070389
_cell_angle_alpha   110.48565133
_cell_angle_beta   90.00000000
_cell_angle_gamma   90.00000000
_symmetry_Int_Tables_number   1
_chemical_formula_structural   Dy11In9CoNiAu2
_chemical_formula_sum   'Dy11 In9 Co1 Ni1 Au2'
_cell_volume   588.23338862
_cell_formula_units_Z   1
loop_
 _symmetry_equiv_pos_site_id
 _symmetry_equiv_pos_as_xyz
  1  'x, y, z'
loop_
 _atom_site_type_symbol
 _atom_site_label
 _atom_site_symmetry_multiplicity
 _atom_site_fract_x
 _atom_site_fract_y
 _atom_site_fract_z
 _atom_site_occupancy
  Dy  Dy0  1  0.000000  0.930208  0.581750  1
  Dy  Dy1  1  0.000000  0.069217  0.418498  1
  Dy  Dy2  1  0.000000  0.578476  0.920135  1
  Dy  Dy3  1  0.000000  0.420694  0.076643  1
  Dy  Dy4  1  0.000000  0.158301  0.842832  1
  Dy  Dy5  1  0.000000  0.842228  0.156732  1
  Dy  Dy6  1  0.000000  0.385428  0.642686  1
  Dy  Dy7  1  0.000000  0.618464  0.360121  1
  Dy  Dy8  1  0.000000  0.680297  0.699339  1
  Dy  Dy9  1  0.000000  0.316925  0.301707  1
  Dy  Dy10  1  0.000000  0.999876  0.999996  1
  In  In11  1  0.500000  0.157274  0.636340  1
  In  In12  1  0.500000  0.842632  0.363750  1
  In  In13  1  0.500000  0.633444  0.154009  1
  In  In14  1  0.500000  0.367602  0.844511  1
  In  In15  1  0.500000  0.927376  0.784058  1
  In  In16  1  0.500000  0.072177  0.216000  1
  In  In17  1  0.500000  0.779254  0.925467  1
  In  In18  1  0.500000  0.219316  0.073022  1
  In  In19  1  0.500000  0.499854  0.500568  1
  Co  Co20  1  0.500000  0.549372  0.757686  1
  Ni  Ni21  1  0.500000  0.451772  0.244762  1
  Au  Au22  1  0.500000  0.745573  0.546431  1
  Au  Au23  1  0.500000  0.254242  0.452959  1
