# generated using pymatgen
data_CsPaCl6
_symmetry_space_group_name_H-M   'P 1'
_cell_length_a   7.42560397
_cell_length_b   7.42560453
_cell_length_c   13.35974636
_cell_angle_alpha   79.34058746
_cell_angle_beta   79.34058563
_cell_angle_gamma   55.18766905
_symmetry_Int_Tables_number   1
_chemical_formula_structural   CsPaCl6
_chemical_formula_sum   'Cs2 Pa2 Cl12'
_cell_volume   591.49046968
_cell_formula_units_Z   2
loop_
 _symmetry_equiv_pos_site_id
 _symmetry_equiv_pos_as_xyz
  1  'x, y, z'
loop_
 _atom_site_type_symbol
 _atom_site_label
 _atom_site_symmetry_multiplicity
 _atom_site_fract_x
 _atom_site_fract_y
 _atom_site_fract_z
 _atom_site_occupancy
  Cs  Cs0  1  0.881289  0.118711  0.750000  1
  Cs  Cs1  1  0.118711  0.881289  0.250000  1
  Pa  Pa2  1  0.500000  0.000000  0.500000  1
  Pa  Pa3  1  0.000000  0.500000  0.000000  1
  Cl  Cl4  1  0.459229  0.698565  0.606527  1
  Cl  Cl5  1  0.540771  0.301435  0.393473  1
  Cl  Cl6  1  0.301435  0.540771  0.893473  1
  Cl  Cl7  1  0.698565  0.459229  0.106527  1
  Cl  Cl8  1  0.369943  0.200422  0.661560  1
  Cl  Cl9  1  0.630057  0.799578  0.338440  1
  Cl  Cl10  1  0.799578  0.630057  0.838440  1
  Cl  Cl11  1  0.200422  0.369943  0.161560  1
  Cl  Cl12  1  0.799307  0.899646  0.039355  1
  Cl  Cl13  1  0.200693  0.100354  0.960645  1
  Cl  Cl14  1  0.100354  0.200693  0.460645  1
  Cl  Cl15  1  0.899646  0.799307  0.539355  1
