# generated using pymatgen
data_Dy6Sc4Sn5Sb
_symmetry_space_group_name_H-M   'P 1'
_cell_length_a   8.80046300
_cell_length_b   8.79272982
_cell_length_c   6.25286600
_cell_angle_alpha   90.00000000
_cell_angle_beta   90.00000000
_cell_angle_gamma   120.02909402
_symmetry_Int_Tables_number   1
_chemical_formula_structural   Dy6Sc4Sn5Sb
_chemical_formula_sum   'Dy6 Sc4 Sn5 Sb1'
_cell_volume   418.90120194
_cell_formula_units_Z   1
loop_
 _symmetry_equiv_pos_site_id
 _symmetry_equiv_pos_as_xyz
  1  'x, y, z'
loop_
 _atom_site_type_symbol
 _atom_site_label
 _atom_site_symmetry_multiplicity
 _atom_site_fract_x
 _atom_site_fract_y
 _atom_site_fract_z
 _atom_site_occupancy
  Dy  Dy0  1  0.997915  0.758622  0.750000  1
  Dy  Dy1  1  0.000812  0.240451  0.250000  1
  Dy  Dy2  1  0.760361  0.759549  0.250000  1
  Dy  Dy3  1  0.759795  0.000000  0.750000  1
  Dy  Dy4  1  0.239293  0.241378  0.750000  1
  Dy  Dy5  1  0.241039  0.000000  0.250000  1
  Sc  Sc6  1  0.333075  0.665757  0.499917  1
  Sc  Sc7  1  0.667319  0.334243  0.000083  1
  Sc  Sc8  1  0.667319  0.334243  0.499917  1
  Sc  Sc9  1  0.333075  0.665757  0.000083  1
  Sn  Sn10  1  0.399999  0.399186  0.250000  1
  Sn  Sn11  1  0.000812  0.600814  0.250000  1
  Sn  Sn12  1  0.999755  0.399949  0.750000  1
  Sn  Sn13  1  0.599806  0.600051  0.750000  1
  Sn  Sn14  1  0.601684  0.000000  0.250000  1
  Sb  Sb15  1  0.397940  0.000000  0.750000  1
