# generated using pymatgen
data_Er2Th2ReB12Mo
_symmetry_space_group_name_H-M   'P 1'
_cell_length_a   3.76815600
_cell_length_b   9.25935723
_cell_length_c   11.70776029
_cell_angle_alpha   89.97436667
_cell_angle_beta   90.00000000
_cell_angle_gamma   90.00000000
_symmetry_Int_Tables_number   1
_chemical_formula_structural   Er2Th2ReB12Mo
_chemical_formula_sum   'Er4 Th4 Re2 B24 Mo2'
_cell_volume   408.49194054
_cell_formula_units_Z   2
loop_
 _symmetry_equiv_pos_site_id
 _symmetry_equiv_pos_as_xyz
  1  'x, y, z'
loop_
 _atom_site_type_symbol
 _atom_site_label
 _atom_site_symmetry_multiplicity
 _atom_site_fract_x
 _atom_site_fract_y
 _atom_site_fract_z
 _atom_site_occupancy
  Er  Er0  1  0.000000  0.944749  0.372023  1
  Er  Er1  1  0.000000  0.055251  0.627977  1
  Er  Er2  1  0.000000  0.444242  0.128092  1
  Er  Er3  1  0.000000  0.555758  0.871908  1
  Th  Th4  1  0.000000  0.322056  0.414161  1
  Th  Th5  1  0.000000  0.677944  0.585839  1
  Th  Th6  1  0.000000  0.822423  0.085657  1
  Th  Th7  1  0.000000  0.177577  0.914343  1
  Re  Re8  1  0.000000  0.139364  0.180085  1
  Re  Re9  1  0.000000  0.860636  0.819915  1
  B  B10  1  0.500000  0.554814  0.430958  1
  B  B11  1  0.500000  0.445186  0.569042  1
  B  B12  1  0.500000  0.056374  0.070452  1
  B  B13  1  0.500000  0.943626  0.929548  1
  B  B14  1  0.500000  0.751434  0.417516  1
  B  B15  1  0.500000  0.248566  0.582484  1
  B  B16  1  0.500000  0.250245  0.083934  1
  B  B17  1  0.500000  0.749755  0.916066  1
  B  B18  1  0.500000  0.793697  0.265689  1
  B  B19  1  0.500000  0.206303  0.734311  1
  B  B20  1  0.500000  0.291265  0.233447  1
  B  B21  1  0.500000  0.708735  0.766553  1
  B  B22  1  0.500000  0.630586  0.184439  1
  B  B23  1  0.500000  0.369414  0.815561  1
  B  B24  1  0.500000  0.130162  0.313457  1
  B  B25  1  0.500000  0.869838  0.686543  1
  B  B26  1  0.500000  0.985146  0.213874  1
  B  B27  1  0.500000  0.014854  0.786126  1
  B  B28  1  0.500000  0.483074  0.285185  1
  B  B29  1  0.500000  0.516926  0.714815  1
  B  B30  1  0.500000  0.600636  0.027230  1
  B  B31  1  0.500000  0.399364  0.972770  1
  B  B32  1  0.500000  0.100288  0.472013  1
  B  B33  1  0.500000  0.899712  0.527987  1
  Mo  Mo34  1  0.000000  0.640010  0.319130  1
  Mo  Mo35  1  0.000000  0.359990  0.680870  1
