# generated using pymatgen
data_Na3(AsPt)2
_symmetry_space_group_name_H-M   'P 1'
_cell_length_a   5.92454900
_cell_length_b   7.74315862
_cell_length_c   13.15492947
_cell_angle_alpha   89.77591794
_cell_angle_beta   90.00000000
_cell_angle_gamma   90.00000000
_symmetry_Int_Tables_number   1
_chemical_formula_structural   Na3(AsPt)2
_chemical_formula_sum   'Na12 As8 Pt8'
_cell_volume   603.47412561
_cell_formula_units_Z   4
loop_
 _symmetry_equiv_pos_site_id
 _symmetry_equiv_pos_as_xyz
  1  'x, y, z'
loop_
 _atom_site_type_symbol
 _atom_site_label
 _atom_site_symmetry_multiplicity
 _atom_site_fract_x
 _atom_site_fract_y
 _atom_site_fract_z
 _atom_site_occupancy
  Na  Na0  1  0.648749  0.224309  0.250190  1
  Na  Na1  1  0.351463  0.775767  0.749868  1
  Na  Na2  1  0.351463  0.724233  0.250132  1
  Na  Na3  1  0.648749  0.275691  0.749810  1
  Na  Na4  1  0.126343  0.382940  0.103740  1
  Na  Na5  1  0.874231  0.616868  0.896913  1
  Na  Na6  1  0.873699  0.616792  0.603960  1
  Na  Na7  1  0.873699  0.883208  0.396040  1
  Na  Na8  1  0.125695  0.382305  0.395757  1
  Na  Na9  1  0.125695  0.117695  0.604243  1
  Na  Na10  1  0.126343  0.117060  0.896260  1
  Na  Na11  1  0.874231  0.883132  0.103087  1
  As  As12  1  0.394121  0.750000  0.000000  1
  As  As13  1  0.397965  0.750000  0.500000  1
  As  As14  1  0.600066  0.250000  0.500000  1
  As  As15  1  0.158415  0.079405  0.249278  1
  As  As16  1  0.841829  0.920681  0.750115  1
  As  As17  1  0.841829  0.579319  0.249885  1
  As  As18  1  0.158415  0.420595  0.750722  1
  As  As19  1  0.607266  0.250000  0.000000  1
  Pt  Pt20  1  0.376020  0.034311  0.092220  1
  Pt  Pt21  1  0.625014  0.965779  0.907335  1
  Pt  Pt22  1  0.626812  0.966911  0.592267  1
  Pt  Pt23  1  0.626812  0.533089  0.407733  1
  Pt  Pt24  1  0.372022  0.032900  0.407483  1
  Pt  Pt25  1  0.372022  0.467100  0.592517  1
  Pt  Pt26  1  0.376020  0.465689  0.907780  1
  Pt  Pt27  1  0.625014  0.534221  0.092665  1
