# generated using pymatgen
data_Er2MnFe11P7
_symmetry_space_group_name_H-M   'P 1'
_cell_length_a   8.97405250
_cell_length_b   8.97358718
_cell_length_c   3.62722900
_cell_angle_alpha   90.00000000
_cell_angle_beta   90.00000000
_cell_angle_gamma   119.99961269
_symmetry_Int_Tables_number   1
_chemical_formula_structural   Er2MnFe11P7
_chemical_formula_sum   'Er2 Mn1 Fe11 P7'
_cell_volume   252.96590722
_cell_formula_units_Z   1
loop_
 _symmetry_equiv_pos_site_id
 _symmetry_equiv_pos_as_xyz
  1  'x, y, z'
loop_
 _atom_site_type_symbol
 _atom_site_label
 _atom_site_symmetry_multiplicity
 _atom_site_fract_x
 _atom_site_fract_y
 _atom_site_fract_z
 _atom_site_occupancy
  Er  Er0  1  0.667778  0.333287  0.000000  1
  Er  Er1  1  0.334723  0.668014  0.500000  1
  Mn  Mn2  1  0.114786  0.215132  0.500000  1
  Fe  Fe3  1  0.056766  0.631511  0.000000  1
  Fe  Fe4  1  0.573995  0.943429  0.000000  1
  Fe  Fe5  1  0.369672  0.426275  0.000000  1
  Fe  Fe6  1  0.271604  0.118096  0.000000  1
  Fe  Fe7  1  0.844966  0.724836  0.000000  1
  Fe  Fe8  1  0.880837  0.153308  0.000000  1
  Fe  Fe9  1  0.434571  0.049768  0.500000  1
  Fe  Fe10  1  0.616550  0.566115  0.500000  1
  Fe  Fe11  1  0.951477  0.385923  0.500000  1
  Fe  Fe12  1  0.097296  0.883096  0.500000  1
  Fe  Fe13  1  0.781229  0.901043  0.500000  1
  P  P14  1  0.299508  0.888553  0.000000  1
  P  P15  1  0.588663  0.700922  0.000000  1
  P  P16  1  0.112363  0.413944  0.000000  1
  P  P17  1  0.407776  0.290404  0.500000  1
  P  P18  1  0.887581  0.598958  0.500000  1
  P  P19  1  0.711280  0.112209  0.500000  1
  P  P20  1  0.996577  0.995178  0.000000  1
