# generated using pymatgen
data_Tb8Sc12Si15Te
_symmetry_space_group_name_H-M   'P 1'
_cell_length_a   7.18639300
_cell_length_b   7.43685277
_cell_length_c   14.10716200
_cell_angle_alpha   90.07362236
_cell_angle_beta   88.87226025
_cell_angle_gamma   90.16852324
_symmetry_Int_Tables_number   1
_chemical_formula_structural   Tb8Sc12Si15Te
_chemical_formula_sum   'Tb8 Sc12 Si15 Te1'
_cell_volume   753.79536818
_cell_formula_units_Z   1
loop_
 _symmetry_equiv_pos_site_id
 _symmetry_equiv_pos_as_xyz
  1  'x, y, z'
loop_
 _atom_site_type_symbol
 _atom_site_label
 _atom_site_symmetry_multiplicity
 _atom_site_fract_x
 _atom_site_fract_y
 _atom_site_fract_z
 _atom_site_occupancy
  Tb  Tb0  1  0.011713  0.176516  0.097157  1
  Tb  Tb1  1  0.988770  0.824582  0.903466  1
  Tb  Tb2  1  0.488838  0.675070  0.903759  1
  Tb  Tb3  1  0.994405  0.828123  0.597785  1
  Tb  Tb4  1  0.511601  0.324990  0.097684  1
  Tb  Tb5  1  0.000523  0.172509  0.399854  1
  Tb  Tb6  1  0.507534  0.318438  0.398170  1
  Tb  Tb7  1  0.511832  0.684704  0.601112  1
  Sc  Sc8  1  0.164107  0.499830  0.755255  1
  Sc  Sc9  1  0.835806  0.499036  0.252325  1
  Sc  Sc10  1  0.335681  0.001021  0.249987  1
  Sc  Sc11  1  0.666409  0.998825  0.751835  1
  Sc  Sc12  1  0.348188  0.157923  0.631160  1
  Sc  Sc13  1  0.658197  0.827992  0.372394  1
  Sc  Sc14  1  0.154995  0.680473  0.371128  1
  Sc  Sc15  1  0.667363  0.823339  0.124589  1
  Sc  Sc16  1  0.829777  0.327738  0.624477  1
  Sc  Sc17  1  0.330960  0.175536  0.874810  1
  Sc  Sc18  1  0.831628  0.323872  0.875071  1
  Sc  Sc19  1  0.168693  0.676473  0.125098  1
  Si  Si20  1  0.036880  0.121357  0.749796  1
  Si  Si21  1  0.960891  0.882926  0.247397  1
  Si  Si22  1  0.459829  0.618110  0.247911  1
  Si  Si23  1  0.537510  0.383065  0.751871  1
  Si  Si24  1  0.289819  0.868182  0.751817  1
  Si  Si25  1  0.710215  0.125140  0.247184  1
  Si  Si26  1  0.208959  0.375668  0.248951  1
  Si  Si27  1  0.795076  0.626256  0.751356  1
  Si  Si28  1  0.805828  0.541899  0.456257  1
  Si  Si29  1  0.329647  0.962197  0.460415  1
  Si  Si30  1  0.843325  0.535148  0.039244  1
  Si  Si31  1  0.671411  0.038898  0.539019  1
  Si  Si32  1  0.155266  0.465475  0.961146  1
  Si  Si33  1  0.654850  0.035098  0.960025  1
  Si  Si34  1  0.343786  0.966313  0.040292  1
  Te  Te35  1  0.189687  0.457282  0.540208  1
