# generated using pymatgen
data_La7Dy13Si15Pb
_symmetry_space_group_name_H-M   'P 1'
_cell_length_a   7.60904501
_cell_length_b   7.88166074
_cell_length_c   14.92385400
_cell_angle_alpha   89.81866187
_cell_angle_beta   89.83642653
_cell_angle_gamma   89.61413171
_symmetry_Int_Tables_number   1
_chemical_formula_structural   La7Dy13Si15Pb
_chemical_formula_sum   'La7 Dy13 Si15 Pb1'
_cell_volume   894.98367552
_cell_formula_units_Z   1
loop_
 _symmetry_equiv_pos_site_id
 _symmetry_equiv_pos_as_xyz
  1  'x, y, z'
loop_
 _atom_site_type_symbol
 _atom_site_label
 _atom_site_symmetry_multiplicity
 _atom_site_fract_x
 _atom_site_fract_y
 _atom_site_fract_z
 _atom_site_occupancy
  La  La0  1  0.984053  0.831303  0.090792  1
  La  La1  1  0.468004  0.679928  0.404444  1
  La  La2  1  0.525290  0.320861  0.901241  1
  La  La3  1  0.024810  0.180488  0.596920  1
  La  La4  1  0.024729  0.179847  0.900718  1
  La  La5  1  0.527498  0.321311  0.597726  1
  La  La6  1  0.468941  0.679538  0.097578  1
  Dy  Dy7  1  0.640506  0.004541  0.250957  1
  Dy  Dy8  1  0.162999  0.505307  0.250797  1
  Dy  Dy9  1  0.851140  0.489770  0.749388  1
  Dy  Dy10  1  0.350907  0.011062  0.749592  1
  Dy  Dy11  1  0.980147  0.827068  0.405682  1
  Dy  Dy12  1  0.681981  0.821863  0.876451  1
  Dy  Dy13  1  0.180507  0.680356  0.622042  1
  Dy  Dy14  1  0.820524  0.314613  0.122121  1
  Dy  Dy15  1  0.310745  0.173219  0.380348  1
  Dy  Dy16  1  0.312254  0.173988  0.122548  1
  Dy  Dy17  1  0.821063  0.312362  0.379558  1
  Dy  Dy18  1  0.181735  0.677190  0.876130  1
  Dy  Dy19  1  0.684804  0.822834  0.622887  1
  Si  Si20  1  0.262384  0.877190  0.253301  1
  Si  Si21  1  0.733514  0.119197  0.749500  1
  Si  Si22  1  0.233380  0.382333  0.748945  1
  Si  Si23  1  0.019807  0.108216  0.252067  1
  Si  Si24  1  0.517889  0.366083  0.251491  1
  Si  Si25  1  0.476198  0.615349  0.749235  1
  Si  Si26  1  0.976391  0.886857  0.749396  1
  Si  Si27  1  0.857013  0.530739  0.960508  1
  Si  Si28  1  0.361798  0.969879  0.542482  1
  Si  Si29  1  0.639202  0.027645  0.040470  1
  Si  Si30  1  0.138513  0.475757  0.457832  1
  Si  Si31  1  0.141817  0.469207  0.040066  1
  Si  Si32  1  0.645338  0.024535  0.459058  1
  Si  Si33  1  0.357064  0.968362  0.958676  1
  Si  Si34  1  0.857242  0.537140  0.537183  1
  Pb  Pb35  1  0.779817  0.634061  0.251868  1
