# generated using pymatgen
data_Cs(RhPb2)3
_symmetry_space_group_name_H-M   'P 1'
_cell_length_a   14.41265100
_cell_length_b   14.41265076
_cell_length_c   4.65116000
_cell_angle_alpha   90.00000000
_cell_angle_beta   90.00000000
_cell_angle_gamma   145.24452456
_symmetry_Int_Tables_number   1
_chemical_formula_structural   Cs(RhPb2)3
_chemical_formula_sum   'Cs2 Rh6 Pb12'
_cell_volume   550.78388167
_cell_formula_units_Z   2
loop_
 _symmetry_equiv_pos_site_id
 _symmetry_equiv_pos_as_xyz
  1  'x, y, z'
loop_
 _atom_site_type_symbol
 _atom_site_label
 _atom_site_symmetry_multiplicity
 _atom_site_fract_x
 _atom_site_fract_y
 _atom_site_fract_z
 _atom_site_occupancy
  Cs  Cs0  1  0.584428  0.415572  0.250000  1
  Cs  Cs1  1  0.415572  0.584428  0.750000  1
  Rh  Rh2  1  0.968502  0.405990  0.750000  1
  Rh  Rh3  1  0.962876  0.037124  0.750000  1
  Rh  Rh4  1  0.031498  0.594010  0.250000  1
  Rh  Rh5  1  0.037124  0.962876  0.250000  1
  Rh  Rh6  1  0.405990  0.968502  0.250000  1
  Rh  Rh7  1  0.594010  0.031498  0.750000  1
  Pb  Pb8  1  0.765051  0.861900  0.250000  1
  Pb  Pb9  1  0.861900  0.765051  0.750000  1
  Pb  Pb10  1  0.138100  0.234949  0.250000  1
  Pb  Pb11  1  0.524509  0.872594  0.250000  1
  Pb  Pb12  1  0.127406  0.475491  0.250000  1
  Pb  Pb13  1  0.872594  0.524509  0.750000  1
  Pb  Pb14  1  0.234949  0.138100  0.750000  1
  Pb  Pb15  1  0.748387  0.251613  0.250000  1
  Pb  Pb16  1  0.251613  0.748387  0.750000  1
  Pb  Pb17  1  0.136242  0.863758  0.250000  1
  Pb  Pb18  1  0.863758  0.136242  0.750000  1
  Pb  Pb19  1  0.475491  0.127406  0.750000  1
