# generated using pymatgen
data_La8Dy11LuSn16
_symmetry_space_group_name_H-M   'P 1'
_cell_length_a   8.22699300
_cell_length_b   8.37516011
_cell_length_c   15.80386300
_cell_angle_alpha   90.00000000
_cell_angle_beta   90.00000000
_cell_angle_gamma   90.00946816
_symmetry_Int_Tables_number   1
_chemical_formula_structural   La8Dy11LuSn16
_chemical_formula_sum   'La8 Dy11 Lu1 Sn16'
_cell_volume   1088.92381647
_cell_formula_units_Z   1
loop_
 _symmetry_equiv_pos_site_id
 _symmetry_equiv_pos_as_xyz
  1  'x, y, z'
loop_
 _atom_site_type_symbol
 _atom_site_label
 _atom_site_symmetry_multiplicity
 _atom_site_fract_x
 _atom_site_fract_y
 _atom_site_fract_z
 _atom_site_occupancy
  La  La0  1  0.518167  0.321313  0.903174  1
  La  La1  1  0.017924  0.178836  0.596764  1
  La  La2  1  0.481813  0.678861  0.403151  1
  La  La3  1  0.982153  0.821411  0.096828  1
  La  La4  1  0.481813  0.678861  0.096849  1
  La  La5  1  0.982153  0.821411  0.403172  1
  La  La6  1  0.518167  0.321313  0.596826  1
  La  La7  1  0.017924  0.178836  0.903236  1
  Dy  Dy8  1  0.363331  0.836780  0.877131  1
  Dy  Dy9  1  0.863222  0.663236  0.623097  1
  Dy  Dy10  1  0.636246  0.162924  0.376855  1
  Dy  Dy11  1  0.137034  0.336615  0.123139  1
  Dy  Dy12  1  0.636246  0.162924  0.123145  1
  Dy  Dy13  1  0.137034  0.336615  0.376861  1
  Dy  Dy14  1  0.363331  0.836780  0.622869  1
  Dy  Dy15  1  0.863222  0.663236  0.876903  1
  Dy  Dy16  1  0.196437  0.504355  0.750000  1
  Dy  Dy17  1  0.696350  0.995736  0.750000  1
  Dy  Dy18  1  0.803766  0.495831  0.250000  1
  Lu  Lu19  1  0.303482  0.004675  0.250000  1
  Sn  Sn20  1  0.301817  0.040524  0.043472  1
  Sn  Sn21  1  0.801960  0.459437  0.457194  1
  Sn  Sn22  1  0.698019  0.959245  0.542659  1
  Sn  Sn23  1  0.197953  0.540572  0.957344  1
  Sn  Sn24  1  0.698019  0.959245  0.957341  1
  Sn  Sn25  1  0.197953  0.540572  0.542656  1
  Sn  Sn26  1  0.301817  0.040524  0.456528  1
  Sn  Sn27  1  0.801960  0.459437  0.042806  1
  Sn  Sn28  1  0.561927  0.624363  0.750000  1
  Sn  Sn29  1  0.062219  0.875810  0.750000  1
  Sn  Sn30  1  0.437538  0.375061  0.250000  1
  Sn  Sn31  1  0.939491  0.123593  0.250000  1
  Sn  Sn32  1  0.325873  0.141963  0.750000  1
  Sn  Sn33  1  0.826117  0.357749  0.750000  1
  Sn  Sn34  1  0.673724  0.858044  0.250000  1
  Sn  Sn35  1  0.173801  0.643311  0.250000  1
