# generated using pymatgen
data_Er6Ga7Co7Ru9
_symmetry_space_group_name_H-M   'P 1'
_cell_length_a   8.70651090
_cell_length_b   8.73084695
_cell_length_c   8.73084500
_cell_angle_alpha   59.99999601
_cell_angle_beta   59.90748987
_cell_angle_gamma   59.90749519
_symmetry_Int_Tables_number   1
_chemical_formula_structural   Er6Ga7Co7Ru9
_chemical_formula_sum   'Er6 Ga7 Co7 Ru9'
_cell_volume   468.63327382
_cell_formula_units_Z   1
loop_
 _symmetry_equiv_pos_site_id
 _symmetry_equiv_pos_as_xyz
  1  'x, y, z'
loop_
 _atom_site_type_symbol
 _atom_site_label
 _atom_site_symmetry_multiplicity
 _atom_site_fract_x
 _atom_site_fract_y
 _atom_site_fract_z
 _atom_site_occupancy
  Er  Er0  1  0.718079  0.281978  0.281978  1
  Er  Er1  1  0.718079  0.281978  0.717966  1
  Er  Er2  1  0.718079  0.717966  0.281978  1
  Er  Er3  1  0.283588  0.717226  0.717226  1
  Er  Er4  1  0.283588  0.717226  0.281958  1
  Er  Er5  1  0.283588  0.281958  0.717226  1
  Ga  Ga6  1  0.999346  0.000218  0.000218  1
  Ga  Ga7  1  0.498914  0.000983  0.000983  1
  Ga  Ga8  1  0.498914  0.000983  0.499120  1
  Ga  Ga9  1  0.498914  0.499120  0.000983  1
  Ga  Ga10  1  0.000610  0.503185  0.503185  1
  Ga  Ga11  1  0.000610  0.503185  0.993020  1
  Ga  Ga12  1  0.000610  0.993020  0.503185  1
  Co  Co13  1  0.322335  0.036443  0.320612  1
  Co  Co14  1  0.322335  0.320612  0.036443  1
  Co  Co15  1  0.322335  0.320612  0.320612  1
  Co  Co16  1  0.961514  0.679495  0.679495  1
  Co  Co17  1  0.679295  0.959531  0.680587  1
  Co  Co18  1  0.679295  0.680587  0.959531  1
  Co  Co19  1  0.679295  0.680587  0.680587  1
  Ru  Ru20  1  0.619619  0.126794  0.126794  1
  Ru  Ru21  1  0.127139  0.623701  0.124581  1
  Ru  Ru22  1  0.127139  0.124581  0.623701  1
  Ru  Ru23  1  0.127139  0.124581  0.124581  1
  Ru  Ru24  1  0.382529  0.872490  0.872490  1
  Ru  Ru25  1  0.871583  0.380888  0.873764  1
  Ru  Ru26  1  0.871583  0.873764  0.380888  1
  Ru  Ru27  1  0.871583  0.873764  0.873764  1
  Ru  Ru28  1  0.032362  0.322546  0.322546  1
