# generated using pymatgen
data_Er2Tm4MnBi2
_symmetry_space_group_name_H-M   'P 1'
_cell_length_a   8.20872946
_cell_length_b   8.20398079
_cell_length_c   4.23918600
_cell_angle_alpha   90.00000000
_cell_angle_beta   90.00000000
_cell_angle_gamma   119.98086503
_symmetry_Int_Tables_number   1
_chemical_formula_structural   Er2Tm4MnBi2
_chemical_formula_sum   'Er2 Tm4 Mn1 Bi2'
_cell_volume   247.28478049
_cell_formula_units_Z   1
loop_
 _symmetry_equiv_pos_site_id
 _symmetry_equiv_pos_as_xyz
  1  'x, y, z'
loop_
 _atom_site_type_symbol
 _atom_site_label
 _atom_site_symmetry_multiplicity
 _atom_site_fract_x
 _atom_site_fract_y
 _atom_site_fract_z
 _atom_site_occupancy
  Er  Er0  1  0.389234  0.389273  0.500000  1
  Er  Er1  1  0.610766  0.000039  0.500000  1
  Tm  Tm2  1  0.231823  0.999716  0.000000  1
  Tm  Tm3  1  0.000000  0.611420  0.500000  1
  Tm  Tm4  1  0.768177  0.767892  0.000000  1
  Tm  Tm5  1  0.000000  0.231978  0.000000  1
  Mn  Mn6  1  0.000000  0.999501  0.500000  1
  Bi  Bi7  1  0.333096  0.666639  0.000000  1
  Bi  Bi8  1  0.666904  0.333541  0.000000  1
