# generated using pymatgen
data_Hf5Co19(SiP)6
_symmetry_space_group_name_H-M   'P 1'
_cell_length_a   11.86927000
_cell_length_b   11.86927243
_cell_length_c   3.59685100
_cell_angle_alpha   90.00000000
_cell_angle_beta   90.00000000
_cell_angle_gamma   120.00000436
_symmetry_Int_Tables_number   1
_chemical_formula_structural   Hf5Co19(SiP)6
_chemical_formula_sum   'Hf5 Co19 Si6 P6'
_cell_volume   438.83490845
_cell_formula_units_Z   1
loop_
 _symmetry_equiv_pos_site_id
 _symmetry_equiv_pos_as_xyz
  1  'x, y, z'
loop_
 _atom_site_type_symbol
 _atom_site_label
 _atom_site_symmetry_multiplicity
 _atom_site_fract_x
 _atom_site_fract_y
 _atom_site_fract_z
 _atom_site_occupancy
  Hf  Hf0  1  0.666667  0.333333  0.000000  1
  Hf  Hf1  1  0.333333  0.666667  0.000000  1
  Hf  Hf2  1  0.814780  0.814780  0.500000  1
  Hf  Hf3  1  0.185220  0.000000  0.500000  1
  Hf  Hf4  1  0.000000  0.185220  0.500000  1
  Co  Co5  1  0.876181  0.353507  0.500000  1
  Co  Co6  1  0.646493  0.522675  0.500000  1
  Co  Co7  1  0.477325  0.123819  0.500000  1
  Co  Co8  1  0.353507  0.876181  0.500000  1
  Co  Co9  1  0.522675  0.646493  0.500000  1
  Co  Co10  1  0.123819  0.477325  0.500000  1
  Co  Co11  1  0.446351  0.446351  0.000000  1
  Co  Co12  1  0.553649  0.000000  0.000000  1
  Co  Co13  1  0.000000  0.553649  0.000000  1
  Co  Co14  1  0.807778  0.177767  0.000000  1
  Co  Co15  1  0.822233  0.630011  0.000000  1
  Co  Co16  1  0.369989  0.192222  0.000000  1
  Co  Co17  1  0.177767  0.807778  0.000000  1
  Co  Co18  1  0.630011  0.822233  0.000000  1
  Co  Co19  1  0.192222  0.369989  0.000000  1
  Co  Co20  1  0.277316  0.277316  0.500000  1
  Co  Co21  1  0.722684  0.000000  0.500000  1
  Co  Co22  1  0.000000  0.722684  0.500000  1
  Co  Co23  1  0.000000  0.000000  0.000000  1
  Si  Si24  1  0.680803  0.162931  0.500000  1
  Si  Si25  1  0.837069  0.517872  0.500000  1
  Si  Si26  1  0.482128  0.319197  0.500000  1
  Si  Si27  1  0.162931  0.680803  0.500000  1
  Si  Si28  1  0.517872  0.837069  0.500000  1
  Si  Si29  1  0.319197  0.482128  0.500000  1
  P  P30  1  0.175802  0.175802  0.000000  1
  P  P31  1  0.824198  0.000000  0.000000  1
  P  P32  1  0.000000  0.824198  0.000000  1
  P  P33  1  0.636418  0.636418  0.000000  1
  P  P34  1  0.363582  0.000000  0.000000  1
  P  P35  1  0.000000  0.363582  0.000000  1
