# generated using pymatgen
data_Hf9MnRe3Pd
_symmetry_space_group_name_H-M   'P 1'
_cell_length_a   8.48458200
_cell_length_b   8.62231539
_cell_length_c   8.62231500
_cell_angle_alpha   120.00193586
_cell_angle_beta   90.00000000
_cell_angle_gamma   90.00000000
_symmetry_Int_Tables_number   1
_chemical_formula_structural   Hf9MnRe3Pd
_chemical_formula_sum   'Hf18 Mn2 Re6 Pd2'
_cell_volume   546.26125759
_cell_formula_units_Z   2
loop_
 _symmetry_equiv_pos_site_id
 _symmetry_equiv_pos_as_xyz
  1  'x, y, z'
loop_
 _atom_site_type_symbol
 _atom_site_label
 _atom_site_symmetry_multiplicity
 _atom_site_fract_x
 _atom_site_fract_y
 _atom_site_fract_z
 _atom_site_occupancy
  Hf  Hf0  1  0.552847  0.807549  0.615108  1
  Hf  Hf1  1  0.552843  0.807558  0.192442  1
  Hf  Hf2  1  0.552847  0.384892  0.192451  1
  Hf  Hf3  1  0.447153  0.192451  0.384892  1
  Hf  Hf4  1  0.447157  0.192442  0.807558  1
  Hf  Hf5  1  0.447153  0.615108  0.807549  1
  Hf  Hf6  1  0.052847  0.192451  0.384892  1
  Hf  Hf7  1  0.052843  0.192442  0.807558  1
  Hf  Hf8  1  0.052847  0.615108  0.807549  1
  Hf  Hf9  1  0.947153  0.807549  0.615108  1
  Hf  Hf10  1  0.947157  0.807558  0.192442  1
  Hf  Hf11  1  0.947153  0.384892  0.192451  1
  Hf  Hf12  1  0.750000  0.456847  0.913685  1
  Hf  Hf13  1  0.750000  0.456848  0.543152  1
  Hf  Hf14  1  0.750000  0.086315  0.543153  1
  Hf  Hf15  1  0.250000  0.543153  0.086315  1
  Hf  Hf16  1  0.250000  0.543152  0.456848  1
  Hf  Hf17  1  0.250000  0.913685  0.456847  1
  Mn  Mn18  1  0.500000  0.000000  0.000000  1
  Mn  Mn19  1  0.000000  0.000000  0.000000  1
  Re  Re20  1  0.750000  0.108430  0.216863  1
  Re  Re21  1  0.750000  0.108419  0.891581  1
  Re  Re22  1  0.750000  0.783137  0.891570  1
  Re  Re23  1  0.250000  0.891570  0.783137  1
  Re  Re24  1  0.250000  0.891581  0.108419  1
  Re  Re25  1  0.250000  0.216863  0.108430  1
  Pd  Pd26  1  0.750000  0.666675  0.333325  1
  Pd  Pd27  1  0.250000  0.333325  0.666675  1
