# generated using pymatgen
data_Sm3ThRe16(Si3P)2
_symmetry_space_group_name_H-M   'P 1'
_cell_length_a   4.12921400
_cell_length_b   7.34255052
_cell_length_c   15.45924823
_cell_angle_alpha   89.96755373
_cell_angle_beta   90.00000000
_cell_angle_gamma   90.00000000
_symmetry_Int_Tables_number   1
_chemical_formula_structural   Sm3ThRe16(Si3P)2
_chemical_formula_sum   'Sm3 Th1 Re16 Si6 P2'
_cell_volume   468.70829084
_cell_formula_units_Z   1
loop_
 _symmetry_equiv_pos_site_id
 _symmetry_equiv_pos_as_xyz
  1  'x, y, z'
loop_
 _atom_site_type_symbol
 _atom_site_label
 _atom_site_symmetry_multiplicity
 _atom_site_fract_x
 _atom_site_fract_y
 _atom_site_fract_z
 _atom_site_occupancy
  Sm  Sm0  1  0.000000  0.581027  0.120719  1
  Sm  Sm1  1  0.500000  0.077601  0.383501  1
  Sm  Sm2  1  0.500000  0.920220  0.614728  1
  Th  Th3  1  0.000000  0.419588  0.880689  1
  Re  Re4  1  0.000000  0.144670  0.052055  1
  Re  Re5  1  0.000000  0.863279  0.948998  1
  Re  Re6  1  0.500000  0.641553  0.449554  1
  Re  Re7  1  0.500000  0.355962  0.550184  1
  Re  Re8  1  0.000000  0.736982  0.324454  1
  Re  Re9  1  0.000000  0.262040  0.674800  1
  Re  Re10  1  0.500000  0.235515  0.178873  1
  Re  Re11  1  0.500000  0.764671  0.821588  1
  Re  Re12  1  0.000000  0.422696  0.418847  1
  Re  Re13  1  0.000000  0.574818  0.580197  1
  Re  Re14  1  0.500000  0.932231  0.083500  1
  Re  Re15  1  0.500000  0.074733  0.919031  1
  Re  Re16  1  0.000000  0.989484  0.206971  1
  Re  Re17  1  0.000000  0.006529  0.792516  1
  Re  Re18  1  0.500000  0.488567  0.295558  1
  Re  Re19  1  0.500000  0.509972  0.705078  1
  Si  Si20  1  0.500000  0.334791  0.025019  1
  Si  Si21  1  0.500000  0.672825  0.977683  1
  Si  Si22  1  0.000000  0.290852  0.273017  1
  Si  Si23  1  0.000000  0.708801  0.724674  1
  Si  Si24  1  0.500000  0.791261  0.228889  1
  Si  Si25  1  0.500000  0.201572  0.769606  1
  P  P26  1  0.000000  0.819947  0.474769  1
  P  P27  1  0.000000  0.177816  0.524502  1
