# generated using pymatgen
data_La20Si15H
_symmetry_space_group_name_H-M   'P 1'
_cell_length_a   8.01096475
_cell_length_b   8.00814884
_cell_length_c   15.54995400
_cell_angle_alpha   89.64845236
_cell_angle_beta   89.81063881
_cell_angle_gamma   89.72256758
_symmetry_Int_Tables_number   1
_chemical_formula_structural   La20Si15H
_chemical_formula_sum   'La20 Si15 H1'
_cell_volume   997.54034591
_cell_formula_units_Z   1
loop_
 _symmetry_equiv_pos_site_id
 _symmetry_equiv_pos_as_xyz
  1  'x, y, z'
loop_
 _atom_site_type_symbol
 _atom_site_label
 _atom_site_symmetry_multiplicity
 _atom_site_fract_x
 _atom_site_fract_y
 _atom_site_fract_z
 _atom_site_occupancy
  La  La0  1  0.191420  0.189172  0.996781  1
  La  La1  1  0.493596  0.862616  0.050600  1
  La  La2  1  0.539027  0.351064  0.118033  1
  La  La3  1  0.967068  0.895344  0.123995  1
  La  La4  1  0.999434  0.378839  0.201840  1
  La  La5  1  0.312458  0.686725  0.248200  1
  La  La6  1  0.618951  0.004264  0.305238  1
  La  La7  1  0.125844  0.018464  0.370252  1
  La  La8  1  0.630401  0.478893  0.373366  1
  La  La9  1  0.124579  0.486112  0.448987  1
  La  La10  1  0.808251  0.806620  0.498587  1
  La  La11  1  0.489590  0.120816  0.553059  1
  La  La12  1  0.479100  0.627593  0.624408  1
  La  La13  1  0.016426  0.123521  0.626632  1
  La  La14  1  0.004996  0.621502  0.698699  1
  La  La15  1  0.693292  0.305975  0.754953  1
  La  La16  1  0.364708  0.985658  0.799442  1
  La  La17  1  0.854135  0.985872  0.874436  1
  La  La18  1  0.363737  0.519091  0.876282  1
  La  La19  1  0.875818  0.508525  0.953138  1
  Si  Si20  1  0.204449  0.580450  0.061759  1
  Si  Si21  1  0.290753  0.077666  0.187700  1
  Si  Si22  1  0.699823  0.663418  0.197004  1
  Si  Si23  1  0.338365  0.302069  0.292946  1
  Si  Si24  1  0.922017  0.712280  0.304181  1
  Si  Si25  1  0.418758  0.784670  0.440272  1
  Si  Si26  1  0.833707  0.196325  0.453837  1
  Si  Si27  1  0.194217  0.830366  0.545113  1
  Si  Si28  1  0.788144  0.419845  0.559322  1
  Si  Si29  1  0.706832  0.918676  0.691815  1
  Si  Si30  1  0.297904  0.332584  0.701375  1
  Si  Si31  1  0.663402  0.695117  0.799304  1
  Si  Si32  1  0.074555  0.288014  0.809245  1
  Si  Si33  1  0.555478  0.200857  0.934489  1
  Si  Si34  1  0.149434  0.801914  0.954345  1
  H  H35  1  0.909324  0.239075  0.070362  1
