# generated using pymatgen
data_LaYb10CeRu4
_symmetry_space_group_name_H-M   'P 1'
_cell_length_a   6.38096181
_cell_length_b   7.55788341
_cell_length_c   9.60192000
_cell_angle_alpha   90.00000000
_cell_angle_beta   90.00000000
_cell_angle_gamma   87.39993173
_symmetry_Int_Tables_number   1
_chemical_formula_structural   LaYb10CeRu4
_chemical_formula_sum   'La1 Yb10 Ce1 Ru4'
_cell_volume   462.59090227
_cell_formula_units_Z   1
loop_
 _symmetry_equiv_pos_site_id
 _symmetry_equiv_pos_as_xyz
  1  'x, y, z'
loop_
 _atom_site_type_symbol
 _atom_site_label
 _atom_site_symmetry_multiplicity
 _atom_site_fract_x
 _atom_site_fract_y
 _atom_site_fract_z
 _atom_site_occupancy
  La  La0  1  0.848928  0.949104  0.750000  1
  Yb  Yb1  1  0.665195  0.168705  0.067161  1
  Yb  Yb2  1  0.362813  0.543419  0.250000  1
  Yb  Yb3  1  0.843598  0.668431  0.066976  1
  Yb  Yb4  1  0.162635  0.332051  0.927755  1
  Yb  Yb5  1  0.332912  0.832735  0.929335  1
  Yb  Yb6  1  0.636156  0.458644  0.750000  1
  Yb  Yb7  1  0.332912  0.832735  0.570665  1
  Yb  Yb8  1  0.162635  0.332051  0.572245  1
  Yb  Yb9  1  0.843598  0.668431  0.433024  1
  Yb  Yb10  1  0.665195  0.168705  0.432839  1
  Ce  Ce11  1  0.160137  0.060269  0.250000  1
  Ru  Ru12  1  0.997091  0.340513  0.250000  1
  Ru  Ru13  1  0.493938  0.111377  0.750000  1
  Ru  Ru14  1  0.477119  0.899285  0.250000  1
  Ru  Ru15  1  0.015138  0.633546  0.750000  1
