# generated using pymatgen
data_La6Pr2Er12Si15Ag
_symmetry_space_group_name_H-M   'P 1'
_cell_length_a   7.56275684
_cell_length_b   7.82008327
_cell_length_c   14.89004971
_cell_angle_alpha   89.88340044
_cell_angle_beta   89.51005391
_cell_angle_gamma   90.28105990
_symmetry_Int_Tables_number   1
_chemical_formula_structural   La6Pr2Er12Si15Ag
_chemical_formula_sum   'La6 Pr2 Er12 Si15 Ag1'
_cell_volume   880.57352070
_cell_formula_units_Z   1
loop_
 _symmetry_equiv_pos_site_id
 _symmetry_equiv_pos_as_xyz
  1  'x, y, z'
loop_
 _atom_site_type_symbol
 _atom_site_label
 _atom_site_symmetry_multiplicity
 _atom_site_fract_x
 _atom_site_fract_y
 _atom_site_fract_z
 _atom_site_occupancy
  La  La0  1  0.021126  0.178748  0.100545  1
  La  La1  1  0.979572  0.823578  0.902269  1
  La  La2  1  0.479284  0.679226  0.902574  1
  La  La3  1  0.981130  0.829540  0.598839  1
  La  La4  1  0.519548  0.321782  0.097914  1
  La  La5  1  0.015376  0.172506  0.398614  1
  Pr  Pr6  1  0.519455  0.319653  0.398570  1
  Pr  Pr7  1  0.487675  0.682344  0.601323  1
  Er  Er8  1  0.158651  0.508177  0.751324  1
  Er  Er9  1  0.842858  0.492123  0.251997  1
  Er  Er10  1  0.342899  0.003882  0.249339  1
  Er  Er11  1  0.660717  0.992453  0.750450  1
  Er  Er12  1  0.334441  0.175299  0.624794  1
  Er  Er13  1  0.669693  0.821178  0.375545  1
  Er  Er14  1  0.173259  0.673804  0.374435  1
  Er  Er15  1  0.676355  0.823092  0.123706  1
  Er  Er16  1  0.821768  0.326571  0.622353  1
  Er  Er17  1  0.323104  0.177217  0.876790  1
  Er  Er18  1  0.823847  0.321631  0.877545  1
  Er  Er19  1  0.175598  0.676786  0.123736  1
  Si  Si20  1  0.031992  0.122147  0.750747  1
  Si  Si21  1  0.969447  0.881037  0.249833  1
  Si  Si22  1  0.469553  0.613674  0.248300  1
  Si  Si23  1  0.532662  0.386694  0.751625  1
  Si  Si24  1  0.277314  0.882295  0.750215  1
  Si  Si25  1  0.719735  0.119632  0.248600  1
  Si  Si26  1  0.224238  0.376981  0.249631  1
  Si  Si27  1  0.778682  0.620238  0.751650  1
  Si  Si28  1  0.840297  0.534893  0.457373  1
  Si  Si29  1  0.348486  0.964734  0.460898  1
  Si  Si30  1  0.853748  0.532828  0.039044  1
  Si  Si31  1  0.649193  0.033967  0.537775  1
  Si  Si32  1  0.144844  0.467326  0.961788  1
  Si  Si33  1  0.645852  0.032026  0.960524  1
  Si  Si34  1  0.352565  0.967591  0.039818  1
  Ag  Ag35  1  0.155032  0.464345  0.539516  1
