# generated using pymatgen
data_YPa3(ZnRh)4
_symmetry_space_group_name_H-M   'P 1'
_cell_length_a   3.93272300
_cell_length_b   7.02063891
_cell_length_c   8.31596406
_cell_angle_alpha   90.56537716
_cell_angle_beta   90.00000000
_cell_angle_gamma   90.00000000
_symmetry_Int_Tables_number   1
_chemical_formula_structural   YPa3(ZnRh)4
_chemical_formula_sum   'Y1 Pa3 Zn4 Rh4'
_cell_volume   229.59448625
_cell_formula_units_Z   1
loop_
 _symmetry_equiv_pos_site_id
 _symmetry_equiv_pos_as_xyz
  1  'x, y, z'
loop_
 _atom_site_type_symbol
 _atom_site_label
 _atom_site_symmetry_multiplicity
 _atom_site_fract_x
 _atom_site_fract_y
 _atom_site_fract_z
 _atom_site_occupancy
  Y  Y0  1  0.250000  0.056304  0.310963  1
  Pa  Pa1  1  0.250000  0.557745  0.189345  1
  Pa  Pa2  1  0.750000  0.450818  0.816465  1
  Pa  Pa3  1  0.750000  0.949161  0.681580  1
  Zn  Zn4  1  0.250000  0.618554  0.558020  1
  Zn  Zn5  1  0.750000  0.364416  0.442685  1
  Zn  Zn6  1  0.750000  0.884112  0.059309  1
  Zn  Zn7  1  0.250000  0.120646  0.946064  1
  Rh  Rh8  1  0.250000  0.732134  0.866374  1
  Rh  Rh9  1  0.750000  0.288196  0.117757  1
  Rh  Rh10  1  0.750000  0.746864  0.368022  1
  Rh  Rh11  1  0.250000  0.231049  0.643416  1
