# generated using pymatgen
data_Ti7CrAs6
_symmetry_space_group_name_H-M   'P 1'
_cell_length_a   7.23745630
_cell_length_b   7.23745617
_cell_length_c   9.49279222
_cell_angle_alpha   78.55219816
_cell_angle_beta   78.55219892
_cell_angle_gamma   28.58454657
_symmetry_Int_Tables_number   1
_chemical_formula_structural   Ti7CrAs6
_chemical_formula_sum   'Ti7 Cr1 As6'
_cell_volume   232.86345924
_cell_formula_units_Z   1
loop_
 _symmetry_equiv_pos_site_id
 _symmetry_equiv_pos_as_xyz
  1  'x, y, z'
loop_
 _atom_site_type_symbol
 _atom_site_label
 _atom_site_symmetry_multiplicity
 _atom_site_fract_x
 _atom_site_fract_y
 _atom_site_fract_z
 _atom_site_occupancy
  Ti  Ti0  1  0.000000  0.000000  0.500000  1
  Ti  Ti1  1  0.342397  0.342397  0.948076  1
  Ti  Ti2  1  0.657603  0.657603  0.051924  1
  Ti  Ti3  1  0.776822  0.776822  0.677590  1
  Ti  Ti4  1  0.223178  0.223178  0.322410  1
  Ti  Ti5  1  0.561476  0.561476  0.783861  1
  Ti  Ti6  1  0.438524  0.438524  0.216139  1
  Cr  Cr7  1  0.000000  0.000000  0.000000  1
  As  As8  1  0.932487  0.932487  0.773416  1
  As  As9  1  0.067513  0.067513  0.226584  1
  As  As10  1  0.638891  0.638891  0.512650  1
  As  As11  1  0.361109  0.361109  0.487350  1
  As  As12  1  0.179678  0.179678  0.851463  1
  As  As13  1  0.820322  0.820322  0.148537  1
