# generated using pymatgen
data_Sc8Si15SbRu12
_symmetry_space_group_name_H-M   'P 1'
_cell_length_a   10.00344317
_cell_length_b   10.01064842
_cell_length_c   13.44624311
_cell_angle_alpha   53.91548593
_cell_angle_beta   53.75983414
_cell_angle_gamma   30.98266262
_symmetry_Int_Tables_number   1
_chemical_formula_structural   Sc8Si15SbRu12
_chemical_formula_sum   'Sc8 Si15 Sb1 Ru12'
_cell_volume   548.01172372
_cell_formula_units_Z   1
loop_
 _symmetry_equiv_pos_site_id
 _symmetry_equiv_pos_as_xyz
  1  'x, y, z'
loop_
 _atom_site_type_symbol
 _atom_site_label
 _atom_site_symmetry_multiplicity
 _atom_site_fract_x
 _atom_site_fract_y
 _atom_site_fract_z
 _atom_site_occupancy
  Sc  Sc0  1  0.292565  0.560493  0.645252  1
  Sc  Sc1  1  0.708348  0.964234  0.860126  1
  Sc  Sc2  1  0.289884  0.035608  0.139765  1
  Sc  Sc3  1  0.442739  0.709587  0.851409  1
  Sc  Sc4  1  0.036909  0.292899  0.639041  1
  Sc  Sc5  1  0.577537  0.281359  0.147498  1
  Sc  Sc6  1  0.960390  0.705766  0.367049  1
  Sc  Sc7  1  0.706676  0.439239  0.356521  1
  Si  Si8  1  0.613793  0.859072  0.600883  1
  Si  Si9  1  0.974421  0.255940  0.891696  1
  Si  Si10  1  0.385604  0.615446  0.251429  1
  Si  Si11  1  0.385905  0.140943  0.398725  1
  Si  Si12  1  0.563941  0.086067  0.066118  1
  Si  Si13  1  0.138096  0.389400  0.898736  1
  Si  Si14  1  0.251583  0.972829  0.392463  1
  Si  Si15  1  0.081255  0.573348  0.567559  1
  Si  Si16  1  0.429735  0.921707  0.929757  1
  Si  Si17  1  0.127376  0.874629  0.748738  1
  Si  Si18  1  0.747636  0.023334  0.608241  1
  Si  Si19  1  0.870585  0.130384  0.253271  1
  Si  Si20  1  0.614242  0.388217  0.746989  1
  Si  Si21  1  0.919636  0.422973  0.435732  1
  Si  Si22  1  0.850585  0.613534  0.103032  1
  Sb  Sb23  1  0.047318  0.731814  0.105261  1
  Ru  Ru24  1  0.147638  0.908953  0.085364  1
  Ru  Ru25  1  0.165916  0.336889  0.222303  1
  Ru  Ru26  1  0.352584  0.169728  0.716260  1
  Ru  Ru27  1  0.831528  0.647705  0.781238  1
  Ru  Ru28  1  0.506206  0.249510  0.429997  1
  Ru  Ru29  1  0.844007  0.122308  0.909243  1
  Ru  Ru30  1  0.645680  0.826314  0.285525  1
  Ru  Ru31  1  0.248665  0.507828  0.925940  1
  Ru  Ru32  1  0.750606  0.491751  0.067898  1
  Ru  Ru33  1  0.102942  0.855383  0.415881  1
  Ru  Ru34  1  0.896383  0.140554  0.586399  1
  Ru  Ru35  1  0.491085  0.754253  0.568659  1
