# generated using pymatgen
data_La2PaTc2
_symmetry_space_group_name_H-M   'P 1'
_cell_length_a   6.22435987
_cell_length_b   6.22435998
_cell_length_c   6.22436024
_cell_angle_alpha   139.38533003
_cell_angle_beta   124.53392242
_cell_angle_gamma   70.97390671
_symmetry_Int_Tables_number   1
_chemical_formula_structural   La2PaTc2
_chemical_formula_sum   'La2 Pa1 Tc2'
_cell_volume   126.84750609
_cell_formula_units_Z   1
loop_
 _symmetry_equiv_pos_site_id
 _symmetry_equiv_pos_as_xyz
  1  'x, y, z'
loop_
 _atom_site_type_symbol
 _atom_site_label
 _atom_site_symmetry_multiplicity
 _atom_site_fract_x
 _atom_site_fract_y
 _atom_site_fract_z
 _atom_site_occupancy
  La  La0  1  0.696270  0.196270  0.500000  1
  La  La1  1  0.303730  0.803730  0.500000  1
  Pa  Pa2  1  0.000000  0.000000  0.000000  1
  Tc  Tc3  1  0.248958  0.500000  0.748958  1
  Tc  Tc4  1  0.751042  0.500000  0.251042  1
