# generated using pymatgen
data_Tb16CoHg4Ru3
_symmetry_space_group_name_H-M   'P 1'
_cell_length_a   9.58091468
_cell_length_b   9.64729097
_cell_length_c   9.64729100
_cell_angle_alpha   59.99999647
_cell_angle_beta   59.77055518
_cell_angle_gamma   59.77055094
_symmetry_Int_Tables_number   1
_chemical_formula_structural   Tb16CoHg4Ru3
_chemical_formula_sum   'Tb16 Co1 Hg4 Ru3'
_cell_volume   628.33001914
_cell_formula_units_Z   1
loop_
 _symmetry_equiv_pos_site_id
 _symmetry_equiv_pos_as_xyz
  1  'x, y, z'
loop_
 _atom_site_type_symbol
 _atom_site_label
 _atom_site_symmetry_multiplicity
 _atom_site_fract_x
 _atom_site_fract_y
 _atom_site_fract_z
 _atom_site_occupancy
  Tb  Tb0  1  0.352092  0.345813  0.345813  1
  Tb  Tb1  1  0.352092  0.345813  0.956281  1
  Tb  Tb2  1  0.352092  0.956281  0.345813  1
  Tb  Tb3  1  0.955979  0.348007  0.348007  1
  Tb  Tb4  1  0.806593  0.188794  0.188794  1
  Tb  Tb5  1  0.189377  0.809990  0.809990  1
  Tb  Tb6  1  0.189377  0.809990  0.190642  1
  Tb  Tb7  1  0.806593  0.188794  0.815819  1
  Tb  Tb8  1  0.189377  0.190642  0.809990  1
  Tb  Tb9  1  0.806593  0.815819  0.188794  1
  Tb  Tb10  1  0.937832  0.561512  0.561512  1
  Tb  Tb11  1  0.560092  0.937805  0.937805  1
  Tb  Tb12  1  0.560092  0.937805  0.564296  1
  Tb  Tb13  1  0.937832  0.561512  0.939144  1
  Tb  Tb14  1  0.560092  0.564296  0.937805  1
  Tb  Tb15  1  0.937832  0.939144  0.561512  1
  Co  Co16  1  0.580142  0.139953  0.139953  1
  Hg  Hg17  1  0.582757  0.583373  0.583373  1
  Hg  Hg18  1  0.582757  0.583373  0.250496  1
  Hg  Hg19  1  0.582757  0.250496  0.583373  1
  Hg  Hg20  1  0.248432  0.583855  0.583855  1
  Ru  Ru21  1  0.143072  0.138026  0.138026  1
  Ru  Ru22  1  0.143072  0.138026  0.580875  1
  Ru  Ru23  1  0.143072  0.580875  0.138026  1
