# generated using pymatgen
data_ErTm11(ThPb2)8
_symmetry_space_group_name_H-M   'P 1'
_cell_length_a   8.16901900
_cell_length_b   8.24565928
_cell_length_c   15.54351700
_cell_angle_alpha   90.00289062
_cell_angle_beta   89.99967035
_cell_angle_gamma   90.01461987
_symmetry_Int_Tables_number   1
_chemical_formula_structural   ErTm11(ThPb2)8
_chemical_formula_sum   'Er1 Tm11 Th8 Pb16'
_cell_volume   1046.99490731
_cell_formula_units_Z   1
loop_
 _symmetry_equiv_pos_site_id
 _symmetry_equiv_pos_as_xyz
  1  'x, y, z'
loop_
 _atom_site_type_symbol
 _atom_site_label
 _atom_site_symmetry_multiplicity
 _atom_site_fract_x
 _atom_site_fract_y
 _atom_site_fract_z
 _atom_site_occupancy
  Er  Er0  1  0.860191  0.658668  0.875937  1
  Tm  Tm1  1  0.359540  0.841679  0.875881  1
  Tm  Tm2  1  0.859419  0.658256  0.624046  1
  Tm  Tm3  1  0.640399  0.158203  0.375908  1
  Tm  Tm4  1  0.140200  0.341764  0.124208  1
  Tm  Tm5  1  0.640177  0.158210  0.124349  1
  Tm  Tm6  1  0.140303  0.341710  0.375846  1
  Tm  Tm7  1  0.359614  0.841755  0.623905  1
  Tm  Tm8  1  0.192610  0.498905  0.749797  1
  Tm  Tm9  1  0.692217  0.000985  0.749879  1
  Tm  Tm10  1  0.807675  0.500907  0.250162  1
  Tm  Tm11  1  0.307778  0.999110  0.250059  1
  Th  Th12  1  0.523762  0.322995  0.904598  1
  Th  Th13  1  0.023509  0.176677  0.595069  1
  Th  Th14  1  0.476544  0.676736  0.404870  1
  Th  Th15  1  0.976118  0.823277  0.095431  1
  Th  Th16  1  0.476556  0.676947  0.095302  1
  Th  Th17  1  0.976402  0.823209  0.404870  1
  Th  Th18  1  0.523045  0.323040  0.595110  1
  Th  Th19  1  0.023679  0.176902  0.904725  1
  Pb  Pb20  1  0.297762  0.041488  0.043833  1
  Pb  Pb21  1  0.797934  0.458161  0.456347  1
  Pb  Pb22  1  0.701884  0.958418  0.543752  1
  Pb  Pb23  1  0.202844  0.541180  0.956368  1
  Pb  Pb24  1  0.701939  0.959129  0.956338  1
  Pb  Pb25  1  0.201654  0.541773  0.543638  1
  Pb  Pb26  1  0.297962  0.041660  0.456176  1
  Pb  Pb27  1  0.797725  0.458187  0.043991  1
  Pb  Pb28  1  0.554426  0.628867  0.749854  1
  Pb  Pb29  1  0.054792  0.871575  0.749588  1
  Pb  Pb30  1  0.445548  0.371421  0.250105  1
  Pb  Pb31  1  0.945596  0.128567  0.250063  1
  Pb  Pb32  1  0.333733  0.148683  0.749983  1
  Pb  Pb33  1  0.833874  0.350959  0.749843  1
  Pb  Pb34  1  0.666310  0.851007  0.250119  1
  Pb  Pb35  1  0.166277  0.648993  0.250048  1
