# generated using pymatgen
data_HoHf8(In2Co)7
_symmetry_space_group_name_H-M   'P 1'
_cell_length_a   9.43892130
_cell_length_b   9.43892104
_cell_length_c   9.43892100
_cell_angle_alpha   60.00000363
_cell_angle_beta   60.00000454
_cell_angle_gamma   60.00000212
_symmetry_Int_Tables_number   1
_chemical_formula_structural   HoHf8(In2Co)7
_chemical_formula_sum   'Ho1 Hf8 In14 Co7'
_cell_volume   594.63724115
_cell_formula_units_Z   1
loop_
 _symmetry_equiv_pos_site_id
 _symmetry_equiv_pos_as_xyz
  1  'x, y, z'
loop_
 _atom_site_type_symbol
 _atom_site_label
 _atom_site_symmetry_multiplicity
 _atom_site_fract_x
 _atom_site_fract_y
 _atom_site_fract_z
 _atom_site_occupancy
  Ho  Ho0  1  0.500000  0.500000  0.500000  1
  Hf  Hf1  1  0.119252  0.642245  0.119252  1
  Hf  Hf2  1  0.357755  0.880748  0.880748  1
  Hf  Hf3  1  0.880748  0.880748  0.880748  1
  Hf  Hf4  1  0.642245  0.119252  0.119252  1
  Hf  Hf5  1  0.880748  0.880748  0.357755  1
  Hf  Hf6  1  0.119252  0.119252  0.119252  1
  Hf  Hf7  1  0.880748  0.357755  0.880748  1
  Hf  Hf8  1  0.119252  0.119252  0.642245  1
  In  In9  1  0.500000  0.844771  0.155229  1
  In  In10  1  0.500000  0.844771  0.500000  1
  In  In11  1  0.500000  0.155229  0.500000  1
  In  In12  1  0.500000  0.500000  0.844771  1
  In  In13  1  0.155229  0.500000  0.500000  1
  In  In14  1  0.844771  0.155229  0.500000  1
  In  In15  1  0.155229  0.844771  0.500000  1
  In  In16  1  0.500000  0.155229  0.844771  1
  In  In17  1  0.155229  0.500000  0.844771  1
  In  In18  1  0.500000  0.500000  0.155229  1
  In  In19  1  0.844771  0.500000  0.500000  1
  In  In20  1  0.844771  0.500000  0.155229  1
  In  In21  1  0.250000  0.250000  0.250000  1
  In  In22  1  0.750000  0.750000  0.750000  1
  Co  Co23  1  0.781154  0.781154  0.218846  1
  Co  Co24  1  0.000000  0.000000  0.000000  1
  Co  Co25  1  0.218846  0.781154  0.218846  1
  Co  Co26  1  0.218846  0.781154  0.781154  1
  Co  Co27  1  0.218846  0.218846  0.781154  1
  Co  Co28  1  0.781154  0.218846  0.781154  1
  Co  Co29  1  0.781154  0.218846  0.218846  1
