# generated using pymatgen
data_Tm2Si4Tc7Mo
_symmetry_space_group_name_H-M   'P 1'
_cell_length_a   7.00537102
_cell_length_b   7.64368826
_cell_length_c   4.18771200
_cell_angle_alpha   90.00000000
_cell_angle_beta   90.00000000
_cell_angle_gamma   89.98953056
_symmetry_Int_Tables_number   1
_chemical_formula_structural   Tm2Si4Tc7Mo
_chemical_formula_sum   'Tm2 Si4 Tc7 Mo1'
_cell_volume   224.23887572
_cell_formula_units_Z   1
loop_
 _symmetry_equiv_pos_site_id
 _symmetry_equiv_pos_as_xyz
  1  'x, y, z'
loop_
 _atom_site_type_symbol
 _atom_site_label
 _atom_site_symmetry_multiplicity
 _atom_site_fract_x
 _atom_site_fract_y
 _atom_site_fract_z
 _atom_site_occupancy
  Tm  Tm0  1  0.500766  0.497485  0.500000  1
  Tm  Tm1  1  0.999292  0.998708  0.000000  1
  Si  Si2  1  0.777970  0.194982  0.500000  1
  Si  Si3  1  0.225562  0.806358  0.500000  1
  Si  Si4  1  0.274847  0.306963  0.000000  1
  Si  Si5  1  0.725277  0.689703  0.000000  1
  Tc  Tc6  1  0.342889  0.109448  0.500000  1
  Tc  Tc7  1  0.154608  0.608231  0.000000  1
  Tc  Tc8  1  0.848758  0.390913  0.000000  1
  Tc  Tc9  1  0.915446  0.657638  0.500000  1
  Tc  Tc10  1  0.084643  0.343468  0.500000  1
  Tc  Tc11  1  0.583984  0.162716  0.000000  1
  Tc  Tc12  1  0.417103  0.842241  0.000000  1
  Mo  Mo13  1  0.648855  0.891146  0.500000  1
