# generated using pymatgen
data_Sm5Tm(CI5)2
_symmetry_space_group_name_H-M   'P 1'
_cell_length_a   7.77248853
_cell_length_b   9.59370721
_cell_length_c   9.68710746
_cell_angle_alpha   107.02871658
_cell_angle_beta   96.37185744
_cell_angle_gamma   104.28116806
_symmetry_Int_Tables_number   1
_chemical_formula_structural   Sm5Tm(CI5)2
_chemical_formula_sum   'Sm5 Tm1 C2 I10'
_cell_volume   656.11055841
_cell_formula_units_Z   1
loop_
 _symmetry_equiv_pos_site_id
 _symmetry_equiv_pos_as_xyz
  1  'x, y, z'
loop_
 _atom_site_type_symbol
 _atom_site_label
 _atom_site_symmetry_multiplicity
 _atom_site_fract_x
 _atom_site_fract_y
 _atom_site_fract_z
 _atom_site_occupancy
  Sm  Sm0  1  0.104304  0.038458  0.777975  1
  Sm  Sm1  1  0.373682  0.132250  0.178149  1
  Sm  Sm2  1  0.893355  0.960597  0.221122  1
  Sm  Sm3  1  0.029481  0.737961  0.923600  1
  Sm  Sm4  1  0.968939  0.262216  0.075869  1
  Tm  Tm5  1  0.632374  0.869651  0.824863  1
  C  C6  1  0.907552  0.969581  0.958363  1
  C  C7  1  0.087060  0.029101  0.039968  1
  I  I8  1  0.205174  0.737828  0.650371  1
  I  I9  1  0.088226  0.368052  0.819983  1
  I  I10  1  0.458826  0.808115  0.085905  1
  I  I11  1  0.253219  0.083384  0.459881  1
  I  I12  1  0.544629  0.183338  0.902755  1
  I  I13  1  0.807432  0.265880  0.355571  1
  I  I14  1  0.345152  0.455888  0.272785  1
  I  I15  1  0.911626  0.631895  0.179477  1
  I  I16  1  0.650490  0.552286  0.727305  1
  I  I17  1  0.738482  0.913520  0.546059  1
