# generated using pymatgen
data_Er3Lu5Cd2RuPt
_symmetry_space_group_name_H-M   'P 1'
_cell_length_a   9.49963098
_cell_length_b   9.49963119
_cell_length_c   9.54858100
_cell_angle_alpha   59.82939600
_cell_angle_beta   59.82939524
_cell_angle_gamma   59.60133068
_symmetry_Int_Tables_number   1
_chemical_formula_structural   Er3Lu5Cd2RuPt
_chemical_formula_sum   'Er6 Lu10 Cd4 Ru2 Pt2'
_cell_volume   605.88990280
_cell_formula_units_Z   2
loop_
 _symmetry_equiv_pos_site_id
 _symmetry_equiv_pos_as_xyz
  1  'x, y, z'
loop_
 _atom_site_type_symbol
 _atom_site_label
 _atom_site_symmetry_multiplicity
 _atom_site_fract_x
 _atom_site_fract_y
 _atom_site_fract_z
 _atom_site_occupancy
  Er  Er0  1  0.937630  0.559239  0.565914  1
  Er  Er1  1  0.559239  0.937630  0.937217  1
  Er  Er2  1  0.559239  0.937630  0.565914  1
  Er  Er3  1  0.937630  0.559239  0.937217  1
  Er  Er4  1  0.563753  0.563753  0.936247  1
  Er  Er5  1  0.939115  0.939115  0.560885  1
  Lu  Lu6  1  0.349338  0.349338  0.352118  1
  Lu  Lu7  1  0.349338  0.349338  0.949208  1
  Lu  Lu8  1  0.347212  0.953367  0.349711  1
  Lu  Lu9  1  0.953367  0.347212  0.349711  1
  Lu  Lu10  1  0.816056  0.187525  0.188509  1
  Lu  Lu11  1  0.187525  0.816056  0.807910  1
  Lu  Lu12  1  0.187525  0.816056  0.188509  1
  Lu  Lu13  1  0.816056  0.187525  0.807910  1
  Lu  Lu14  1  0.186885  0.186885  0.813115  1
  Lu  Lu15  1  0.809906  0.809906  0.190094  1
  Cd  Cd16  1  0.579820  0.579820  0.581807  1
  Cd  Cd17  1  0.579820  0.579820  0.258555  1
  Cd  Cd18  1  0.581171  0.255219  0.581805  1
  Cd  Cd19  1  0.255219  0.581171  0.581805  1
  Ru  Ru20  1  0.143667  0.143667  0.139941  1
  Ru  Ru21  1  0.143667  0.143667  0.572724  1
  Pt  Pt22  1  0.143699  0.573126  0.141586  1
  Pt  Pt23  1  0.573126  0.143699  0.141586  1
