# generated using pymatgen
data_PaP2NCl12
_symmetry_space_group_name_H-M   'P 1'
_cell_length_a   8.52801380
_cell_length_b   8.52801329
_cell_length_c   16.44803056
_cell_angle_alpha   78.41446684
_cell_angle_beta   78.41446756
_cell_angle_gamma   66.39244779
_symmetry_Int_Tables_number   1
_chemical_formula_structural   PaP2NCl12
_chemical_formula_sum   'Pa2 P4 N2 Cl24'
_cell_volume   1064.06929226
_cell_formula_units_Z   2
loop_
 _symmetry_equiv_pos_site_id
 _symmetry_equiv_pos_as_xyz
  1  'x, y, z'
loop_
 _atom_site_type_symbol
 _atom_site_label
 _atom_site_symmetry_multiplicity
 _atom_site_fract_x
 _atom_site_fract_y
 _atom_site_fract_z
 _atom_site_occupancy
  Pa  Pa0  1  0.000000  0.000000  0.500000  1
  Pa  Pa1  1  0.000000  0.000000  0.000000  1
  P  P2  1  0.461284  0.322966  0.770321  1
  P  P3  1  0.677034  0.538716  0.729679  1
  P  P4  1  0.322966  0.461284  0.270321  1
  P  P5  1  0.538716  0.677034  0.229679  1
  N  N6  1  0.617333  0.382667  0.750000  1
  N  N7  1  0.382667  0.617333  0.250000  1
  Cl  Cl8  1  0.691521  0.226863  0.009237  1
  Cl  Cl9  1  0.777350  0.891898  0.470997  1
  Cl  Cl10  1  0.308479  0.773137  0.990763  1
  Cl  Cl11  1  0.893952  0.482354  0.651729  1
  Cl  Cl12  1  0.245914  0.492752  0.822748  1
  Cl  Cl13  1  0.517646  0.106048  0.848271  1
  Cl  Cl14  1  0.108102  0.222650  0.029003  1
  Cl  Cl15  1  0.482354  0.893952  0.151729  1
  Cl  Cl16  1  0.951070  0.905356  0.157583  1
  Cl  Cl17  1  0.773137  0.308479  0.490763  1
  Cl  Cl18  1  0.905356  0.951070  0.657583  1
  Cl  Cl19  1  0.222650  0.108102  0.529003  1
  Cl  Cl20  1  0.891898  0.777350  0.970997  1
  Cl  Cl21  1  0.275879  0.404007  0.169034  1
  Cl  Cl22  1  0.595993  0.724121  0.330966  1
  Cl  Cl23  1  0.094644  0.048930  0.342417  1
  Cl  Cl24  1  0.724121  0.595993  0.830966  1
  Cl  Cl25  1  0.226863  0.691521  0.509237  1
  Cl  Cl26  1  0.048930  0.094644  0.842417  1
  Cl  Cl27  1  0.106048  0.517646  0.348271  1
  Cl  Cl28  1  0.754086  0.507248  0.177252  1
  Cl  Cl29  1  0.507248  0.754086  0.677252  1
  Cl  Cl30  1  0.404007  0.275879  0.669034  1
  Cl  Cl31  1  0.492752  0.245914  0.322748  1
