# generated using pymatgen
data_Y2Ho2ReB12Ir
_symmetry_space_group_name_H-M   'P 1'
_cell_length_a   3.67004500
_cell_length_b   9.16291216
_cell_length_c   11.55849000
_cell_angle_alpha   90.33502205
_cell_angle_beta   90.00000000
_cell_angle_gamma   90.00000000
_symmetry_Int_Tables_number   1
_chemical_formula_structural   Y2Ho2ReB12Ir
_chemical_formula_sum   'Y4 Ho4 Re2 B24 Ir2'
_cell_volume   388.68572429
_cell_formula_units_Z   2
loop_
 _symmetry_equiv_pos_site_id
 _symmetry_equiv_pos_as_xyz
  1  'x, y, z'
loop_
 _atom_site_type_symbol
 _atom_site_label
 _atom_site_symmetry_multiplicity
 _atom_site_fract_x
 _atom_site_fract_y
 _atom_site_fract_z
 _atom_site_occupancy
  Y  Y0  1  0.000000  0.317030  0.409882  1
  Y  Y1  1  0.000000  0.682970  0.590118  1
  Y  Y2  1  0.000000  0.826450  0.082323  1
  Y  Y3  1  0.000000  0.173550  0.917677  1
  Ho  Ho4  1  0.000000  0.946105  0.372155  1
  Ho  Ho5  1  0.000000  0.053895  0.627845  1
  Ho  Ho6  1  0.000000  0.441681  0.125995  1
  Ho  Ho7  1  0.000000  0.558319  0.874005  1
  Re  Re8  1  0.000000  0.138429  0.179943  1
  Re  Re9  1  0.000000  0.861571  0.820057  1
  B  B10  1  0.500000  0.554319  0.433719  1
  B  B11  1  0.500000  0.445681  0.566281  1
  B  B12  1  0.500000  0.053534  0.067499  1
  B  B13  1  0.500000  0.946466  0.932501  1
  B  B14  1  0.500000  0.749415  0.420894  1
  B  B15  1  0.500000  0.250585  0.579106  1
  B  B16  1  0.500000  0.247919  0.081027  1
  B  B17  1  0.500000  0.752081  0.918973  1
  B  B18  1  0.500000  0.790791  0.266181  1
  B  B19  1  0.500000  0.209209  0.733819  1
  B  B20  1  0.500000  0.292216  0.234080  1
  B  B21  1  0.500000  0.707784  0.765920  1
  B  B22  1  0.500000  0.631651  0.184215  1
  B  B23  1  0.500000  0.368349  0.815785  1
  B  B24  1  0.500000  0.131486  0.314514  1
  B  B25  1  0.500000  0.868514  0.685486  1
  B  B26  1  0.500000  0.983224  0.213220  1
  B  B27  1  0.500000  0.016776  0.786780  1
  B  B28  1  0.500000  0.482778  0.287119  1
  B  B29  1  0.500000  0.517222  0.712881  1
  B  B30  1  0.500000  0.606750  0.029935  1
  B  B31  1  0.500000  0.393250  0.970065  1
  B  B32  1  0.500000  0.107499  0.470850  1
  B  B33  1  0.500000  0.892501  0.529150  1
  Ir  Ir34  1  0.000000  0.636783  0.322063  1
  Ir  Ir35  1  0.000000  0.363217  0.677937  1
