# generated using pymatgen
data_SrLi4La3Pt4
_symmetry_space_group_name_H-M   'P 1'
_cell_length_a   4.22473500
_cell_length_b   7.37932617
_cell_length_c   8.61171801
_cell_angle_alpha   89.23212631
_cell_angle_beta   90.00000000
_cell_angle_gamma   90.00000000
_symmetry_Int_Tables_number   1
_chemical_formula_structural   SrLi4La3Pt4
_chemical_formula_sum   'Sr1 Li4 La3 Pt4'
_cell_volume   268.45220546
_cell_formula_units_Z   1
loop_
 _symmetry_equiv_pos_site_id
 _symmetry_equiv_pos_as_xyz
  1  'x, y, z'
loop_
 _atom_site_type_symbol
 _atom_site_label
 _atom_site_symmetry_multiplicity
 _atom_site_fract_x
 _atom_site_fract_y
 _atom_site_fract_z
 _atom_site_occupancy
  Sr  Sr0  1  0.250000  0.032570  0.689879  1
  Li  Li1  1  0.250000  0.139728  0.059135  1
  Li  Li2  1  0.250000  0.631001  0.442447  1
  Li  Li3  1  0.750000  0.869258  0.942371  1
  Li  Li4  1  0.750000  0.360431  0.557301  1
  La  La5  1  0.250000  0.537097  0.812291  1
  La  La6  1  0.750000  0.964276  0.312858  1
  La  La7  1  0.750000  0.468142  0.188658  1
  Pt  Pt8  1  0.250000  0.255020  0.370496  1
  Pt  Pt9  1  0.250000  0.758311  0.116972  1
  Pt  Pt10  1  0.750000  0.723921  0.611195  1
  Pt  Pt11  1  0.750000  0.260245  0.896399  1
