# generated using pymatgen
data_Sr5Ag5Pt
_symmetry_space_group_name_H-M   'P 1'
_cell_length_a   16.31607000
_cell_length_b   16.31606932
_cell_length_c   4.30175200
_cell_angle_alpha   90.00000000
_cell_angle_beta   90.00000000
_cell_angle_gamma   164.13315703
_symmetry_Int_Tables_number   1
_chemical_formula_structural   Sr5Ag5Pt
_chemical_formula_sum   'Sr5 Ag5 Pt1'
_cell_volume   313.09716359
_cell_formula_units_Z   1
loop_
 _symmetry_equiv_pos_site_id
 _symmetry_equiv_pos_as_xyz
  1  'x, y, z'
loop_
 _atom_site_type_symbol
 _atom_site_label
 _atom_site_symmetry_multiplicity
 _atom_site_fract_x
 _atom_site_fract_y
 _atom_site_fract_z
 _atom_site_occupancy
  Sr  Sr0  1  0.000384  0.999616  0.000000  1
  Sr  Sr1  1  0.623903  0.376095  0.000000  1
  Sr  Sr2  1  0.380295  0.619703  0.000000  1
  Sr  Sr3  1  0.796773  0.203225  0.500001  1
  Sr  Sr4  1  0.199470  0.800528  0.500001  1
  Ag  Ag5  1  0.276224  0.723774  0.000000  1
  Ag  Ag6  1  0.906315  0.093684  0.500001  1
  Ag  Ag7  1  0.543674  0.456324  0.500001  1
  Ag  Ag8  1  0.458113  0.541885  0.500001  1
  Ag  Ag9  1  0.093417  0.906582  0.500001  1
  Pt  Pt10  1  0.721425  0.278573  0.000000  1
