# generated using pymatgen
data_Sr6Yb2Ta3SbO18
_symmetry_space_group_name_H-M   'P 1'
_cell_length_a   5.90086194
_cell_length_b   5.90055499
_cell_length_c   14.91525607
_cell_angle_alpha   89.93956116
_cell_angle_beta   89.96250442
_cell_angle_gamma   60.00712048
_symmetry_Int_Tables_number   1
_chemical_formula_structural   Sr6Yb2Ta3SbO18
_chemical_formula_sum   'Sr6 Yb2 Ta3 Sb1 O18'
_cell_volume   449.78044692
_cell_formula_units_Z   1
loop_
 _symmetry_equiv_pos_site_id
 _symmetry_equiv_pos_as_xyz
  1  'x, y, z'
loop_
 _atom_site_type_symbol
 _atom_site_label
 _atom_site_symmetry_multiplicity
 _atom_site_fract_x
 _atom_site_fract_y
 _atom_site_fract_z
 _atom_site_occupancy
  Sr  Sr0  1  0.000129  0.999760  0.247258  1
  Sr  Sr1  1  0.666592  0.667553  0.370051  1
  Sr  Sr2  1  0.667447  0.664065  0.117809  1
  Sr  Sr3  1  0.332686  0.336070  0.886782  1
  Sr  Sr4  1  0.333410  0.332306  0.627851  1
  Sr  Sr5  1  0.999905  0.000561  0.760708  1
  Yb  Yb6  1  0.000030  0.999869  0.499261  1
  Yb  Yb7  1  0.000010  0.000216  0.999815  1
  Ta  Ta8  1  0.666998  0.665716  0.646453  1
  Ta  Ta9  1  0.332918  0.334086  0.350528  1
  Ta  Ta10  1  0.334518  0.331284  0.150900  1
  Sb  Sb11  1  0.665649  0.668732  0.845083  1
  O  O12  1  0.585598  0.961911  0.749840  1
  O  O13  1  0.914159  0.737444  0.591942  1
  O  O14  1  0.908842  0.752869  0.905789  1
  O  O15  1  0.346901  0.912595  0.592476  1
  O  O16  1  0.339443  0.913030  0.906228  1
  O  O17  1  0.960919  0.452974  0.750661  1
  O  O18  1  0.452306  0.585738  0.750948  1
  O  O19  1  0.257085  0.649488  0.091773  1
  O  O20  1  0.259159  0.655208  0.405658  1
  O  O21  1  0.739632  0.344999  0.593191  1
  O  O22  1  0.747994  0.345214  0.908256  1
  O  O23  1  0.549855  0.412677  0.249153  1
  O  O24  1  0.038218  0.549390  0.249541  1
  O  O25  1  0.654997  0.087486  0.093728  1
  O  O26  1  0.653448  0.088310  0.406392  1
  O  O27  1  0.091435  0.251962  0.094494  1
  O  O28  1  0.086784  0.261277  0.407031  1
  O  O29  1  0.412935  0.037211  0.250403  1
