# generated using pymatgen
data_Ho4Mo3WN8
_symmetry_space_group_name_H-M   'P 1'
_cell_length_a   3.19614400
_cell_length_b   5.69200932
_cell_length_c   10.56733960
_cell_angle_alpha   89.96148026
_cell_angle_beta   90.00000000
_cell_angle_gamma   90.00000000
_symmetry_Int_Tables_number   1
_chemical_formula_structural   Ho4Mo3WN8
_chemical_formula_sum   'Ho4 Mo3 W1 N8'
_cell_volume   192.24608606
_cell_formula_units_Z   1
loop_
 _symmetry_equiv_pos_site_id
 _symmetry_equiv_pos_as_xyz
  1  'x, y, z'
loop_
 _atom_site_type_symbol
 _atom_site_label
 _atom_site_symmetry_multiplicity
 _atom_site_fract_x
 _atom_site_fract_y
 _atom_site_fract_z
 _atom_site_occupancy
  Ho  Ho0  1  0.250000  0.079211  0.853815  1
  Ho  Ho1  1  0.250000  0.578959  0.646614  1
  Ho  Ho2  1  0.750000  0.920423  0.146212  1
  Ho  Ho3  1  0.750000  0.420704  0.354732  1
  Mo  Mo4  1  0.250000  0.933349  0.406271  1
  Mo  Mo5  1  0.750000  0.567982  0.905901  1
  Mo  Mo6  1  0.750000  0.066832  0.593556  1
  W  W7  1  0.250000  0.432499  0.094500  1
  N  N8  1  0.250000  0.167230  0.247239  1
  N  N9  1  0.250000  0.662259  0.249778  1
  N  N10  1  0.750000  0.836596  0.750313  1
  N  N11  1  0.750000  0.335160  0.749168  1
  N  N12  1  0.250000  0.760580  0.994639  1
  N  N13  1  0.250000  0.260314  0.506046  1
  N  N14  1  0.750000  0.237812  0.007702  1
  N  N15  1  0.750000  0.740089  0.493514  1
