# generated using pymatgen
data_Tb2Pr3P12Ru17Rh2
_symmetry_space_group_name_H-M   'P 1'
_cell_length_a   4.02555300
_cell_length_b   12.59615400
_cell_length_c   12.59637571
_cell_angle_alpha   119.67402318
_cell_angle_beta   90.00000000
_cell_angle_gamma   90.00000000
_symmetry_Int_Tables_number   1
_chemical_formula_structural   Tb2Pr3P12Ru17Rh2
_chemical_formula_sum   'Tb2 Pr3 P12 Ru17 Rh2'
_cell_volume   554.95395303
_cell_formula_units_Z   1
loop_
 _symmetry_equiv_pos_site_id
 _symmetry_equiv_pos_as_xyz
  1  'x, y, z'
loop_
 _atom_site_type_symbol
 _atom_site_label
 _atom_site_symmetry_multiplicity
 _atom_site_fract_x
 _atom_site_fract_y
 _atom_site_fract_z
 _atom_site_occupancy
  Tb  Tb0  1  0.000000  0.334436  0.665311  1
  Tb  Tb1  1  0.000000  0.665299  0.334432  1
  Pr  Pr2  1  0.500000  0.999170  0.182946  1
  Pr  Pr3  1  0.500000  0.182942  0.999169  1
  Pr  Pr4  1  0.500000  0.815988  0.815990  1
  P  P5  1  0.000000  0.000571  0.809773  1
  P  P6  1  0.000000  0.809771  0.000576  1
  P  P7  1  0.000000  0.187925  0.187927  1
  P  P8  1  0.500000  0.304972  0.477984  1
  P  P9  1  0.500000  0.179286  0.698279  1
  P  P10  1  0.500000  0.521881  0.823227  1
  P  P11  1  0.500000  0.823217  0.521884  1
  P  P12  1  0.500000  0.477978  0.304975  1
  P  P13  1  0.500000  0.698278  0.179289  1
  P  P14  1  0.000000  0.999756  0.371778  1
  P  P15  1  0.000000  0.371774  0.999753  1
  P  P16  1  0.000000  0.624941  0.624942  1
  Ru  Ru17  1  0.000000  0.445569  0.445570  1
  Ru  Ru18  1  0.500000  0.001210  0.710826  1
  Ru  Ru19  1  0.500000  0.710826  0.001215  1
  Ru  Ru20  1  0.500000  0.286140  0.286144  1
  Ru  Ru21  1  0.000000  0.194428  0.380395  1
  Ru  Ru22  1  0.000000  0.186985  0.804126  1
  Ru  Ru23  1  0.000000  0.619778  0.814778  1
  Ru  Ru24  1  0.000000  0.814774  0.619777  1
  Ru  Ru25  1  0.000000  0.380395  0.194427  1
  Ru  Ru26  1  0.000000  0.804126  0.186988  1
  Ru  Ru27  1  0.500000  0.126523  0.494333  1
  Ru  Ru28  1  0.500000  0.370154  0.876322  1
  Ru  Ru29  1  0.500000  0.506652  0.631396  1
  Ru  Ru30  1  0.500000  0.631389  0.506657  1
  Ru  Ru31  1  0.500000  0.494328  0.126525  1
  Ru  Ru32  1  0.500000  0.876314  0.370158  1
  Ru  Ru33  1  0.000000  0.998616  0.998621  1
  Rh  Rh34  1  0.000000  0.000822  0.552691  1
  Rh  Rh35  1  0.000000  0.552684  0.000821  1
