# generated using pymatgen
data_TlCdRu2O7
_symmetry_space_group_name_H-M   'P 1'
_cell_length_a   7.21131637
_cell_length_b   7.28043902
_cell_length_c   7.28043900
_cell_angle_alpha   60.69199601
_cell_angle_beta   60.31357491
_cell_angle_gamma   60.31357606
_symmetry_Int_Tables_number   1
_chemical_formula_structural   TlCdRu2O7
_chemical_formula_sum   'Tl2 Cd2 Ru4 O14'
_cell_volume   272.95960474
_cell_formula_units_Z   2
loop_
 _symmetry_equiv_pos_site_id
 _symmetry_equiv_pos_as_xyz
  1  'x, y, z'
loop_
 _atom_site_type_symbol
 _atom_site_label
 _atom_site_symmetry_multiplicity
 _atom_site_fract_x
 _atom_site_fract_y
 _atom_site_fract_z
 _atom_site_occupancy
  Tl  Tl0  1  0.125000  0.625000  0.125000  1
  Tl  Tl1  1  0.125000  0.125000  0.625000  1
  Cd  Cd2  1  0.625000  0.125000  0.125000  1
  Cd  Cd3  1  0.125000  0.125000  0.125000  1
  Ru  Ru4  1  0.625000  0.125000  0.625000  1
  Ru  Ru5  1  0.625000  0.625000  0.125000  1
  Ru  Ru6  1  0.125000  0.625000  0.625000  1
  Ru  Ru7  1  0.625000  0.625000  0.625000  1
  O  O8  1  0.696973  0.693240  0.305965  1
  O  O9  1  0.946914  0.553086  0.553086  1
  O  O10  1  0.558907  0.941093  0.941093  1
  O  O11  1  0.946179  0.944035  0.556760  1
  O  O12  1  0.946179  0.556760  0.944035  1
  O  O13  1  0.553027  0.944035  0.556760  1
  O  O14  1  0.303821  0.693240  0.305965  1
  O  O15  1  0.303086  0.696914  0.696914  1
  O  O16  1  0.691093  0.308907  0.308907  1
  O  O17  1  0.696973  0.305965  0.693240  1
  O  O18  1  0.553027  0.556760  0.944035  1
  O  O19  1  0.303821  0.305965  0.693240  1
  O  O20  1  0.256574  0.243426  0.243426  1
  O  O21  1  0.993426  0.006574  0.006574  1
