# generated using pymatgen
data_Tm12InCo3NiRu
_symmetry_space_group_name_H-M   'P 1'
_cell_length_a   8.18569170
_cell_length_b   8.18571070
_cell_length_c   8.18569166
_cell_angle_alpha   111.41755706
_cell_angle_beta   111.09184210
_cell_angle_gamma   105.96037063
_symmetry_Int_Tables_number   1
_chemical_formula_structural   Tm12InCo3NiRu
_chemical_formula_sum   'Tm12 In1 Co3 Ni1 Ru1'
_cell_volume   421.04352129
_cell_formula_units_Z   1
loop_
 _symmetry_equiv_pos_site_id
 _symmetry_equiv_pos_as_xyz
  1  'x, y, z'
loop_
 _atom_site_type_symbol
 _atom_site_label
 _atom_site_symmetry_multiplicity
 _atom_site_fract_x
 _atom_site_fract_y
 _atom_site_fract_z
 _atom_site_occupancy
  Tm  Tm0  1  0.318391  0.622863  0.304471  1
  Tm  Tm1  1  0.685529  0.379005  0.693476  1
  Tm  Tm2  1  0.318393  0.013918  0.695526  1
  Tm  Tm3  1  0.685528  0.992048  0.306519  1
  Tm  Tm4  1  0.182496  0.281281  0.467360  1
  Tm  Tm5  1  0.813919  0.715134  0.532635  1
  Tm  Tm6  1  0.182497  0.715134  0.901214  1
  Tm  Tm7  1  0.813921  0.281281  0.098785  1
  Tm  Tm8  1  0.410272  0.217540  0.192725  1
  Tm  Tm9  1  0.588754  0.781701  0.807048  1
  Tm  Tm10  1  0.024814  0.217540  0.807269  1
  Tm  Tm11  1  0.974654  0.781701  0.192947  1
  In  In12  1  0.499692  0.499689  0.999997  1
  Co  Co13  1  0.887503  0.387503  0.500001  1
  Co  Co14  1  0.373623  0.999195  0.374419  1
  Co  Co15  1  0.624776  0.999195  0.625572  1
  Ni  Ni16  1  0.116581  0.616620  0.500040  1
  Ru  Ru17  1  0.998655  0.998652  0.999997  1
