# generated using pymatgen
data_Nb2TlBr11
_symmetry_space_group_name_H-M   'P 1'
_cell_length_a   7.60654171
_cell_length_b   7.66650691
_cell_length_c   18.94104100
_cell_angle_alpha   79.00587354
_cell_angle_beta   78.85748985
_cell_angle_gamma   88.13690397
_symmetry_Int_Tables_number   1
_chemical_formula_structural   Nb2TlBr11
_chemical_formula_sum   'Nb4 Tl2 Br22'
_cell_volume   1063.83592040
_cell_formula_units_Z   2
loop_
 _symmetry_equiv_pos_site_id
 _symmetry_equiv_pos_as_xyz
  1  'x, y, z'
loop_
 _atom_site_type_symbol
 _atom_site_label
 _atom_site_symmetry_multiplicity
 _atom_site_fract_x
 _atom_site_fract_y
 _atom_site_fract_z
 _atom_site_occupancy
  Nb  Nb0  1  0.323075  0.821857  0.341894  1
  Nb  Nb1  1  0.676925  0.178143  0.658106  1
  Nb  Nb2  1  0.831180  0.329877  0.087100  1
  Nb  Nb3  1  0.168820  0.670123  0.912900  1
  Tl  Tl4  1  0.747298  0.747527  0.504297  1
  Tl  Tl5  1  0.252702  0.252473  0.495703  1
  Br  Br6  1  0.250826  0.775414  0.489413  1
  Br  Br7  1  0.749174  0.224586  0.510587  1
  Br  Br8  1  0.575624  0.023081  0.348354  1
  Br  Br9  1  0.424376  0.976919  0.651646  1
  Br  Br10  1  0.532906  0.555195  0.357398  1
  Br  Br11  1  0.467094  0.444805  0.642602  1
  Br  Br12  1  0.386361  0.860433  0.207524  1
  Br  Br13  1  0.613639  0.139567  0.792476  1
  Br  Br14  1  0.063309  0.604588  0.358363  1
  Br  Br15  1  0.936691  0.395412  0.641637  1
  Br  Br16  1  0.106758  0.078948  0.342721  1
  Br  Br17  1  0.893242  0.921052  0.657279  1
  Br  Br18  1  0.900666  0.031744  0.147446  1
  Br  Br19  1  0.099334  0.968256  0.852554  1
  Br  Br20  1  0.527885  0.381841  0.150128  1
  Br  Br21  1  0.472115  0.618159  0.849872  1
  Br  Br22  1  0.723116  0.219348  0.987073  1
  Br  Br23  1  0.276884  0.780652  0.012927  1
  Br  Br24  1  0.973879  0.478998  0.168284  1
  Br  Br25  1  0.026121  0.521002  0.831716  1
  Br  Br26  1  0.167106  0.339888  0.999603  1
  Br  Br27  1  0.832894  0.660112  0.000397  1
