# generated using pymatgen
data_Tb7Er3(In2Ir)4
_symmetry_space_group_name_H-M   'P 1'
_cell_length_a   3.68837400
_cell_length_b   8.02262909
_cell_length_c   18.24656704
_cell_angle_alpha   89.99530955
_cell_angle_beta   90.00000000
_cell_angle_gamma   90.00000000
_symmetry_Int_Tables_number   1
_chemical_formula_structural   Tb7Er3(In2Ir)4
_chemical_formula_sum   'Tb7 Er3 In8 Ir4'
_cell_volume   539.92424749
_cell_formula_units_Z   1
loop_
 _symmetry_equiv_pos_site_id
 _symmetry_equiv_pos_as_xyz
  1  'x, y, z'
loop_
 _atom_site_type_symbol
 _atom_site_label
 _atom_site_symmetry_multiplicity
 _atom_site_fract_x
 _atom_site_fract_y
 _atom_site_fract_z
 _atom_site_occupancy
  Tb  Tb0  1  0.000000  0.500146  0.500248  1
  Tb  Tb1  1  0.000000  0.999557  0.999524  1
  Tb  Tb2  1  0.000000  0.740719  0.279694  1
  Tb  Tb3  1  0.000000  0.259323  0.720430  1
  Tb  Tb4  1  0.000000  0.759307  0.778894  1
  Tb  Tb5  1  0.000000  0.241186  0.221471  1
  Tb  Tb6  1  0.000000  0.614215  0.089234  1
  Er  Er7  1  0.000000  0.386120  0.909657  1
  Er  Er8  1  0.000000  0.886473  0.589900  1
  Er  Er9  1  0.000000  0.113592  0.410393  1
  In  In10  1  0.500000  0.705633  0.931867  1
  In  In11  1  0.500000  0.292247  0.067124  1
  In  In12  1  0.500000  0.795105  0.433481  1
  In  In13  1  0.500000  0.204920  0.566630  1
  In  In14  1  0.500000  0.578670  0.650378  1
  In  In15  1  0.500000  0.421308  0.350463  1
  In  In16  1  0.500000  0.924795  0.150831  1
  In  In17  1  0.500000  0.078538  0.849072  1
  Ir  Ir18  1  0.500000  0.516962  0.195464  1
  Ir  Ir19  1  0.500000  0.481147  0.805117  1
  Ir  Ir20  1  0.500000  0.981868  0.694170  1
  Ir  Ir21  1  0.500000  0.018169  0.305954  1
