# generated using pymatgen
data_MnCr(PtRh)3
_symmetry_space_group_name_H-M   'P 1'
_cell_length_a   3.85426500
_cell_length_b   3.88357400
_cell_length_c   7.72160700
_cell_angle_alpha   90.00000000
_cell_angle_beta   90.00000000
_cell_angle_gamma   90.00000000
_symmetry_Int_Tables_number   1
_chemical_formula_structural   MnCr(PtRh)3
_chemical_formula_sum   'Mn1 Cr1 Pt3 Rh3'
_cell_volume   115.57951030
_cell_formula_units_Z   1
loop_
 _symmetry_equiv_pos_site_id
 _symmetry_equiv_pos_as_xyz
  1  'x, y, z'
loop_
 _atom_site_type_symbol
 _atom_site_label
 _atom_site_symmetry_multiplicity
 _atom_site_fract_x
 _atom_site_fract_y
 _atom_site_fract_z
 _atom_site_occupancy
  Mn  Mn0  1  0.000000  0.000000  0.500000  1
  Cr  Cr1  1  0.000000  0.000000  0.000000  1
  Pt  Pt2  1  0.500000  0.500000  0.500000  1
  Pt  Pt3  1  0.000000  0.500000  0.242824  1
  Pt  Pt4  1  0.000000  0.500000  0.757176  1
  Rh  Rh5  1  0.500000  0.500000  0.000000  1
  Rh  Rh6  1  0.500000  0.000000  0.242331  1
  Rh  Rh7  1  0.500000  0.000000  0.757669  1
