# generated using pymatgen
data_Mn4CoSi7(Mo6C)2
_symmetry_space_group_name_H-M   'P 1'
_cell_length_a   7.76050999
_cell_length_b   7.76050949
_cell_length_c   7.76050919
_cell_angle_alpha   60.34463631
_cell_angle_beta   60.34463989
_cell_angle_gamma   60.34464020
_symmetry_Int_Tables_number   1
_chemical_formula_structural   Mn4CoSi7(Mo6C)2
_chemical_formula_sum   'Mn4 Co1 Si7 Mo12 C2'
_cell_volume   333.06471999
_cell_formula_units_Z   1
loop_
 _symmetry_equiv_pos_site_id
 _symmetry_equiv_pos_as_xyz
  1  'x, y, z'
loop_
 _atom_site_type_symbol
 _atom_site_label
 _atom_site_symmetry_multiplicity
 _atom_site_fract_x
 _atom_site_fract_y
 _atom_site_fract_z
 _atom_site_occupancy
  Mn  Mn0  1  0.831756  0.831756  0.831756  1
  Mn  Mn1  1  0.624932  0.624932  0.126579  1
  Mn  Mn2  1  0.624932  0.126579  0.624932  1
  Mn  Mn3  1  0.126579  0.624932  0.624932  1
  Co  Co4  1  0.624576  0.624576  0.624576  1
  Si  Si5  1  0.415356  0.415356  0.755533  1
  Si  Si6  1  0.415356  0.755533  0.415356  1
  Si  Si7  1  0.755533  0.415356  0.415356  1
  Si  Si8  1  0.414824  0.414824  0.414824  1
  Si  Si9  1  0.834456  0.834456  0.497326  1
  Si  Si10  1  0.834456  0.497326  0.834456  1
  Si  Si11  1  0.497326  0.834456  0.834456  1
  Mo  Mo12  1  0.055673  0.055673  0.441930  1
  Mo  Mo13  1  0.443886  0.056298  0.443886  1
  Mo  Mo14  1  0.056298  0.443886  0.443886  1
  Mo  Mo15  1  0.443886  0.443886  0.056298  1
  Mo  Mo16  1  0.055673  0.441930  0.055673  1
  Mo  Mo17  1  0.441930  0.055673  0.055673  1
  Mo  Mo18  1  0.194320  0.194320  0.807972  1
  Mo  Mo19  1  0.809381  0.185900  0.809381  1
  Mo  Mo20  1  0.185900  0.809381  0.809381  1
  Mo  Mo21  1  0.809381  0.809381  0.185900  1
  Mo  Mo22  1  0.194320  0.807972  0.194320  1
  Mo  Mo23  1  0.807972  0.194320  0.194320  1
  C  C24  1  0.249335  0.249335  0.249335  1
  C  C25  1  0.001960  0.001960  0.001960  1
