# generated using pymatgen
data_Tb5Sm(SbO7)2
_symmetry_space_group_name_H-M   'P 1'
_cell_length_a   6.51557825
_cell_length_b   6.51557857
_cell_length_c   7.58639906
_cell_angle_alpha   90.01223725
_cell_angle_beta   89.98776491
_cell_angle_gamma   109.37655117
_symmetry_Int_Tables_number   1
_chemical_formula_structural   Tb5Sm(SbO7)2
_chemical_formula_sum   'Tb5 Sm1 Sb2 O14'
_cell_volume   303.82142480
_cell_formula_units_Z   1
loop_
 _symmetry_equiv_pos_site_id
 _symmetry_equiv_pos_as_xyz
  1  'x, y, z'
loop_
 _atom_site_type_symbol
 _atom_site_label
 _atom_site_symmetry_multiplicity
 _atom_site_fract_x
 _atom_site_fract_y
 _atom_site_fract_z
 _atom_site_occupancy
  Tb  Tb0  1  0.500000  0.500000  0.500000  1
  Tb  Tb1  1  0.531766  0.000024  0.748761  1
  Tb  Tb2  1  0.000024  0.531766  0.251239  1
  Tb  Tb3  1  0.468234  0.999976  0.251239  1
  Tb  Tb4  1  0.999976  0.468234  0.748761  1
  Sm  Sm5  1  0.500000  0.500000  0.000000  1
  Sb  Sb6  1  0.000000  0.000000  0.500000  1
  Sb  Sb7  1  0.000000  0.000000  0.000000  1
  O  O8  1  0.679433  0.928391  0.470932  1
  O  O9  1  0.928391  0.679433  0.529068  1
  O  O10  1  0.679145  0.929603  0.029185  1
  O  O11  1  0.929603  0.679145  0.970815  1
  O  O12  1  0.320567  0.071609  0.529068  1
  O  O13  1  0.071609  0.320567  0.470932  1
  O  O14  1  0.320855  0.070397  0.970815  1
  O  O15  1  0.070397  0.320855  0.029185  1
  O  O16  1  0.931542  0.068458  0.750076  1
  O  O17  1  0.068458  0.931542  0.249924  1
  O  O18  1  0.368665  0.631335  0.745943  1
  O  O19  1  0.631335  0.368665  0.254057  1
  O  O20  1  0.637774  0.362226  0.746463  1
  O  O21  1  0.362226  0.637774  0.253537  1
