# generated using pymatgen
data_Nb4Co2PdS12
_symmetry_space_group_name_H-M   'P 1'
_cell_length_a   6.90409654
_cell_length_b   6.90409640
_cell_length_c   18.77641299
_cell_angle_alpha   70.47868104
_cell_angle_beta   70.47868109
_cell_angle_gamma   27.71552087
_symmetry_Int_Tables_number   1
_chemical_formula_structural   Nb4Co2PdS12
_chemical_formula_sum   'Nb4 Co2 Pd1 S12'
_cell_volume   390.82071087
_cell_formula_units_Z   1
loop_
 _symmetry_equiv_pos_site_id
 _symmetry_equiv_pos_as_xyz
  1  'x, y, z'
loop_
 _atom_site_type_symbol
 _atom_site_label
 _atom_site_symmetry_multiplicity
 _atom_site_fract_x
 _atom_site_fract_y
 _atom_site_fract_z
 _atom_site_occupancy
  Nb  Nb0  1  0.623015  0.623015  0.849363  1
  Nb  Nb1  1  0.376985  0.376985  0.150637  1
  Nb  Nb2  1  0.743758  0.743758  0.589189  1
  Nb  Nb3  1  0.256242  0.256242  0.410811  1
  Co  Co4  1  0.232459  0.232459  0.716088  1
  Co  Co5  1  0.767541  0.767541  0.283912  1
  Pd  Pd6  1  0.000000  0.000000  0.000000  1
  S  S7  1  0.975821  0.975821  0.881730  1
  S  S8  1  0.024179  0.024179  0.118270  1
  S  S9  1  0.631862  0.631862  0.392933  1
  S  S10  1  0.368138  0.368138  0.607067  1
  S  S11  1  0.133835  0.133835  0.548634  1
  S  S12  1  0.866165  0.866165  0.451366  1
  S  S13  1  0.805252  0.805252  0.763554  1
  S  S14  1  0.194748  0.194748  0.236446  1
  S  S15  1  0.182523  0.182523  0.925486  1
  S  S16  1  0.817477  0.817477  0.074514  1
  S  S17  1  0.613504  0.613504  0.718017  1
  S  S18  1  0.386496  0.386496  0.281983  1
