# generated using pymatgen
data_Li4Hg3BiPd8
_symmetry_space_group_name_H-M   'P 1'
_cell_length_a   5.87937700
_cell_length_b   5.87930112
_cell_length_c   7.50364700
_cell_angle_alpha   90.00046778
_cell_angle_beta   89.99859669
_cell_angle_gamma   90.01138257
_symmetry_Int_Tables_number   1
_chemical_formula_structural   Li4Hg3BiPd8
_chemical_formula_sum   'Li4 Hg3 Bi1 Pd8'
_cell_volume   259.37576756
_cell_formula_units_Z   1
loop_
 _symmetry_equiv_pos_site_id
 _symmetry_equiv_pos_as_xyz
  1  'x, y, z'
loop_
 _atom_site_type_symbol
 _atom_site_label
 _atom_site_symmetry_multiplicity
 _atom_site_fract_x
 _atom_site_fract_y
 _atom_site_fract_z
 _atom_site_occupancy
  Li  Li0  1  0.749985  0.250032  0.999992  1
  Li  Li1  1  0.250022  0.749978  0.999988  1
  Li  Li2  1  0.749993  0.250016  0.499980  1
  Li  Li3  1  0.250012  0.749976  0.500024  1
  Hg  Hg4  1  0.249990  0.249987  0.000010  1
  Hg  Hg5  1  0.750009  0.750017  0.000004  1
  Hg  Hg6  1  0.249994  0.249997  0.499990  1
  Bi  Bi7  1  0.750002  0.750004  0.500006  1
  Pd  Pd8  1  0.001432  0.001427  0.251747  1
  Pd  Pd9  1  0.001440  0.498575  0.251757  1
  Pd  Pd10  1  0.498570  0.001433  0.251761  1
  Pd  Pd11  1  0.498572  0.498565  0.251732  1
  Pd  Pd12  1  0.498567  0.001450  0.748243  1
  Pd  Pd13  1  0.498562  0.498554  0.748269  1
  Pd  Pd14  1  0.001426  0.001440  0.748257  1
  Pd  Pd15  1  0.001423  0.498552  0.748244  1
