# generated using pymatgen
data_Cs6HoUCl12
_symmetry_space_group_name_H-M   'P 1'
_cell_length_a   9.54898600
_cell_length_b   9.57046687
_cell_length_c   7.96605900
_cell_angle_alpha   90.00000000
_cell_angle_beta   90.00000000
_cell_angle_gamma   89.85926985
_symmetry_Int_Tables_number   1
_chemical_formula_structural   Cs6HoUCl12
_chemical_formula_sum   'Cs6 Ho1 U1 Cl12'
_cell_volume   728.00202843
_cell_formula_units_Z   1
loop_
 _symmetry_equiv_pos_site_id
 _symmetry_equiv_pos_as_xyz
  1  'x, y, z'
loop_
 _atom_site_type_symbol
 _atom_site_label
 _atom_site_symmetry_multiplicity
 _atom_site_fract_x
 _atom_site_fract_y
 _atom_site_fract_z
 _atom_site_occupancy
  Cs  Cs0  1  0.000000  0.000000  0.500000  1
  Cs  Cs1  1  0.000000  0.000000  0.000000  1
  Cs  Cs2  1  0.233000  0.582133  0.500000  1
  Cs  Cs3  1  0.767000  0.417867  0.500000  1
  Cs  Cs4  1  0.416377  0.238283  0.000000  1
  Cs  Cs5  1  0.583623  0.761717  0.000000  1
  Ho  Ho6  1  0.000000  0.500000  0.000000  1
  U  U7  1  0.500000  0.000000  0.500000  1
  Cl  Cl8  1  0.696938  0.058449  0.745293  1
  Cl  Cl9  1  0.303062  0.941551  0.745293  1
  Cl  Cl10  1  0.943976  0.688657  0.235866  1
  Cl  Cl11  1  0.056024  0.311343  0.235866  1
  Cl  Cl12  1  0.303062  0.941551  0.254707  1
  Cl  Cl13  1  0.696938  0.058449  0.254707  1
  Cl  Cl14  1  0.056024  0.311343  0.764134  1
  Cl  Cl15  1  0.943976  0.688657  0.764134  1
  Cl  Cl16  1  0.570612  0.721612  0.500000  1
  Cl  Cl17  1  0.429388  0.278388  0.500000  1
  Cl  Cl18  1  0.267241  0.568889  0.000000  1
  Cl  Cl19  1  0.732759  0.431111  0.000000  1
