# generated using pymatgen
data_Ba2SeO5
_symmetry_space_group_name_H-M   'P 1'
_cell_length_a   8.07606785
_cell_length_b   8.07606826
_cell_length_c   7.87686607
_cell_angle_alpha   66.93705032
_cell_angle_beta   66.93704756
_cell_angle_gamma   44.25584102
_symmetry_Int_Tables_number   1
_chemical_formula_structural   Ba2SeO5
_chemical_formula_sum   'Ba4 Se2 O10'
_cell_volume   324.89183897
_cell_formula_units_Z   2
loop_
 _symmetry_equiv_pos_site_id
 _symmetry_equiv_pos_as_xyz
  1  'x, y, z'
loop_
 _atom_site_type_symbol
 _atom_site_label
 _atom_site_symmetry_multiplicity
 _atom_site_fract_x
 _atom_site_fract_y
 _atom_site_fract_z
 _atom_site_occupancy
  Ba  Ba0  1  0.480369  0.480369  0.260527  1
  Ba  Ba1  1  0.519631  0.519631  0.739473  1
  Ba  Ba2  1  0.854077  0.854077  0.096898  1
  Ba  Ba3  1  0.145923  0.145923  0.903102  1
  Se  Se4  1  0.171383  0.171383  0.345768  1
  Se  Se5  1  0.828617  0.828617  0.654232  1
  O  O6  1  0.250737  0.749263  0.000000  1
  O  O7  1  0.749263  0.250737  0.000000  1
  O  O8  1  0.292746  0.292746  0.286945  1
  O  O9  1  0.707254  0.707254  0.713055  1
  O  O10  1  0.079566  0.628978  0.750607  1
  O  O11  1  0.371022  0.920434  0.249393  1
  O  O12  1  0.106843  0.106843  0.578474  1
  O  O13  1  0.893157  0.893157  0.421526  1
  O  O14  1  0.628978  0.079566  0.750607  1
  O  O15  1  0.920434  0.371022  0.249393  1
