# generated using pymatgen
data_Sm2Nb3Ni9As7
_symmetry_space_group_name_H-M   'P 1'
_cell_length_a   3.88433000
_cell_length_b   9.64106543
_cell_length_c   9.64106600
_cell_angle_alpha   119.99999508
_cell_angle_beta   90.00000000
_cell_angle_gamma   90.00000000
_symmetry_Int_Tables_number   1
_chemical_formula_structural   Sm2Nb3Ni9As7
_chemical_formula_sum   'Sm2 Nb3 Ni9 As7'
_cell_volume   312.67766397
_cell_formula_units_Z   1
loop_
 _symmetry_equiv_pos_site_id
 _symmetry_equiv_pos_as_xyz
  1  'x, y, z'
loop_
 _atom_site_type_symbol
 _atom_site_label
 _atom_site_symmetry_multiplicity
 _atom_site_fract_x
 _atom_site_fract_y
 _atom_site_fract_z
 _atom_site_occupancy
  Sm  Sm0  1  0.000000  0.666667  0.333333  1
  Sm  Sm1  1  0.500000  0.333333  0.666667  1
  Nb  Nb2  1  0.500000  0.778312  0.892458  1
  Nb  Nb3  1  0.500000  0.114146  0.221688  1
  Nb  Nb4  1  0.500000  0.107542  0.885854  1
  Ni  Ni5  1  0.000000  0.572990  0.934316  1
  Ni  Ni6  1  0.000000  0.361325  0.427010  1
  Ni  Ni7  1  0.000000  0.065684  0.638675  1
  Ni  Ni8  1  0.000000  0.869216  0.152374  1
  Ni  Ni9  1  0.000000  0.283159  0.130784  1
  Ni  Ni10  1  0.000000  0.847626  0.716841  1
  Ni  Ni11  1  0.500000  0.940376  0.377379  1
  Ni  Ni12  1  0.500000  0.437003  0.059624  1
  Ni  Ni13  1  0.500000  0.622621  0.562997  1
  As  As14  1  0.500000  0.704408  0.114372  1
  As  As15  1  0.500000  0.409966  0.295592  1
  As  As16  1  0.500000  0.885628  0.590034  1
  As  As17  1  0.000000  0.000000  0.000000  1
  As  As18  1  0.000000  0.584345  0.691279  1
  As  As19  1  0.000000  0.106935  0.415655  1
  As  As20  1  0.000000  0.308721  0.893065  1
