# generated using pymatgen
data_ErTaMn2Fe2P3
_symmetry_space_group_name_H-M   'P 1'
_cell_length_a   3.66727500
_cell_length_b   10.64604600
_cell_length_c   12.33715900
_cell_angle_alpha   90.00000000
_cell_angle_beta   90.00000000
_cell_angle_gamma   90.00000000
_symmetry_Int_Tables_number   1
_chemical_formula_structural   ErTaMn2Fe2P3
_chemical_formula_sum   'Er4 Ta4 Mn8 Fe8 P12'
_cell_volume   481.66709451
_cell_formula_units_Z   4
loop_
 _symmetry_equiv_pos_site_id
 _symmetry_equiv_pos_as_xyz
  1  'x, y, z'
loop_
 _atom_site_type_symbol
 _atom_site_label
 _atom_site_symmetry_multiplicity
 _atom_site_fract_x
 _atom_site_fract_y
 _atom_site_fract_z
 _atom_site_occupancy
  Er  Er0  1  0.250000  0.582934  0.711975  1
  Er  Er1  1  0.250000  0.917066  0.211975  1
  Er  Er2  1  0.750000  0.417066  0.288025  1
  Er  Er3  1  0.750000  0.082934  0.788025  1
  Ta  Ta4  1  0.250000  0.703424  0.989171  1
  Ta  Ta5  1  0.250000  0.796576  0.489171  1
  Ta  Ta6  1  0.750000  0.296576  0.010829  1
  Ta  Ta7  1  0.750000  0.203424  0.510829  1
  Mn  Mn8  1  0.250000  0.408205  0.492404  1
  Mn  Mn9  1  0.250000  0.091796  0.992404  1
  Mn  Mn10  1  0.750000  0.591795  0.507596  1
  Mn  Mn11  1  0.750000  0.908205  0.007596  1
  Mn  Mn12  1  0.250000  0.216705  0.175527  1
  Mn  Mn13  1  0.250000  0.283295  0.675527  1
  Mn  Mn14  1  0.750000  0.783295  0.824473  1
  Mn  Mn15  1  0.750000  0.716705  0.324473  1
  Fe  Fe16  1  0.250000  0.876185  0.701231  1
  Fe  Fe17  1  0.250000  0.623815  0.201231  1
  Fe  Fe18  1  0.750000  0.123815  0.298769  1
  Fe  Fe19  1  0.750000  0.376185  0.798769  1
  Fe  Fe20  1  0.250000  0.462586  0.933111  1
  Fe  Fe21  1  0.250000  0.037414  0.433111  1
  Fe  Fe22  1  0.750000  0.537414  0.066889  1
  Fe  Fe23  1  0.750000  0.962586  0.566889  1
  P  P24  1  0.250000  0.430530  0.113625  1
  P  P25  1  0.250000  0.069470  0.613625  1
  P  P26  1  0.750000  0.569470  0.886375  1
  P  P27  1  0.750000  0.930530  0.386375  1
  P  P28  1  0.250000  0.267563  0.863130  1
  P  P29  1  0.250000  0.232437  0.363130  1
  P  P30  1  0.750000  0.732437  0.136870  1
  P  P31  1  0.750000  0.767563  0.636870  1
  P  P32  1  0.250000  0.587164  0.383091  1
  P  P33  1  0.250000  0.912836  0.883091  1
  P  P34  1  0.750000  0.412836  0.616909  1
  P  P35  1  0.750000  0.087164  0.116909  1
