# generated using pymatgen
data_Ho4Tm8Ni4SnRu
_symmetry_space_group_name_H-M   'P 1'
_cell_length_a   8.21949716
_cell_length_b   8.21949629
_cell_length_c   8.21949800
_cell_angle_alpha   111.08531570
_cell_angle_beta   110.22033380
_cell_angle_gamma   107.13421445
_symmetry_Int_Tables_number   1
_chemical_formula_structural   Ho4Tm8Ni4SnRu
_chemical_formula_sum   'Ho4 Tm8 Ni4 Sn1 Ru1'
_cell_volume   426.92200625
_cell_formula_units_Z   1
loop_
 _symmetry_equiv_pos_site_id
 _symmetry_equiv_pos_as_xyz
  1  'x, y, z'
loop_
 _atom_site_type_symbol
 _atom_site_label
 _atom_site_symmetry_multiplicity
 _atom_site_fract_x
 _atom_site_fract_y
 _atom_site_fract_z
 _atom_site_occupancy
  Ho  Ho0  1  0.182414  0.787377  0.969790  1
  Ho  Ho1  1  0.817587  0.787377  0.604964  1
  Ho  Ho2  1  0.182413  0.212623  0.395036  1
  Ho  Ho3  1  0.817586  0.212623  0.030210  1
  Tm  Tm4  1  0.320236  0.126988  0.806753  1
  Tm  Tm5  1  0.679763  0.486524  0.806760  1
  Tm  Tm6  1  0.407312  0.717224  0.690087  1
  Tm  Tm7  1  0.592688  0.282776  0.309913  1
  Tm  Tm8  1  0.972861  0.282776  0.690088  1
  Tm  Tm9  1  0.027139  0.717224  0.309912  1
  Tm  Tm10  1  0.320237  0.513476  0.193240  1
  Tm  Tm11  1  0.679764  0.873012  0.193247  1
  Ni  Ni12  1  0.877215  0.877224  0.000008  1
  Ni  Ni13  1  0.122785  0.122776  0.999992  1
  Ni  Ni14  1  0.639494  0.500000  0.139494  1
  Ni  Ni15  1  0.360506  0.500000  0.860506  1
  Sn  Sn16  1  0.500000  0.000000  0.500000  1
  Ru  Ru17  1  0.000000  0.500000  0.500000  1
