# generated using pymatgen
data_Hf4TiRe6Mo
_symmetry_space_group_name_H-M   'P 1'
_cell_length_a   5.31192200
_cell_length_b   5.31192166
_cell_length_c   8.63805600
_cell_angle_alpha   90.00000000
_cell_angle_beta   90.00000000
_cell_angle_gamma   120.00000213
_symmetry_Int_Tables_number   1
_chemical_formula_structural   Hf4TiRe6Mo
_chemical_formula_sum   'Hf4 Ti1 Re6 Mo1'
_cell_volume   211.08141077
_cell_formula_units_Z   1
loop_
 _symmetry_equiv_pos_site_id
 _symmetry_equiv_pos_as_xyz
  1  'x, y, z'
loop_
 _atom_site_type_symbol
 _atom_site_label
 _atom_site_symmetry_multiplicity
 _atom_site_fract_x
 _atom_site_fract_y
 _atom_site_fract_z
 _atom_site_occupancy
  Hf  Hf0  1  0.333333  0.666667  0.059858  1
  Hf  Hf1  1  0.666667  0.333333  0.563893  1
  Hf  Hf2  1  0.666667  0.333333  0.940142  1
  Hf  Hf3  1  0.333333  0.666667  0.436107  1
  Ti  Ti4  1  0.000000  0.000000  0.500000  1
  Re  Re5  1  0.829361  0.658724  0.250300  1
  Re  Re6  1  0.170639  0.829361  0.749700  1
  Re  Re7  1  0.658724  0.829361  0.749700  1
  Re  Re8  1  0.341276  0.170639  0.250300  1
  Re  Re9  1  0.829361  0.170639  0.250300  1
  Re  Re10  1  0.170639  0.341276  0.749700  1
  Mo  Mo11  1  0.000000  0.000000  0.000000  1
