# generated using pymatgen
data_Li2Ho2TmAgPb3
_symmetry_space_group_name_H-M   'P 1'
_cell_length_a   7.35907500
_cell_length_b   7.35470052
_cell_length_c   4.63102400
_cell_angle_alpha   90.00000000
_cell_angle_beta   90.00000000
_cell_angle_gamma   120.15319281
_symmetry_Int_Tables_number   1
_chemical_formula_structural   Li2Ho2TmAgPb3
_chemical_formula_sum   'Li2 Ho2 Tm1 Ag1 Pb3'
_cell_volume   216.73218305
_cell_formula_units_Z   1
loop_
 _symmetry_equiv_pos_site_id
 _symmetry_equiv_pos_as_xyz
  1  'x, y, z'
loop_
 _atom_site_type_symbol
 _atom_site_label
 _atom_site_symmetry_multiplicity
 _atom_site_fract_x
 _atom_site_fract_y
 _atom_site_fract_z
 _atom_site_occupancy
  Li  Li0  1  0.771528  0.767460  0.000000  1
  Li  Li1  1  0.004015  0.232607  0.000000  1
  Ho  Ho2  1  0.550928  0.999938  0.500000  1
  Ho  Ho3  1  0.433472  0.429379  0.500000  1
  Tm  Tm4  1  0.004109  0.570929  0.500000  1
  Ag  Ag5  1  0.236298  0.999927  0.000000  1
  Pb  Pb6  1  0.984607  0.999262  0.500000  1
  Pb  Pb7  1  0.335380  0.657590  0.000000  1
  Pb  Pb8  1  0.679663  0.342908  0.000000  1
