# generated using pymatgen
data_Tb5Ce4TmRu4
_symmetry_space_group_name_H-M   'P 1'
_cell_length_a   6.40759125
_cell_length_b   7.03241731
_cell_length_c   8.86022806
_cell_angle_alpha   95.31189632
_cell_angle_beta   111.19805395
_cell_angle_gamma   89.99999875
_symmetry_Int_Tables_number   1
_chemical_formula_structural   Tb5Ce4TmRu4
_chemical_formula_sum   'Tb5 Ce4 Tm1 Ru4'
_cell_volume   370.39506633
_cell_formula_units_Z   1
loop_
 _symmetry_equiv_pos_site_id
 _symmetry_equiv_pos_as_xyz
  1  'x, y, z'
loop_
 _atom_site_type_symbol
 _atom_site_label
 _atom_site_symmetry_multiplicity
 _atom_site_fract_x
 _atom_site_fract_y
 _atom_site_fract_z
 _atom_site_occupancy
  Tb  Tb0  1  0.208005  0.184546  0.566790  1
  Tb  Tb1  1  0.641215  0.315454  0.433210  1
  Tb  Tb2  1  0.792158  0.814784  0.431644  1
  Tb  Tb3  1  0.360514  0.685216  0.568356  1
  Tb  Tb4  1  0.419412  0.250000  0.000000  1
  Ce  Ce5  1  0.792708  0.095841  0.811952  1
  Ce  Ce6  1  0.980756  0.404159  0.188048  1
  Ce  Ce7  1  0.206290  0.904160  0.187677  1
  Ce  Ce8  1  0.018612  0.595840  0.812323  1
  Tm  Tm9  1  0.579467  0.750000  0.000000  1
  Ru  Ru10  1  0.629595  0.407253  0.781586  1
  Ru  Ru11  1  0.848008  0.092747  0.218414  1
  Ru  Ru12  1  0.370900  0.595394  0.218543  1
  Ru  Ru13  1  0.152357  0.904606  0.781457  1
