# generated using pymatgen
data_LaDyYAl7Cu2
_symmetry_space_group_name_H-M   'P 1'
_cell_length_a   9.17069185
_cell_length_b   9.17069253
_cell_length_c   9.17069102
_cell_angle_alpha   35.12203370
_cell_angle_beta   35.12202611
_cell_angle_gamma   35.12202347
_symmetry_Int_Tables_number   1
_chemical_formula_structural   LaDyYAl7Cu2
_chemical_formula_sum   'La1 Dy1 Y1 Al7 Cu2'
_cell_volume   227.98642189
_cell_formula_units_Z   1
loop_
 _symmetry_equiv_pos_site_id
 _symmetry_equiv_pos_as_xyz
  1  'x, y, z'
loop_
 _atom_site_type_symbol
 _atom_site_label
 _atom_site_symmetry_multiplicity
 _atom_site_fract_x
 _atom_site_fract_y
 _atom_site_fract_z
 _atom_site_occupancy
  La  La0  1  0.999991  0.999991  0.999991  1
  Dy  Dy1  1  0.857806  0.857806  0.857806  1
  Y  Y2  1  0.142201  0.142201  0.142201  1
  Al  Al3  1  0.417146  0.417146  0.926355  1
  Al  Al4  1  0.926355  0.417146  0.417146  1
  Al  Al5  1  0.417146  0.926355  0.417146  1
  Al  Al6  1  0.500002  0.500002  0.500002  1
  Al  Al7  1  0.582864  0.073621  0.582864  1
  Al  Al8  1  0.073621  0.582864  0.582864  1
  Al  Al9  1  0.582864  0.582864  0.073621  1
  Cu  Cu10  1  0.664427  0.664427  0.664427  1
  Cu  Cu11  1  0.335578  0.335578  0.335578  1
