# generated using pymatgen
data_La8Dy12Si15Ir
_symmetry_space_group_name_H-M   'P 1'
_cell_length_a   7.55788800
_cell_length_b   7.95784000
_cell_length_c   14.99428300
_cell_angle_alpha   90.00000000
_cell_angle_beta   90.00000000
_cell_angle_gamma   90.00119519
_symmetry_Int_Tables_number   1
_chemical_formula_structural   La8Dy12Si15Ir
_chemical_formula_sum   'La8 Dy12 Si15 Ir1'
_cell_volume   901.82310573
_cell_formula_units_Z   1
loop_
 _symmetry_equiv_pos_site_id
 _symmetry_equiv_pos_as_xyz
  1  'x, y, z'
loop_
 _atom_site_type_symbol
 _atom_site_label
 _atom_site_symmetry_multiplicity
 _atom_site_fract_x
 _atom_site_fract_y
 _atom_site_fract_z
 _atom_site_occupancy
  La  La0  1  0.020284  0.183717  0.097845  1
  La  La1  1  0.983873  0.825071  0.903228  1
  La  La2  1  0.481642  0.677341  0.904614  1
  La  La3  1  0.983873  0.825071  0.596772  1
  La  La4  1  0.519258  0.321733  0.096824  1
  La  La5  1  0.020284  0.183717  0.402155  1
  La  La6  1  0.519258  0.321733  0.403176  1
  La  La7  1  0.481642  0.677341  0.595386  1
  Dy  Dy8  1  0.150682  0.511357  0.750000  1
  Dy  Dy9  1  0.844442  0.488538  0.250000  1
  Dy  Dy10  1  0.343957  0.014142  0.250000  1
  Dy  Dy11  1  0.664713  0.989084  0.750000  1
  Dy  Dy12  1  0.312667  0.173249  0.627459  1
  Dy  Dy13  1  0.679163  0.824967  0.375290  1
  Dy  Dy14  1  0.178980  0.679566  0.376025  1
  Dy  Dy15  1  0.679163  0.824967  0.124710  1
  Dy  Dy16  1  0.830153  0.314622  0.626649  1
  Dy  Dy17  1  0.312667  0.173249  0.872541  1
  Dy  Dy18  1  0.830153  0.314622  0.873351  1
  Dy  Dy19  1  0.178980  0.679566  0.123975  1
  Si  Si20  1  0.973433  0.885914  0.250000  1
  Si  Si21  1  0.473332  0.615437  0.250000  1
  Si  Si22  1  0.525214  0.390314  0.750000  1
  Si  Si23  1  0.273652  0.872937  0.750000  1
  Si  Si24  1  0.724606  0.122120  0.250000  1
  Si  Si25  1  0.225709  0.380014  0.250000  1
  Si  Si26  1  0.766078  0.615233  0.750000  1
  Si  Si27  1  0.147534  0.472448  0.538821  1
  Si  Si28  1  0.854612  0.533212  0.462192  1
  Si  Si29  1  0.354319  0.969323  0.461582  1
  Si  Si30  1  0.854612  0.533212  0.037808  1
  Si  Si31  1  0.643100  0.030683  0.538606  1
  Si  Si32  1  0.147534  0.472448  0.961179  1
  Si  Si33  1  0.643100  0.030683  0.961394  1
  Si  Si34  1  0.354319  0.969323  0.038418  1
  Ir  Ir35  1  0.023006  0.103042  0.750000  1
