# generated using pymatgen
data_Hf6Si3Mo5As3Ru
_symmetry_space_group_name_H-M   'P 1'
_cell_length_a   7.83830463
_cell_length_b   7.86916378
_cell_length_c   7.83796709
_cell_angle_alpha   126.58783013
_cell_angle_beta   127.35037811
_cell_angle_gamma   78.21518876
_symmetry_Int_Tables_number   1
_chemical_formula_structural   Hf6Si3Mo5As3Ru
_chemical_formula_sum   'Hf6 Si3 Mo5 As3 Ru1'
_cell_volume   299.05707765
_cell_formula_units_Z   1
loop_
 _symmetry_equiv_pos_site_id
 _symmetry_equiv_pos_as_xyz
  1  'x, y, z'
loop_
 _atom_site_type_symbol
 _atom_site_label
 _atom_site_symmetry_multiplicity
 _atom_site_fract_x
 _atom_site_fract_y
 _atom_site_fract_z
 _atom_site_occupancy
  Hf  Hf0  1  0.446598  0.654669  0.701477  1
  Hf  Hf1  1  0.549153  0.256268  0.202284  1
  Hf  Hf2  1  0.745398  0.849246  0.601335  1
  Hf  Hf3  1  0.247484  0.848752  0.102646  1
  Hf  Hf4  1  0.053663  0.255827  0.706482  1
  Hf  Hf5  1  0.952944  0.655911  0.208485  1
  Si  Si6  1  0.253504  0.252192  0.502616  1
  Si  Si7  1  0.750666  0.253582  0.000569  1
  Si  Si8  1  0.332786  0.586305  0.253023  1
  Mo  Mo9  1  0.498983  0.505434  0.006286  1
  Mo  Mo10  1  0.000718  0.505475  0.505918  1
  Mo  Mo11  1  0.130074  0.257495  0.127794  1
  Mo  Mo12  1  0.873902  0.001287  0.126780  1
  Mo  Mo13  1  0.374768  0.997101  0.623545  1
  As  As14  1  0.665835  0.922323  0.255725  1
  As  As15  1  0.166166  0.920702  0.754106  1
  As  As16  1  0.831328  0.584094  0.752647  1
  Ru  Ru17  1  0.626027  0.252937  0.627883  1
