# generated using pymatgen
data_EuGd6RhI12
_symmetry_space_group_name_H-M   'P 1'
_cell_length_a   9.88821320
_cell_length_b   9.88821117
_cell_length_c   9.88821200
_cell_angle_alpha   106.83474897
_cell_angle_beta   106.83473329
_cell_angle_gamma   106.83475048
_symmetry_Int_Tables_number   1
_chemical_formula_structural   EuGd6RhI12
_chemical_formula_sum   'Eu1 Gd6 Rh1 I12'
_cell_volume   808.79356214
_cell_formula_units_Z   1
loop_
 _symmetry_equiv_pos_site_id
 _symmetry_equiv_pos_as_xyz
  1  'x, y, z'
loop_
 _atom_site_type_symbol
 _atom_site_label
 _atom_site_symmetry_multiplicity
 _atom_site_fract_x
 _atom_site_fract_y
 _atom_site_fract_z
 _atom_site_occupancy
  Eu  Eu0  1  0.500000  0.500000  0.500000  1
  Gd  Gd1  1  0.903910  0.978011  0.699117  1
  Gd  Gd2  1  0.699117  0.903910  0.978011  1
  Gd  Gd3  1  0.978011  0.699117  0.903910  1
  Gd  Gd4  1  0.096090  0.021989  0.300883  1
  Gd  Gd5  1  0.300883  0.096090  0.021989  1
  Gd  Gd6  1  0.021989  0.300883  0.096090  1
  Rh  Rh7  1  0.000000  0.000000  0.000000  1
  I  I8  1  0.925334  0.322750  0.775043  1
  I  I9  1  0.775043  0.925334  0.322750  1
  I  I10  1  0.322750  0.775043  0.925334  1
  I  I11  1  0.074666  0.677250  0.224957  1
  I  I12  1  0.224957  0.074666  0.677250  1
  I  I13  1  0.677250  0.224957  0.074666  1
  I  I14  1  0.546482  0.856903  0.625953  1
  I  I15  1  0.625953  0.546482  0.856903  1
  I  I16  1  0.856903  0.625953  0.546482  1
  I  I17  1  0.453518  0.143097  0.374047  1
  I  I18  1  0.374047  0.453518  0.143097  1
  I  I19  1  0.143097  0.374047  0.453518  1
