# generated using pymatgen
data_Tb3Yb2GaPb3
_symmetry_space_group_name_H-M   'P 1'
_cell_length_a   9.28571800
_cell_length_b   9.28571914
_cell_length_c   6.88771200
_cell_angle_alpha   90.00000000
_cell_angle_beta   90.00000000
_cell_angle_gamma   119.99999593
_symmetry_Int_Tables_number   1
_chemical_formula_structural   Tb3Yb2GaPb3
_chemical_formula_sum   'Tb6 Yb4 Ga2 Pb6'
_cell_volume   514.32384925
_cell_formula_units_Z   2
loop_
 _symmetry_equiv_pos_site_id
 _symmetry_equiv_pos_as_xyz
  1  'x, y, z'
loop_
 _atom_site_type_symbol
 _atom_site_label
 _atom_site_symmetry_multiplicity
 _atom_site_fract_x
 _atom_site_fract_y
 _atom_site_fract_z
 _atom_site_occupancy
  Tb  Tb0  1  0.260512  0.000000  0.250000  1
  Tb  Tb1  1  0.739488  0.000000  0.750000  1
  Tb  Tb2  1  0.000000  0.260512  0.250000  1
  Tb  Tb3  1  0.000000  0.739488  0.750000  1
  Tb  Tb4  1  0.739488  0.739488  0.250000  1
  Tb  Tb5  1  0.260512  0.260512  0.750000  1
  Yb  Yb6  1  0.333333  0.666667  0.000000  1
  Yb  Yb7  1  0.666667  0.333333  0.000000  1
  Yb  Yb8  1  0.666667  0.333333  0.500000  1
  Yb  Yb9  1  0.333333  0.666667  0.500000  1
  Ga  Ga10  1  0.000000  0.000000  0.000000  1
  Ga  Ga11  1  0.000000  0.000000  0.500000  1
  Pb  Pb12  1  0.612259  0.000000  0.250000  1
  Pb  Pb13  1  0.387741  0.000000  0.750000  1
  Pb  Pb14  1  0.000000  0.612259  0.250000  1
  Pb  Pb15  1  0.000000  0.387741  0.750000  1
  Pb  Pb16  1  0.387741  0.387741  0.250000  1
  Pb  Pb17  1  0.612259  0.612259  0.750000  1
