# generated using pymatgen
data_Dy4Er3Co6CuSn22
_symmetry_space_group_name_H-M   'P 1'
_cell_length_a   9.64391467
_cell_length_b   9.64182408
_cell_length_c   9.87817628
_cell_angle_alpha   89.96899803
_cell_angle_beta   90.05828714
_cell_angle_gamma   119.97342882
_symmetry_Int_Tables_number   1
_chemical_formula_structural   Dy4Er3Co6CuSn22
_chemical_formula_sum   'Dy4 Er3 Co6 Cu1 Sn22'
_cell_volume   795.67545380
_cell_formula_units_Z   1
loop_
 _symmetry_equiv_pos_site_id
 _symmetry_equiv_pos_as_xyz
  1  'x, y, z'
loop_
 _atom_site_type_symbol
 _atom_site_label
 _atom_site_symmetry_multiplicity
 _atom_site_fract_x
 _atom_site_fract_y
 _atom_site_fract_z
 _atom_site_occupancy
  Dy  Dy0  1  0.999975  0.999964  0.000042  1
  Dy  Dy1  1  0.520540  0.041189  0.693547  1
  Dy  Dy2  1  0.041135  0.520524  0.306231  1
  Dy  Dy3  1  0.958825  0.479446  0.693735  1
  Er  Er4  1  0.479722  0.520258  0.306502  1
  Er  Er5  1  0.520290  0.479611  0.693436  1
  Er  Er6  1  0.479766  0.959479  0.306277  1
  Co  Co7  1  0.831642  0.167891  0.197215  1
  Co  Co8  1  0.168017  0.831896  0.802900  1
  Co  Co9  1  0.831701  0.663739  0.197250  1
  Co  Co10  1  0.168356  0.336341  0.802819  1
  Co  Co11  1  0.336478  0.168173  0.197328  1
  Co  Co12  1  0.663668  0.831605  0.802784  1
  Cu  Cu13  1  0.999994  0.999992  0.500004  1
  Sn  Sn14  1  0.346320  0.000114  0.000129  1
  Sn  Sn15  1  0.653643  0.999858  0.000277  1
  Sn  Sn16  1  0.000004  0.346246  0.000082  1
  Sn  Sn17  1  0.999894  0.653744  0.999983  1
  Sn  Sn18  1  0.653686  0.653711  0.000082  1
  Sn  Sn19  1  0.346375  0.346237  0.000020  1
  Sn  Sn20  1  0.333383  0.666579  0.816853  1
  Sn  Sn21  1  0.666486  0.333203  0.183190  1
  Sn  Sn22  1  0.783546  0.215131  0.453765  1
  Sn  Sn23  1  0.216124  0.784574  0.545634  1
  Sn  Sn24  1  0.783217  0.568468  0.454166  1
  Sn  Sn25  1  0.216762  0.431492  0.545797  1
  Sn  Sn26  1  0.431534  0.216132  0.453975  1
  Sn  Sn27  1  0.568472  0.783543  0.545385  1
  Sn  Sn28  1  0.334248  0.667108  0.120642  1
  Sn  Sn29  1  0.666179  0.333780  0.879910  1
  Sn  Sn30  1  0.111431  0.889084  0.283692  1
  Sn  Sn31  1  0.888933  0.110946  0.716322  1
  Sn  Sn32  1  0.111478  0.222336  0.283744  1
  Sn  Sn33  1  0.888493  0.777591  0.716269  1
  Sn  Sn34  1  0.777263  0.888583  0.283784  1
  Sn  Sn35  1  0.222417  0.111432  0.716230  1
