# generated using pymatgen
data_Y6Zn4Pd10Pt3
_symmetry_space_group_name_H-M   'P 1'
_cell_length_a   8.26732783
_cell_length_b   8.27935876
_cell_length_c   8.25507046
_cell_angle_alpha   109.44971368
_cell_angle_beta   109.42524268
_cell_angle_gamma   109.54049116
_symmetry_Int_Tables_number   1
_chemical_formula_structural   Y6Zn4Pd10Pt3
_chemical_formula_sum   'Y6 Zn4 Pd10 Pt3'
_cell_volume   434.96150017
_cell_formula_units_Z   1
loop_
 _symmetry_equiv_pos_site_id
 _symmetry_equiv_pos_as_xyz
  1  'x, y, z'
loop_
 _atom_site_type_symbol
 _atom_site_label
 _atom_site_symmetry_multiplicity
 _atom_site_fract_x
 _atom_site_fract_y
 _atom_site_fract_z
 _atom_site_occupancy
  Y  Y0  1  0.699944  0.701191  0.000332  1
  Y  Y1  1  0.300063  0.001243  0.300391  1
  Y  Y2  1  0.999999  0.297346  0.299946  1
  Y  Y3  1  0.299313  0.299331  0.999089  1
  Y  Y4  1  0.700678  0.000028  0.699778  1
  Y  Y5  1  0.000010  0.700960  0.701025  1
  Zn  Zn6  1  0.000002  0.999731  0.499867  1
  Zn  Zn7  1  0.999998  0.500090  0.000275  1
  Zn  Zn8  1  0.500009  0.000068  0.999876  1
  Zn  Zn9  1  0.499986  0.500056  0.499870  1
  Pd  Pd10  1  0.000001  0.665636  0.333643  1
  Pd  Pd11  1  0.666721  0.333726  0.000084  1
  Pd  Pd12  1  0.333280  0.667005  0.333359  1
  Pd  Pd13  1  0.999997  0.334484  0.666889  1
  Pd  Pd14  1  0.332963  0.666101  0.999715  1
  Pd  Pd15  1  0.333494  0.999673  0.666807  1
  Pd  Pd16  1  0.667835  0.334262  0.333858  1
  Pd  Pd17  1  0.666509  0.666175  0.333316  1
  Pd  Pd18  1  0.667038  0.333135  0.666754  1
  Pd  Pd19  1  0.332163  0.666435  0.666024  1
  Pt  Pt20  1  0.333598  0.333603  0.666773  1
  Pt  Pt21  1  0.666399  0.000009  0.333181  1
  Pt  Pt22  1  0.000003  0.999710  0.999146  1
