# generated using pymatgen
data_TlCd2Ru4PbO14
_symmetry_space_group_name_H-M   'P 1'
_cell_length_a   7.28063236
_cell_length_b   7.28534691
_cell_length_c   7.31839260
_cell_angle_alpha   60.26521480
_cell_angle_beta   60.17054108
_cell_angle_gamma   60.02140349
_symmetry_Int_Tables_number   1
_chemical_formula_structural   TlCd2Ru4PbO14
_chemical_formula_sum   'Tl1 Cd2 Ru4 Pb1 O14'
_cell_volume   275.43080884
_cell_formula_units_Z   1
loop_
 _symmetry_equiv_pos_site_id
 _symmetry_equiv_pos_as_xyz
  1  'x, y, z'
loop_
 _atom_site_type_symbol
 _atom_site_label
 _atom_site_symmetry_multiplicity
 _atom_site_fract_x
 _atom_site_fract_y
 _atom_site_fract_z
 _atom_site_occupancy
  Tl  Tl0  1  0.125000  0.625000  0.125000  1
  Cd  Cd1  1  0.625000  0.125000  0.125000  1
  Cd  Cd2  1  0.125000  0.125000  0.125000  1
  Ru  Ru3  1  0.625000  0.125000  0.625000  1
  Ru  Ru4  1  0.625000  0.625000  0.125000  1
  Ru  Ru5  1  0.125000  0.625000  0.625000  1
  Ru  Ru6  1  0.625000  0.625000  0.625000  1
  Pb  Pb7  1  0.125000  0.125000  0.625000  1
  O  O8  1  0.695468  0.693663  0.306594  1
  O  O9  1  0.948301  0.547675  0.555722  1
  O  O10  1  0.560725  0.939539  0.939012  1
  O  O11  1  0.946700  0.945588  0.558801  1
  O  O12  1  0.945725  0.556337  0.943406  1
  O  O13  1  0.548912  0.945588  0.558801  1
  O  O14  1  0.304275  0.693663  0.306594  1
  O  O15  1  0.301699  0.702325  0.694278  1
  O  O16  1  0.689275  0.310461  0.310988  1
  O  O17  1  0.701088  0.304412  0.691199  1
  O  O18  1  0.554532  0.556337  0.943406  1
  O  O19  1  0.303300  0.304412  0.691199  1
  O  O20  1  0.263229  0.242920  0.230622  1
  O  O21  1  0.986771  0.007080  0.019378  1
