# generated using pymatgen
data_Y3Tm2Lu3(CdNi)2
_symmetry_space_group_name_H-M   'P 1'
_cell_length_a   9.45211550
_cell_length_b   9.45211572
_cell_length_c   9.45211700
_cell_angle_alpha   59.99999901
_cell_angle_beta   59.99999826
_cell_angle_gamma   59.99999757
_symmetry_Int_Tables_number   1
_chemical_formula_structural   Y3Tm2Lu3(CdNi)2
_chemical_formula_sum   'Y6 Tm4 Lu6 Cd4 Ni4'
_cell_volume   597.13444508
_cell_formula_units_Z   2
loop_
 _symmetry_equiv_pos_site_id
 _symmetry_equiv_pos_as_xyz
  1  'x, y, z'
loop_
 _atom_site_type_symbol
 _atom_site_label
 _atom_site_symmetry_multiplicity
 _atom_site_fract_x
 _atom_site_fract_y
 _atom_site_fract_z
 _atom_site_occupancy
  Y  Y0  1  0.188324  0.811676  0.811676  1
  Y  Y1  1  0.811676  0.188324  0.188324  1
  Y  Y2  1  0.811676  0.188324  0.811676  1
  Y  Y3  1  0.188324  0.811676  0.188324  1
  Y  Y4  1  0.811676  0.811676  0.188324  1
  Y  Y5  1  0.188324  0.188324  0.811676  1
  Tm  Tm6  1  0.598206  0.598206  0.598206  1
  Tm  Tm7  1  0.598206  0.598206  0.205383  1
  Tm  Tm8  1  0.598206  0.205383  0.598206  1
  Tm  Tm9  1  0.205383  0.598206  0.598206  1
  Lu  Lu10  1  0.063401  0.436599  0.436599  1
  Lu  Lu11  1  0.436599  0.063401  0.063401  1
  Lu  Lu12  1  0.436599  0.063401  0.436599  1
  Lu  Lu13  1  0.063401  0.436599  0.063401  1
  Lu  Lu14  1  0.436599  0.436599  0.063401  1
  Lu  Lu15  1  0.063401  0.063401  0.436599  1
  Cd  Cd16  1  0.830485  0.830485  0.830485  1
  Cd  Cd17  1  0.830485  0.830485  0.508544  1
  Cd  Cd18  1  0.830485  0.508544  0.830485  1
  Cd  Cd19  1  0.508544  0.830485  0.830485  1
  Ni  Ni20  1  0.392462  0.392462  0.392462  1
  Ni  Ni21  1  0.392462  0.392462  0.822614  1
  Ni  Ni22  1  0.392462  0.822614  0.392462  1
  Ni  Ni23  1  0.822614  0.392462  0.392462  1
