# generated using pymatgen
data_Li3Ni9P7W2
_symmetry_space_group_name_H-M   'P 1'
_cell_length_a   9.14004531
_cell_length_b   9.11919118
_cell_length_c   3.59748600
_cell_angle_alpha   90.00000000
_cell_angle_beta   90.00000000
_cell_angle_gamma   119.48718205
_symmetry_Int_Tables_number   1
_chemical_formula_structural   Li3Ni9P7W2
_chemical_formula_sum   'Li3 Ni9 P7 W2'
_cell_volume   261.00901800
_cell_formula_units_Z   1
loop_
 _symmetry_equiv_pos_site_id
 _symmetry_equiv_pos_as_xyz
  1  'x, y, z'
loop_
 _atom_site_type_symbol
 _atom_site_label
 _atom_site_symmetry_multiplicity
 _atom_site_fract_x
 _atom_site_fract_y
 _atom_site_fract_z
 _atom_site_occupancy
  Li  Li0  1  0.230937  0.103893  0.500000  1
  Li  Li1  1  0.330181  0.666035  0.000000  1
  Li  Li2  1  0.664730  0.335909  0.500000  1
  Ni  Ni3  1  0.710033  0.875628  0.000000  1
  Ni  Ni4  1  0.166066  0.280570  0.000000  1
  Ni  Ni5  1  0.127953  0.846604  0.000000  1
  Ni  Ni6  1  0.627018  0.565613  0.000000  1
  Ni  Ni7  1  0.937587  0.371363  0.000000  1
  Ni  Ni8  1  0.435007  0.062833  0.000000  1
  Ni  Ni9  1  0.556437  0.943758  0.500000  1
  Ni  Ni10  1  0.387380  0.433842  0.500000  1
  Ni  Ni11  1  0.056456  0.614468  0.500000  1
  P  P12  1  0.578887  0.706041  0.500000  1
  P  P13  1  0.123792  0.413105  0.500000  1
  P  P14  1  0.290660  0.871666  0.500000  1
  P  P15  1  0.000388  0.000511  0.000000  1
  P  P16  1  0.881859  0.584508  0.000000  1
  P  P17  1  0.699908  0.121228  0.000000  1
  P  P18  1  0.425301  0.301170  0.000000  1
  W  W19  1  0.871018  0.779615  0.500000  1
  W  W20  1  0.898401  0.121640  0.500000  1
