# generated using pymatgen
data_Nd3Ho2P12Ru16Pt3
_symmetry_space_group_name_H-M   'P 1'
_cell_length_a   12.65597100
_cell_length_b   12.65597127
_cell_length_c   4.01624300
_cell_angle_alpha   90.00000000
_cell_angle_beta   90.00000000
_cell_angle_gamma   119.99999667
_symmetry_Int_Tables_number   1
_chemical_formula_structural   Nd3Ho2P12Ru16Pt3
_chemical_formula_sum   'Nd3 Ho2 P12 Ru16 Pt3'
_cell_volume   557.11080208
_cell_formula_units_Z   1
loop_
 _symmetry_equiv_pos_site_id
 _symmetry_equiv_pos_as_xyz
  1  'x, y, z'
loop_
 _atom_site_type_symbol
 _atom_site_label
 _atom_site_symmetry_multiplicity
 _atom_site_fract_x
 _atom_site_fract_y
 _atom_site_fract_z
 _atom_site_occupancy
  Nd  Nd0  1  0.000000  0.183041  0.500000  1
  Nd  Nd1  1  0.816959  0.816959  0.500000  1
  Nd  Nd2  1  0.183041  0.000000  0.500000  1
  Ho  Ho3  1  0.666667  0.333333  0.000000  1
  Ho  Ho4  1  0.333333  0.666667  0.000000  1
  P  P5  1  0.000000  0.811722  0.000000  1
  P  P6  1  0.188278  0.188278  0.000000  1
  P  P7  1  0.811722  0.000000  0.000000  1
  P  P8  1  0.701094  0.182436  0.500000  1
  P  P9  1  0.817564  0.518658  0.500000  1
  P  P10  1  0.481342  0.298906  0.500000  1
  P  P11  1  0.182436  0.701094  0.500000  1
  P  P12  1  0.518658  0.817564  0.500000  1
  P  P13  1  0.298906  0.481342  0.500000  1
  P  P14  1  0.000000  0.367344  0.000000  1
  P  P15  1  0.632656  0.632656  0.000000  1
  P  P16  1  0.367344  0.000000  0.000000  1
  Ru  Ru17  1  0.000000  0.707935  0.500000  1
  Ru  Ru18  1  0.292065  0.292065  0.500000  1
  Ru  Ru19  1  0.707935  0.000000  0.500000  1
  Ru  Ru20  1  0.803725  0.185798  0.000000  1
  Ru  Ru21  1  0.814202  0.617928  0.000000  1
  Ru  Ru22  1  0.382072  0.196275  0.000000  1
  Ru  Ru23  1  0.185798  0.803725  0.000000  1
  Ru  Ru24  1  0.617928  0.814202  0.000000  1
  Ru  Ru25  1  0.196275  0.382072  0.000000  1
  Ru  Ru26  1  0.875203  0.370733  0.500000  1
  Ru  Ru27  1  0.629267  0.504470  0.500000  1
  Ru  Ru28  1  0.495530  0.124797  0.500000  1
  Ru  Ru29  1  0.370733  0.875203  0.500000  1
  Ru  Ru30  1  0.504470  0.629267  0.500000  1
  Ru  Ru31  1  0.124797  0.495530  0.500000  1
  Ru  Ru32  1  0.000000  0.000000  0.000000  1
  Pt  Pt33  1  0.000000  0.551336  0.000000  1
  Pt  Pt34  1  0.448664  0.448664  0.000000  1
  Pt  Pt35  1  0.551336  0.000000  0.000000  1
