# generated using pymatgen
data_Y4Si4OsRh3
_symmetry_space_group_name_H-M   'P 1'
_cell_length_a   4.28780300
_cell_length_b   6.94581924
_cell_length_c   7.34457742
_cell_angle_alpha   90.20843296
_cell_angle_beta   90.00000000
_cell_angle_gamma   90.00000000
_symmetry_Int_Tables_number   1
_chemical_formula_structural   Y4Si4OsRh3
_chemical_formula_sum   'Y4 Si4 Os1 Rh3'
_cell_volume   218.73699423
_cell_formula_units_Z   1
loop_
 _symmetry_equiv_pos_site_id
 _symmetry_equiv_pos_as_xyz
  1  'x, y, z'
loop_
 _atom_site_type_symbol
 _atom_site_label
 _atom_site_symmetry_multiplicity
 _atom_site_fract_x
 _atom_site_fract_y
 _atom_site_fract_z
 _atom_site_occupancy
  Y  Y0  1  0.750000  0.502004  0.314646  1
  Y  Y1  1  0.250000  0.992773  0.811003  1
  Y  Y2  1  0.750000  0.004793  0.189817  1
  Y  Y3  1  0.250000  0.498958  0.685732  1
  Si  Si4  1  0.250000  0.302620  0.102961  1
  Si  Si5  1  0.250000  0.796974  0.385497  1
  Si  Si6  1  0.750000  0.700751  0.903822  1
  Si  Si7  1  0.750000  0.200344  0.606941  1
  Os  Os8  1  0.250000  0.655185  0.068511  1
  Rh  Rh9  1  0.250000  0.156506  0.430873  1
  Rh  Rh10  1  0.750000  0.843877  0.569191  1
  Rh  Rh11  1  0.750000  0.345215  0.931006  1
