# generated using pymatgen
data_GaFe2SiRu4
_symmetry_space_group_name_H-M   'P 1'
_cell_length_a   7.29492035
_cell_length_b   7.29492025
_cell_length_c   7.29492108
_cell_angle_alpha   33.57548605
_cell_angle_beta   33.57548717
_cell_angle_gamma   33.57548985
_symmetry_Int_Tables_number   1
_chemical_formula_structural   GaFe2SiRu4
_chemical_formula_sum   'Ga1 Fe2 Si1 Ru4'
_cell_volume   105.76040378
_cell_formula_units_Z   1
loop_
 _symmetry_equiv_pos_site_id
 _symmetry_equiv_pos_as_xyz
  1  'x, y, z'
loop_
 _atom_site_type_symbol
 _atom_site_label
 _atom_site_symmetry_multiplicity
 _atom_site_fract_x
 _atom_site_fract_y
 _atom_site_fract_z
 _atom_site_occupancy
  Ga  Ga0  1  0.000000  0.000000  0.000000  1
  Fe  Fe1  1  0.251378  0.251378  0.251378  1
  Fe  Fe2  1  0.748622  0.748622  0.748622  1
  Si  Si3  1  0.500000  0.500000  0.500000  1
  Ru  Ru4  1  0.872148  0.872148  0.872148  1
  Ru  Ru5  1  0.378323  0.378323  0.378323  1
  Ru  Ru6  1  0.127852  0.127852  0.127852  1
  Ru  Ru7  1  0.621677  0.621677  0.621677  1
