# generated using pymatgen
data_LiNd2Cu3O8
_symmetry_space_group_name_H-M   'P 1'
_cell_length_a   6.42050074
_cell_length_b   6.45462304
_cell_length_c   6.19952222
_cell_angle_alpha   124.63686897
_cell_angle_beta   125.21383379
_cell_angle_gamma   81.96625449
_symmetry_Int_Tables_number   1
_chemical_formula_structural   LiNd2Cu3O8
_chemical_formula_sum   'Li1 Nd2 Cu3 O8'
_cell_volume   165.81318222
_cell_formula_units_Z   1
loop_
 _symmetry_equiv_pos_site_id
 _symmetry_equiv_pos_as_xyz
  1  'x, y, z'
loop_
 _atom_site_type_symbol
 _atom_site_label
 _atom_site_symmetry_multiplicity
 _atom_site_fract_x
 _atom_site_fract_y
 _atom_site_fract_z
 _atom_site_occupancy
  Li  Li0  1  0.875000  0.625000  0.250000  1
  Nd  Nd1  1  0.993741  0.009352  0.999897  1
  Nd  Nd2  1  0.756259  0.240648  0.500103  1
  Cu  Cu3  1  0.375000  0.125000  0.750000  1
  Cu  Cu4  1  0.375000  0.625000  0.250000  1
  Cu  Cu5  1  0.375000  0.625000  0.750000  1
  O  O6  1  0.168347  0.599458  0.862253  1
  O  O7  1  0.724796  0.281050  0.123848  1
  O  O8  1  0.581653  0.650542  0.637747  1
  O  O9  1  0.025204  0.968950  0.376152  1
  O  O10  1  0.333254  0.961341  0.901104  1
  O  O11  1  0.076202  0.408740  0.076176  1
  O  O12  1  0.673798  0.841260  0.423824  1
  O  O13  1  0.416746  0.288659  0.598896  1
