# generated using pymatgen
data_Pr7Y3Si8O3
_symmetry_space_group_name_H-M   'P 1'
_cell_length_a   10.71053200
_cell_length_b   10.71053217
_cell_length_c   4.50258400
_cell_angle_alpha   90.00000000
_cell_angle_beta   90.00000000
_cell_angle_gamma   119.99999947
_symmetry_Int_Tables_number   1
_chemical_formula_structural   Pr7Y3Si8O3
_chemical_formula_sum   'Pr7 Y3 Si8 O3'
_cell_volume   447.31612185
_cell_formula_units_Z   1
loop_
 _symmetry_equiv_pos_site_id
 _symmetry_equiv_pos_as_xyz
  1  'x, y, z'
loop_
 _atom_site_type_symbol
 _atom_site_label
 _atom_site_symmetry_multiplicity
 _atom_site_fract_x
 _atom_site_fract_y
 _atom_site_fract_z
 _atom_site_occupancy
  Pr  Pr0  1  0.211492  0.788508  0.000000  1
  Pr  Pr1  1  0.577018  0.788508  0.000000  1
  Pr  Pr2  1  0.788508  0.577018  0.000000  1
  Pr  Pr3  1  0.000000  0.000000  0.000000  1
  Pr  Pr4  1  0.211492  0.422982  0.000000  1
  Pr  Pr5  1  0.422982  0.211492  0.000000  1
  Pr  Pr6  1  0.788508  0.211492  0.000000  1
  Y  Y7  1  0.000000  0.500000  0.500000  1
  Y  Y8  1  0.500000  0.500000  0.500000  1
  Y  Y9  1  0.500000  0.000000  0.500000  1
  Si  Si10  1  0.000000  0.776697  0.500000  1
  Si  Si11  1  0.000000  0.223303  0.500000  1
  Si  Si12  1  0.223303  0.223303  0.500000  1
  Si  Si13  1  0.776697  0.000000  0.500000  1
  Si  Si14  1  0.333333  0.666667  0.500000  1
  Si  Si15  1  0.223303  0.000000  0.500000  1
  Si  Si16  1  0.666667  0.333333  0.500000  1
  Si  Si17  1  0.776697  0.776697  0.500000  1
  O  O18  1  0.000000  0.500000  0.000000  1
  O  O19  1  0.500000  0.500000  0.000000  1
  O  O20  1  0.500000  0.000000  0.000000  1
