# generated using pymatgen
data_Ta12Si3Pt5N4
_symmetry_space_group_name_H-M   'P 1'
_cell_length_a   7.02218184
_cell_length_b   7.02218238
_cell_length_c   7.02218200
_cell_angle_alpha   90.26627826
_cell_angle_beta   89.73371356
_cell_angle_gamma   89.73372196
_symmetry_Int_Tables_number   1
_chemical_formula_structural   Ta12Si3Pt5N4
_chemical_formula_sum   'Ta12 Si3 Pt5 N4'
_cell_volume   346.25985494
_cell_formula_units_Z   1
loop_
 _symmetry_equiv_pos_site_id
 _symmetry_equiv_pos_as_xyz
  1  'x, y, z'
loop_
 _atom_site_type_symbol
 _atom_site_label
 _atom_site_symmetry_multiplicity
 _atom_site_fract_x
 _atom_site_fract_y
 _atom_site_fract_z
 _atom_site_occupancy
  Ta  Ta0  1  0.787644  0.954425  0.378311  1
  Ta  Ta1  1  0.712435  0.049665  0.884038  1
  Ta  Ta2  1  0.212922  0.452459  0.122772  1
  Ta  Ta3  1  0.294598  0.544737  0.626408  1
  Ta  Ta4  1  0.950335  0.384038  0.787565  1
  Ta  Ta5  1  0.045575  0.878311  0.712356  1
  Ta  Ta6  1  0.455263  0.126408  0.205402  1
  Ta  Ta7  1  0.547541  0.622772  0.287078  1
  Ta  Ta8  1  0.377228  0.787078  0.952459  1
  Ta  Ta9  1  0.873592  0.705402  0.044737  1
  Ta  Ta10  1  0.121689  0.212356  0.454425  1
  Ta  Ta11  1  0.615962  0.287565  0.549665  1
  Si  Si12  1  0.427695  0.927131  0.567621  1
  Si  Si13  1  0.932379  0.572305  0.427131  1
  Si  Si14  1  0.072869  0.067621  0.072305  1
  Pt  Pt15  1  0.178354  0.821646  0.321646  1
  Pt  Pt16  1  0.309746  0.166098  0.815311  1
  Pt  Pt17  1  0.833902  0.315311  0.190254  1
  Pt  Pt18  1  0.684689  0.690254  0.666098  1
  Pt  Pt19  1  0.567216  0.432784  0.932784  1
  N  N20  1  0.872282  0.127718  0.627718  1
  N  N21  1  0.622953  0.873616  0.123255  1
  N  N22  1  0.126384  0.623255  0.877047  1
  N  N23  1  0.376745  0.377047  0.373616  1
