# generated using pymatgen
data_YbCeBr6
_symmetry_space_group_name_H-M   'P 1'
_cell_length_a   7.36479236
_cell_length_b   7.36479346
_cell_length_c   7.06651018
_cell_angle_alpha   100.10836456
_cell_angle_beta   100.10836236
_cell_angle_gamma   119.95053145
_symmetry_Int_Tables_number   1
_chemical_formula_structural   YbCeBr6
_chemical_formula_sum   'Yb1 Ce1 Br6'
_cell_volume   311.00325787
_cell_formula_units_Z   1
loop_
 _symmetry_equiv_pos_site_id
 _symmetry_equiv_pos_as_xyz
  1  'x, y, z'
loop_
 _atom_site_type_symbol
 _atom_site_label
 _atom_site_symmetry_multiplicity
 _atom_site_fract_x
 _atom_site_fract_y
 _atom_site_fract_z
 _atom_site_occupancy
  Yb  Yb0  1  0.834123  0.165878  0.000000  1
  Ce  Ce1  1  0.166301  0.833700  0.000000  1
  Br  Br2  1  0.938655  0.587215  0.235936  1
  Br  Br3  1  0.571238  0.932169  0.239429  1
  Br  Br4  1  0.223428  0.214361  0.245706  1
  Br  Br5  1  0.785639  0.776572  0.754295  1
  Br  Br6  1  0.412784  0.061345  0.764064  1
  Br  Br7  1  0.067831  0.428761  0.760571  1
