# generated using pymatgen
data_Dy4HoIr2Rh
_symmetry_space_group_name_H-M   'P 1'
_cell_length_a   10.87317700
_cell_length_b   10.87317700
_cell_length_c   6.38778100
_cell_angle_alpha   90.00000000
_cell_angle_beta   90.00000000
_cell_angle_gamma   90.00000000
_symmetry_Int_Tables_number   1
_chemical_formula_structural   Dy4HoIr2Rh
_chemical_formula_sum   'Dy16 Ho4 Ir8 Rh4'
_cell_volume   755.20165644
_cell_formula_units_Z   4
loop_
 _symmetry_equiv_pos_site_id
 _symmetry_equiv_pos_as_xyz
  1  'x, y, z'
loop_
 _atom_site_type_symbol
 _atom_site_label
 _atom_site_symmetry_multiplicity
 _atom_site_fract_x
 _atom_site_fract_y
 _atom_site_fract_z
 _atom_site_occupancy
  Dy  Dy0  1  0.290342  0.088729  0.379010  1
  Dy  Dy1  1  0.290342  0.911271  0.879010  1
  Dy  Dy2  1  0.709658  0.088729  0.879010  1
  Dy  Dy3  1  0.709658  0.911271  0.379010  1
  Dy  Dy4  1  0.588729  0.790342  0.879010  1
  Dy  Dy5  1  0.588729  0.209658  0.379010  1
  Dy  Dy6  1  0.411271  0.790342  0.379010  1
  Dy  Dy7  1  0.411271  0.209658  0.879010  1
  Dy  Dy8  1  0.209658  0.411271  0.620990  1
  Dy  Dy9  1  0.209658  0.588729  0.120990  1
  Dy  Dy10  1  0.790342  0.411271  0.120990  1
  Dy  Dy11  1  0.790342  0.588729  0.620990  1
  Dy  Dy12  1  0.911271  0.709658  0.120990  1
  Dy  Dy13  1  0.911271  0.290342  0.620990  1
  Dy  Dy14  1  0.088729  0.709658  0.620990  1
  Dy  Dy15  1  0.088729  0.290342  0.120990  1
  Ho  Ho16  1  0.000000  0.000000  0.500000  1
  Ho  Ho17  1  0.000000  0.000000  0.000000  1
  Ho  Ho18  1  0.500000  0.500000  0.000000  1
  Ho  Ho19  1  0.500000  0.500000  0.500000  1
  Ir  Ir20  1  0.846193  0.153807  0.250000  1
  Ir  Ir21  1  0.846193  0.846193  0.750000  1
  Ir  Ir22  1  0.153807  0.153807  0.750000  1
  Ir  Ir23  1  0.153807  0.846193  0.250000  1
  Ir  Ir24  1  0.653807  0.346193  0.750000  1
  Ir  Ir25  1  0.653807  0.653807  0.250000  1
  Ir  Ir26  1  0.346193  0.346193  0.250000  1
  Ir  Ir27  1  0.346193  0.653807  0.750000  1
  Rh  Rh28  1  0.500000  0.000000  0.122157  1
  Rh  Rh29  1  0.500000  0.000000  0.622157  1
  Rh  Rh30  1  0.000000  0.500000  0.877843  1
  Rh  Rh31  1  0.000000  0.500000  0.377843  1
