# generated using pymatgen
data_YHoReC2
_symmetry_space_group_name_H-M   'P 1'
_cell_length_a   5.11217900
_cell_length_b   6.57641200
_cell_length_c   9.84398200
_cell_angle_alpha   90.00000000
_cell_angle_beta   90.00000000
_cell_angle_gamma   90.00000000
_symmetry_Int_Tables_number   1
_chemical_formula_structural   YHoReC2
_chemical_formula_sum   'Y4 Ho4 Re4 C8'
_cell_volume   330.95265999
_cell_formula_units_Z   4
loop_
 _symmetry_equiv_pos_site_id
 _symmetry_equiv_pos_as_xyz
  1  'x, y, z'
loop_
 _atom_site_type_symbol
 _atom_site_label
 _atom_site_symmetry_multiplicity
 _atom_site_fract_x
 _atom_site_fract_y
 _atom_site_fract_z
 _atom_site_occupancy
  Y  Y0  1  0.250000  0.467075  0.783849  1
  Y  Y1  1  0.750000  0.032925  0.283849  1
  Y  Y2  1  0.250000  0.967075  0.716151  1
  Y  Y3  1  0.750000  0.532925  0.216151  1
  Ho  Ho4  1  0.250000  0.821303  0.057097  1
  Ho  Ho5  1  0.750000  0.678697  0.557097  1
  Ho  Ho6  1  0.250000  0.321303  0.442903  1
  Ho  Ho7  1  0.750000  0.178697  0.942903  1
  Re  Re8  1  0.250000  0.279491  0.133306  1
  Re  Re9  1  0.750000  0.220509  0.633306  1
  Re  Re10  1  0.250000  0.779491  0.366694  1
  Re  Re11  1  0.750000  0.720509  0.866694  1
  C  C12  1  0.250000  0.175602  0.950341  1
  C  C13  1  0.750000  0.824398  0.049659  1
  C  C14  1  0.250000  0.675602  0.549659  1
  C  C15  1  0.750000  0.324398  0.450341  1
  C  C16  1  0.250000  0.046822  0.258877  1
  C  C17  1  0.750000  0.453178  0.758877  1
  C  C18  1  0.250000  0.546822  0.241123  1
  C  C19  1  0.750000  0.953178  0.741123  1
