# generated using pymatgen
data_Tb16Cd4Ir2RuRh
_symmetry_space_group_name_H-M   'P 1'
_cell_length_a   9.70528736
_cell_length_b   9.70528708
_cell_length_c   9.68751218
_cell_angle_alpha   59.76207107
_cell_angle_beta   59.76206388
_cell_angle_gamma   59.81749138
_symmetry_Int_Tables_number   1
_chemical_formula_structural   Tb16Cd4Ir2RuRh
_chemical_formula_sum   'Tb16 Cd4 Ir2 Ru1 Rh1'
_cell_volume   642.01400533
_cell_formula_units_Z   1
loop_
 _symmetry_equiv_pos_site_id
 _symmetry_equiv_pos_as_xyz
  1  'x, y, z'
loop_
 _atom_site_type_symbol
 _atom_site_label
 _atom_site_symmetry_multiplicity
 _atom_site_fract_x
 _atom_site_fract_y
 _atom_site_fract_z
 _atom_site_occupancy
  Tb  Tb0  1  0.598710  0.598710  0.598989  1
  Tb  Tb1  1  0.598282  0.598282  0.206633  1
  Tb  Tb2  1  0.598654  0.205794  0.598080  1
  Tb  Tb3  1  0.205794  0.598654  0.598080  1
  Tb  Tb4  1  0.061796  0.439022  0.438272  1
  Tb  Tb5  1  0.438161  0.059870  0.060416  1
  Tb  Tb6  1  0.439022  0.061796  0.438272  1
  Tb  Tb7  1  0.059870  0.438161  0.060416  1
  Tb  Tb8  1  0.438707  0.438707  0.062120  1
  Tb  Tb9  1  0.060035  0.060035  0.437800  1
  Tb  Tb10  1  0.187649  0.813283  0.811566  1
  Tb  Tb11  1  0.809815  0.188331  0.188029  1
  Tb  Tb12  1  0.813283  0.187649  0.811566  1
  Tb  Tb13  1  0.188331  0.809815  0.188029  1
  Tb  Tb14  1  0.811607  0.811607  0.188425  1
  Tb  Tb15  1  0.187666  0.187666  0.810156  1
  Cd  Cd16  1  0.830243  0.830243  0.830033  1
  Cd  Cd17  1  0.830845  0.830845  0.506499  1
  Cd  Cd18  1  0.830906  0.506433  0.830627  1
  Cd  Cd19  1  0.506433  0.830906  0.830627  1
  Ir  Ir20  1  0.393506  0.826217  0.394173  1
  Ir  Ir21  1  0.826217  0.393506  0.394173  1
  Ru  Ru22  1  0.391128  0.391128  0.390836  1
  Rh  Rh23  1  0.393340  0.393340  0.826189  1
