# generated using pymatgen
data_Tb5Tm(Si3Ru)8
_symmetry_space_group_name_H-M   'P 1'
_cell_length_a   10.10688900
_cell_length_b   10.10688963
_cell_length_c   8.14656235
_cell_angle_alpha   90.01354904
_cell_angle_beta   90.01354981
_cell_angle_gamma   132.48394136
_symmetry_Int_Tables_number   1
_chemical_formula_structural   Tb5Tm(Si3Ru)8
_chemical_formula_sum   'Tb5 Tm1 Si24 Ru8'
_cell_volume   613.69377960
_cell_formula_units_Z   1
loop_
 _symmetry_equiv_pos_site_id
 _symmetry_equiv_pos_as_xyz
  1  'x, y, z'
loop_
 _atom_site_type_symbol
 _atom_site_label
 _atom_site_symmetry_multiplicity
 _atom_site_fract_x
 _atom_site_fract_y
 _atom_site_fract_z
 _atom_site_occupancy
  Tb  Tb0  1  0.000000  0.000000  0.000000  1
  Tb  Tb1  1  0.502629  0.002540  0.749756  1
  Tb  Tb2  1  0.997460  0.497371  0.250244  1
  Tb  Tb3  1  0.497371  0.997460  0.250244  1
  Tb  Tb4  1  0.002540  0.502629  0.749756  1
  Tm  Tm5  1  0.500000  0.500000  0.500000  1
  Si  Si6  1  0.794490  0.205510  0.500000  1
  Si  Si7  1  0.294828  0.705172  0.000000  1
  Si  Si8  1  0.205510  0.794490  0.500000  1
  Si  Si9  1  0.705172  0.294828  0.000000  1
  Si  Si10  1  0.332373  0.332373  0.833198  1
  Si  Si11  1  0.667627  0.667627  0.166802  1
  Si  Si12  1  0.167176  0.167176  0.332891  1
  Si  Si13  1  0.832824  0.832824  0.667109  1
  Si  Si14  1  0.122082  0.887679  0.728173  1
  Si  Si15  1  0.112321  0.877918  0.271827  1
  Si  Si16  1  0.611390  0.377408  0.228766  1
  Si  Si17  1  0.622592  0.388610  0.771234  1
  Si  Si18  1  0.877918  0.112321  0.271827  1
  Si  Si19  1  0.887679  0.122082  0.728173  1
  Si  Si20  1  0.388610  0.622592  0.771234  1
  Si  Si21  1  0.377408  0.611390  0.228766  1
  Si  Si22  1  0.345483  0.111912  0.505557  1
  Si  Si23  1  0.888088  0.654517  0.494443  1
  Si  Si24  1  0.388114  0.154543  0.005366  1
  Si  Si25  1  0.845457  0.611886  0.994634  1
  Si  Si26  1  0.654517  0.888088  0.494443  1
  Si  Si27  1  0.111912  0.345483  0.505557  1
  Si  Si28  1  0.611886  0.845457  0.994634  1
  Si  Si29  1  0.154543  0.388114  0.005366  1
  Ru  Ru30  1  0.668211  0.331789  0.500000  1
  Ru  Ru31  1  0.168917  0.831083  0.000000  1
  Ru  Ru32  1  0.331789  0.668211  0.500000  1
  Ru  Ru33  1  0.831083  0.168917  0.000000  1
  Ru  Ru34  1  0.127044  0.127044  0.625719  1
  Ru  Ru35  1  0.872956  0.872956  0.374281  1
  Ru  Ru36  1  0.374475  0.374475  0.128200  1
  Ru  Ru37  1  0.625525  0.625525  0.871800  1
