# generated using pymatgen
data_NdThTa3Si4
_symmetry_space_group_name_H-M   'P 1'
_cell_length_a   7.15551373
_cell_length_b   7.15825977
_cell_length_c   13.31879206
_cell_angle_alpha   89.95424899
_cell_angle_beta   89.95560837
_cell_angle_gamma   89.97322014
_symmetry_Int_Tables_number   1
_chemical_formula_structural   NdThTa3Si4
_chemical_formula_sum   'Nd4 Th4 Ta12 Si16'
_cell_volume   682.20169853
_cell_formula_units_Z   4
loop_
 _symmetry_equiv_pos_site_id
 _symmetry_equiv_pos_as_xyz
  1  'x, y, z'
loop_
 _atom_site_type_symbol
 _atom_site_label
 _atom_site_symmetry_multiplicity
 _atom_site_fract_x
 _atom_site_fract_y
 _atom_site_fract_z
 _atom_site_occupancy
  Nd  Nd0  1  0.998094  0.338082  0.217904  1
  Nd  Nd1  1  0.001490  0.662216  0.718110  1
  Nd  Nd2  1  0.162310  0.497333  0.468036  1
  Nd  Nd3  1  0.502162  0.837417  0.031644  1
  Th  Th4  1  0.837332  0.501770  0.967988  1
  Th  Th5  1  0.498343  0.163042  0.531843  1
  Th  Th6  1  0.336747  0.997859  0.781737  1
  Th  Th7  1  0.662779  0.002784  0.282029  1
  Ta  Ta8  1  0.166685  0.170578  0.998737  1
  Ta  Ta9  1  0.828904  0.833710  0.499646  1
  Ta  Ta10  1  0.332553  0.670493  0.250395  1
  Ta  Ta11  1  0.666449  0.330451  0.750493  1
  Ta  Ta12  1  0.160001  0.991203  0.374364  1
  Ta  Ta13  1  0.841863  0.007703  0.874527  1
  Ta  Ta14  1  0.508668  0.659648  0.624509  1
  Ta  Ta15  1  0.341291  0.491299  0.875883  1
  Ta  Ta16  1  0.493691  0.341631  0.124655  1
  Ta  Ta17  1  0.657688  0.506277  0.375880  1
  Ta  Ta18  1  0.994018  0.157693  0.625704  1
  Ta  Ta19  1  0.007102  0.840362  0.126005  1
  Si  Si20  1  0.288473  0.041070  0.184714  1
  Si  Si21  1  0.712106  0.958515  0.686137  1
  Si  Si22  1  0.458191  0.788728  0.436088  1
  Si  Si23  1  0.210502  0.540542  0.065000  1
  Si  Si24  1  0.540279  0.208510  0.936786  1
  Si  Si25  1  0.791936  0.460976  0.564153  1
  Si  Si26  1  0.039657  0.292296  0.812997  1
  Si  Si27  1  0.960483  0.707546  0.314430  1
  Si  Si28  1  0.372117  0.300097  0.314348  1
  Si  Si29  1  0.626267  0.702014  0.814132  1
  Si  Si30  1  0.201167  0.872007  0.564816  1
  Si  Si31  1  0.126376  0.797581  0.936017  1
  Si  Si32  1  0.798920  0.124763  0.065571  1
  Si  Si33  1  0.877069  0.202089  0.435379  1
  Si  Si34  1  0.296885  0.376850  0.684728  1
  Si  Si35  1  0.701399  0.624866  0.184615  1
