# generated using pymatgen
data_Tb4MnGaRu6
_symmetry_space_group_name_H-M   'P 1'
_cell_length_a   5.21505188
_cell_length_b   5.21505116
_cell_length_c   8.87929500
_cell_angle_alpha   90.00000000
_cell_angle_beta   90.00000000
_cell_angle_gamma   116.92777290
_symmetry_Int_Tables_number   1
_chemical_formula_structural   Tb4MnGaRu6
_chemical_formula_sum   'Tb4 Mn1 Ga1 Ru6'
_cell_volume   215.30548434
_cell_formula_units_Z   1
loop_
 _symmetry_equiv_pos_site_id
 _symmetry_equiv_pos_as_xyz
  1  'x, y, z'
loop_
 _atom_site_type_symbol
 _atom_site_label
 _atom_site_symmetry_multiplicity
 _atom_site_fract_x
 _atom_site_fract_y
 _atom_site_fract_z
 _atom_site_occupancy
  Tb  Tb0  1  0.327693  0.672307  0.432956  1
  Tb  Tb1  1  0.668110  0.331890  0.564883  1
  Tb  Tb2  1  0.668110  0.331890  0.935117  1
  Tb  Tb3  1  0.327693  0.672307  0.067044  1
  Mn  Mn4  1  0.846780  0.153220  0.250000  1
  Ga  Ga5  1  0.164617  0.835383  0.750000  1
  Ru  Ru6  1  0.991942  0.008058  0.496066  1
  Ru  Ru7  1  0.991942  0.008058  0.003934  1
  Ru  Ru8  1  0.820584  0.644124  0.250000  1
  Ru  Ru9  1  0.355876  0.179416  0.250000  1
  Ru  Ru10  1  0.181333  0.344681  0.750000  1
  Ru  Ru11  1  0.655319  0.818667  0.750000  1
