# generated using pymatgen
data_Hf5Sc6Ru12W
_symmetry_space_group_name_H-M   'P 1'
_cell_length_a   4.55619400
_cell_length_b   6.41941200
_cell_length_c   13.67763600
_cell_angle_alpha   89.99984008
_cell_angle_beta   90.00021371
_cell_angle_gamma   90.00000000
_symmetry_Int_Tables_number   1
_chemical_formula_structural   Hf5Sc6Ru12W
_chemical_formula_sum   'Hf5 Sc6 Ru12 W1'
_cell_volume   400.04467999
_cell_formula_units_Z   1
loop_
 _symmetry_equiv_pos_site_id
 _symmetry_equiv_pos_as_xyz
  1  'x, y, z'
loop_
 _atom_site_type_symbol
 _atom_site_label
 _atom_site_symmetry_multiplicity
 _atom_site_fract_x
 _atom_site_fract_y
 _atom_site_fract_z
 _atom_site_occupancy
  Hf  Hf0  1  0.499990  0.999999  0.166537  1
  Hf  Hf1  1  0.999988  0.499992  0.333041  1
  Hf  Hf2  1  0.500000  0.000002  0.499983  1
  Hf  Hf3  1  0.000013  0.500000  0.666948  1
  Hf  Hf4  1  0.500010  0.999988  0.833483  1
  Sc  Sc5  1  0.999998  0.000082  0.999989  1
  Sc  Sc6  1  0.499986  0.499981  0.166151  1
  Sc  Sc7  1  0.999987  0.999989  0.332957  1
  Sc  Sc8  1  0.500000  0.500003  0.500000  1
  Sc  Sc9  1  0.000013  0.999997  0.667050  1
  Sc  Sc10  1  0.500012  0.499970  0.833862  1
  Ru  Ru11  1  0.499998  0.260548  0.000015  1
  Ru  Ru12  1  0.499998  0.739405  0.000014  1
  Ru  Ru13  1  0.999996  0.255636  0.160493  1
  Ru  Ru14  1  0.999995  0.744362  0.160479  1
  Ru  Ru15  1  0.499987  0.249896  0.331693  1
  Ru  Ru16  1  0.499987  0.750099  0.331692  1
  Ru  Ru17  1  0.000001  0.249749  0.499985  1
  Ru  Ru18  1  0.000000  0.750252  0.499987  1
  Ru  Ru19  1  0.500009  0.249887  0.668283  1
  Ru  Ru20  1  0.500013  0.750110  0.668287  1
  Ru  Ru21  1  0.000008  0.255624  0.839508  1
  Ru  Ru22  1  0.000009  0.744359  0.839524  1
  W  W23  1  0.000001  0.500070  0.000039  1
