# generated using pymatgen
data_Dy4Er3Tm5(GaCo2)2
_symmetry_space_group_name_H-M   'P 1'
_cell_length_a   8.21175753
_cell_length_b   8.20194550
_cell_length_c   8.20194510
_cell_angle_alpha   106.85635012
_cell_angle_beta   109.29910565
_cell_angle_gamma   112.25187431
_symmetry_Int_Tables_number   1
_chemical_formula_structural   Dy4Er3Tm5(GaCo2)2
_chemical_formula_sum   'Dy4 Er3 Tm5 Ga2 Co4'
_cell_volume   424.57597887
_cell_formula_units_Z   1
loop_
 _symmetry_equiv_pos_site_id
 _symmetry_equiv_pos_as_xyz
  1  'x, y, z'
loop_
 _atom_site_type_symbol
 _atom_site_label
 _atom_site_symmetry_multiplicity
 _atom_site_fract_x
 _atom_site_fract_y
 _atom_site_fract_z
 _atom_site_occupancy
  Dy  Dy0  1  0.698658  0.261518  0.960629  1
  Dy  Dy1  1  0.301436  0.738120  0.039195  1
  Dy  Dy2  1  0.698658  0.738029  0.437141  1
  Dy  Dy3  1  0.301436  0.262241  0.563314  1
  Er  Er4  1  0.960877  0.781074  0.179804  1
  Er  Er5  1  0.038795  0.218823  0.819970  1
  Er  Er6  1  0.398954  0.218778  0.180176  1
  Tm  Tm7  1  0.810886  0.138056  0.326958  1
  Tm  Tm8  1  0.810886  0.483927  0.672830  1
  Tm  Tm9  1  0.189345  0.861708  0.673016  1
  Tm  Tm10  1  0.189345  0.516329  0.327637  1
  Tm  Tm11  1  0.601118  0.781123  0.819995  1
  Ga  Ga12  1  0.500252  0.500352  0.999900  1
  Ga  Ga13  1  0.500008  0.000150  0.499858  1
  Co  Co14  1  0.841693  0.500154  0.341539  1
  Co  Co15  1  0.158670  0.500155  0.658515  1
  Co  Co16  1  0.999493  0.115304  0.115334  1
  Co  Co17  1  0.999493  0.884159  0.884189  1
