# generated using pymatgen
data_NdLu19Rh12
_symmetry_space_group_name_H-M   'P 1'
_cell_length_a   10.68645101
_cell_length_b   10.69562770
_cell_length_c   6.28023300
_cell_angle_alpha   89.91127305
_cell_angle_beta   89.99799479
_cell_angle_gamma   90.04875572
_symmetry_Int_Tables_number   1
_chemical_formula_structural   NdLu19Rh12
_chemical_formula_sum   'Nd1 Lu19 Rh12'
_cell_volume   717.81884306
_cell_formula_units_Z   1
loop_
 _symmetry_equiv_pos_site_id
 _symmetry_equiv_pos_as_xyz
  1  'x, y, z'
loop_
 _atom_site_type_symbol
 _atom_site_label
 _atom_site_symmetry_multiplicity
 _atom_site_fract_x
 _atom_site_fract_y
 _atom_site_fract_z
 _atom_site_occupancy
  Nd  Nd0  1  0.089325  0.286764  0.127018  1
  Lu  Lu1  1  0.293643  0.084094  0.378681  1
  Lu  Lu2  1  0.291346  0.912748  0.878404  1
  Lu  Lu3  1  0.708733  0.087236  0.875761  1
  Lu  Lu4  1  0.708596  0.912628  0.377171  1
  Lu  Lu5  1  0.587180  0.791504  0.877847  1
  Lu  Lu6  1  0.587188  0.208721  0.377513  1
  Lu  Lu7  1  0.412903  0.790896  0.377039  1
  Lu  Lu8  1  0.413378  0.208630  0.876082  1
  Lu  Lu9  1  0.209257  0.414754  0.622566  1
  Lu  Lu10  1  0.208778  0.589986  0.122344  1
  Lu  Lu11  1  0.789734  0.413790  0.123096  1
  Lu  Lu12  1  0.790488  0.588219  0.623547  1
  Lu  Lu13  1  0.912000  0.709147  0.123469  1
  Lu  Lu14  1  0.910451  0.292352  0.622508  1
  Lu  Lu15  1  0.087419  0.709697  0.623312  1
  Lu  Lu16  1  0.999328  0.999679  0.499302  1
  Lu  Lu17  1  0.998429  0.997131  0.998402  1
  Lu  Lu18  1  0.499928  0.500543  0.999101  1
  Lu  Lu19  1  0.500906  0.500512  0.499874  1
  Rh  Rh20  1  0.841912  0.150872  0.252350  1
  Rh  Rh21  1  0.846186  0.845787  0.750110  1
  Rh  Rh22  1  0.155298  0.150565  0.741042  1
  Rh  Rh23  1  0.153448  0.846275  0.249391  1
  Rh  Rh24  1  0.653894  0.346384  0.750444  1
  Rh  Rh25  1  0.653797  0.653713  0.249761  1
  Rh  Rh26  1  0.352129  0.346553  0.253566  1
  Rh  Rh27  1  0.346729  0.653885  0.749970  1
  Rh  Rh28  1  0.500935  0.999873  0.121632  1
  Rh  Rh29  1  0.500225  0.999356  0.622424  1
  Rh  Rh30  1  0.998271  0.503879  0.875146  1
  Rh  Rh31  1  0.998168  0.503828  0.381136  1
