# generated using pymatgen
data_Li4CoNi3As4
_symmetry_space_group_name_H-M   'P 1'
_cell_length_a   3.79162100
_cell_length_b   6.45147511
_cell_length_c   6.64949600
_cell_angle_alpha   90.11103078
_cell_angle_beta   90.00000000
_cell_angle_gamma   90.00000000
_symmetry_Int_Tables_number   1
_chemical_formula_structural   Li4CoNi3As4
_chemical_formula_sum   'Li4 Co1 Ni3 As4'
_cell_volume   162.65666364
_cell_formula_units_Z   1
loop_
 _symmetry_equiv_pos_site_id
 _symmetry_equiv_pos_as_xyz
  1  'x, y, z'
loop_
 _atom_site_type_symbol
 _atom_site_label
 _atom_site_symmetry_multiplicity
 _atom_site_fract_x
 _atom_site_fract_y
 _atom_site_fract_z
 _atom_site_occupancy
  Li  Li0  1  0.750000  0.491642  0.169763  1
  Li  Li1  1  0.750000  0.988916  0.328454  1
  Li  Li2  1  0.250000  0.508592  0.830260  1
  Li  Li3  1  0.250000  0.006153  0.673500  1
  Co  Co4  1  0.750000  0.363872  0.551122  1
  Ni  Ni5  1  0.750000  0.865115  0.946815  1
  Ni  Ni6  1  0.250000  0.637883  0.447898  1
  Ni  Ni7  1  0.250000  0.140096  0.052432  1
  As  As8  1  0.750000  0.220234  0.864349  1
  As  As9  1  0.750000  0.713814  0.630707  1
  As  As10  1  0.250000  0.782998  0.129224  1
  As  As11  1  0.250000  0.280682  0.375478  1
