# generated using pymatgen
data_Y2Sc2TcB12Ir
_symmetry_space_group_name_H-M   'P 1'
_cell_length_a   3.58048600
_cell_length_b   8.98575139
_cell_length_c   11.39101484
_cell_angle_alpha   90.08336381
_cell_angle_beta   90.00000000
_cell_angle_gamma   90.00000000
_symmetry_Int_Tables_number   1
_chemical_formula_structural   Y2Sc2TcB12Ir
_chemical_formula_sum   'Y4 Sc4 Tc2 B24 Ir2'
_cell_volume   366.48679982
_cell_formula_units_Z   2
loop_
 _symmetry_equiv_pos_site_id
 _symmetry_equiv_pos_as_xyz
  1  'x, y, z'
loop_
 _atom_site_type_symbol
 _atom_site_label
 _atom_site_symmetry_multiplicity
 _atom_site_fract_x
 _atom_site_fract_y
 _atom_site_fract_z
 _atom_site_occupancy
  Y  Y0  1  0.500000  0.315975  0.411283  1
  Y  Y1  1  0.500000  0.684025  0.588717  1
  Y  Y2  1  0.500000  0.177087  0.916713  1
  Y  Y3  1  0.500000  0.822913  0.083287  1
  Sc  Sc4  1  0.500000  0.441481  0.124535  1
  Sc  Sc5  1  0.500000  0.558519  0.875465  1
  Sc  Sc6  1  0.500000  0.051578  0.626951  1
  Sc  Sc7  1  0.500000  0.948422  0.373049  1
  Tc  Tc8  1  0.500000  0.140550  0.182591  1
  Tc  Tc9  1  0.500000  0.859450  0.817409  1
  B  B10  1  0.000000  0.099679  0.473413  1
  B  B11  1  0.000000  0.900321  0.526587  1
  B  B12  1  0.000000  0.400428  0.972560  1
  B  B13  1  0.000000  0.599572  0.027440  1
  B  B14  1  0.000000  0.128533  0.316925  1
  B  B15  1  0.000000  0.871467  0.683075  1
  B  B16  1  0.000000  0.371777  0.818321  1
  B  B17  1  0.000000  0.628223  0.181679  1
  B  B18  1  0.000000  0.054159  0.067603  1
  B  B19  1  0.000000  0.945841  0.932397  1
  B  B20  1  0.000000  0.444847  0.566449  1
  B  B21  1  0.000000  0.555153  0.433551  1
  B  B22  1  0.000000  0.481083  0.285461  1
  B  B23  1  0.000000  0.518917  0.714539  1
  B  B24  1  0.000000  0.019119  0.785232  1
  B  B25  1  0.000000  0.980881  0.214768  1
  B  B26  1  0.000000  0.252366  0.081280  1
  B  B27  1  0.000000  0.747634  0.918720  1
  B  B28  1  0.000000  0.245735  0.580019  1
  B  B29  1  0.000000  0.754265  0.419981  1
  B  B30  1  0.000000  0.294256  0.234522  1
  B  B31  1  0.000000  0.705744  0.765478  1
  B  B32  1  0.000000  0.206918  0.734640  1
  B  B33  1  0.000000  0.793082  0.265360  1
  Ir  Ir34  1  0.500000  0.360627  0.680509  1
  Ir  Ir35  1  0.500000  0.639373  0.319491  1
