# generated using pymatgen
data_Gd10AlSi4Ir
_symmetry_space_group_name_H-M   'P 1'
_cell_length_a   7.32617700
_cell_length_b   8.77059135
_cell_length_c   7.32617700
_cell_angle_alpha   114.68668126
_cell_angle_beta   90.00000000
_cell_angle_gamma   114.68668126
_symmetry_Int_Tables_number   1
_chemical_formula_structural   Gd10AlSi4Ir
_chemical_formula_sum   'Gd10 Al1 Si4 Ir1'
_cell_volume   379.85389993
_cell_formula_units_Z   1
loop_
 _symmetry_equiv_pos_site_id
 _symmetry_equiv_pos_as_xyz
  1  'x, y, z'
loop_
 _atom_site_type_symbol
 _atom_site_label
 _atom_site_symmetry_multiplicity
 _atom_site_fract_x
 _atom_site_fract_y
 _atom_site_fract_z
 _atom_site_occupancy
  Gd  Gd0  1  0.972377  0.944754  0.972377  1
  Gd  Gd1  1  0.527623  0.055246  0.527623  1
  Gd  Gd2  1  0.513434  0.713158  0.666231  1
  Gd  Gd3  1  0.199723  0.713158  0.046928  1
  Gd  Gd4  1  0.666231  0.713158  0.199723  1
  Gd  Gd5  1  0.046928  0.713158  0.513434  1
  Gd  Gd6  1  0.453072  0.286842  0.300277  1
  Gd  Gd7  1  0.833769  0.286842  0.986566  1
  Gd  Gd8  1  0.300277  0.286842  0.833769  1
  Gd  Gd9  1  0.986566  0.286842  0.453072  1
  Al  Al10  1  0.750000  0.500000  0.750000  1
  Si  Si11  1  0.881402  0.000000  0.618598  1
  Si  Si12  1  0.118598  0.000000  0.381402  1
  Si  Si13  1  0.618598  0.000000  0.118598  1
  Si  Si14  1  0.381402  0.000000  0.881402  1
  Ir  Ir15  1  0.250000  0.500000  0.250000  1
