# generated using pymatgen
data_YbMgU7S17
_symmetry_space_group_name_H-M   'P 1'
_cell_length_a   7.79485493
_cell_length_b   7.79112177
_cell_length_c   10.33548500
_cell_angle_alpha   80.25222812
_cell_angle_beta   79.61397874
_cell_angle_gamma   64.25735916
_symmetry_Int_Tables_number   1
_chemical_formula_structural   YbMgU7S17
_chemical_formula_sum   'Yb1 Mg1 U7 S17'
_cell_volume   553.18070542
_cell_formula_units_Z   1
loop_
 _symmetry_equiv_pos_site_id
 _symmetry_equiv_pos_as_xyz
  1  'x, y, z'
loop_
 _atom_site_type_symbol
 _atom_site_label
 _atom_site_symmetry_multiplicity
 _atom_site_fract_x
 _atom_site_fract_y
 _atom_site_fract_z
 _atom_site_occupancy
  Yb  Yb0  1  0.812083  0.309705  0.297537  1
  Mg  Mg1  1  0.998223  0.003108  0.003213  1
  U  U2  1  0.302387  0.819726  0.298055  1
  U  U3  1  0.182378  0.695905  0.699437  1
  U  U4  1  0.698555  0.180816  0.700993  1
  U  U5  1  0.799296  0.791806  0.457128  1
  U  U6  1  0.202004  0.202192  0.541612  1
  U  U7  1  0.313617  0.322916  0.017429  1
  U  U8  1  0.681280  0.678351  0.985231  1
  S  S9  1  0.185056  0.561920  0.464153  1
  S  S10  1  0.569774  0.169996  0.473562  1
  S  S11  1  0.824501  0.432052  0.542912  1
  S  S12  1  0.435302  0.816026  0.534990  1
  S  S13  1  0.944455  0.333551  0.026180  1
  S  S14  1  0.330788  0.948145  0.032098  1
  S  S15  1  0.053020  0.674765  0.963584  1
  S  S16  1  0.668620  0.061255  0.963981  1
  S  S17  1  0.950503  0.929868  0.236650  1
  S  S18  1  0.061404  0.056292  0.767424  1
  S  S19  1  0.785596  0.786228  0.722247  1
  S  S20  1  0.227049  0.204300  0.279624  1
  S  S21  1  0.689234  0.713742  0.242684  1
  S  S22  1  0.299612  0.300987  0.754816  1
  S  S23  1  0.462141  0.495258  0.160349  1
  S  S24  1  0.517515  0.522540  0.827297  1
  S  S25  1  0.005607  0.988550  0.506812  1
