# generated using pymatgen
data_Tm6Zn18PAu5
_symmetry_space_group_name_H-M   'P 1'
_cell_length_a   9.07363451
_cell_length_b   9.07407989
_cell_length_c   9.07408700
_cell_angle_alpha   59.99988295
_cell_angle_beta   59.99843419
_cell_angle_gamma   59.99834130
_symmetry_Int_Tables_number   1
_chemical_formula_structural   Tm6Zn18PAu5
_chemical_formula_sum   'Tm6 Zn18 P1 Au5'
_cell_volume   528.27596654
_cell_formula_units_Z   1
loop_
 _symmetry_equiv_pos_site_id
 _symmetry_equiv_pos_as_xyz
  1  'x, y, z'
loop_
 _atom_site_type_symbol
 _atom_site_label
 _atom_site_symmetry_multiplicity
 _atom_site_fract_x
 _atom_site_fract_y
 _atom_site_fract_z
 _atom_site_occupancy
  Tm  Tm0  1  0.710819  0.288915  0.288928  1
  Tm  Tm1  1  0.710817  0.288922  0.711336  1
  Tm  Tm2  1  0.710814  0.711344  0.288927  1
  Tm  Tm3  1  0.290213  0.712042  0.712027  1
  Tm  Tm4  1  0.290213  0.712030  0.285729  1
  Tm  Tm5  1  0.290217  0.285722  0.712024  1
  Zn  Zn6  1  0.876035  0.371563  0.876199  1
  Zn  Zn7  1  0.876035  0.876199  0.371564  1
  Zn  Zn8  1  0.876035  0.876202  0.876194  1
  Zn  Zn9  1  0.504094  0.998864  0.998860  1
  Zn  Zn10  1  0.504093  0.998864  0.498181  1
  Zn  Zn11  1  0.504093  0.498183  0.998863  1
  Zn  Zn12  1  0.998372  0.502270  0.502269  1
  Zn  Zn13  1  0.998369  0.502270  0.997091  1
  Zn  Zn14  1  0.998369  0.997092  0.502268  1
  Zn  Zn15  1  0.999350  0.000218  0.000215  1
  Zn  Zn16  1  0.004566  0.331813  0.331810  1
  Zn  Zn17  1  0.332150  0.005196  0.331327  1
  Zn  Zn18  1  0.332143  0.331325  0.005204  1
  Zn  Zn19  1  0.332146  0.331322  0.331326  1
  Zn  Zn20  1  0.993177  0.668942  0.668940  1
  Zn  Zn21  1  0.669689  0.992730  0.668787  1
  Zn  Zn22  1  0.669688  0.668794  0.992723  1
  Zn  Zn23  1  0.669689  0.668795  0.668789  1
  P  P24  1  0.499234  0.500255  0.500260  1
  Au  Au25  1  0.641868  0.119388  0.119363  1
  Au  Au26  1  0.117284  0.637175  0.122773  1
  Au  Au27  1  0.117289  0.122764  0.637187  1
  Au  Au28  1  0.117290  0.122766  0.122766  1
  Au  Au29  1  0.365850  0.878038  0.878070  1
