# generated using pymatgen
data_Y8Cu3Si12Pt
_symmetry_space_group_name_H-M   'P 1'
_cell_length_a   8.04069900
_cell_length_b   8.04069773
_cell_length_c   8.16103400
_cell_angle_alpha   90.00000000
_cell_angle_beta   90.00000000
_cell_angle_gamma   119.99999287
_symmetry_Int_Tables_number   1
_chemical_formula_structural   Y8Cu3Si12Pt
_chemical_formula_sum   'Y8 Cu3 Si12 Pt1'
_cell_volume   456.94443356
_cell_formula_units_Z   1
loop_
 _symmetry_equiv_pos_site_id
 _symmetry_equiv_pos_as_xyz
  1  'x, y, z'
loop_
 _atom_site_type_symbol
 _atom_site_label
 _atom_site_symmetry_multiplicity
 _atom_site_fract_x
 _atom_site_fract_y
 _atom_site_fract_z
 _atom_site_occupancy
  Y  Y0  1  0.500678  0.001356  0.249259  1
  Y  Y1  1  0.500140  0.000281  0.750734  1
  Y  Y2  1  0.998644  0.499322  0.249259  1
  Y  Y3  1  0.999719  0.499860  0.750734  1
  Y  Y4  1  0.500678  0.499322  0.249259  1
  Y  Y5  1  0.500140  0.499860  0.750734  1
  Y  Y6  1  0.000000  0.000000  0.248590  1
  Y  Y7  1  0.000000  0.000000  0.751391  1
  Cu  Cu8  1  0.333333  0.666667  0.002185  1
  Cu  Cu9  1  0.666667  0.333333  0.998044  1
  Cu  Cu10  1  0.666667  0.333333  0.500749  1
  Si  Si11  1  0.169604  0.339207  0.999774  1
  Si  Si12  1  0.831051  0.662102  0.000276  1
  Si  Si13  1  0.660793  0.830396  0.999774  1
  Si  Si14  1  0.830985  0.661969  0.500278  1
  Si  Si15  1  0.337898  0.168949  0.000276  1
  Si  Si16  1  0.165750  0.331498  0.499635  1
  Si  Si17  1  0.169604  0.830396  0.999774  1
  Si  Si18  1  0.338031  0.169015  0.500278  1
  Si  Si19  1  0.831051  0.168949  0.000276  1
  Si  Si20  1  0.668502  0.834250  0.499635  1
  Si  Si21  1  0.830985  0.169015  0.500278  1
  Si  Si22  1  0.165750  0.834250  0.499635  1
  Pt  Pt23  1  0.333333  0.666667  0.499178  1
