# generated using pymatgen
data_ZrTaNi4P3
_symmetry_space_group_name_H-M   'P 1'
_cell_length_a   12.13077015
_cell_length_b   12.13077124
_cell_length_c   3.63174700
_cell_angle_alpha   90.00000000
_cell_angle_beta   90.00000000
_cell_angle_gamma   119.98177262
_symmetry_Int_Tables_number   1
_chemical_formula_structural   ZrTaNi4P3
_chemical_formula_sum   'Zr4 Ta4 Ni16 P12'
_cell_volume   462.91658797
_cell_formula_units_Z   4
loop_
 _symmetry_equiv_pos_site_id
 _symmetry_equiv_pos_as_xyz
  1  'x, y, z'
loop_
 _atom_site_type_symbol
 _atom_site_label
 _atom_site_symmetry_multiplicity
 _atom_site_fract_x
 _atom_site_fract_y
 _atom_site_fract_z
 _atom_site_occupancy
  Zr  Zr0  1  0.667604  0.332209  0.000000  1
  Zr  Zr1  1  0.332209  0.667604  0.000000  1
  Zr  Zr2  1  0.176197  0.000134  0.500000  1
  Zr  Zr3  1  0.000134  0.176197  0.500000  1
  Ta  Ta4  1  0.447547  0.447547  0.000000  1
  Ta  Ta5  1  0.553651  0.998704  0.000000  1
  Ta  Ta6  1  0.998704  0.553651  0.000000  1
  Ta  Ta7  1  0.825660  0.825660  0.500000  1
  Ni  Ni8  1  0.191725  0.372020  0.000000  1
  Ni  Ni9  1  0.177782  0.809329  0.000000  1
  Ni  Ni10  1  0.819150  0.631882  0.000000  1
  Ni  Ni11  1  0.809329  0.177782  0.000000  1
  Ni  Ni12  1  0.372020  0.191725  0.000000  1
  Ni  Ni13  1  0.126838  0.480856  0.500000  1
  Ni  Ni14  1  0.352087  0.873509  0.500000  1
  Ni  Ni15  1  0.520133  0.648081  0.500000  1
  Ni  Ni16  1  0.648081  0.520133  0.500000  1
  Ni  Ni17  1  0.873509  0.352087  0.500000  1
  Ni  Ni18  1  0.480856  0.126838  0.500000  1
  Ni  Ni19  1  0.999664  0.999664  0.000000  1
  Ni  Ni20  1  0.723390  0.996525  0.500000  1
  Ni  Ni21  1  0.996525  0.723390  0.500000  1
  Ni  Ni22  1  0.631882  0.819150  0.000000  1
  Ni  Ni23  1  0.277242  0.277242  0.500000  1
  P  P24  1  0.649034  0.649034  0.000000  1
  P  P25  1  0.353692  0.000023  0.000000  1
  P  P26  1  0.000023  0.353692  0.000000  1
  P  P27  1  0.485382  0.316227  0.500000  1
  P  P28  1  0.684935  0.167683  0.500000  1
  P  P29  1  0.830417  0.513874  0.500000  1
  P  P30  1  0.513874  0.830417  0.500000  1
  P  P31  1  0.167683  0.684935  0.500000  1
  P  P32  1  0.823864  0.996619  0.000000  1
  P  P33  1  0.996619  0.823864  0.000000  1
  P  P34  1  0.316227  0.485382  0.500000  1
  P  P35  1  0.176333  0.176333  0.000000  1
