# generated using pymatgen
data_BaTbLuTe4
_symmetry_space_group_name_H-M   'P 1'
_cell_length_a   4.47099400
_cell_length_b   13.80143900
_cell_length_c   16.21310400
_cell_angle_alpha   90.00000000
_cell_angle_beta   90.00000000
_cell_angle_gamma   90.00000000
_symmetry_Int_Tables_number   1
_chemical_formula_structural   BaTbLuTe4
_chemical_formula_sum   'Ba4 Tb4 Lu4 Te16'
_cell_volume   1000.44824296
_cell_formula_units_Z   4
loop_
 _symmetry_equiv_pos_site_id
 _symmetry_equiv_pos_as_xyz
  1  'x, y, z'
loop_
 _atom_site_type_symbol
 _atom_site_label
 _atom_site_symmetry_multiplicity
 _atom_site_fract_x
 _atom_site_fract_y
 _atom_site_fract_z
 _atom_site_occupancy
  Ba  Ba0  1  0.750000  0.261049  0.830850  1
  Ba  Ba1  1  0.250000  0.738951  0.169150  1
  Ba  Ba2  1  0.750000  0.761049  0.669150  1
  Ba  Ba3  1  0.250000  0.238951  0.330850  1
  Tb  Tb4  1  0.750000  0.939857  0.890209  1
  Tb  Tb5  1  0.250000  0.060143  0.109791  1
  Tb  Tb6  1  0.750000  0.439857  0.609791  1
  Tb  Tb7  1  0.250000  0.560143  0.390209  1
  Lu  Lu8  1  0.250000  0.080075  0.596166  1
  Lu  Lu9  1  0.750000  0.919925  0.403834  1
  Lu  Lu10  1  0.250000  0.580075  0.903834  1
  Lu  Lu11  1  0.750000  0.419925  0.096166  1
  Te  Te12  1  0.250000  0.471766  0.213675  1
  Te  Te13  1  0.750000  0.528234  0.786325  1
  Te  Te14  1  0.250000  0.971766  0.286325  1
  Te  Te15  1  0.750000  0.028234  0.713675  1
  Te  Te16  1  0.250000  0.374908  0.973014  1
  Te  Te17  1  0.750000  0.625092  0.026986  1
  Te  Te18  1  0.250000  0.874908  0.526986  1
  Te  Te19  1  0.750000  0.125092  0.473014  1
  Te  Te20  1  0.250000  0.292280  0.661320  1
  Te  Te21  1  0.750000  0.707720  0.338680  1
  Te  Te22  1  0.250000  0.792280  0.838680  1
  Te  Te23  1  0.750000  0.207720  0.161320  1
  Te  Te24  1  0.750000  0.409528  0.422782  1
  Te  Te25  1  0.250000  0.590472  0.577218  1
  Te  Te26  1  0.750000  0.909528  0.077218  1
  Te  Te27  1  0.250000  0.090472  0.922782  1
