# generated using pymatgen
data_Tb3Ho(Lu2Os)4
_symmetry_space_group_name_H-M   'P 1'
_cell_length_a   7.37417284
_cell_length_b   8.85764000
_cell_length_c   6.24727013
_cell_angle_alpha   90.00000000
_cell_angle_beta   89.92314723
_cell_angle_gamma   90.00000000
_symmetry_Int_Tables_number   1
_chemical_formula_structural   Tb3Ho(Lu2Os)4
_chemical_formula_sum   'Tb3 Ho1 Lu8 Os4'
_cell_volume   408.05737639
_cell_formula_units_Z   1
loop_
 _symmetry_equiv_pos_site_id
 _symmetry_equiv_pos_as_xyz
  1  'x, y, z'
loop_
 _atom_site_type_symbol
 _atom_site_label
 _atom_site_symmetry_multiplicity
 _atom_site_fract_x
 _atom_site_fract_y
 _atom_site_fract_z
 _atom_site_occupancy
  Tb  Tb0  1  0.539211  0.250000  0.872801  1
  Tb  Tb1  1  0.039394  0.250000  0.627490  1
  Tb  Tb2  1  0.460633  0.750000  0.127702  1
  Ho  Ho3  1  0.960590  0.750000  0.372228  1
  Lu  Lu4  1  0.675271  0.062462  0.335365  1
  Lu  Lu5  1  0.173584  0.437744  0.165388  1
  Lu  Lu6  1  0.325005  0.563163  0.664298  1
  Lu  Lu7  1  0.825770  0.936674  0.834114  1
  Lu  Lu8  1  0.325005  0.936837  0.664298  1
  Lu  Lu9  1  0.825770  0.563326  0.834114  1
  Lu  Lu10  1  0.675271  0.437538  0.335365  1
  Lu  Lu11  1  0.173584  0.062256  0.165388  1
  Os  Os12  1  0.883250  0.250000  0.043645  1
  Os  Os13  1  0.383106  0.250000  0.456269  1
  Os  Os14  1  0.116276  0.750000  0.959144  1
  Os  Os15  1  0.618281  0.750000  0.542393  1
