# generated using pymatgen
data_Er5Tl2(HgPt)2
_symmetry_space_group_name_H-M   'P 1'
_cell_length_a   3.63172600
_cell_length_b   8.10248200
_cell_length_c   18.28648300
_cell_angle_alpha   90.00000000
_cell_angle_beta   90.00000000
_cell_angle_gamma   90.00000000
_symmetry_Int_Tables_number   1
_chemical_formula_structural   Er5Tl2(HgPt)2
_chemical_formula_sum   'Er10 Tl4 Hg4 Pt4'
_cell_volume   538.09794899
_cell_formula_units_Z   2
loop_
 _symmetry_equiv_pos_site_id
 _symmetry_equiv_pos_as_xyz
  1  'x, y, z'
loop_
 _atom_site_type_symbol
 _atom_site_label
 _atom_site_symmetry_multiplicity
 _atom_site_fract_x
 _atom_site_fract_y
 _atom_site_fract_z
 _atom_site_occupancy
  Er  Er0  1  0.000000  0.106018  0.413300  1
  Er  Er1  1  0.000000  0.893982  0.586700  1
  Er  Er2  1  0.000000  0.393982  0.913300  1
  Er  Er3  1  0.000000  0.606018  0.086700  1
  Er  Er4  1  0.000000  0.244764  0.216605  1
  Er  Er5  1  0.000000  0.755236  0.783395  1
  Er  Er6  1  0.000000  0.255236  0.716605  1
  Er  Er7  1  0.000000  0.744764  0.283395  1
  Er  Er8  1  0.000000  0.000000  0.000000  1
  Er  Er9  1  0.000000  0.500000  0.500000  1
  Tl  Tl10  1  0.500000  0.421750  0.354809  1
  Tl  Tl11  1  0.500000  0.578250  0.645191  1
  Tl  Tl12  1  0.500000  0.078250  0.854809  1
  Tl  Tl13  1  0.500000  0.921750  0.145191  1
  Hg  Hg14  1  0.500000  0.290462  0.062211  1
  Hg  Hg15  1  0.500000  0.709538  0.937789  1
  Hg  Hg16  1  0.500000  0.209538  0.562211  1
  Hg  Hg17  1  0.500000  0.790462  0.437789  1
  Pt  Pt18  1  0.500000  0.027194  0.302060  1
  Pt  Pt19  1  0.500000  0.972806  0.697940  1
  Pt  Pt20  1  0.500000  0.472806  0.802060  1
  Pt  Pt21  1  0.500000  0.527194  0.197940  1
