# generated using pymatgen
data_BPH8
_symmetry_space_group_name_H-M   'P 1'
_cell_length_a   3.24249278
_cell_length_b   5.49530130
_cell_length_c   7.65723527
_cell_angle_alpha   73.07730407
_cell_angle_beta   82.50311061
_cell_angle_gamma   89.28417599
_symmetry_Int_Tables_number   1
_chemical_formula_structural   BPH8
_chemical_formula_sum   'B1 P1 H8'
_cell_volume   129.36964955
_cell_formula_units_Z   1
loop_
 _symmetry_equiv_pos_site_id
 _symmetry_equiv_pos_as_xyz
  1  'x, y, z'
loop_
 _atom_site_type_symbol
 _atom_site_label
 _atom_site_symmetry_multiplicity
 _atom_site_fract_x
 _atom_site_fract_y
 _atom_site_fract_z
 _atom_site_occupancy
  B  B0  1  0.325963  0.368803  0.384319  1
  P  P1  1  0.834497  0.184650  0.368997  1
  H  H2  1  0.794898  0.942554  0.502267  1
  H  H3  1  0.623372  0.461490  0.887691  1
  H  H4  1  0.281228  0.409110  0.533004  1
  H  H5  1  0.214846  0.990025  0.904846  1
  H  H6  1  0.527784  0.460716  0.803716  1
  H  H7  1  0.341157  0.876857  0.898696  1
  H  H8  1  0.357554  0.563070  0.257227  1
  H  H9  1  0.889672  0.103010  0.208210  1
