# generated using pymatgen
data_Er5Sn2GePb
_symmetry_space_group_name_H-M   'P 1'
_cell_length_a   9.20099871
_cell_length_b   9.20099914
_cell_length_c   6.45368600
_cell_angle_alpha   90.00000000
_cell_angle_beta   90.00000000
_cell_angle_gamma   120.17481695
_symmetry_Int_Tables_number   1
_chemical_formula_structural   Er5Sn2GePb
_chemical_formula_sum   'Er10 Sn4 Ge2 Pb2'
_cell_volume   472.32472830
_cell_formula_units_Z   2
loop_
 _symmetry_equiv_pos_site_id
 _symmetry_equiv_pos_as_xyz
  1  'x, y, z'
loop_
 _atom_site_type_symbol
 _atom_site_label
 _atom_site_symmetry_multiplicity
 _atom_site_fract_x
 _atom_site_fract_y
 _atom_site_fract_z
 _atom_site_occupancy
  Er  Er0  1  0.252995  0.997159  0.250000  1
  Er  Er1  1  0.747005  0.002841  0.750000  1
  Er  Er2  1  0.997159  0.252995  0.250000  1
  Er  Er3  1  0.002841  0.747005  0.750000  1
  Er  Er4  1  0.747754  0.747754  0.250000  1
  Er  Er5  1  0.252246  0.252246  0.750000  1
  Er  Er6  1  0.331178  0.668822  0.000000  1
  Er  Er7  1  0.668822  0.331178  0.000000  1
  Er  Er8  1  0.668822  0.331178  0.500000  1
  Er  Er9  1  0.331178  0.668822  0.500000  1
  Sn  Sn10  1  0.607231  0.999471  0.250000  1
  Sn  Sn11  1  0.392769  0.000529  0.750000  1
  Sn  Sn12  1  0.999471  0.607231  0.250000  1
  Sn  Sn13  1  0.000529  0.392769  0.750000  1
  Ge  Ge14  1  0.000000  0.000000  0.000000  1
  Ge  Ge15  1  0.000000  0.000000  0.500000  1
  Pb  Pb16  1  0.392014  0.392014  0.250000  1
  Pb  Pb17  1  0.607986  0.607986  0.750000  1
