# generated using pymatgen
data_Ho16ZnIn3Rh4
_symmetry_space_group_name_H-M   'P 1'
_cell_length_a   9.57199202
_cell_length_b   9.57199255
_cell_length_c   9.57199233
_cell_angle_alpha   59.95062555
_cell_angle_beta   59.95061911
_cell_angle_gamma   59.95062594
_symmetry_Int_Tables_number   1
_chemical_formula_structural   Ho16ZnIn3Rh4
_chemical_formula_sum   'Ho16 Zn1 In3 Rh4'
_cell_volume   619.44879607
_cell_formula_units_Z   1
loop_
 _symmetry_equiv_pos_site_id
 _symmetry_equiv_pos_as_xyz
  1  'x, y, z'
loop_
 _atom_site_type_symbol
 _atom_site_label
 _atom_site_symmetry_multiplicity
 _atom_site_fract_x
 _atom_site_fract_y
 _atom_site_fract_z
 _atom_site_occupancy
  Ho  Ho0  1  0.187508  0.187508  0.812297  1
  Ho  Ho1  1  0.602718  0.602718  0.196499  1
  Ho  Ho2  1  0.439939  0.059439  0.439939  1
  Ho  Ho3  1  0.439939  0.439939  0.059439  1
  Ho  Ho4  1  0.813937  0.180658  0.813937  1
  Ho  Ho5  1  0.187508  0.812297  0.187508  1
  Ho  Ho6  1  0.438369  0.060838  0.060838  1
  Ho  Ho7  1  0.180658  0.813937  0.813937  1
  Ho  Ho8  1  0.060838  0.438369  0.060838  1
  Ho  Ho9  1  0.813937  0.813937  0.180658  1
  Ho  Ho10  1  0.196499  0.602718  0.602718  1
  Ho  Ho11  1  0.059439  0.439939  0.439939  1
  Ho  Ho12  1  0.060838  0.060838  0.438369  1
  Ho  Ho13  1  0.812297  0.187508  0.187508  1
  Ho  Ho14  1  0.602718  0.196499  0.602718  1
  Ho  Ho15  1  0.599174  0.599174  0.599174  1
  Zn  Zn16  1  0.833544  0.833544  0.833544  1
  In  In17  1  0.832642  0.832642  0.504474  1
  In  In18  1  0.504474  0.832642  0.832642  1
  In  In19  1  0.832642  0.504474  0.832642  1
  Rh  Rh20  1  0.392153  0.822435  0.392153  1
  Rh  Rh21  1  0.393641  0.393641  0.393641  1
  Rh  Rh22  1  0.822435  0.392153  0.392153  1
  Rh  Rh23  1  0.392153  0.392153  0.822435  1
