# generated using pymatgen
data_Tb2CuHgPd
_symmetry_space_group_name_H-M   'P 1'
_cell_length_a   7.64449200
_cell_length_b   7.58844900
_cell_length_c   3.75657100
_cell_angle_alpha   90.00000000
_cell_angle_beta   90.00000000
_cell_angle_gamma   90.00000000
_symmetry_Int_Tables_number   1
_chemical_formula_structural   Tb2CuHgPd
_chemical_formula_sum   'Tb4 Cu2 Hg2 Pd2'
_cell_volume   217.91807392
_cell_formula_units_Z   2
loop_
 _symmetry_equiv_pos_site_id
 _symmetry_equiv_pos_as_xyz
  1  'x, y, z'
loop_
 _atom_site_type_symbol
 _atom_site_label
 _atom_site_symmetry_multiplicity
 _atom_site_fract_x
 _atom_site_fract_y
 _atom_site_fract_z
 _atom_site_occupancy
  Tb  Tb0  1  0.323879  0.172169  0.500001  1
  Tb  Tb1  1  0.823879  0.327831  0.500001  1
  Tb  Tb2  1  0.175019  0.677244  0.500001  1
  Tb  Tb3  1  0.675019  0.822756  0.500001  1
  Cu  Cu4  1  0.623107  0.123495  0.000000  1
  Cu  Cu5  1  0.123107  0.376505  0.000000  1
  Hg  Hg6  1  0.997598  0.006746  0.000000  1
  Hg  Hg7  1  0.497598  0.493254  0.000000  1
  Pd  Pd8  1  0.880398  0.620232  0.000000  1
  Pd  Pd9  1  0.380398  0.879768  0.000000  1
