# generated using pymatgen
data_Tb2Ho2LuRu2
_symmetry_space_group_name_H-M   'P 1'
_cell_length_a   6.31798513
_cell_length_b   7.25338929
_cell_length_c   8.43903782
_cell_angle_alpha   96.77592065
_cell_angle_beta   111.98296790
_cell_angle_gamma   90.00000073
_symmetry_Int_Tables_number   1
_chemical_formula_structural   Tb2Ho2LuRu2
_chemical_formula_sum   'Tb4 Ho4 Lu2 Ru4'
_cell_volume   355.70197325
_cell_formula_units_Z   2
loop_
 _symmetry_equiv_pos_site_id
 _symmetry_equiv_pos_as_xyz
  1  'x, y, z'
loop_
 _atom_site_type_symbol
 _atom_site_label
 _atom_site_symmetry_multiplicity
 _atom_site_fract_x
 _atom_site_fract_y
 _atom_site_fract_z
 _atom_site_occupancy
  Tb  Tb0  1  0.522774  0.083426  0.813464  1
  Tb  Tb1  1  0.477226  0.916574  0.186536  1
  Tb  Tb2  1  0.709310  0.416574  0.186536  1
  Tb  Tb3  1  0.290690  0.583426  0.813464  1
  Ho  Ho4  1  0.297889  0.312932  0.432245  1
  Ho  Ho5  1  0.702111  0.687068  0.567755  1
  Ho  Ho6  1  0.865647  0.187068  0.567755  1
  Ho  Ho7  1  0.134353  0.812932  0.432245  1
  Lu  Lu8  1  0.078297  0.250000  0.000000  1
  Lu  Lu9  1  0.921703  0.750000  0.000000  1
  Ru  Ru10  1  0.319368  0.575852  0.218843  1
  Ru  Ru11  1  0.680632  0.424148  0.781157  1
  Ru  Ru12  1  0.100526  0.924148  0.781157  1
  Ru  Ru13  1  0.899474  0.075852  0.218843  1
