# generated using pymatgen
data_Zr6TiNb3Al12Ir7
_symmetry_space_group_name_H-M   'P 1'
_cell_length_a   8.85454987
_cell_length_b   8.85455052
_cell_length_c   8.85455021
_cell_angle_alpha   60.02022041
_cell_angle_beta   60.02021491
_cell_angle_gamma   60.02022233
_symmetry_Int_Tables_number   1
_chemical_formula_structural   Zr6TiNb3Al12Ir7
_chemical_formula_sum   'Zr6 Ti1 Nb3 Al12 Ir7'
_cell_volume   491.11537863
_cell_formula_units_Z   1
loop_
 _symmetry_equiv_pos_site_id
 _symmetry_equiv_pos_as_xyz
  1  'x, y, z'
loop_
 _atom_site_type_symbol
 _atom_site_label
 _atom_site_symmetry_multiplicity
 _atom_site_fract_x
 _atom_site_fract_y
 _atom_site_fract_z
 _atom_site_occupancy
  Zr  Zr0  1  0.689471  0.689471  0.309930  1
  Zr  Zr1  1  0.311854  0.687791  0.311854  1
  Zr  Zr2  1  0.687791  0.311854  0.311854  1
  Zr  Zr3  1  0.311854  0.311854  0.687791  1
  Zr  Zr4  1  0.689471  0.309930  0.689471  1
  Zr  Zr5  1  0.309930  0.689471  0.689471  1
  Ti  Ti6  1  0.879933  0.879933  0.879933  1
  Nb  Nb7  1  0.879367  0.879367  0.361160  1
  Nb  Nb8  1  0.879367  0.361160  0.879367  1
  Nb  Nb9  1  0.361160  0.879367  0.879367  1
  Al  Al10  1  0.120529  0.120529  0.633741  1
  Al  Al11  1  0.120529  0.633741  0.120529  1
  Al  Al12  1  0.633741  0.120529  0.120529  1
  Al  Al13  1  0.122336  0.122336  0.122336  1
  Al  Al14  1  0.661661  0.661661  0.019377  1
  Al  Al15  1  0.661661  0.019377  0.661661  1
  Al  Al16  1  0.019377  0.661661  0.661661  1
  Al  Al17  1  0.659131  0.659131  0.659131  1
  Al  Al18  1  0.338652  0.338652  0.984602  1
  Al  Al19  1  0.338652  0.984602  0.338652  1
  Al  Al20  1  0.984602  0.338652  0.338652  1
  Al  Al21  1  0.338234  0.338234  0.338234  1
  Ir  Ir22  1  0.999723  0.999723  0.999723  1
  Ir  Ir23  1  0.997803  0.997803  0.501761  1
  Ir  Ir24  1  0.502957  0.997696  0.502957  1
  Ir  Ir25  1  0.997696  0.502957  0.502957  1
  Ir  Ir26  1  0.502957  0.502957  0.997696  1
  Ir  Ir27  1  0.997803  0.501761  0.997803  1
  Ir  Ir28  1  0.501761  0.997803  0.997803  1
