# generated using pymatgen
data_Tb4Lu4Tc3B24Ru
_symmetry_space_group_name_H-M   'P 1'
_cell_length_a   3.64596000
_cell_length_b   9.10086914
_cell_length_c   11.49774005
_cell_angle_alpha   89.93351061
_cell_angle_beta   90.00000000
_cell_angle_gamma   90.00000000
_symmetry_Int_Tables_number   1
_chemical_formula_structural   Tb4Lu4Tc3B24Ru
_chemical_formula_sum   'Tb4 Lu4 Tc3 B24 Ru1'
_cell_volume   381.51091059
_cell_formula_units_Z   1
loop_
 _symmetry_equiv_pos_site_id
 _symmetry_equiv_pos_as_xyz
  1  'x, y, z'
loop_
 _atom_site_type_symbol
 _atom_site_label
 _atom_site_symmetry_multiplicity
 _atom_site_fract_x
 _atom_site_fract_y
 _atom_site_fract_z
 _atom_site_occupancy
  Tb  Tb0  1  0.000000  0.322868  0.413800  1
  Tb  Tb1  1  0.000000  0.675929  0.584295  1
  Tb  Tb2  1  0.000000  0.822325  0.087288  1
  Tb  Tb3  1  0.000000  0.178511  0.914483  1
  Lu  Lu4  1  0.000000  0.942822  0.370277  1
  Lu  Lu5  1  0.000000  0.057579  0.630353  1
  Lu  Lu6  1  0.000000  0.443342  0.129978  1
  Lu  Lu7  1  0.000000  0.557428  0.869432  1
  Tc  Tc8  1  0.000000  0.639013  0.319778  1
  Tc  Tc9  1  0.000000  0.360918  0.680820  1
  Tc  Tc10  1  0.000000  0.138756  0.179369  1
  B  B11  1  0.500000  0.553600  0.432447  1
  B  B12  1  0.500000  0.446184  0.567356  1
  B  B13  1  0.500000  0.053643  0.067230  1
  B  B14  1  0.500000  0.945459  0.932280  1
  B  B15  1  0.500000  0.750310  0.418368  1
  B  B16  1  0.500000  0.249270  0.581844  1
  B  B17  1  0.500000  0.250893  0.081584  1
  B  B18  1  0.500000  0.749955  0.917995  1
  B  B19  1  0.500000  0.792501  0.265767  1
  B  B20  1  0.500000  0.207625  0.735065  1
  B  B21  1  0.500000  0.292484  0.234348  1
  B  B22  1  0.500000  0.708473  0.765393  1
  B  B23  1  0.500000  0.630117  0.185065  1
  B  B24  1  0.500000  0.370053  0.815493  1
  B  B25  1  0.500000  0.129536  0.314632  1
  B  B26  1  0.500000  0.869820  0.685174  1
  B  B27  1  0.500000  0.981479  0.212607  1
  B  B28  1  0.500000  0.016983  0.787502  1
  B  B29  1  0.500000  0.481807  0.287083  1
  B  B30  1  0.500000  0.518120  0.712628  1
  B  B31  1  0.500000  0.599862  0.027314  1
  B  B32  1  0.500000  0.401800  0.972435  1
  B  B33  1  0.500000  0.099093  0.472828  1
  B  B34  1  0.500000  0.900632  0.527928  1
  Ru  Ru35  1  0.000000  0.860808  0.819764  1
