# generated using pymatgen
data_Na11Cd2Sb5
_symmetry_space_group_name_H-M   'P 1'
_cell_length_a   9.19833808
_cell_length_b   10.83413894
_cell_length_c   11.73382400
_cell_angle_alpha   103.30296764
_cell_angle_beta   96.79572577
_cell_angle_gamma   107.15723039
_symmetry_Int_Tables_number   1
_chemical_formula_structural   Na11Cd2Sb5
_chemical_formula_sum   'Na22 Cd4 Sb10'
_cell_volume   1065.30376862
_cell_formula_units_Z   2
loop_
 _symmetry_equiv_pos_site_id
 _symmetry_equiv_pos_as_xyz
  1  'x, y, z'
loop_
 _atom_site_type_symbol
 _atom_site_label
 _atom_site_symmetry_multiplicity
 _atom_site_fract_x
 _atom_site_fract_y
 _atom_site_fract_z
 _atom_site_occupancy
  Na  Na0  1  0.853307  0.571806  0.962186  1
  Na  Na1  1  0.146693  0.428194  0.037814  1
  Na  Na2  1  0.304472  0.893958  0.776029  1
  Na  Na3  1  0.695528  0.106042  0.223971  1
  Na  Na4  1  0.630511  0.165008  0.531833  1
  Na  Na5  1  0.369489  0.834992  0.468167  1
  Na  Na6  1  0.631096  0.672545  0.558822  1
  Na  Na7  1  0.368904  0.327455  0.441178  1
  Na  Na8  1  0.208233  0.559152  0.572949  1
  Na  Na9  1  0.791767  0.440848  0.427051  1
  Na  Na10  1  0.049979  0.703808  0.260303  1
  Na  Na11  1  0.950021  0.296192  0.739697  1
  Na  Na12  1  0.207596  0.081051  0.572433  1
  Na  Na13  1  0.792404  0.918949  0.427567  1
  Na  Na14  1  0.871189  0.094807  0.980404  1
  Na  Na15  1  0.128811  0.905193  0.019596  1
  Na  Na16  1  0.582502  0.226451  0.860098  1
  Na  Na17  1  0.417498  0.773549  0.139902  1
  Na  Na18  1  0.400364  0.250273  0.144919  1
  Na  Na19  1  0.599636  0.749727  0.855081  1
  Na  Na20  1  0.345361  0.411629  0.791619  1
  Na  Na21  1  0.654639  0.588371  0.208381  1
  Cd  Cd22  1  0.944282  0.957339  0.718595  1
  Cd  Cd23  1  0.055718  0.042661  0.281405  1
  Cd  Cd24  1  0.944316  0.624485  0.715499  1
  Cd  Cd25  1  0.055684  0.375515  0.284501  1
  Sb  Sb26  1  0.007758  0.761362  0.531066  1
  Sb  Sb27  1  0.992242  0.238638  0.468934  1
  Sb  Sb28  1  0.639698  0.445760  0.689874  1
  Sb  Sb29  1  0.360302  0.554240  0.310126  1
  Sb  Sb30  1  0.640039  0.969617  0.698951  1
  Sb  Sb31  1  0.359961  0.030383  0.301049  1
  Sb  Sb32  1  0.205499  0.156938  0.879592  1
  Sb  Sb33  1  0.794501  0.843062  0.120408  1
  Sb  Sb34  1  0.204964  0.636824  0.878059  1
  Sb  Sb35  1  0.795036  0.363176  0.121941  1
