# generated using pymatgen
data_SmDy4MnIrO12
_symmetry_space_group_name_H-M   'P 1'
_cell_length_a   6.91202329
_cell_length_b   6.91202247
_cell_length_c   7.34129700
_cell_angle_alpha   74.59026556
_cell_angle_beta   74.59026743
_cell_angle_gamma   50.11696773
_symmetry_Int_Tables_number   1
_chemical_formula_structural   SmDy4MnIrO12
_chemical_formula_sum   'Sm1 Dy4 Mn1 Ir1 O12'
_cell_volume   257.30167305
_cell_formula_units_Z   1
loop_
 _symmetry_equiv_pos_site_id
 _symmetry_equiv_pos_as_xyz
  1  'x, y, z'
loop_
 _atom_site_type_symbol
 _atom_site_label
 _atom_site_symmetry_multiplicity
 _atom_site_fract_x
 _atom_site_fract_y
 _atom_site_fract_z
 _atom_site_occupancy
  Sm  Sm0  1  0.999514  0.000486  0.500000  1
  Dy  Dy1  1  0.311943  0.294776  0.359217  1
  Dy  Dy2  1  0.705224  0.688057  0.640783  1
  Dy  Dy3  1  0.694222  0.693553  0.166503  1
  Dy  Dy4  1  0.306447  0.305778  0.833497  1
  Mn  Mn5  1  0.749401  0.250599  0.000000  1
  Ir  Ir6  1  0.242465  0.757535  0.000000  1
  O  O7  1  0.098246  0.591245  0.577520  1
  O  O8  1  0.987998  0.010268  0.178901  1
  O  O9  1  0.408755  0.901754  0.422480  1
  O  O10  1  0.506672  0.493753  0.183817  1
  O  O11  1  0.097632  0.579591  0.080081  1
  O  O12  1  0.908407  0.408477  0.419576  1
  O  O13  1  0.989732  0.012002  0.821099  1
  O  O14  1  0.591523  0.091592  0.580424  1
  O  O15  1  0.506247  0.493328  0.816183  1
  O  O16  1  0.575870  0.100708  0.079756  1
  O  O17  1  0.420409  0.902368  0.919919  1
  O  O18  1  0.899292  0.424130  0.920244  1
