# generated using pymatgen
data_Sm8InPd5Pt19
_symmetry_space_group_name_H-M   'P 1'
_cell_length_a   8.50445300
_cell_length_b   8.50924500
_cell_length_c   8.51806900
_cell_angle_alpha   90.00000000
_cell_angle_beta   90.00000000
_cell_angle_gamma   90.00000000
_symmetry_Int_Tables_number   1
_chemical_formula_structural   Sm8InPd5Pt19
_chemical_formula_sum   'Sm8 In1 Pd5 Pt19'
_cell_volume   616.42262025
_cell_formula_units_Z   1
loop_
 _symmetry_equiv_pos_site_id
 _symmetry_equiv_pos_as_xyz
  1  'x, y, z'
loop_
 _atom_site_type_symbol
 _atom_site_label
 _atom_site_symmetry_multiplicity
 _atom_site_fract_x
 _atom_site_fract_y
 _atom_site_fract_z
 _atom_site_occupancy
  Sm  Sm0  1  0.249260  0.249568  0.250011  1
  Sm  Sm1  1  0.749747  0.749444  0.749636  1
  Sm  Sm2  1  0.750740  0.750432  0.250011  1
  Sm  Sm3  1  0.749747  0.250556  0.749636  1
  Sm  Sm4  1  0.250253  0.250556  0.749636  1
  Sm  Sm5  1  0.249260  0.750432  0.250011  1
  Sm  Sm6  1  0.250253  0.749444  0.749636  1
  Sm  Sm7  1  0.750740  0.249568  0.250011  1
  In  In8  1  0.000000  0.000000  0.003157  1
  Pd  Pd9  1  0.500000  0.256433  0.499720  1
  Pd  Pd10  1  0.500000  0.743567  0.499720  1
  Pd  Pd11  1  0.500000  0.500000  0.256726  1
  Pd  Pd12  1  0.500000  0.500000  0.743364  1
  Pd  Pd13  1  0.000000  0.000000  0.683645  1
  Pt  Pt14  1  0.269344  0.500000  0.000141  1
  Pt  Pt15  1  0.730656  0.500000  0.000141  1
  Pt  Pt16  1  0.000000  0.267983  0.500219  1
  Pt  Pt17  1  0.500000  0.269024  0.000110  1
  Pt  Pt18  1  0.000000  0.732017  0.500219  1
  Pt  Pt19  1  0.500000  0.730976  0.000110  1
  Pt  Pt20  1  0.500000  0.000000  0.268230  1
  Pt  Pt21  1  0.268483  0.000000  0.500209  1
  Pt  Pt22  1  0.500000  0.000000  0.729891  1
  Pt  Pt23  1  0.731517  0.000000  0.500209  1
  Pt  Pt24  1  0.000000  0.500000  0.267884  1
  Pt  Pt25  1  0.000000  0.500000  0.730235  1
  Pt  Pt26  1  0.255690  0.500000  0.499752  1
  Pt  Pt27  1  0.744310  0.500000  0.499752  1
  Pt  Pt28  1  0.319601  0.000000  0.999044  1
  Pt  Pt29  1  0.680399  0.000000  0.999044  1
  Pt  Pt30  1  0.000000  0.318863  0.999016  1
  Pt  Pt31  1  0.000000  0.681137  0.999016  1
  Pt  Pt32  1  0.000000  0.000000  0.321855  1
