# generated using pymatgen
data_Ce8MgAl5(ZnRu4)2
_symmetry_space_group_name_H-M   'P 1'
_cell_length_a   3.95893200
_cell_length_b   7.44314382
_cell_length_c   15.95600939
_cell_angle_alpha   90.41140304
_cell_angle_beta   90.00000000
_cell_angle_gamma   90.00000000
_symmetry_Int_Tables_number   1
_chemical_formula_structural   Ce8MgAl5(ZnRu4)2
_chemical_formula_sum   'Ce8 Mg1 Al5 Zn2 Ru8'
_cell_volume   470.16201658
_cell_formula_units_Z   1
loop_
 _symmetry_equiv_pos_site_id
 _symmetry_equiv_pos_as_xyz
  1  'x, y, z'
loop_
 _atom_site_type_symbol
 _atom_site_label
 _atom_site_symmetry_multiplicity
 _atom_site_fract_x
 _atom_site_fract_y
 _atom_site_fract_z
 _atom_site_occupancy
  Ce  Ce0  1  0.750000  0.946104  0.218620  1
  Ce  Ce1  1  0.250000  0.168527  0.560735  1
  Ce  Ce2  1  0.750000  0.826682  0.437242  1
  Ce  Ce3  1  0.750000  0.444751  0.279629  1
  Ce  Ce4  1  0.750000  0.322941  0.057820  1
  Ce  Ce5  1  0.250000  0.672991  0.940127  1
  Ce  Ce6  1  0.250000  0.057756  0.784040  1
  Ce  Ce7  1  0.250000  0.555806  0.725294  1
  Mg  Mg8  1  0.750000  0.506963  0.566775  1
  Al  Al9  1  0.750000  0.874022  0.651669  1
  Al  Al10  1  0.250000  0.495559  0.435249  1
  Al  Al11  1  0.250000  0.996213  0.061778  1
  Al  Al12  1  0.250000  0.623544  0.151106  1
  Al  Al13  1  0.250000  0.125388  0.347085  1
  Zn  Zn14  1  0.750000  0.376202  0.850568  1
  Zn  Zn15  1  0.750000  0.998784  0.937813  1
  Ru  Ru16  1  0.750000  0.742048  0.812959  1
  Ru  Ru17  1  0.250000  0.242494  0.940626  1
  Ru  Ru18  1  0.750000  0.259806  0.432296  1
  Ru  Ru19  1  0.250000  0.758209  0.319020  1
  Ru  Ru20  1  0.750000  0.759044  0.066200  1
  Ru  Ru21  1  0.750000  0.230415  0.682333  1
  Ru  Ru22  1  0.250000  0.256500  0.180438  1
  Ru  Ru23  1  0.250000  0.759252  0.560574  1
