# generated using pymatgen
data_Hf2Fe10Ni2P7
_symmetry_space_group_name_H-M   'P 1'
_cell_length_a   8.83026035
_cell_length_b   8.88856993
_cell_length_c   3.57867200
_cell_angle_alpha   90.00000000
_cell_angle_beta   90.00000000
_cell_angle_gamma   119.34240578
_symmetry_Int_Tables_number   1
_chemical_formula_structural   Hf2Fe10Ni2P7
_chemical_formula_sum   'Hf2 Fe10 Ni2 P7'
_cell_volume   244.84866873
_cell_formula_units_Z   1
loop_
 _symmetry_equiv_pos_site_id
 _symmetry_equiv_pos_as_xyz
  1  'x, y, z'
loop_
 _atom_site_type_symbol
 _atom_site_label
 _atom_site_symmetry_multiplicity
 _atom_site_fract_x
 _atom_site_fract_y
 _atom_site_fract_z
 _atom_site_occupancy
  Hf  Hf0  1  0.673106  0.342464  0.500000  1
  Hf  Hf1  1  0.328002  0.659136  0.000000  1
  Fe  Fe2  1  0.385954  0.437340  0.500000  1
  Fe  Fe3  1  0.052604  0.612442  0.500000  1
  Fe  Fe4  1  0.218909  0.096724  0.500000  1
  Fe  Fe5  1  0.874181  0.776224  0.500000  1
  Fe  Fe6  1  0.899494  0.127735  0.500000  1
  Fe  Fe7  1  0.718770  0.878798  0.000000  1
  Fe  Fe8  1  0.121027  0.842979  0.000000  1
  Fe  Fe9  1  0.155196  0.272947  0.000000  1
  Fe  Fe10  1  0.939076  0.372153  0.000000  1
  Fe  Fe11  1  0.631823  0.568893  0.000000  1
  Ni  Ni12  1  0.440498  0.067391  0.000000  1
  Ni  Ni13  1  0.557552  0.945636  0.500000  1
  P  P14  1  0.996249  0.997708  0.000000  1
  P  P15  1  0.415992  0.302932  0.000000  1
  P  P16  1  0.593917  0.707038  0.500000  1
  P  P17  1  0.279978  0.875364  0.500000  1
  P  P18  1  0.117428  0.404320  0.500000  1
  P  P19  1  0.713199  0.121789  0.000000  1
  P  P20  1  0.887044  0.589984  0.000000  1
