# generated using pymatgen
data_Lu12Fe2Sn2Os
_symmetry_space_group_name_H-M   'P 1'
_cell_length_a   8.19687741
_cell_length_b   8.19695128
_cell_length_c   8.19687911
_cell_angle_alpha   108.66292839
_cell_angle_beta   108.66137481
_cell_angle_gamma   111.10138931
_symmetry_Int_Tables_number   1
_chemical_formula_structural   Lu12Fe2Sn2Os
_chemical_formula_sum   'Lu12 Fe2 Sn2 Os1'
_cell_volume   423.70617606
_cell_formula_units_Z   1
loop_
 _symmetry_equiv_pos_site_id
 _symmetry_equiv_pos_as_xyz
  1  'x, y, z'
loop_
 _atom_site_type_symbol
 _atom_site_label
 _atom_site_symmetry_multiplicity
 _atom_site_fract_x
 _atom_site_fract_y
 _atom_site_fract_z
 _atom_site_occupancy
  Lu  Lu0  1  0.308292  0.308290  0.616576  1
  Lu  Lu1  1  0.691708  0.691710  0.383424  1
  Lu  Lu2  1  0.691714  0.308290  0.999997  1
  Lu  Lu3  1  0.308286  0.691710  0.000003  1
  Lu  Lu4  1  0.193686  0.430087  0.236401  1
  Lu  Lu5  1  0.806314  0.569913  0.763599  1
  Lu  Lu6  1  0.193690  0.957292  0.763603  1
  Lu  Lu7  1  0.957295  0.193681  0.763594  1
  Lu  Lu8  1  0.806310  0.042708  0.236397  1
  Lu  Lu9  1  0.042705  0.806319  0.236406  1
  Lu  Lu10  1  0.430085  0.193681  0.236385  1
  Lu  Lu11  1  0.569915  0.806319  0.763615  1
  Fe  Fe12  1  0.383787  0.383792  0.000005  1
  Fe  Fe13  1  0.616213  0.616208  0.999995  1
  Sn  Sn14  1  0.000000  0.500000  0.500000  1
  Sn  Sn15  1  0.500000  0.000000  0.500000  1
  Os  Os16  1  0.000000  0.000000  0.000000  1
