# generated using pymatgen
data_DyTh(FeBr)2
_symmetry_space_group_name_H-M   'P 1'
_cell_length_a   3.98233500
_cell_length_b   3.98233451
_cell_length_c   11.56812400
_cell_angle_alpha   90.00000000
_cell_angle_beta   90.00000000
_cell_angle_gamma   119.99999576
_symmetry_Int_Tables_number   1
_chemical_formula_structural   DyTh(FeBr)2
_chemical_formula_sum   'Dy1 Th1 Fe2 Br2'
_cell_volume   158.87995699
_cell_formula_units_Z   1
loop_
 _symmetry_equiv_pos_site_id
 _symmetry_equiv_pos_as_xyz
  1  'x, y, z'
loop_
 _atom_site_type_symbol
 _atom_site_label
 _atom_site_symmetry_multiplicity
 _atom_site_fract_x
 _atom_site_fract_y
 _atom_site_fract_z
 _atom_site_occupancy
  Dy  Dy0  1  0.000000  0.000000  0.667692  1
  Th  Th1  1  0.000000  0.000000  0.342366  1
  Fe  Fe2  1  0.333333  0.666665  0.493999  1
  Fe  Fe3  1  0.666666  0.333334  0.507148  1
  Br  Br4  1  0.666666  0.333334  0.157775  1
  Br  Br5  1  0.333333  0.666665  0.831020  1
