# generated using pymatgen
data_Dy8Er5Tm7Sn16
_symmetry_space_group_name_H-M   'P 1'
_cell_length_a   7.98839303
_cell_length_b   8.12209003
_cell_length_c   15.35577202
_cell_angle_alpha   89.99627934
_cell_angle_beta   89.99584156
_cell_angle_gamma   89.99030509
_symmetry_Int_Tables_number   1
_chemical_formula_structural   Dy8Er5Tm7Sn16
_chemical_formula_sum   'Dy8 Er5 Tm7 Sn16'
_cell_volume   996.32005193
_cell_formula_units_Z   1
loop_
 _symmetry_equiv_pos_site_id
 _symmetry_equiv_pos_as_xyz
  1  'x, y, z'
loop_
 _atom_site_type_symbol
 _atom_site_label
 _atom_site_symmetry_multiplicity
 _atom_site_fract_x
 _atom_site_fract_y
 _atom_site_fract_z
 _atom_site_occupancy
  Dy  Dy0  1  0.521432  0.320587  0.902742  1
  Dy  Dy1  1  0.021461  0.179441  0.597197  1
  Dy  Dy2  1  0.478543  0.679438  0.402807  1
  Dy  Dy3  1  0.978579  0.820545  0.097187  1
  Dy  Dy4  1  0.478583  0.679459  0.097244  1
  Dy  Dy5  1  0.978603  0.820498  0.402765  1
  Dy  Dy6  1  0.521422  0.320508  0.597242  1
  Dy  Dy7  1  0.021396  0.179465  0.902765  1
  Er  Er8  1  0.367590  0.836450  0.877442  1
  Er  Er9  1  0.867568  0.663559  0.622535  1
  Er  Er10  1  0.632450  0.163555  0.377499  1
  Er  Er11  1  0.132452  0.336434  0.122584  1
  Er  Er12  1  0.632469  0.163525  0.122533  1
  Tm  Tm13  1  0.132475  0.336511  0.377469  1
  Tm  Tm14  1  0.367496  0.836500  0.622547  1
  Tm  Tm15  1  0.867504  0.663499  0.877431  1
  Tm  Tm16  1  0.198237  0.503894  0.749974  1
  Tm  Tm17  1  0.698230  0.996103  0.750017  1
  Tm  Tm18  1  0.801814  0.496199  0.250021  1
  Tm  Tm19  1  0.301698  0.003849  0.250052  1
  Sn  Sn20  1  0.293582  0.036565  0.041768  1
  Sn  Sn21  1  0.793858  0.463368  0.458189  1
  Sn  Sn22  1  0.706138  0.963364  0.541811  1
  Sn  Sn23  1  0.206124  0.536648  0.958191  1
  Sn  Sn24  1  0.706581  0.963178  0.958182  1
  Sn  Sn25  1  0.206523  0.536654  0.541671  1
  Sn  Sn26  1  0.293490  0.036640  0.458323  1
  Sn  Sn27  1  0.793651  0.463589  0.041611  1
  Sn  Sn28  1  0.564585  0.620103  0.749988  1
  Sn  Sn29  1  0.064594  0.879900  0.749995  1
  Sn  Sn30  1  0.435275  0.380054  0.250069  1
  Sn  Sn31  1  0.935534  0.120077  0.250080  1
  Sn  Sn32  1  0.330351  0.147744  0.749941  1
  Sn  Sn33  1  0.830320  0.352246  0.750053  1
  Sn  Sn34  1  0.669708  0.852122  0.250011  1
  Sn  Sn35  1  0.169688  0.647730  0.250062  1
