# generated using pymatgen
data_Tb2Re2Si2B
_symmetry_space_group_name_H-M   'P 1'
_cell_length_a   5.78414442
_cell_length_b   5.78414364
_cell_length_c   6.93662283
_cell_angle_alpha   56.78671563
_cell_angle_beta   56.78672043
_cell_angle_gamma   41.07904493
_symmetry_Int_Tables_number   1
_chemical_formula_structural   Tb2Re2Si2B
_chemical_formula_sum   'Tb2 Re2 Si2 B1'
_cell_volume   123.68546845
_cell_formula_units_Z   1
loop_
 _symmetry_equiv_pos_site_id
 _symmetry_equiv_pos_as_xyz
  1  'x, y, z'
loop_
 _atom_site_type_symbol
 _atom_site_label
 _atom_site_symmetry_multiplicity
 _atom_site_fract_x
 _atom_site_fract_y
 _atom_site_fract_z
 _atom_site_occupancy
  Tb  Tb0  1  0.423713  0.423713  0.304132  1
  Tb  Tb1  1  0.576287  0.576287  0.695868  1
  Re  Re2  1  0.783373  0.783373  0.090818  1
  Re  Re3  1  0.216627  0.216627  0.909182  1
  Si  Si4  1  0.862460  0.862460  0.673351  1
  Si  Si5  1  0.137540  0.137540  0.326649  1
  B  B6  1  0.000000  0.000000  0.000000  1
