# generated using pymatgen
data_ErTm2Hf(Co4P3)2
_symmetry_space_group_name_H-M   'P 1'
_cell_length_a   3.70045600
_cell_length_b   10.64406700
_cell_length_c   12.33655400
_cell_angle_alpha   90.00000000
_cell_angle_beta   90.00000000
_cell_angle_gamma   90.00000000
_symmetry_Int_Tables_number   1
_chemical_formula_structural   ErTm2Hf(Co4P3)2
_chemical_formula_sum   'Er2 Tm4 Hf2 Co16 P12'
_cell_volume   485.91097497
_cell_formula_units_Z   2
loop_
 _symmetry_equiv_pos_site_id
 _symmetry_equiv_pos_as_xyz
  1  'x, y, z'
loop_
 _atom_site_type_symbol
 _atom_site_label
 _atom_site_symmetry_multiplicity
 _atom_site_fract_x
 _atom_site_fract_y
 _atom_site_fract_z
 _atom_site_occupancy
  Er  Er0  1  0.000000  0.500000  0.529241  1
  Er  Er1  1  0.500000  0.000000  0.470759  1
  Tm  Tm2  1  0.500000  0.822391  0.204383  1
  Tm  Tm3  1  0.500000  0.177609  0.204383  1
  Tm  Tm4  1  0.000000  0.677609  0.795617  1
  Tm  Tm5  1  0.000000  0.322391  0.795617  1
  Hf  Hf6  1  0.500000  0.500000  0.157842  1
  Hf  Hf7  1  0.000000  0.000000  0.842158  1
  Co  Co8  1  0.500000  0.500000  0.703400  1
  Co  Co9  1  0.000000  0.000000  0.296600  1
  Co  Co10  1  0.000000  0.500000  0.986672  1
  Co  Co11  1  0.500000  0.000000  0.013328  1
  Co  Co12  1  0.500000  0.331979  0.993322  1
  Co  Co13  1  0.500000  0.668021  0.993322  1
  Co  Co14  1  0.000000  0.168021  0.006678  1
  Co  Co15  1  0.000000  0.831979  0.006678  1
  Co  Co16  1  0.500000  0.295100  0.433096  1
  Co  Co17  1  0.500000  0.704900  0.433096  1
  Co  Co18  1  0.000000  0.204900  0.566904  1
  Co  Co19  1  0.000000  0.795100  0.566904  1
  Co  Co20  1  0.500000  0.877073  0.702968  1
  Co  Co21  1  0.500000  0.122927  0.702968  1
  Co  Co22  1  0.000000  0.622927  0.297032  1
  Co  Co23  1  0.000000  0.377073  0.297032  1
  P  P24  1  0.500000  0.500000  0.882825  1
  P  P25  1  0.000000  0.000000  0.117175  1
  P  P26  1  0.500000  0.500000  0.362919  1
  P  P27  1  0.000000  0.000000  0.637081  1
  P  P28  1  0.500000  0.311108  0.616382  1
  P  P29  1  0.500000  0.688892  0.616382  1
  P  P30  1  0.000000  0.188892  0.383618  1
  P  P31  1  0.000000  0.811108  0.383618  1
  P  P32  1  0.500000  0.837784  0.891994  1
  P  P33  1  0.500000  0.162216  0.891994  1
  P  P34  1  0.000000  0.662216  0.108006  1
  P  P35  1  0.000000  0.337784  0.108006  1
