# generated using pymatgen
data_Ho16MgIn3Ru3Rh
_symmetry_space_group_name_H-M   'P 1'
_cell_length_a   9.67358663
_cell_length_b   9.67358684
_cell_length_c   9.66311934
_cell_angle_alpha   59.27669194
_cell_angle_beta   59.27669190
_cell_angle_gamma   59.46733348
_symmetry_Int_Tables_number   1
_chemical_formula_structural   Ho16MgIn3Ru3Rh
_chemical_formula_sum   'Ho16 Mg1 In3 Ru3 Rh1'
_cell_volume   629.79890056
_cell_formula_units_Z   1
loop_
 _symmetry_equiv_pos_site_id
 _symmetry_equiv_pos_as_xyz
  1  'x, y, z'
loop_
 _atom_site_type_symbol
 _atom_site_label
 _atom_site_symmetry_multiplicity
 _atom_site_fract_x
 _atom_site_fract_y
 _atom_site_fract_z
 _atom_site_occupancy
  Ho  Ho0  1  0.189778  0.189778  0.807577  1
  Ho  Ho1  1  0.595421  0.595421  0.211193  1
  Ho  Ho2  1  0.441594  0.058917  0.440682  1
  Ho  Ho3  1  0.441021  0.441021  0.061179  1
  Ho  Ho4  1  0.813146  0.188316  0.807799  1
  Ho  Ho5  1  0.189174  0.810672  0.188537  1
  Ho  Ho6  1  0.437005  0.058980  0.062366  1
  Ho  Ho7  1  0.188316  0.813146  0.807799  1
  Ho  Ho8  1  0.058980  0.437005  0.062366  1
  Ho  Ho9  1  0.806835  0.806835  0.191744  1
  Ho  Ho10  1  0.208642  0.599779  0.595912  1
  Ho  Ho11  1  0.058917  0.441594  0.440682  1
  Ho  Ho12  1  0.061779  0.061779  0.434100  1
  Ho  Ho13  1  0.810672  0.189174  0.188537  1
  Ho  Ho14  1  0.599779  0.208642  0.595912  1
  Ho  Ho15  1  0.599895  0.599895  0.600635  1
  Mg  Mg16  1  0.826234  0.826234  0.825510  1
  In  In17  1  0.832445  0.832445  0.501773  1
  In  In18  1  0.502272  0.831276  0.831958  1
  In  In19  1  0.831276  0.502272  0.831958  1
  Ru  Ru20  1  0.395347  0.829481  0.393644  1
  Ru  Ru21  1  0.389405  0.389405  0.395255  1
  Ru  Ru22  1  0.829481  0.395347  0.393644  1
  Rh  Rh23  1  0.392586  0.392586  0.829235  1
