# generated using pymatgen
data_Tb3YGaCo4
_symmetry_space_group_name_H-M   'P 1'
_cell_length_a   5.48668044
_cell_length_b   5.48668089
_cell_length_c   8.90200913
_cell_angle_alpha   70.81684849
_cell_angle_beta   70.81684776
_cell_angle_gamma   43.32741414
_symmetry_Int_Tables_number   1
_chemical_formula_structural   Tb3YGaCo4
_chemical_formula_sum   'Tb3 Y1 Ga1 Co4'
_cell_volume   172.00433108
_cell_formula_units_Z   1
loop_
 _symmetry_equiv_pos_site_id
 _symmetry_equiv_pos_as_xyz
  1  'x, y, z'
loop_
 _atom_site_type_symbol
 _atom_site_label
 _atom_site_symmetry_multiplicity
 _atom_site_fract_x
 _atom_site_fract_y
 _atom_site_fract_z
 _atom_site_occupancy
  Tb  Tb0  1  0.746655  0.746655  0.661414  1
  Tb  Tb1  1  0.253991  0.253991  0.338785  1
  Tb  Tb2  1  0.391451  0.391451  0.885176  1
  Y  Y3  1  0.608345  0.608345  0.115669  1
  Ga  Ga4  1  0.500503  0.500503  0.499672  1
  Co  Co5  1  0.037666  0.037666  0.645033  1
  Co  Co6  1  0.962436  0.962436  0.355124  1
  Co  Co7  1  0.092437  0.092437  0.879197  1
  Co  Co8  1  0.906516  0.906516  0.119930  1
