# generated using pymatgen
data_Dy2GaSi4Rh3
_symmetry_space_group_name_H-M   'P 1'
_cell_length_a   8.19827665
_cell_length_b   8.19827674
_cell_length_c   5.69739100
_cell_angle_alpha   71.24161334
_cell_angle_beta   71.24160574
_cell_angle_gamma   93.51424093
_symmetry_Int_Tables_number   1
_chemical_formula_structural   Dy2GaSi4Rh3
_chemical_formula_sum   'Dy4 Ga2 Si8 Rh6'
_cell_volume   337.48853283
_cell_formula_units_Z   2
loop_
 _symmetry_equiv_pos_site_id
 _symmetry_equiv_pos_as_xyz
  1  'x, y, z'
loop_
 _atom_site_type_symbol
 _atom_site_label
 _atom_site_symmetry_multiplicity
 _atom_site_fract_x
 _atom_site_fract_y
 _atom_site_fract_z
 _atom_site_occupancy
  Dy  Dy0  1  0.867013  0.600444  0.756650  1
  Dy  Dy1  1  0.132987  0.399556  0.243350  1
  Dy  Dy2  1  0.399556  0.132987  0.743350  1
  Dy  Dy3  1  0.600444  0.867013  0.256650  1
  Ga  Ga4  1  0.775224  0.224776  0.750000  1
  Ga  Ga5  1  0.224776  0.775224  0.250000  1
  Si  Si6  1  0.515435  0.484565  0.750000  1
  Si  Si7  1  0.484565  0.515435  0.250000  1
  Si  Si8  1  0.212503  0.787497  0.750000  1
  Si  Si9  1  0.787497  0.212503  0.250000  1
  Si  Si10  1  0.265182  0.060353  0.338644  1
  Si  Si11  1  0.734818  0.939647  0.661356  1
  Si  Si12  1  0.939647  0.734818  0.161356  1
  Si  Si13  1  0.060353  0.265182  0.838644  1
  Rh  Rh14  1  0.533747  0.262402  0.139335  1
  Rh  Rh15  1  0.737598  0.466253  0.360665  1
  Rh  Rh16  1  0.466253  0.737598  0.860665  1
  Rh  Rh17  1  0.262402  0.533747  0.639335  1
  Rh  Rh18  1  0.993321  0.006679  0.250000  1
  Rh  Rh19  1  0.006679  0.993321  0.750000  1
