# generated using pymatgen
data_Y2Al9Co2Au
_symmetry_space_group_name_H-M   'P 1'
_cell_length_a   7.49494520
_cell_length_b   7.49494491
_cell_length_c   9.40350800
_cell_angle_alpha   90.00000000
_cell_angle_beta   90.00000000
_cell_angle_gamma   119.45715293
_symmetry_Int_Tables_number   1
_chemical_formula_structural   Y2Al9Co2Au
_chemical_formula_sum   'Y4 Al18 Co4 Au2'
_cell_volume   459.94634245
_cell_formula_units_Z   2
loop_
 _symmetry_equiv_pos_site_id
 _symmetry_equiv_pos_as_xyz
  1  'x, y, z'
loop_
 _atom_site_type_symbol
 _atom_site_label
 _atom_site_symmetry_multiplicity
 _atom_site_fract_x
 _atom_site_fract_y
 _atom_site_fract_z
 _atom_site_occupancy
  Y  Y0  1  0.992098  0.666953  0.250403  1
  Y  Y1  1  0.007902  0.333047  0.750403  1
  Y  Y2  1  0.666953  0.992098  0.249597  1
  Y  Y3  1  0.333047  0.007902  0.749597  1
  Al  Al4  1  0.120240  0.120240  0.250000  1
  Al  Al5  1  0.879760  0.879760  0.750000  1
  Al  Al6  1  0.330019  0.321185  0.549001  1
  Al  Al7  1  0.669981  0.678815  0.049001  1
  Al  Al8  1  0.321185  0.330019  0.950999  1
  Al  Al9  1  0.678815  0.669981  0.450999  1
  Al  Al10  1  0.341848  0.548106  0.236937  1
  Al  Al11  1  0.658152  0.451894  0.736937  1
  Al  Al12  1  0.548106  0.341848  0.263063  1
  Al  Al13  1  0.451894  0.658152  0.763063  1
  Al  Al14  1  0.009902  0.333667  0.073354  1
  Al  Al15  1  0.990098  0.666333  0.573354  1
  Al  Al16  1  0.333667  0.009902  0.426646  1
  Al  Al17  1  0.666333  0.990098  0.926646  1
  Al  Al18  1  0.014718  0.679006  0.926096  1
  Al  Al19  1  0.985282  0.320994  0.426096  1
  Al  Al20  1  0.679006  0.014718  0.573904  1
  Al  Al21  1  0.320994  0.985282  0.073904  1
  Co  Co22  1  0.999998  0.000002  0.000000  1
  Co  Co23  1  0.000002  0.999998  0.500000  1
  Co  Co24  1  0.329569  0.670431  0.000000  1
  Co  Co25  1  0.670431  0.329569  0.500000  1
  Au  Au26  1  0.672242  0.327758  0.000000  1
  Au  Au27  1  0.327758  0.672242  0.500000  1
