# generated using pymatgen
data_Sm12Ge(BBr4)3
_symmetry_space_group_name_H-M   'P 1'
_cell_length_a   10.10831343
_cell_length_b   10.10831399
_cell_length_c   10.10831455
_cell_angle_alpha   109.86564392
_cell_angle_beta   109.86564956
_cell_angle_gamma   109.86564129
_symmetry_Int_Tables_number   1
_chemical_formula_structural   Sm12Ge(BBr4)3
_chemical_formula_sum   'Sm12 Ge1 B3 Br12'
_cell_volume   783.26049389
_cell_formula_units_Z   1
loop_
 _symmetry_equiv_pos_site_id
 _symmetry_equiv_pos_as_xyz
  1  'x, y, z'
loop_
 _atom_site_type_symbol
 _atom_site_label
 _atom_site_symmetry_multiplicity
 _atom_site_fract_x
 _atom_site_fract_y
 _atom_site_fract_z
 _atom_site_occupancy
  Sm  Sm0  1  0.472122  0.497331  0.226556  1
  Sm  Sm1  1  0.750000  0.229475  0.270525  1
  Sm  Sm2  1  0.750000  0.018315  0.481685  1
  Sm  Sm3  1  0.226556  0.472122  0.497331  1
  Sm  Sm4  1  0.270525  0.750000  0.229475  1
  Sm  Sm5  1  0.027878  0.273444  0.002669  1
  Sm  Sm6  1  0.002669  0.027878  0.273444  1
  Sm  Sm7  1  0.481685  0.750000  0.018315  1
  Sm  Sm8  1  0.497331  0.226556  0.472122  1
  Sm  Sm9  1  0.018315  0.481685  0.750000  1
  Sm  Sm10  1  0.273444  0.002669  0.027878  1
  Sm  Sm11  1  0.229475  0.270525  0.750000  1
  Ge  Ge12  1  0.250000  0.250000  0.250000  1
  B  B13  1  0.500233  0.999767  0.250000  1
  B  B14  1  0.999767  0.250000  0.500233  1
  B  B15  1  0.250000  0.500233  0.999767  1
  Br  Br16  1  0.250000  0.757692  0.742308  1
  Br  Br17  1  0.512567  0.506767  0.757698  1
  Br  Br18  1  0.987433  0.742302  0.993233  1
  Br  Br19  1  0.742308  0.250000  0.757692  1
  Br  Br20  1  0.993233  0.987433  0.742302  1
  Br  Br21  1  0.250000  0.993841  0.506159  1
  Br  Br22  1  0.757698  0.512567  0.506767  1
  Br  Br23  1  0.506159  0.250000  0.993841  1
  Br  Br24  1  0.757692  0.742308  0.250000  1
  Br  Br25  1  0.742302  0.993233  0.987433  1
  Br  Br26  1  0.993841  0.506159  0.250000  1
  Br  Br27  1  0.506767  0.757698  0.512567  1
