# generated using pymatgen
data_AcTh(Co5P3)2
_symmetry_space_group_name_H-M   'P 1'
_cell_length_a   6.03041307
_cell_length_b   6.03041415
_cell_length_c   11.49665400
_cell_angle_alpha   90.00000000
_cell_angle_beta   90.00000000
_cell_angle_gamma   144.85029626
_symmetry_Int_Tables_number   1
_chemical_formula_structural   AcTh(Co5P3)2
_chemical_formula_sum   'Ac1 Th1 Co10 P6'
_cell_volume   240.69830800
_cell_formula_units_Z   1
loop_
 _symmetry_equiv_pos_site_id
 _symmetry_equiv_pos_as_xyz
  1  'x, y, z'
loop_
 _atom_site_type_symbol
 _atom_site_label
 _atom_site_symmetry_multiplicity
 _atom_site_fract_x
 _atom_site_fract_y
 _atom_site_fract_z
 _atom_site_occupancy
  Ac  Ac0  1  0.663409  0.336591  0.750000  1
  Th  Th1  1  0.339334  0.660666  0.250000  1
  Co  Co2  1  0.051914  0.948086  0.143645  1
  Co  Co3  1  0.051914  0.948086  0.356355  1
  Co  Co4  1  0.699271  0.300729  0.425836  1
  Co  Co5  1  0.302207  0.697793  0.563782  1
  Co  Co6  1  0.302207  0.697793  0.936218  1
  Co  Co7  1  0.699271  0.300729  0.074164  1
  Co  Co8  1  0.500681  0.499319  0.497206  1
  Co  Co9  1  0.500681  0.499319  0.002794  1
  Co  Co10  1  0.944617  0.055383  0.640649  1
  Co  Co11  1  0.944617  0.055383  0.859351  1
  P  P12  1  0.609364  0.390636  0.250000  1
  P  P13  1  0.391505  0.608495  0.750000  1
  P  P14  1  0.116751  0.883249  0.534422  1
  P  P15  1  0.882751  0.117249  0.460962  1
  P  P16  1  0.882751  0.117249  0.039038  1
  P  P17  1  0.116751  0.883249  0.965578  1
