# generated using pymatgen
data_YHoZr4Tc2F30
_symmetry_space_group_name_H-M   'P 1'
_cell_length_a   8.16152258
_cell_length_b   8.16152303
_cell_length_c   8.14519207
_cell_angle_alpha   79.78153218
_cell_angle_beta   79.78152637
_cell_angle_gamma   99.89805748
_symmetry_Int_Tables_number   1
_chemical_formula_structural   YHoZr4Tc2F30
_chemical_formula_sum   'Y1 Ho1 Zr4 Tc2 F30'
_cell_volume   513.76524298
_cell_formula_units_Z   1
loop_
 _symmetry_equiv_pos_site_id
 _symmetry_equiv_pos_as_xyz
  1  'x, y, z'
loop_
 _atom_site_type_symbol
 _atom_site_label
 _atom_site_symmetry_multiplicity
 _atom_site_fract_x
 _atom_site_fract_y
 _atom_site_fract_z
 _atom_site_occupancy
  Y  Y0  1  0.821959  0.178041  0.750000  1
  Ho  Ho1  1  0.177996  0.822004  0.250000  1
  Zr  Zr2  1  0.746889  0.677798  0.673092  1
  Zr  Zr3  1  0.322202  0.253111  0.826908  1
  Zr  Zr4  1  0.253240  0.322257  0.326532  1
  Zr  Zr5  1  0.677743  0.746760  0.173468  1
  Tc  Tc6  1  0.750113  0.249887  0.250000  1
  Tc  Tc7  1  0.249838  0.750162  0.750000  1
  F  F8  1  0.313737  0.350457  0.054756  1
  F  F9  1  0.935850  0.810664  0.153079  1
  F  F10  1  0.844341  0.461343  0.685412  1
  F  F11  1  0.460140  0.843950  0.185801  1
  F  F12  1  0.810750  0.935016  0.652492  1
  F  F13  1  0.350477  0.313732  0.554775  1
  F  F14  1  0.686268  0.649523  0.945224  1
  F  F15  1  0.064984  0.189250  0.847508  1
  F  F16  1  0.156050  0.539860  0.314199  1
  F  F17  1  0.538657  0.155659  0.814588  1
  F  F18  1  0.189336  0.064150  0.346921  1
  F  F19  1  0.649543  0.686263  0.445244  1
  F  F20  1  0.773230  0.281463  0.002649  1
  F  F21  1  0.998274  0.273680  0.217397  1
  F  F22  1  0.778625  0.500640  0.224901  1
  F  F23  1  0.500599  0.778642  0.724897  1
  F  F24  1  0.273645  0.998267  0.717392  1
  F  F25  1  0.280943  0.773373  0.502217  1
  F  F26  1  0.226627  0.719057  0.997783  1
  F  F27  1  0.001733  0.726355  0.782608  1
  F  F28  1  0.221358  0.499401  0.775103  1
  F  F29  1  0.499360  0.221375  0.275099  1
  F  F30  1  0.726320  0.001726  0.282603  1
  F  F31  1  0.718537  0.226770  0.497351  1
  F  F32  1  0.468226  0.531774  0.250000  1
  F  F33  1  0.746997  0.954615  0.972272  1
  F  F34  1  0.045385  0.253003  0.527728  1
  F  F35  1  0.252671  0.044436  0.028685  1
  F  F36  1  0.955564  0.747329  0.471315  1
  F  F37  1  0.531793  0.468207  0.750000  1
