# generated using pymatgen
data_NaTb6IrCl12
_symmetry_space_group_name_H-M   'P 1'
_cell_length_a   8.90227319
_cell_length_b   9.05643281
_cell_length_c   8.90845351
_cell_angle_alpha   107.26502987
_cell_angle_beta   106.33785893
_cell_angle_gamma   107.43697621
_symmetry_Int_Tables_number   1
_chemical_formula_structural   NaTb6IrCl12
_chemical_formula_sum   'Na1 Tb6 Ir1 Cl12'
_cell_volume   597.87842075
_cell_formula_units_Z   1
loop_
 _symmetry_equiv_pos_site_id
 _symmetry_equiv_pos_as_xyz
  1  'x, y, z'
loop_
 _atom_site_type_symbol
 _atom_site_label
 _atom_site_symmetry_multiplicity
 _atom_site_fract_x
 _atom_site_fract_y
 _atom_site_fract_z
 _atom_site_occupancy
  Na  Na0  1  0.500000  0.500000  0.500000  1
  Tb  Tb1  1  0.116513  0.331566  0.029141  1
  Tb  Tb2  1  0.323883  0.027328  0.114778  1
  Tb  Tb3  1  0.029027  0.113224  0.324657  1
  Tb  Tb4  1  0.970974  0.886776  0.675344  1
  Tb  Tb5  1  0.676117  0.972673  0.885222  1
  Tb  Tb6  1  0.883487  0.668434  0.970859  1
  Ir  Ir7  1  0.000000  0.000000  0.000000  1
  Cl  Cl8  1  0.213816  0.681935  0.072457  1
  Cl  Cl9  1  0.445386  0.362131  0.150042  1
  Cl  Cl10  1  0.682357  0.072082  0.213532  1
  Cl  Cl11  1  0.926758  0.786826  0.318441  1
  Cl  Cl12  1  0.151008  0.445394  0.364534  1
  Cl  Cl13  1  0.364991  0.152577  0.448023  1
  Cl  Cl14  1  0.635009  0.847423  0.551978  1
  Cl  Cl15  1  0.848993  0.554606  0.635466  1
  Cl  Cl16  1  0.073243  0.213174  0.681560  1
  Cl  Cl17  1  0.317644  0.927919  0.786468  1
  Cl  Cl18  1  0.554614  0.637869  0.849959  1
  Cl  Cl19  1  0.786184  0.318065  0.927543  1
