# generated using pymatgen
data_Pr14Th2MgHg3Ir4
_symmetry_space_group_name_H-M   'P 1'
_cell_length_a   9.99868528
_cell_length_b   10.03840143
_cell_length_c   10.08148500
_cell_angle_alpha   59.85821783
_cell_angle_beta   59.72552864
_cell_angle_gamma   59.97990479
_symmetry_Int_Tables_number   1
_chemical_formula_structural   Pr14Th2MgHg3Ir4
_chemical_formula_sum   'Pr14 Th2 Mg1 Hg3 Ir4'
_cell_volume   713.14331545
_cell_formula_units_Z   1
loop_
 _symmetry_equiv_pos_site_id
 _symmetry_equiv_pos_as_xyz
  1  'x, y, z'
loop_
 _atom_site_type_symbol
 _atom_site_label
 _atom_site_symmetry_multiplicity
 _atom_site_fract_x
 _atom_site_fract_y
 _atom_site_fract_z
 _atom_site_occupancy
  Pr  Pr0  1  0.349932  0.951540  0.349264  1
  Pr  Pr1  1  0.944739  0.352245  0.351509  1
  Pr  Pr2  1  0.808207  0.191536  0.192283  1
  Pr  Pr3  1  0.187444  0.811747  0.810932  1
  Pr  Pr4  1  0.187443  0.811753  0.189873  1
  Pr  Pr5  1  0.808208  0.191537  0.807968  1
  Pr  Pr6  1  0.187096  0.189741  0.811582  1
  Pr  Pr7  1  0.805480  0.807051  0.193736  1
  Pr  Pr8  1  0.943090  0.560472  0.562675  1
  Pr  Pr9  1  0.558658  0.942460  0.936005  1
  Pr  Pr10  1  0.558657  0.942462  0.562876  1
  Pr  Pr11  1  0.943093  0.560468  0.933766  1
  Pr  Pr12  1  0.560380  0.562307  0.938656  1
  Pr  Pr13  1  0.939226  0.938404  0.561185  1
  Th  Th14  1  0.344275  0.344564  0.345537  1
  Th  Th15  1  0.344275  0.344564  0.965625  1
  Mg  Mg16  1  0.285921  0.567937  0.573071  1
  Hg  Hg17  1  0.579517  0.585475  0.588672  1
  Hg  Hg18  1  0.579517  0.585475  0.246336  1
  Hg  Hg19  1  0.578712  0.246466  0.587411  1
  Ir  Ir20  1  0.145284  0.146971  0.138570  1
  Ir  Ir21  1  0.145287  0.146970  0.569175  1
  Ir  Ir22  1  0.150090  0.566318  0.141797  1
  Ir  Ir23  1  0.565468  0.151537  0.141497  1
