# generated using pymatgen
data_Hf8Co7Si14Ru
_symmetry_space_group_name_H-M   'P 1'
_cell_length_a   9.48921776
_cell_length_b   9.49382926
_cell_length_c   9.49620942
_cell_angle_alpha   94.15674869
_cell_angle_beta   94.13327889
_cell_angle_gamma   148.79804703
_symmetry_Int_Tables_number   1
_chemical_formula_structural   Hf8Co7Si14Ru
_chemical_formula_sum   'Hf8 Co7 Si14 Ru1'
_cell_volume   426.89182807
_cell_formula_units_Z   1
loop_
 _symmetry_equiv_pos_site_id
 _symmetry_equiv_pos_as_xyz
  1  'x, y, z'
loop_
 _atom_site_type_symbol
 _atom_site_label
 _atom_site_symmetry_multiplicity
 _atom_site_fract_x
 _atom_site_fract_y
 _atom_site_fract_z
 _atom_site_occupancy
  Hf  Hf0  1  0.137676  0.137651  0.275367  1
  Hf  Hf1  1  0.862260  0.862264  0.724451  1
  Hf  Hf2  1  0.136457  0.861631  0.999137  1
  Hf  Hf3  1  0.862675  0.137520  0.999110  1
  Hf  Hf4  1  0.304183  0.498786  0.803262  1
  Hf  Hf5  1  0.695414  0.500354  0.195714  1
  Hf  Hf6  1  0.500386  0.695452  0.195727  1
  Hf  Hf7  1  0.499013  0.304409  0.803262  1
  Co  Co8  1  0.396794  0.896799  0.793542  1
  Co  Co9  1  0.897573  0.101235  0.500935  1
  Co  Co10  1  0.603375  0.399676  0.500947  1
  Co  Co11  1  0.601809  0.101834  0.203662  1
  Co  Co12  1  0.898126  0.398109  0.796185  1
  Co  Co13  1  0.102873  0.899699  0.501059  1
  Co  Co14  1  0.398165  0.601357  0.501053  1
  Si  Si15  1  0.290011  0.290003  0.580042  1
  Si  Si16  1  0.709915  0.709901  0.419814  1
  Si  Si17  1  0.298168  0.716007  0.995642  1
  Si  Si18  1  0.697512  0.279670  0.995642  1
  Si  Si19  1  0.091393  0.498833  0.592647  1
  Si  Si20  1  0.901067  0.494439  0.412065  1
  Si  Si21  1  0.511044  0.917678  0.412059  1
  Si  Si22  1  0.501201  0.093768  0.592648  1
  Si  Si23  1  0.250161  0.250708  0.999750  1
  Si  Si24  1  0.749583  0.749049  0.999742  1
  Si  Si25  1  0.305303  0.009292  0.301253  1
  Si  Si26  1  0.699521  0.999992  0.699626  1
  Si  Si27  1  0.000143  0.699718  0.699660  1
  Si  Si28  1  0.995859  0.291856  0.301235  1
  Ru  Ru29  1  0.102339  0.602311  0.204762  1
