# generated using pymatgen
data_Y2Al7Ga2Rh3
_symmetry_space_group_name_H-M   'P 1'
_cell_length_a   7.52857129
_cell_length_b   7.53583487
_cell_length_c   9.57170100
_cell_angle_alpha   90.00000000
_cell_angle_beta   90.00000000
_cell_angle_gamma   119.40189879
_symmetry_Int_Tables_number   1
_chemical_formula_structural   Y2Al7Ga2Rh3
_chemical_formula_sum   'Y4 Al14 Ga4 Rh6'
_cell_volume   473.09646800
_cell_formula_units_Z   2
loop_
 _symmetry_equiv_pos_site_id
 _symmetry_equiv_pos_as_xyz
  1  'x, y, z'
loop_
 _atom_site_type_symbol
 _atom_site_label
 _atom_site_symmetry_multiplicity
 _atom_site_fract_x
 _atom_site_fract_y
 _atom_site_fract_z
 _atom_site_occupancy
  Y  Y0  1  0.997337  0.673262  0.250000  1
  Y  Y1  1  0.002663  0.326738  0.750000  1
  Y  Y2  1  0.669939  0.992963  0.250000  1
  Y  Y3  1  0.330061  0.007037  0.750000  1
  Al  Al4  1  0.001247  0.334757  0.072822  1
  Al  Al5  1  0.998753  0.665243  0.927178  1
  Al  Al6  1  0.998753  0.665243  0.572822  1
  Al  Al7  1  0.335539  0.002417  0.427223  1
  Al  Al8  1  0.001247  0.334757  0.427178  1
  Al  Al9  1  0.664461  0.997583  0.572777  1
  Al  Al10  1  0.664461  0.997583  0.927223  1
  Al  Al11  1  0.335539  0.002417  0.072777  1
  Al  Al12  1  0.334029  0.334477  0.552690  1
  Al  Al13  1  0.665971  0.665523  0.447310  1
  Al  Al14  1  0.665971  0.665523  0.052690  1
  Al  Al15  1  0.334029  0.334477  0.947310  1
  Al  Al16  1  0.549335  0.338802  0.250000  1
  Al  Al17  1  0.450665  0.661198  0.750000  1
  Ga  Ga18  1  0.128534  0.129330  0.250000  1
  Ga  Ga19  1  0.871466  0.870670  0.750000  1
  Ga  Ga20  1  0.337891  0.547203  0.250000  1
  Ga  Ga21  1  0.662109  0.452797  0.750000  1
  Rh  Rh22  1  0.671455  0.328016  0.002269  1
  Rh  Rh23  1  0.328545  0.671984  0.997731  1
  Rh  Rh24  1  0.328545  0.671984  0.502269  1
  Rh  Rh25  1  0.671455  0.328016  0.497731  1
  Rh  Rh26  1  0.000000  0.000000  0.000000  1
  Rh  Rh27  1  0.000000  0.000000  0.500000  1
