# generated using pymatgen
data_Ca2YNi6B2Ir
_symmetry_space_group_name_H-M   'P 1'
_cell_length_a   7.88302444
_cell_length_b   7.88302383
_cell_length_c   7.88302285
_cell_angle_alpha   37.81979510
_cell_angle_beta   37.81980204
_cell_angle_gamma   37.81979758
_symmetry_Int_Tables_number   1
_chemical_formula_structural   Ca2YNi6B2Ir
_chemical_formula_sum   'Ca2 Y1 Ni6 B2 Ir1'
_cell_volume   165.27820024
_cell_formula_units_Z   1
loop_
 _symmetry_equiv_pos_site_id
 _symmetry_equiv_pos_as_xyz
  1  'x, y, z'
loop_
 _atom_site_type_symbol
 _atom_site_label
 _atom_site_symmetry_multiplicity
 _atom_site_fract_x
 _atom_site_fract_y
 _atom_site_fract_z
 _atom_site_occupancy
  Ca  Ca0  1  0.647161  0.647161  0.647161  1
  Ca  Ca1  1  0.352839  0.352839  0.352839  1
  Y  Y2  1  0.500000  0.500000  0.500000  1
  Ni  Ni3  1  0.572287  0.059476  0.059476  1
  Ni  Ni4  1  0.059476  0.059476  0.572287  1
  Ni  Ni5  1  0.059476  0.572287  0.059476  1
  Ni  Ni6  1  0.940524  0.427713  0.940524  1
  Ni  Ni7  1  0.940524  0.940524  0.427713  1
  Ni  Ni8  1  0.427713  0.940524  0.940524  1
  B  B9  1  0.830746  0.830746  0.830746  1
  B  B10  1  0.169254  0.169254  0.169254  1
  Ir  Ir11  1  0.000000  0.000000  0.000000  1
