# generated using pymatgen
data_TbHoP7(RuRh)6
_symmetry_space_group_name_H-M   'P 1'
_cell_length_a   3.87319720
_cell_length_b   9.54972124
_cell_length_c   9.55514608
_cell_angle_alpha   120.04810590
_cell_angle_beta   89.99377072
_cell_angle_gamma   89.98833100
_symmetry_Int_Tables_number   1
_chemical_formula_structural   TbHoP7(RuRh)6
_chemical_formula_sum   'Tb1 Ho1 P7 Ru6 Rh6'
_cell_volume   305.92679556
_cell_formula_units_Z   1
loop_
 _symmetry_equiv_pos_site_id
 _symmetry_equiv_pos_as_xyz
  1  'x, y, z'
loop_
 _atom_site_type_symbol
 _atom_site_label
 _atom_site_symmetry_multiplicity
 _atom_site_fract_x
 _atom_site_fract_y
 _atom_site_fract_z
 _atom_site_occupancy
  Tb  Tb0  1  0.746521  0.333210  0.666547  1
  Ho  Ho1  1  0.253438  0.666781  0.333497  1
  P  P2  1  0.499479  0.000002  0.000001  1
  P  P3  1  0.753696  0.882393  0.597245  1
  P  P4  1  0.753785  0.402941  0.285253  1
  P  P5  1  0.753994  0.714789  0.117518  1
  P  P6  1  0.246304  0.117212  0.402107  1
  P  P7  1  0.246219  0.597712  0.714996  1
  P  P8  1  0.245996  0.284958  0.882873  1
  Ru  Ru9  1  0.742732  0.114861  0.851561  1
  Ru  Ru10  1  0.743059  0.148226  0.262817  1
  Ru  Ru11  1  0.742798  0.737037  0.885170  1
  Ru  Ru12  1  0.257358  0.884967  0.148444  1
  Ru  Ru13  1  0.257081  0.851783  0.737008  1
  Ru  Ru14  1  0.257310  0.263138  0.114992  1
  Rh  Rh15  1  0.752859  0.617102  0.552263  1
  Rh  Rh16  1  0.752763  0.447880  0.064969  1
  Rh  Rh17  1  0.752812  0.935425  0.383055  1
  Rh  Rh18  1  0.247221  0.383442  0.446770  1
  Rh  Rh19  1  0.247328  0.553080  0.936514  1
  Rh  Rh20  1  0.247247  0.063063  0.616402  1
