# generated using pymatgen
data_Dy4Y2Al24Ir5Os3
_symmetry_space_group_name_H-M   'P 1'
_cell_length_a   8.84451717
_cell_length_b   8.84451727
_cell_length_c   9.51741900
_cell_angle_alpha   89.81688288
_cell_angle_beta   90.18311713
_cell_angle_gamma   120.11879849
_symmetry_Int_Tables_number   1
_chemical_formula_structural   Dy4Y2Al24Ir5Os3
_chemical_formula_sum   'Dy4 Y2 Al24 Ir5 Os3'
_cell_volume   643.98239455
_cell_formula_units_Z   1
loop_
 _symmetry_equiv_pos_site_id
 _symmetry_equiv_pos_as_xyz
  1  'x, y, z'
loop_
 _atom_site_type_symbol
 _atom_site_label
 _atom_site_symmetry_multiplicity
 _atom_site_fract_x
 _atom_site_fract_y
 _atom_site_fract_z
 _atom_site_occupancy
  Dy  Dy0  1  0.612857  0.804139  0.251648  1
  Dy  Dy1  1  0.387143  0.195861  0.748352  1
  Dy  Dy2  1  0.193325  0.806675  0.250210  1
  Dy  Dy3  1  0.806675  0.193325  0.749790  1
  Y  Y4  1  0.195861  0.387143  0.251648  1
  Y  Y5  1  0.804139  0.612857  0.748352  1
  Al  Al6  1  0.333248  0.666752  0.027508  1
  Al  Al7  1  0.666752  0.333248  0.972492  1
  Al  Al8  1  0.666197  0.333803  0.525369  1
  Al  Al9  1  0.333803  0.666197  0.474631  1
  Al  Al10  1  0.164360  0.327550  0.575047  1
  Al  Al11  1  0.835640  0.672450  0.424953  1
  Al  Al12  1  0.672450  0.835640  0.575047  1
  Al  Al13  1  0.836644  0.673121  0.074644  1
  Al  Al14  1  0.327550  0.164360  0.424953  1
  Al  Al15  1  0.163356  0.326879  0.925356  1
  Al  Al16  1  0.163112  0.836888  0.575680  1
  Al  Al17  1  0.326879  0.163356  0.074644  1
  Al  Al18  1  0.836888  0.163112  0.424320  1
  Al  Al19  1  0.673121  0.836644  0.925356  1
  Al  Al20  1  0.836972  0.163028  0.075817  1
  Al  Al21  1  0.163028  0.836972  0.924183  1
  Al  Al22  1  0.562447  0.124135  0.249584  1
  Al  Al23  1  0.437553  0.875865  0.750416  1
  Al  Al24  1  0.875865  0.437553  0.249584  1
  Al  Al25  1  0.124135  0.562447  0.750416  1
  Al  Al26  1  0.562800  0.437200  0.250425  1
  Al  Al27  1  0.437200  0.562800  0.749575  1
  Al  Al28  1  0.000612  0.999388  0.250041  1
  Al  Al29  1  0.999388  0.000612  0.749959  1
  Ir  Ir30  1  0.500000  0.000000  0.000000  1
  Ir  Ir31  1  0.000000  0.500000  0.000000  1
  Ir  Ir32  1  0.500000  0.000000  0.500000  1
  Ir  Ir33  1  0.500000  0.500000  0.000000  1
  Ir  Ir34  1  0.000000  0.500000  0.500000  1
  Os  Os35  1  0.500000  0.500000  0.500000  1
  Os  Os36  1  0.000000  0.000000  0.000000  1
  Os  Os37  1  0.000000  0.000000  0.500000  1
