# generated using pymatgen
data_SmYEr4(RuI3)2
_symmetry_space_group_name_H-M   'P 1'
_cell_length_a   4.21877600
_cell_length_b   8.90762821
_cell_length_c   12.33135015
_cell_angle_alpha   94.19270137
_cell_angle_beta   90.00000000
_cell_angle_gamma   90.00000000
_symmetry_Int_Tables_number   1
_chemical_formula_structural   SmYEr4(RuI3)2
_chemical_formula_sum   'Sm1 Y1 Er4 Ru2 I6'
_cell_volume   462.16319928
_cell_formula_units_Z   1
loop_
 _symmetry_equiv_pos_site_id
 _symmetry_equiv_pos_as_xyz
  1  'x, y, z'
loop_
 _atom_site_type_symbol
 _atom_site_label
 _atom_site_symmetry_multiplicity
 _atom_site_fract_x
 _atom_site_fract_y
 _atom_site_fract_z
 _atom_site_occupancy
  Sm  Sm0  1  0.750000  0.268589  0.603010  1
  Y  Y1  1  0.250000  0.738517  0.397072  1
  Er  Er2  1  0.750000  0.874112  0.625217  1
  Er  Er3  1  0.250000  0.125686  0.373017  1
  Er  Er4  1  0.750000  0.896406  0.187189  1
  Er  Er5  1  0.250000  0.099043  0.813636  1
  Ru  Ru6  1  0.750000  0.946063  0.407053  1
  Ru  Ru7  1  0.250000  0.055106  0.592494  1
  I  I8  1  0.750000  0.424571  0.364247  1
  I  I9  1  0.250000  0.581247  0.633742  1
  I  I10  1  0.750000  0.861422  0.890230  1
  I  I11  1  0.250000  0.133510  0.109189  1
  I  I12  1  0.750000  0.350505  0.867682  1
  I  I13  1  0.250000  0.645223  0.136223  1
