# generated using pymatgen
data_Dy3Lu5(CdIr)2
_symmetry_space_group_name_H-M   'P 1'
_cell_length_a   9.50305608
_cell_length_b   9.50305623
_cell_length_c   9.50305600
_cell_angle_alpha   60.00000079
_cell_angle_beta   60.00000027
_cell_angle_gamma   60.00000070
_symmetry_Int_Tables_number   1
_chemical_formula_structural   Dy3Lu5(CdIr)2
_chemical_formula_sum   'Dy6 Lu10 Cd4 Ir4'
_cell_volume   606.84096098
_cell_formula_units_Z   2
loop_
 _symmetry_equiv_pos_site_id
 _symmetry_equiv_pos_as_xyz
  1  'x, y, z'
loop_
 _atom_site_type_symbol
 _atom_site_label
 _atom_site_symmetry_multiplicity
 _atom_site_fract_x
 _atom_site_fract_y
 _atom_site_fract_z
 _atom_site_occupancy
  Dy  Dy0  1  0.188772  0.811228  0.811228  1
  Dy  Dy1  1  0.811228  0.188772  0.188772  1
  Dy  Dy2  1  0.811228  0.188772  0.811228  1
  Dy  Dy3  1  0.188772  0.811228  0.188772  1
  Dy  Dy4  1  0.811228  0.811228  0.188772  1
  Dy  Dy5  1  0.188772  0.188772  0.811228  1
  Lu  Lu6  1  0.598920  0.598920  0.598920  1
  Lu  Lu7  1  0.598920  0.598920  0.203240  1
  Lu  Lu8  1  0.598920  0.203240  0.598920  1
  Lu  Lu9  1  0.203240  0.598920  0.598920  1
  Lu  Lu10  1  0.061676  0.438324  0.438324  1
  Lu  Lu11  1  0.438324  0.061676  0.061676  1
  Lu  Lu12  1  0.438324  0.061676  0.438324  1
  Lu  Lu13  1  0.061676  0.438324  0.061676  1
  Lu  Lu14  1  0.438324  0.438324  0.061676  1
  Lu  Lu15  1  0.061676  0.061676  0.438324  1
  Cd  Cd16  1  0.830657  0.830657  0.830657  1
  Cd  Cd17  1  0.830657  0.830657  0.508029  1
  Cd  Cd18  1  0.830657  0.508029  0.830657  1
  Cd  Cd19  1  0.508029  0.830657  0.830657  1
  Ir  Ir20  1  0.391830  0.391830  0.391830  1
  Ir  Ir21  1  0.391830  0.391830  0.824509  1
  Ir  Ir22  1  0.391830  0.824509  0.391830  1
  Ir  Ir23  1  0.824509  0.391830  0.391830  1
