# generated using pymatgen
data_Sr5CrReN7
_symmetry_space_group_name_H-M   'P 1'
_cell_length_a   6.45318552
_cell_length_b   9.07281087
_cell_length_c   9.25364401
_cell_angle_alpha   114.20382117
_cell_angle_beta   97.36183344
_cell_angle_gamma   90.03897670
_symmetry_Int_Tables_number   1
_chemical_formula_structural   Sr5CrReN7
_chemical_formula_sum   'Sr10 Cr2 Re2 N14'
_cell_volume   489.23802119
_cell_formula_units_Z   2
loop_
 _symmetry_equiv_pos_site_id
 _symmetry_equiv_pos_as_xyz
  1  'x, y, z'
loop_
 _atom_site_type_symbol
 _atom_site_label
 _atom_site_symmetry_multiplicity
 _atom_site_fract_x
 _atom_site_fract_y
 _atom_site_fract_z
 _atom_site_occupancy
  Sr  Sr0  1  0.847312  0.584251  0.339786  1
  Sr  Sr1  1  0.270268  0.976602  0.560377  1
  Sr  Sr2  1  0.699965  0.410140  0.840722  1
  Sr  Sr3  1  0.300035  0.589860  0.159278  1
  Sr  Sr4  1  0.403627  0.787133  0.905851  1
  Sr  Sr5  1  0.596373  0.212867  0.094149  1
  Sr  Sr6  1  0.152688  0.415749  0.660214  1
  Sr  Sr7  1  0.884050  0.836087  0.752158  1
  Sr  Sr8  1  0.115950  0.163913  0.247842  1
  Sr  Sr9  1  0.729732  0.023398  0.439623  1
  Cr  Cr10  1  0.573161  0.366359  0.477714  1
  Cr  Cr11  1  0.426839  0.633641  0.522286  1
  Re  Re12  1  0.120043  0.217487  0.913823  1
  Re  Re13  1  0.879957  0.782513  0.086177  1
  N  N14  1  0.547857  0.553918  0.667611  1
  N  N15  1  0.452143  0.446082  0.332389  1
  N  N16  1  0.172457  0.694294  0.566962  1
  N  N17  1  0.827543  0.305706  0.433038  1
  N  N18  1  0.419435  0.204856  0.480440  1
  N  N19  1  0.580565  0.795144  0.519560  1
  N  N20  1  0.952190  0.138102  0.716594  1
  N  N21  1  0.047810  0.861898  0.283406  1
  N  N22  1  0.227226  0.050344  0.960488  1
  N  N23  1  0.772774  0.949656  0.039512  1
  N  N24  1  0.351437  0.332728  0.904328  1
  N  N25  1  0.972806  0.347343  0.075458  1
  N  N26  1  0.027194  0.652657  0.924542  1
  N  N27  1  0.648563  0.667272  0.095672  1
