# generated using pymatgen
data_SmDyEr2(WO6)2
_symmetry_space_group_name_H-M   'P 1'
_cell_length_a   5.41625100
_cell_length_b   7.72583293
_cell_length_c   11.47458014
_cell_angle_alpha   75.49942667
_cell_angle_beta   90.00000000
_cell_angle_gamma   90.00000000
_symmetry_Int_Tables_number   1
_chemical_formula_structural   SmDyEr2(WO6)2
_chemical_formula_sum   'Sm2 Dy2 Er4 W4 O24'
_cell_volume   464.85913013
_cell_formula_units_Z   2
loop_
 _symmetry_equiv_pos_site_id
 _symmetry_equiv_pos_as_xyz
  1  'x, y, z'
loop_
 _atom_site_type_symbol
 _atom_site_label
 _atom_site_symmetry_multiplicity
 _atom_site_fract_x
 _atom_site_fract_y
 _atom_site_fract_z
 _atom_site_occupancy
  Sm  Sm0  1  0.684168  0.500000  0.750000  1
  Sm  Sm1  1  0.315832  0.500000  0.250000  1
  Dy  Dy2  1  0.741658  0.000000  0.750000  1
  Dy  Dy3  1  0.258342  0.000000  0.250000  1
  Er  Er4  1  0.184367  0.795653  0.577635  1
  Er  Er5  1  0.815633  0.795653  0.077635  1
  Er  Er6  1  0.184367  0.204347  0.922365  1
  Er  Er7  1  0.815633  0.204347  0.422365  1
  W  W8  1  0.254632  0.726102  0.884881  1
  W  W9  1  0.745368  0.726102  0.384881  1
  W  W10  1  0.254632  0.273898  0.615119  1
  W  W11  1  0.745368  0.273898  0.115119  1
  O  O12  1  0.044356  0.941183  0.896501  1
  O  O13  1  0.535668  0.844994  0.931168  1
  O  O14  1  0.955644  0.941183  0.396501  1
  O  O15  1  0.455202  0.793534  0.726348  1
  O  O16  1  0.464332  0.844994  0.431168  1
  O  O17  1  0.983384  0.716526  0.770022  1
  O  O18  1  0.544798  0.793534  0.226348  1
  O  O19  1  0.852845  0.638695  0.547241  1
  O  O20  1  0.351974  0.491278  0.886735  1
  O  O21  1  0.016616  0.716526  0.270022  1
  O  O22  1  0.351974  0.508722  0.613265  1
  O  O23  1  0.852845  0.361305  0.952759  1
  O  O24  1  0.147155  0.638695  0.047241  1
  O  O25  1  0.648026  0.491278  0.386735  1
  O  O26  1  0.983384  0.283474  0.729978  1
  O  O27  1  0.648026  0.508722  0.113265  1
  O  O28  1  0.147155  0.361305  0.452759  1
  O  O29  1  0.455202  0.206466  0.773652  1
  O  O30  1  0.016616  0.283474  0.229978  1
  O  O31  1  0.535668  0.155006  0.568832  1
  O  O32  1  0.544798  0.206466  0.273652  1
  O  O33  1  0.044356  0.058817  0.603499  1
  O  O34  1  0.464332  0.155006  0.068832  1
  O  O35  1  0.955644  0.058817  0.103499  1
