# generated using pymatgen
data_Sc5Si12TcIr18
_symmetry_space_group_name_H-M   'P 1'
_cell_length_a   12.76528400
_cell_length_b   12.70642623
_cell_length_c   3.94566900
_cell_angle_alpha   90.00000000
_cell_angle_beta   90.00000000
_cell_angle_gamma   120.15335338
_symmetry_Int_Tables_number   1
_chemical_formula_structural   Sc5Si12TcIr18
_chemical_formula_sum   'Sc5 Si12 Tc1 Ir18'
_cell_volume   553.39087647
_cell_formula_units_Z   1
loop_
 _symmetry_equiv_pos_site_id
 _symmetry_equiv_pos_as_xyz
  1  'x, y, z'
loop_
 _atom_site_type_symbol
 _atom_site_label
 _atom_site_symmetry_multiplicity
 _atom_site_fract_x
 _atom_site_fract_y
 _atom_site_fract_z
 _atom_site_occupancy
  Sc  Sc0  1  0.334187  0.670209  0.000000  1
  Sc  Sc1  1  0.663979  0.329791  0.000000  1
  Sc  Sc2  1  0.814466  0.000000  0.500000  1
  Sc  Sc3  1  0.001572  0.816845  0.500000  1
  Sc  Sc4  1  0.184727  0.183155  0.500000  1
  Si  Si5  1  0.178545  0.000000  0.000000  1
  Si  Si6  1  0.000955  0.179907  0.000000  1
  Si  Si7  1  0.821049  0.820093  0.000000  1
  Si  Si8  1  0.170609  0.483126  0.500000  1
  Si  Si9  1  0.519857  0.688783  0.500000  1
  Si  Si10  1  0.314638  0.833308  0.500000  1
  Si  Si11  1  0.687483  0.516874  0.500000  1
  Si  Si12  1  0.831073  0.311217  0.500000  1
  Si  Si13  1  0.481328  0.166692  0.500000  1
  Si  Si14  1  0.630655  0.000000  0.000000  1
  Si  Si15  1  0.999277  0.633681  0.000000  1
  Si  Si16  1  0.365597  0.366319  0.000000  1
  Tc  Tc17  1  0.442498  0.000000  0.000000  1
  Ir  Ir18  1  0.999913  0.447135  0.000000  1
  Ir  Ir19  1  0.552778  0.552865  0.000000  1
  Ir  Ir20  1  0.361502  0.489364  0.500000  1
  Ir  Ir21  1  0.511898  0.872138  0.500000  1
  Ir  Ir22  1  0.128028  0.639532  0.500000  1
  Ir  Ir23  1  0.872138  0.510636  0.500000  1
  Ir  Ir24  1  0.639761  0.127862  0.500000  1
  Ir  Ir25  1  0.488495  0.360468  0.500000  1
  Ir  Ir26  1  0.183574  0.376841  0.000000  1
  Ir  Ir27  1  0.627032  0.808388  0.000000  1
  Ir  Ir28  1  0.192243  0.817193  0.000000  1
  Ir  Ir29  1  0.806733  0.623159  0.000000  1
  Ir  Ir30  1  0.818644  0.191612  0.000000  1
  Ir  Ir31  1  0.375050  0.182807  0.000000  1
  Ir  Ir32  1  0.278126  0.000000  0.500000  1
  Ir  Ir33  1  0.001422  0.281188  0.500000  1
  Ir  Ir34  1  0.720234  0.718812  0.500000  1
  Ir  Ir35  1  0.999933  0.000000  0.000000  1
