# generated using pymatgen
data_Ta6Al2Zn4N
_symmetry_space_group_name_H-M   'P 1'
_cell_length_a   8.19572024
_cell_length_b   8.18801934
_cell_length_c   8.19572000
_cell_angle_alpha   59.96888433
_cell_angle_beta   60.00000097
_cell_angle_gamma   59.96888867
_symmetry_Int_Tables_number   1
_chemical_formula_structural   Ta6Al2Zn4N
_chemical_formula_sum   'Ta12 Al4 Zn8 N2'
_cell_volume   388.71715092
_cell_formula_units_Z   2
loop_
 _symmetry_equiv_pos_site_id
 _symmetry_equiv_pos_as_xyz
  1  'x, y, z'
loop_
 _atom_site_type_symbol
 _atom_site_label
 _atom_site_symmetry_multiplicity
 _atom_site_fract_x
 _atom_site_fract_y
 _atom_site_fract_z
 _atom_site_occupancy
  Ta  Ta0  1  0.188653  0.811653  0.188653  1
  Ta  Ta1  1  0.438328  0.060850  0.438328  1
  Ta  Ta2  1  0.438328  0.060850  0.062494  1
  Ta  Ta3  1  0.438007  0.438973  0.061510  1
  Ta  Ta4  1  0.188653  0.811653  0.811041  1
  Ta  Ta5  1  0.061510  0.438973  0.061510  1
  Ta  Ta6  1  0.811041  0.811653  0.188653  1
  Ta  Ta7  1  0.061510  0.438973  0.438007  1
  Ta  Ta8  1  0.189788  0.188224  0.810994  1
  Ta  Ta9  1  0.810994  0.188224  0.189788  1
  Ta  Ta10  1  0.810994  0.188224  0.810994  1
  Ta  Ta11  1  0.062494  0.060850  0.438328  1
  Al  Al12  1  0.834238  0.497288  0.834238  1
  Al  Al13  1  0.414811  0.415687  0.754689  1
  Al  Al14  1  0.754689  0.415687  0.414811  1
  Al  Al15  1  0.414811  0.415687  0.414811  1
  Zn  Zn16  1  0.833851  0.833823  0.498476  1
  Zn  Zn17  1  0.416225  0.751324  0.416225  1
  Zn  Zn18  1  0.833851  0.833823  0.833851  1
  Zn  Zn19  1  0.498476  0.833823  0.833851  1
  Zn  Zn20  1  0.625864  0.122407  0.625864  1
  Zn  Zn21  1  0.624042  0.627981  0.123934  1
  Zn  Zn22  1  0.123934  0.627981  0.624042  1
  Zn  Zn23  1  0.624042  0.627981  0.624042  1
  N  N24  1  0.000462  0.998615  0.000462  1
  N  N25  1  0.250401  0.248796  0.250401  1
