# generated using pymatgen
data_Lu12Th4Mg4RuRh3
_symmetry_space_group_name_H-M   'P 1'
_cell_length_a   9.67934137
_cell_length_b   9.67934246
_cell_length_c   9.67934356
_cell_angle_alpha   59.44580490
_cell_angle_beta   59.44579859
_cell_angle_gamma   59.44580552
_symmetry_Int_Tables_number   1
_chemical_formula_structural   Lu12Th4Mg4RuRh3
_chemical_formula_sum   'Lu12 Th4 Mg4 Ru1 Rh3'
_cell_volume   633.15806934
_cell_formula_units_Z   1
loop_
 _symmetry_equiv_pos_site_id
 _symmetry_equiv_pos_as_xyz
  1  'x, y, z'
loop_
 _atom_site_type_symbol
 _atom_site_label
 _atom_site_symmetry_multiplicity
 _atom_site_fract_x
 _atom_site_fract_y
 _atom_site_fract_z
 _atom_site_occupancy
  Lu  Lu0  1  0.814226  0.186163  0.186163  1
  Lu  Lu1  1  0.183913  0.814672  0.814672  1
  Lu  Lu2  1  0.186163  0.814226  0.186163  1
  Lu  Lu3  1  0.814672  0.183913  0.814672  1
  Lu  Lu4  1  0.186163  0.186163  0.814226  1
  Lu  Lu5  1  0.814672  0.814672  0.183913  1
  Lu  Lu6  1  0.932955  0.568261  0.568261  1
  Lu  Lu7  1  0.566603  0.933001  0.933001  1
  Lu  Lu8  1  0.568261  0.932955  0.568261  1
  Lu  Lu9  1  0.933001  0.566603  0.933001  1
  Lu  Lu10  1  0.568261  0.568261  0.932955  1
  Lu  Lu11  1  0.933001  0.933001  0.566603  1
  Th  Th12  1  0.349194  0.349194  0.349194  1
  Th  Th13  1  0.348487  0.348487  0.953016  1
  Th  Th14  1  0.348487  0.953016  0.348487  1
  Th  Th15  1  0.953016  0.348487  0.348487  1
  Mg  Mg16  1  0.580753  0.580753  0.580753  1
  Mg  Mg17  1  0.579531  0.579531  0.255926  1
  Mg  Mg18  1  0.579531  0.255926  0.579531  1
  Mg  Mg19  1  0.255926  0.579531  0.579531  1
  Ru  Ru20  1  0.144466  0.144466  0.144466  1
  Rh  Rh21  1  0.142901  0.142901  0.572920  1
  Rh  Rh22  1  0.142901  0.572920  0.142901  1
  Rh  Rh23  1  0.572920  0.142901  0.142901  1
