# generated using pymatgen
data_HoEr2In3Ir2Au
_symmetry_space_group_name_H-M   'P 1'
_cell_length_a   7.68564301
_cell_length_b   7.68817989
_cell_length_c   3.85646100
_cell_angle_alpha   90.00000000
_cell_angle_beta   90.00000000
_cell_angle_gamma   119.99421812
_symmetry_Int_Tables_number   1
_chemical_formula_structural   HoEr2In3Ir2Au
_chemical_formula_sum   'Ho1 Er2 In3 Ir2 Au1'
_cell_volume   197.35522096
_cell_formula_units_Z   1
loop_
 _symmetry_equiv_pos_site_id
 _symmetry_equiv_pos_as_xyz
  1  'x, y, z'
loop_
 _atom_site_type_symbol
 _atom_site_label
 _atom_site_symmetry_multiplicity
 _atom_site_fract_x
 _atom_site_fract_y
 _atom_site_fract_z
 _atom_site_occupancy
  Ho  Ho0  1  0.611052  0.023010  0.500000  1
  Er  Er1  1  0.412029  0.388746  0.500000  1
  Er  Er2  1  0.976723  0.588013  0.500000  1
  In  In3  1  0.999129  0.258046  0.000000  1
  In  In4  1  0.742104  0.740898  0.000000  1
  In  In5  1  0.258855  0.001127  0.000000  1
  Ir  Ir6  1  0.666752  0.333813  0.000000  1
  Ir  Ir7  1  0.000263  0.999991  0.500000  1
  Au  Au8  1  0.333094  0.666356  0.000000  1
