# generated using pymatgen
data_Ba2SrLaTa4O14
_symmetry_space_group_name_H-M   'P 1'
_cell_length_a   4.03540647
_cell_length_b   7.92566081
_cell_length_c   11.18466706
_cell_angle_alpha   110.75111155
_cell_angle_beta   100.39300468
_cell_angle_gamma   90.00000257
_symmetry_Int_Tables_number   1
_chemical_formula_structural   Ba2SrLaTa4O14
_chemical_formula_sum   'Ba2 Sr1 La1 Ta4 O14'
_cell_volume   328.23247365
_cell_formula_units_Z   1
loop_
 _symmetry_equiv_pos_site_id
 _symmetry_equiv_pos_as_xyz
  1  'x, y, z'
loop_
 _atom_site_type_symbol
 _atom_site_label
 _atom_site_symmetry_multiplicity
 _atom_site_fract_x
 _atom_site_fract_y
 _atom_site_fract_z
 _atom_site_occupancy
  Ba  Ba0  1  0.739401  0.239399  0.478798  1
  Ba  Ba1  1  0.260600  0.760601  0.521202  1
  Sr  Sr2  1  0.500001  0.500001  0.000000  1
  La  La3  1  0.500001  0.000000  0.000000  1
  Ta  Ta4  1  0.102639  0.352047  0.205279  1
  Ta  Ta5  1  0.102639  0.853232  0.205279  1
  Ta  Ta6  1  0.897363  0.146768  0.794722  1
  Ta  Ta7  1  0.897363  0.647954  0.794722  1
  O  O8  1  0.000000  0.286211  0.000000  1
  O  O9  1  0.000000  0.713789  0.000000  1
  O  O10  1  0.074521  0.074521  0.149042  1
  O  O11  1  0.589748  0.334548  0.179494  1
  O  O12  1  0.589748  0.844945  0.179494  1
  O  O13  1  0.112989  0.612990  0.225979  1
  O  O14  1  0.192135  0.391262  0.384270  1
  O  O15  1  0.192135  0.993007  0.384270  1
  O  O16  1  0.807867  0.006992  0.615730  1
  O  O17  1  0.807867  0.608739  0.615730  1
  O  O18  1  0.887012  0.387011  0.774020  1
  O  O19  1  0.410253  0.155054  0.820505  1
  O  O20  1  0.410253  0.665452  0.820505  1
  O  O21  1  0.925480  0.925479  0.850957  1
