# generated using pymatgen
data_Dy2Ho8Si5Pb
_symmetry_space_group_name_H-M   'P 1'
_cell_length_a   8.50098821
_cell_length_b   8.53518125
_cell_length_c   6.38344000
_cell_angle_alpha   90.00000000
_cell_angle_beta   90.00000000
_cell_angle_gamma   119.89299560
_symmetry_Int_Tables_number   1
_chemical_formula_structural   Dy2Ho8Si5Pb
_chemical_formula_sum   'Dy2 Ho8 Si5 Pb1'
_cell_volume   401.54557263
_cell_formula_units_Z   1
loop_
 _symmetry_equiv_pos_site_id
 _symmetry_equiv_pos_as_xyz
  1  'x, y, z'
loop_
 _atom_site_type_symbol
 _atom_site_label
 _atom_site_symmetry_multiplicity
 _atom_site_fract_x
 _atom_site_fract_y
 _atom_site_fract_z
 _atom_site_occupancy
  Dy  Dy0  1  0.755803  0.757464  0.250000  1
  Dy  Dy1  1  0.240604  0.000062  0.250000  1
  Ho  Ho2  1  0.987472  0.746994  0.750000  1
  Ho  Ho3  1  0.998414  0.242797  0.250000  1
  Ho  Ho4  1  0.766924  0.000096  0.750000  1
  Ho  Ho5  1  0.240184  0.252861  0.750000  1
  Ho  Ho6  1  0.675193  0.343933  0.003869  1
  Ho  Ho7  1  0.331059  0.655928  0.496141  1
  Ho  Ho8  1  0.331059  0.655928  0.003859  1
  Ho  Ho9  1  0.675193  0.343933  0.496131  1
  Si  Si10  1  0.393483  0.392137  0.250000  1
  Si  Si11  1  0.001594  0.607499  0.250000  1
  Si  Si12  1  0.998394  0.394397  0.750000  1
  Si  Si13  1  0.604060  0.605704  0.750000  1
  Si  Si14  1  0.605932  0.000243  0.250000  1
  Pb  Pb15  1  0.394634  0.000021  0.750000  1
