# generated using pymatgen
data_Tl2Ru2OF10
_symmetry_space_group_name_H-M   'P 1'
_cell_length_a   5.25042600
_cell_length_b   7.42664787
_cell_length_c   13.79817700
_cell_angle_alpha   78.57879280
_cell_angle_beta   90.00000000
_cell_angle_gamma   90.00000000
_symmetry_Int_Tables_number   1
_chemical_formula_structural   Tl2Ru2OF10
_chemical_formula_sum   'Tl4 Ru4 O2 F20'
_cell_volume   527.37905173
_cell_formula_units_Z   2
loop_
 _symmetry_equiv_pos_site_id
 _symmetry_equiv_pos_as_xyz
  1  'x, y, z'
loop_
 _atom_site_type_symbol
 _atom_site_label
 _atom_site_symmetry_multiplicity
 _atom_site_fract_x
 _atom_site_fract_y
 _atom_site_fract_z
 _atom_site_occupancy
  Tl  Tl0  1  0.439559  0.216592  0.595098  1
  Tl  Tl1  1  0.560441  0.216592  0.095098  1
  Tl  Tl2  1  0.560441  0.783408  0.404902  1
  Tl  Tl3  1  0.439559  0.783408  0.904902  1
  Ru  Ru4  1  0.023706  0.291944  0.335744  1
  Ru  Ru5  1  0.976294  0.291944  0.835744  1
  Ru  Ru6  1  0.023706  0.708056  0.164256  1
  Ru  Ru7  1  0.976294  0.708056  0.664256  1
  O  O8  1  0.062795  0.500000  0.750000  1
  O  O9  1  0.937205  0.500000  0.250000  1
  F  F10  1  0.727834  0.846988  0.187123  1
  F  F11  1  0.673291  0.588337  0.631107  1
  F  F12  1  0.184955  0.797051  0.271036  1
  F  F13  1  0.839814  0.077765  0.921109  1
  F  F14  1  0.326709  0.411663  0.368893  1
  F  F15  1  0.160186  0.922235  0.078891  1
  F  F16  1  0.184955  0.202949  0.228964  1
  F  F17  1  0.272166  0.846988  0.687123  1
  F  F18  1  0.815045  0.202949  0.728964  1
  F  F19  1  0.673291  0.411663  0.868893  1
  F  F20  1  0.160186  0.077765  0.421109  1
  F  F21  1  0.142670  0.355381  0.948223  1
  F  F22  1  0.272166  0.153012  0.812877  1
  F  F23  1  0.857330  0.644619  0.051777  1
  F  F24  1  0.815045  0.797051  0.771036  1
  F  F25  1  0.727834  0.153012  0.312877  1
  F  F26  1  0.839814  0.922235  0.578891  1
  F  F27  1  0.857330  0.355381  0.448223  1
  F  F28  1  0.326709  0.588337  0.131107  1
  F  F29  1  0.142670  0.644619  0.551777  1
