# generated using pymatgen
data_Pr3GaPRu2
_symmetry_space_group_name_H-M   'P 1'
_cell_length_a   5.69890800
_cell_length_b   8.03873500
_cell_length_c   13.56628500
_cell_angle_alpha   90.00000000
_cell_angle_beta   90.00000000
_cell_angle_gamma   90.00000000
_symmetry_Int_Tables_number   1
_chemical_formula_structural   Pr3GaPRu2
_chemical_formula_sum   'Pr12 Ga4 P4 Ru8'
_cell_volume   621.49880038
_cell_formula_units_Z   4
loop_
 _symmetry_equiv_pos_site_id
 _symmetry_equiv_pos_as_xyz
  1  'x, y, z'
loop_
 _atom_site_type_symbol
 _atom_site_label
 _atom_site_symmetry_multiplicity
 _atom_site_fract_x
 _atom_site_fract_y
 _atom_site_fract_z
 _atom_site_occupancy
  Pr  Pr0  1  0.150285  0.901831  0.601692  1
  Pr  Pr1  1  0.849715  0.098169  0.101692  1
  Pr  Pr2  1  0.150285  0.598169  0.398308  1
  Pr  Pr3  1  0.849715  0.401831  0.898308  1
  Pr  Pr4  1  0.849715  0.098169  0.398308  1
  Pr  Pr5  1  0.150285  0.901831  0.898308  1
  Pr  Pr6  1  0.849715  0.401831  0.601692  1
  Pr  Pr7  1  0.150285  0.598169  0.101692  1
  Pr  Pr8  1  0.360597  0.258553  0.750000  1
  Pr  Pr9  1  0.639403  0.741447  0.250000  1
  Pr  Pr10  1  0.360597  0.241447  0.250000  1
  Pr  Pr11  1  0.639403  0.758553  0.750000  1
  Ga  Ga12  1  0.381706  0.250000  0.500000  1
  Ga  Ga13  1  0.618294  0.750000  0.000000  1
  Ga  Ga14  1  0.618294  0.750000  0.500000  1
  Ga  Ga15  1  0.381706  0.250000  0.000000  1
  P  P16  1  0.852784  0.111938  0.750000  1
  P  P17  1  0.147216  0.888062  0.250000  1
  P  P18  1  0.852784  0.388062  0.250000  1
  P  P19  1  0.147216  0.611938  0.750000  1
  Ru  Ru20  1  0.647508  0.031374  0.595349  1
  Ru  Ru21  1  0.352492  0.968626  0.095349  1
  Ru  Ru22  1  0.647508  0.468626  0.404651  1
  Ru  Ru23  1  0.352492  0.531374  0.904651  1
  Ru  Ru24  1  0.352492  0.968626  0.404651  1
  Ru  Ru25  1  0.647508  0.031374  0.904651  1
  Ru  Ru26  1  0.352492  0.531374  0.595349  1
  Ru  Ru27  1  0.647508  0.468626  0.095349  1
