# generated using pymatgen
data_Nd4CoHg
_symmetry_space_group_name_H-M   'P 1'
_cell_length_a   9.80214648
_cell_length_b   9.80214630
_cell_length_c   9.80214500
_cell_angle_alpha   60.00000102
_cell_angle_beta   60.00000161
_cell_angle_gamma   60.00000048
_symmetry_Int_Tables_number   1
_chemical_formula_structural   Nd4CoHg
_chemical_formula_sum   'Nd16 Co4 Hg4'
_cell_volume   665.96055017
_cell_formula_units_Z   4
loop_
 _symmetry_equiv_pos_site_id
 _symmetry_equiv_pos_as_xyz
  1  'x, y, z'
loop_
 _atom_site_type_symbol
 _atom_site_label
 _atom_site_symmetry_multiplicity
 _atom_site_fract_x
 _atom_site_fract_y
 _atom_site_fract_z
 _atom_site_occupancy
  Nd  Nd0  1  0.939717  0.939717  0.560283  1
  Nd  Nd1  1  0.560283  0.939717  0.560283  1
  Nd  Nd2  1  0.560283  0.939717  0.939717  1
  Nd  Nd3  1  0.690041  0.690041  0.309959  1
  Nd  Nd4  1  0.152257  0.152257  0.543227  1
  Nd  Nd5  1  0.309959  0.690041  0.690041  1
  Nd  Nd6  1  0.152257  0.152257  0.152257  1
  Nd  Nd7  1  0.543227  0.152257  0.152257  1
  Nd  Nd8  1  0.309959  0.690041  0.309959  1
  Nd  Nd9  1  0.309959  0.309959  0.690041  1
  Nd  Nd10  1  0.690041  0.309959  0.690041  1
  Nd  Nd11  1  0.939717  0.560283  0.560283  1
  Nd  Nd12  1  0.560283  0.560283  0.939717  1
  Nd  Nd13  1  0.152257  0.543227  0.152257  1
  Nd  Nd14  1  0.690041  0.309959  0.309959  1
  Nd  Nd15  1  0.939717  0.560283  0.939717  1
  Co  Co16  1  0.922046  0.359318  0.359318  1
  Co  Co17  1  0.359318  0.359318  0.922046  1
  Co  Co18  1  0.359318  0.922046  0.359318  1
  Co  Co19  1  0.359318  0.359318  0.359318  1
  Hg  Hg20  1  0.249314  0.916895  0.916895  1
  Hg  Hg21  1  0.916895  0.916895  0.916895  1
  Hg  Hg22  1  0.916895  0.916895  0.249314  1
  Hg  Hg23  1  0.916895  0.249314  0.916895  1
