# generated using pymatgen
data_Hf6Zn19SiPd4
_symmetry_space_group_name_H-M   'P 1'
_cell_length_a   8.76021855
_cell_length_b   8.76021869
_cell_length_c   8.75556839
_cell_angle_alpha   59.96462137
_cell_angle_beta   59.96461976
_cell_angle_gamma   59.42727654
_symmetry_Int_Tables_number   1
_chemical_formula_structural   Hf6Zn19SiPd4
_chemical_formula_sum   'Hf6 Zn19 Si1 Pd4'
_cell_volume   472.77409646
_cell_formula_units_Z   1
loop_
 _symmetry_equiv_pos_site_id
 _symmetry_equiv_pos_as_xyz
  1  'x, y, z'
loop_
 _atom_site_type_symbol
 _atom_site_label
 _atom_site_symmetry_multiplicity
 _atom_site_fract_x
 _atom_site_fract_y
 _atom_site_fract_z
 _atom_site_occupancy
  Hf  Hf0  1  0.713886  0.293305  0.289517  1
  Hf  Hf1  1  0.278939  0.722292  0.708912  1
  Hf  Hf2  1  0.293305  0.713886  0.289517  1
  Hf  Hf3  1  0.722292  0.278939  0.708912  1
  Hf  Hf4  1  0.286294  0.286294  0.713341  1
  Hf  Hf5  1  0.708024  0.708024  0.286482  1
  Zn  Zn6  1  0.121971  0.634341  0.119468  1
  Zn  Zn7  1  0.881303  0.881303  0.361666  1
  Zn  Zn8  1  0.878933  0.362649  0.879029  1
  Zn  Zn9  1  0.634341  0.121971  0.119468  1
  Zn  Zn10  1  0.362649  0.878933  0.879029  1
  Zn  Zn11  1  0.497649  0.999790  0.001243  1
  Zn  Zn12  1  0.998067  0.506367  0.496814  1
  Zn  Zn13  1  0.999790  0.497649  0.001243  1
  Zn  Zn14  1  0.506367  0.998067  0.496814  1
  Zn  Zn15  1  0.999422  0.999422  0.500391  1
  Zn  Zn16  1  0.334575  0.334575  0.340919  1
  Zn  Zn17  1  0.660387  0.660387  0.662476  1
  Zn  Zn18  1  0.336811  0.336811  0.986799  1
  Zn  Zn19  1  0.330408  0.001594  0.334437  1
  Zn  Zn20  1  0.667813  0.667813  0.999922  1
  Zn  Zn21  1  0.666618  0.005001  0.665919  1
  Zn  Zn22  1  0.001594  0.330408  0.334437  1
  Zn  Zn23  1  0.005001  0.666618  0.665919  1
  Zn  Zn24  1  0.997684  0.997684  0.002401  1
  Si  Si25  1  0.497340  0.497340  0.508867  1
  Pd  Pd26  1  0.118550  0.118550  0.117010  1
  Pd  Pd27  1  0.878176  0.878176  0.885314  1
  Pd  Pd28  1  0.122692  0.122692  0.641172  1
  Pd  Pd29  1  0.499120  0.499120  0.002561  1
