# generated using pymatgen
data_Y2HoCo2P6Ru7
_symmetry_space_group_name_H-M   'P 1'
_cell_length_a   3.87279900
_cell_length_b   10.88026300
_cell_length_c   12.67696900
_cell_angle_alpha   90.00000000
_cell_angle_beta   90.00000000
_cell_angle_gamma   90.00000000
_symmetry_Int_Tables_number   1
_chemical_formula_structural   Y2HoCo2P6Ru7
_chemical_formula_sum   'Y4 Ho2 Co4 P12 Ru14'
_cell_volume   534.17035126
_cell_formula_units_Z   2
loop_
 _symmetry_equiv_pos_site_id
 _symmetry_equiv_pos_as_xyz
  1  'x, y, z'
loop_
 _atom_site_type_symbol
 _atom_site_label
 _atom_site_symmetry_multiplicity
 _atom_site_fract_x
 _atom_site_fract_y
 _atom_site_fract_z
 _atom_site_occupancy
  Y  Y0  1  0.000000  0.500000  0.526029  1
  Y  Y1  1  0.500000  0.000000  0.473391  1
  Y  Y2  1  0.000000  0.681163  0.797677  1
  Y  Y3  1  0.000000  0.318837  0.797677  1
  Ho  Ho4  1  0.500000  0.821781  0.202961  1
  Ho  Ho5  1  0.500000  0.178219  0.202961  1
  Co  Co6  1  0.000000  0.500000  0.988703  1
  Co  Co7  1  0.500000  0.000000  0.012851  1
  Co  Co8  1  0.000000  0.162293  0.010246  1
  Co  Co9  1  0.000000  0.837707  0.010246  1
  P  P10  1  0.500000  0.306259  0.616552  1
  P  P11  1  0.500000  0.693741  0.616552  1
  P  P12  1  0.000000  0.193504  0.383751  1
  P  P13  1  0.000000  0.806496  0.383751  1
  P  P14  1  0.500000  0.500000  0.886477  1
  P  P15  1  0.000000  0.000000  0.112720  1
  P  P16  1  0.500000  0.852065  0.896017  1
  P  P17  1  0.500000  0.147935  0.896017  1
  P  P18  1  0.000000  0.656040  0.101562  1
  P  P19  1  0.000000  0.343960  0.101562  1
  P  P20  1  0.500000  0.500000  0.336632  1
  P  P21  1  0.000000  0.000000  0.662488  1
  Ru  Ru22  1  0.500000  0.299972  0.429119  1
  Ru  Ru23  1  0.500000  0.700028  0.429119  1
  Ru  Ru24  1  0.000000  0.199666  0.570957  1
  Ru  Ru25  1  0.000000  0.800334  0.570957  1
  Ru  Ru26  1  0.500000  0.877806  0.715557  1
  Ru  Ru27  1  0.500000  0.122194  0.715557  1
  Ru  Ru28  1  0.000000  0.624066  0.282445  1
  Ru  Ru29  1  0.000000  0.375934  0.282445  1
  Ru  Ru30  1  0.500000  0.326820  0.992745  1
  Ru  Ru31  1  0.500000  0.673180  0.992745  1
  Ru  Ru32  1  0.500000  0.500000  0.152297  1
  Ru  Ru33  1  0.000000  0.000000  0.850999  1
  Ru  Ru34  1  0.500000  0.500000  0.700322  1
  Ru  Ru35  1  0.000000  0.000000  0.297910  1
