# generated using pymatgen
data_Er12Co3Cu2Sn
_symmetry_space_group_name_H-M   'P 1'
_cell_length_a   8.23227779
_cell_length_b   8.23227719
_cell_length_c   8.23227700
_cell_angle_alpha   109.64610530
_cell_angle_beta   111.64243001
_cell_angle_gamma   107.15618622
_symmetry_Int_Tables_number   1
_chemical_formula_structural   Er12Co3Cu2Sn
_chemical_formula_sum   'Er12 Co3 Cu2 Sn1'
_cell_volume   428.81602595
_cell_formula_units_Z   1
loop_
 _symmetry_equiv_pos_site_id
 _symmetry_equiv_pos_as_xyz
  1  'x, y, z'
loop_
 _atom_site_type_symbol
 _atom_site_label
 _atom_site_symmetry_multiplicity
 _atom_site_fract_x
 _atom_site_fract_y
 _atom_site_fract_z
 _atom_site_occupancy
  Er  Er0  1  0.290563  0.179539  0.470102  1
  Er  Er1  1  0.714604  0.816025  0.530629  1
  Er  Er2  1  0.285396  0.816025  0.101422  1
  Er  Er3  1  0.709437  0.179539  0.888978  1
  Er  Er4  1  0.624284  0.320908  0.311727  1
  Er  Er5  1  0.375716  0.687441  0.696622  1
  Er  Er6  1  0.009181  0.320908  0.696622  1
  Er  Er7  1  0.990819  0.687441  0.311727  1
  Er  Er8  1  0.226463  0.421912  0.195450  1
  Er  Er9  1  0.780806  0.585026  0.804219  1
  Er  Er10  1  0.219194  0.023413  0.804219  1
  Er  Er11  1  0.773537  0.968987  0.195450  1
  Co  Co12  1  0.000000  0.639058  0.639058  1
  Co  Co13  1  0.384896  0.881203  0.496307  1
  Co  Co14  1  0.615104  0.111411  0.496307  1
  Cu  Cu15  1  0.000000  0.362531  0.362531  1
  Cu  Cu16  1  0.000000  0.001674  0.001674  1
  Sn  Sn17  1  0.500000  0.496957  0.996957  1
