# generated using pymatgen
data_Gd9Tm10LuPb16
_symmetry_space_group_name_H-M   'P 1'
_cell_length_a   8.17220226
_cell_length_b   8.24960748
_cell_length_c   15.56683300
_cell_angle_alpha   90.05116584
_cell_angle_beta   90.05114567
_cell_angle_gamma   90.30141519
_symmetry_Int_Tables_number   1
_chemical_formula_structural   Gd9Tm10LuPb16
_chemical_formula_sum   'Gd9 Tm10 Lu1 Pb16'
_cell_volume   1049.46099109
_cell_formula_units_Z   1
loop_
 _symmetry_equiv_pos_site_id
 _symmetry_equiv_pos_as_xyz
  1  'x, y, z'
loop_
 _atom_site_type_symbol
 _atom_site_label
 _atom_site_symmetry_multiplicity
 _atom_site_fract_x
 _atom_site_fract_y
 _atom_site_fract_z
 _atom_site_occupancy
  Gd  Gd0  1  0.873121  0.657758  0.879385  1
  Gd  Gd1  1  0.532586  0.321765  0.902311  1
  Gd  Gd2  1  0.031670  0.177859  0.596844  1
  Gd  Gd3  1  0.468945  0.678636  0.403000  1
  Gd  Gd4  1  0.967347  0.823330  0.099107  1
  Gd  Gd5  1  0.469172  0.678217  0.097384  1
  Gd  Gd6  1  0.968730  0.822190  0.402268  1
  Gd  Gd7  1  0.530442  0.321309  0.596821  1
  Gd  Gd8  1  0.032187  0.177176  0.902015  1
  Tm  Tm9  1  0.370981  0.842869  0.877658  1
  Tm  Tm10  1  0.871630  0.656838  0.621876  1
  Tm  Tm11  1  0.628644  0.156699  0.378193  1
  Tm  Tm12  1  0.127657  0.343307  0.121457  1
  Tm  Tm13  1  0.627120  0.157155  0.122916  1
  Tm  Tm14  1  0.127821  0.342718  0.378168  1
  Tm  Tm15  1  0.371701  0.843427  0.621314  1
  Tm  Tm16  1  0.704561  0.995427  0.749600  1
  Tm  Tm17  1  0.794992  0.494616  0.250716  1
  Tm  Tm18  1  0.294830  0.004813  0.250034  1
  Lu  Lu19  1  0.205185  0.504978  0.749405  1
  Pb  Pb20  1  0.286510  0.036996  0.043366  1
  Pb  Pb21  1  0.787585  0.462523  0.456698  1
  Pb  Pb22  1  0.712738  0.961599  0.542998  1
  Pb  Pb23  1  0.217293  0.534981  0.956122  1
  Pb  Pb24  1  0.710176  0.965687  0.957148  1
  Pb  Pb25  1  0.211879  0.537135  0.543654  1
  Pb  Pb26  1  0.287638  0.038472  0.456686  1
  Pb  Pb27  1  0.786936  0.461724  0.045701  1
  Pb  Pb28  1  0.565224  0.626955  0.748873  1
  Pb  Pb29  1  0.067891  0.874124  0.748776  1
  Pb  Pb30  1  0.432687  0.373129  0.250291  1
  Pb  Pb31  1  0.933297  0.126831  0.250075  1
  Pb  Pb32  1  0.343543  0.153702  0.749663  1
  Pb  Pb33  1  0.843941  0.345815  0.749056  1
  Pb  Pb34  1  0.656467  0.846321  0.250252  1
  Pb  Pb35  1  0.156878  0.652923  0.250167  1
