# generated using pymatgen
data_Er3Hf5(Si4Ru3)4
_symmetry_space_group_name_H-M   'P 1'
_cell_length_a   9.99291632
_cell_length_b   9.99538295
_cell_length_c   13.46089778
_cell_angle_alpha   53.63096764
_cell_angle_beta   53.55082421
_cell_angle_gamma   31.19645502
_symmetry_Int_Tables_number   1
_chemical_formula_structural   Er3Hf5(Si4Ru3)4
_chemical_formula_sum   'Er3 Hf5 Si16 Ru12'
_cell_volume   548.47142357
_cell_formula_units_Z   1
loop_
 _symmetry_equiv_pos_site_id
 _symmetry_equiv_pos_as_xyz
  1  'x, y, z'
loop_
 _atom_site_type_symbol
 _atom_site_label
 _atom_site_symmetry_multiplicity
 _atom_site_fract_x
 _atom_site_fract_y
 _atom_site_fract_z
 _atom_site_occupancy
  Er  Er0  1  0.295365  0.560643  0.644945  1
  Er  Er1  1  0.441183  0.700898  0.857103  1
  Er  Er2  1  0.704106  0.440130  0.353662  1
  Hf  Hf3  1  0.557610  0.288420  0.152135  1
  Hf  Hf4  1  0.040086  0.294730  0.634915  1
  Hf  Hf5  1  0.703955  0.961724  0.865089  1
  Hf  Hf6  1  0.962337  0.704730  0.363381  1
  Hf  Hf7  1  0.295160  0.039375  0.135542  1
  Si  Si8  1  0.875039  0.122970  0.248843  1
  Si  Si9  1  0.119550  0.880815  0.750716  1
  Si  Si10  1  0.379170  0.618129  0.248223  1
  Si  Si11  1  0.623765  0.377178  0.749479  1
  Si  Si12  1  0.976863  0.253900  0.891472  1
  Si  Si13  1  0.748334  0.022144  0.608330  1
  Si  Si14  1  0.026355  0.746729  0.107904  1
  Si  Si15  1  0.251623  0.978587  0.390033  1
  Si  Si16  1  0.572734  0.084264  0.065739  1
  Si  Si17  1  0.915826  0.428859  0.434818  1
  Si  Si18  1  0.427417  0.918644  0.933996  1
  Si  Si19  1  0.083869  0.571135  0.565010  1
  Si  Si20  1  0.387244  0.142270  0.397510  1
  Si  Si21  1  0.858183  0.613899  0.102023  1
  Si  Si22  1  0.614522  0.856489  0.602328  1
  Si  Si23  1  0.142465  0.387036  0.897529  1
  Ru  Ru24  1  0.648537  0.832913  0.281015  1
  Ru  Ru25  1  0.171166  0.353826  0.217328  1
  Ru  Ru26  1  0.758355  0.484216  0.069725  1
  Ru  Ru27  1  0.832682  0.648701  0.782033  1
  Ru  Ru28  1  0.902234  0.140353  0.585719  1
  Ru  Ru29  1  0.853689  0.103847  0.916627  1
  Ru  Ru30  1  0.099641  0.857760  0.411826  1
  Ru  Ru31  1  0.139166  0.902512  0.085060  1
  Ru  Ru32  1  0.239719  0.516032  0.930352  1
  Ru  Ru33  1  0.484048  0.760158  0.570803  1
  Ru  Ru34  1  0.515875  0.238800  0.430954  1
  Ru  Ru35  1  0.352128  0.167182  0.717832  1
