# generated using pymatgen
data_TbY3B16MoW3
_symmetry_space_group_name_H-M   'P 1'
_cell_length_a   3.63119600
_cell_length_b   6.04848000
_cell_length_c   11.68581115
_cell_angle_alpha   90.01107324
_cell_angle_beta   90.00000000
_cell_angle_gamma   90.00000000
_symmetry_Int_Tables_number   1
_chemical_formula_structural   TbY3B16MoW3
_chemical_formula_sum   'Tb1 Y3 B16 Mo1 W3'
_cell_volume   256.65799416
_cell_formula_units_Z   1
loop_
 _symmetry_equiv_pos_site_id
 _symmetry_equiv_pos_as_xyz
  1  'x, y, z'
loop_
 _atom_site_type_symbol
 _atom_site_label
 _atom_site_symmetry_multiplicity
 _atom_site_fract_x
 _atom_site_fract_y
 _atom_site_fract_z
 _atom_site_occupancy
  Tb  Tb0  1  0.000000  0.127078  0.149656  1
  Y  Y1  1  0.000000  0.873265  0.850283  1
  Y  Y2  1  0.000000  0.626824  0.350344  1
  Y  Y3  1  0.000000  0.373073  0.649899  1
  B  B4  1  0.500000  0.023945  0.693390  1
  B  B5  1  0.500000  0.976394  0.306827  1
  B  B6  1  0.500000  0.523269  0.806753  1
  B  B7  1  0.500000  0.476056  0.193319  1
  B  B8  1  0.500000  0.113841  0.547312  1
  B  B9  1  0.500000  0.886343  0.452605  1
  B  B10  1  0.500000  0.613514  0.952430  1
  B  B11  1  0.500000  0.386050  0.047157  1
  B  B12  1  0.500000  0.286892  0.313787  1
  B  B13  1  0.500000  0.712839  0.686450  1
  B  B14  1  0.500000  0.786937  0.186328  1
  B  B15  1  0.500000  0.213633  0.814017  1
  B  B16  1  0.500000  0.366267  0.468072  1
  B  B17  1  0.500000  0.633594  0.531900  1
  B  B18  1  0.500000  0.866624  0.031734  1
  B  B19  1  0.500000  0.133894  0.967895  1
  Mo  Mo20  1  0.000000  0.369721  0.916027  1
  W  W21  1  0.000000  0.130630  0.415540  1
  W  W22  1  0.000000  0.869298  0.584350  1
  W  W23  1  0.000000  0.630018  0.083924  1
