# generated using pymatgen
data_Tm12TlCo4Pt
_symmetry_space_group_name_H-M   'P 1'
_cell_length_a   8.18730914
_cell_length_b   8.18730934
_cell_length_c   8.18731000
_cell_angle_alpha   111.03083980
_cell_angle_beta   110.66650481
_cell_angle_gamma   106.75032244
_symmetry_Int_Tables_number   1
_chemical_formula_structural   Tm12TlCo4Pt
_chemical_formula_sum   'Tm12 Tl1 Co4 Pt1'
_cell_volume   421.76093410
_cell_formula_units_Z   1
loop_
 _symmetry_equiv_pos_site_id
 _symmetry_equiv_pos_as_xyz
  1  'x, y, z'
loop_
 _atom_site_type_symbol
 _atom_site_label
 _atom_site_symmetry_multiplicity
 _atom_site_fract_x
 _atom_site_fract_y
 _atom_site_fract_z
 _atom_site_occupancy
  Tm  Tm0  1  0.417458  0.218905  0.198553  1
  Tm  Tm1  1  0.582542  0.781095  0.801447  1
  Tm  Tm2  1  0.020350  0.218905  0.801447  1
  Tm  Tm3  1  0.979650  0.781095  0.198553  1
  Tm  Tm4  1  0.185262  0.288376  0.473638  1
  Tm  Tm5  1  0.814738  0.711624  0.526362  1
  Tm  Tm6  1  0.185262  0.711624  0.896887  1
  Tm  Tm7  1  0.814738  0.288376  0.103113  1
  Tm  Tm8  1  0.315465  0.620367  0.304903  1
  Tm  Tm9  1  0.684535  0.379633  0.695097  1
  Tm  Tm10  1  0.315465  0.010561  0.695097  1
  Tm  Tm11  1  0.684535  0.989439  0.304903  1
  Tl  Tl12  1  0.500000  0.500000  0.000000  1
  Co  Co13  1  0.377095  0.000000  0.377095  1
  Co  Co14  1  0.622905  0.000000  0.622905  1
  Co  Co15  1  0.112756  0.612756  0.500000  1
  Co  Co16  1  0.887244  0.387244  0.500000  1
  Pt  Pt17  1  0.000000  0.000000  0.000000  1
