# generated using pymatgen
data_Dy3Sc3Sb2Os
_symmetry_space_group_name_H-M   'P 1'
_cell_length_a   7.85162200
_cell_length_b   7.85162240
_cell_length_c   4.19765100
_cell_angle_alpha   90.00000000
_cell_angle_beta   90.00000000
_cell_angle_gamma   120.00000673
_symmetry_Int_Tables_number   1
_chemical_formula_structural   Dy3Sc3Sb2Os
_chemical_formula_sum   'Dy3 Sc3 Sb2 Os1'
_cell_volume   224.10715311
_cell_formula_units_Z   1
loop_
 _symmetry_equiv_pos_site_id
 _symmetry_equiv_pos_as_xyz
  1  'x, y, z'
loop_
 _atom_site_type_symbol
 _atom_site_label
 _atom_site_symmetry_multiplicity
 _atom_site_fract_x
 _atom_site_fract_y
 _atom_site_fract_z
 _atom_site_occupancy
  Dy  Dy0  1  0.607207  0.000000  0.500000  1
  Dy  Dy1  1  0.392793  0.392793  0.500000  1
  Dy  Dy2  1  0.000000  0.607207  0.500000  1
  Sc  Sc3  1  0.227377  0.000000  0.000000  1
  Sc  Sc4  1  0.772623  0.772623  0.000000  1
  Sc  Sc5  1  0.000000  0.227377  0.000000  1
  Sb  Sb6  1  0.333333  0.666667  0.000000  1
  Sb  Sb7  1  0.666667  0.333333  0.000000  1
  Os  Os8  1  0.000000  0.000000  0.500000  1
