# generated using pymatgen
data_Tb3U2P12Ru19
_symmetry_space_group_name_H-M   'P 1'
_cell_length_a   12.57942035
_cell_length_b   12.61328562
_cell_length_c   3.94192000
_cell_angle_alpha   90.00000000
_cell_angle_beta   90.00000000
_cell_angle_gamma   120.08909503
_symmetry_Int_Tables_number   1
_chemical_formula_structural   Tb3U2P12Ru19
_chemical_formula_sum   'Tb3 U2 P12 Ru19'
_cell_volume   541.17371677
_cell_formula_units_Z   1
loop_
 _symmetry_equiv_pos_site_id
 _symmetry_equiv_pos_as_xyz
  1  'x, y, z'
loop_
 _atom_site_type_symbol
 _atom_site_label
 _atom_site_symmetry_multiplicity
 _atom_site_fract_x
 _atom_site_fract_y
 _atom_site_fract_z
 _atom_site_occupancy
  Tb  Tb0  1  0.000000  0.189840  0.500000  1
  Tb  Tb1  1  0.664793  0.333658  0.000000  1
  Tb  Tb2  1  0.335207  0.668866  0.000000  1
  U  U3  1  0.815016  0.817221  0.500000  1
  U  U4  1  0.184984  0.002205  0.500000  1
  P  P5  1  0.000000  0.815137  0.000000  1
  P  P6  1  0.179821  0.185348  0.000000  1
  P  P7  1  0.820179  0.005527  0.000000  1
  P  P8  1  0.692530  0.171533  0.500000  1
  P  P9  1  0.829482  0.520595  0.500000  1
  P  P10  1  0.478632  0.306789  0.500000  1
  P  P11  1  0.170518  0.691113  0.500000  1
  P  P12  1  0.521368  0.828157  0.500000  1
  P  P13  1  0.307470  0.479004  0.500000  1
  P  P14  1  0.000000  0.374028  0.000000  1
  P  P15  1  0.626075  0.624798  0.000000  1
  P  P16  1  0.373925  0.998724  0.000000  1
  Ru  Ru17  1  0.000000  0.556745  0.000000  1
  Ru  Ru18  1  0.446151  0.441573  0.000000  1
  Ru  Ru19  1  0.553849  0.995422  0.000000  1
  Ru  Ru20  1  0.000000  0.718069  0.500000  1
  Ru  Ru21  1  0.282938  0.280975  0.500000  1
  Ru  Ru22  1  0.717062  0.998037  0.500000  1
  Ru  Ru23  1  0.805467  0.184068  0.000000  1
  Ru  Ru24  1  0.816565  0.629925  0.000000  1
  Ru  Ru25  1  0.367002  0.183592  0.000000  1
  Ru  Ru26  1  0.183435  0.813361  0.000000  1
  Ru  Ru27  1  0.632998  0.816590  0.000000  1
  Ru  Ru28  1  0.194533  0.378601  0.000000  1
  Ru  Ru29  1  0.874399  0.365571  0.500000  1
  Ru  Ru30  1  0.636482  0.508308  0.500000  1
  Ru  Ru31  1  0.489434  0.124101  0.500000  1
  Ru  Ru32  1  0.363518  0.871826  0.500000  1
  Ru  Ru33  1  0.510566  0.634668  0.500000  1
  Ru  Ru34  1  0.125601  0.491172  0.500000  1
  Ru  Ru35  1  0.000000  0.994855  0.000000  1
