# generated using pymatgen
data_NdNp3O10
_symmetry_space_group_name_H-M   'P 1'
_cell_length_a   5.74490046
_cell_length_b   5.74490072
_cell_length_c   8.15264988
_cell_angle_alpha   69.59086832
_cell_angle_beta   69.59086954
_cell_angle_gamma   70.95668250
_symmetry_Int_Tables_number   1
_chemical_formula_structural   NdNp3O10
_chemical_formula_sum   'Nd1 Np3 O10'
_cell_volume   229.84274821
_cell_formula_units_Z   1
loop_
 _symmetry_equiv_pos_site_id
 _symmetry_equiv_pos_as_xyz
  1  'x, y, z'
loop_
 _atom_site_type_symbol
 _atom_site_label
 _atom_site_symmetry_multiplicity
 _atom_site_fract_x
 _atom_site_fract_y
 _atom_site_fract_z
 _atom_site_occupancy
  Nd  Nd0  1  0.954306  0.045694  0.250000  1
  Np  Np1  1  0.500128  0.504786  0.997802  1
  Np  Np2  1  0.495214  0.499872  0.502198  1
  Np  Np3  1  0.037984  0.962016  0.750000  1
  O  O4  1  0.396033  0.603967  0.750000  1
  O  O5  1  0.256657  0.196417  0.633921  1
  O  O6  1  0.711886  0.741198  0.384048  1
  O  O7  1  0.258802  0.288114  0.115952  1
  O  O8  1  0.593403  0.406597  0.250000  1
  O  O9  1  0.803583  0.743343  0.866079  1
  O  O10  1  0.217134  0.813547  0.024283  1
  O  O11  1  0.794947  0.206530  0.544503  1
  O  O12  1  0.793470  0.205053  0.955497  1
  O  O13  1  0.186453  0.782866  0.475717  1
