# generated using pymatgen
data_Hf8TiBeSi15Mo11
_symmetry_space_group_name_H-M   'P 1'
_cell_length_a   6.56603823
_cell_length_b   6.70408064
_cell_length_c   12.68048500
_cell_angle_alpha   90.00000000
_cell_angle_beta   90.00000000
_cell_angle_gamma   89.90393531
_symmetry_Int_Tables_number   1
_chemical_formula_structural   Hf8TiBeSi15Mo11
_chemical_formula_sum   'Hf8 Ti1 Be1 Si15 Mo11'
_cell_volume   558.18465234
_cell_formula_units_Z   1
loop_
 _symmetry_equiv_pos_site_id
 _symmetry_equiv_pos_as_xyz
  1  'x, y, z'
loop_
 _atom_site_type_symbol
 _atom_site_label
 _atom_site_symmetry_multiplicity
 _atom_site_fract_x
 _atom_site_fract_y
 _atom_site_fract_z
 _atom_site_occupancy
  Hf  Hf0  1  0.993347  0.170426  0.092781  1
  Hf  Hf1  1  0.004218  0.834412  0.906341  1
  Hf  Hf2  1  0.505137  0.671352  0.904682  1
  Hf  Hf3  1  0.004218  0.834412  0.593659  1
  Hf  Hf4  1  0.497550  0.331247  0.093207  1
  Hf  Hf5  1  0.993347  0.170426  0.407219  1
  Hf  Hf6  1  0.497550  0.331247  0.406793  1
  Hf  Hf7  1  0.505137  0.671352  0.595318  1
  Ti  Ti8  1  0.835980  0.500026  0.250000  1
  Be  Be9  1  0.039643  0.122736  0.750000  1
  Si  Si10  1  0.965283  0.880397  0.250000  1
  Si  Si11  1  0.461376  0.624673  0.250000  1
  Si  Si12  1  0.535850  0.374149  0.750000  1
  Si  Si13  1  0.292264  0.869442  0.750000  1
  Si  Si14  1  0.698771  0.140380  0.250000  1
  Si  Si15  1  0.200224  0.360112  0.250000  1
  Si  Si16  1  0.804171  0.637840  0.750000  1
  Si  Si17  1  0.168937  0.458843  0.543934  1
  Si  Si18  1  0.830809  0.538816  0.461708  1
  Si  Si19  1  0.331200  0.959490  0.456639  1
  Si  Si20  1  0.830809  0.538816  0.038292  1
  Si  Si21  1  0.666832  0.041008  0.543035  1
  Si  Si22  1  0.168937  0.458843  0.956066  1
  Si  Si23  1  0.666832  0.041008  0.956965  1
  Si  Si24  1  0.331200  0.959490  0.043361  1
  Mo  Mo25  1  0.168958  0.505820  0.750000  1
  Mo  Mo26  1  0.331569  0.008232  0.250000  1
  Mo  Mo27  1  0.669326  0.991593  0.750000  1
  Mo  Mo28  1  0.332242  0.162077  0.623768  1
  Mo  Mo29  1  0.666976  0.832449  0.377350  1
  Mo  Mo30  1  0.161385  0.662545  0.377211  1
  Mo  Mo31  1  0.666976  0.832449  0.122650  1
  Mo  Mo32  1  0.839660  0.329634  0.626522  1
  Mo  Mo33  1  0.332242  0.162077  0.876232  1
  Mo  Mo34  1  0.839660  0.329634  0.873478  1
  Mo  Mo35  1  0.161385  0.662545  0.122789  1
