# generated using pymatgen
data_Ho3Tm5(Si4Ru3)4
_symmetry_space_group_name_H-M   'P 1'
_cell_length_a   10.19044497
_cell_length_b   10.19119523
_cell_length_c   13.73122116
_cell_angle_alpha   53.08902505
_cell_angle_beta   53.08933157
_cell_angle_gamma   30.82471130
_symmetry_Int_Tables_number   1
_chemical_formula_structural   Ho3Tm5(Si4Ru3)4
_chemical_formula_sum   'Ho3 Tm5 Si16 Ru12'
_cell_volume   571.59573233
_cell_formula_units_Z   1
loop_
 _symmetry_equiv_pos_site_id
 _symmetry_equiv_pos_as_xyz
  1  'x, y, z'
loop_
 _atom_site_type_symbol
 _atom_site_label
 _atom_site_symmetry_multiplicity
 _atom_site_fract_x
 _atom_site_fract_y
 _atom_site_fract_z
 _atom_site_occupancy
  Ho  Ho0  1  0.710282  0.961898  0.859788  1
  Ho  Ho1  1  0.962382  0.709353  0.360155  1
  Ho  Ho2  1  0.290038  0.037935  0.140028  1
  Tm  Tm3  1  0.299888  0.558382  0.643230  1
  Tm  Tm4  1  0.440996  0.701461  0.856283  1
  Tm  Tm5  1  0.700730  0.441486  0.356417  1
  Tm  Tm6  1  0.558508  0.299061  0.143581  1
  Tm  Tm7  1  0.037525  0.290412  0.640304  1
  Si  Si8  1  0.869595  0.130009  0.250225  1
  Si  Si9  1  0.130383  0.870387  0.749600  1
  Si  Si10  1  0.382075  0.617966  0.249854  1
  Si  Si11  1  0.618830  0.381728  0.749841  1
  Si  Si12  1  0.978192  0.249086  0.894928  1
  Si  Si13  1  0.751503  0.021150  0.605034  1
  Si  Si14  1  0.021539  0.751210  0.104771  1
  Si  Si15  1  0.248581  0.978857  0.394810  1
  Si  Si16  1  0.573874  0.083279  0.068935  1
  Si  Si17  1  0.917288  0.425747  0.431190  1
  Si  Si18  1  0.425898  0.916844  0.931048  1
  Si  Si19  1  0.082475  0.573707  0.569456  1
  Si  Si20  1  0.383778  0.137757  0.400379  1
  Si  Si21  1  0.861688  0.616159  0.100361  1
  Si  Si22  1  0.615149  0.862258  0.600534  1
  Si  Si23  1  0.138845  0.383463  0.899313  1
  Ru  Ru24  1  0.640729  0.835832  0.283036  1
  Ru  Ru25  1  0.164143  0.359198  0.217204  1
  Ru  Ru26  1  0.749265  0.496436  0.067042  1
  Ru  Ru27  1  0.835291  0.641014  0.783016  1
  Ru  Ru28  1  0.898011  0.139785  0.587371  1
  Ru  Ru29  1  0.860498  0.102712  0.912049  1
  Ru  Ru30  1  0.102547  0.859792  0.412653  1
  Ru  Ru31  1  0.139521  0.897777  0.087457  1
  Ru  Ru32  1  0.251130  0.503377  0.932710  1
  Ru  Ru33  1  0.497848  0.748769  0.567259  1
  Ru  Ru34  1  0.502293  0.251463  0.433185  1
  Ru  Ru35  1  0.358682  0.164252  0.716951  1
