# generated using pymatgen
data_Ho3TmAl16(GaIr3)2
_symmetry_space_group_name_H-M   'P 1'
_cell_length_a   7.52698835
_cell_length_b   7.52872557
_cell_length_c   9.49095200
_cell_angle_alpha   90.00000000
_cell_angle_beta   90.00000000
_cell_angle_gamma   119.37432401
_symmetry_Int_Tables_number   1
_chemical_formula_structural   Ho3TmAl16(GaIr3)2
_chemical_formula_sum   'Ho3 Tm1 Al16 Ga2 Ir6'
_cell_volume   468.69124946
_cell_formula_units_Z   1
loop_
 _symmetry_equiv_pos_site_id
 _symmetry_equiv_pos_as_xyz
  1  'x, y, z'
loop_
 _atom_site_type_symbol
 _atom_site_label
 _atom_site_symmetry_multiplicity
 _atom_site_fract_x
 _atom_site_fract_y
 _atom_site_fract_z
 _atom_site_occupancy
  Ho  Ho0  1  0.994544  0.675234  0.250000  1
  Ho  Ho1  1  0.005637  0.324683  0.750000  1
  Ho  Ho2  1  0.675229  0.994323  0.250000  1
  Tm  Tm3  1  0.324350  0.005538  0.750000  1
  Al  Al4  1  0.001623  0.336231  0.074240  1
  Al  Al5  1  0.998802  0.664054  0.925282  1
  Al  Al6  1  0.998802  0.664054  0.574718  1
  Al  Al7  1  0.336243  0.001605  0.426448  1
  Al  Al8  1  0.001623  0.336231  0.425760  1
  Al  Al9  1  0.663266  0.998527  0.574668  1
  Al  Al10  1  0.663266  0.998527  0.925332  1
  Al  Al11  1  0.336243  0.001605  0.073552  1
  Al  Al12  1  0.333769  0.333431  0.554367  1
  Al  Al13  1  0.666316  0.666351  0.446806  1
  Al  Al14  1  0.666316  0.666351  0.053194  1
  Al  Al15  1  0.333769  0.333431  0.945633  1
  Al  Al16  1  0.338648  0.549827  0.250000  1
  Al  Al17  1  0.661014  0.449495  0.750000  1
  Al  Al18  1  0.549918  0.338315  0.250000  1
  Al  Al19  1  0.449820  0.661869  0.750000  1
  Ga  Ga20  1  0.135400  0.135243  0.250000  1
  Ga  Ga21  1  0.865086  0.864713  0.750000  1
  Ir  Ir22  1  0.671605  0.328400  0.999820  1
  Ir  Ir23  1  0.328316  0.671611  0.999845  1
  Ir  Ir24  1  0.328316  0.671611  0.500155  1
  Ir  Ir25  1  0.671605  0.328400  0.500180  1
  Ir  Ir26  1  0.000234  0.000172  0.999697  1
  Ir  Ir27  1  0.000234  0.000172  0.500303  1
