# generated using pymatgen
data_Hf3TaRe2N
_symmetry_space_group_name_H-M   'P 1'
_cell_length_a   8.69539478
_cell_length_b   8.69539442
_cell_length_c   8.69539600
_cell_angle_alpha   60.00000161
_cell_angle_beta   60.00000297
_cell_angle_gamma   60.00000282
_symmetry_Int_Tables_number   1
_chemical_formula_structural   Hf3TaRe2N
_chemical_formula_sum   'Hf12 Ta4 Re8 N4'
_cell_volume   464.89297338
_cell_formula_units_Z   4
loop_
 _symmetry_equiv_pos_site_id
 _symmetry_equiv_pos_as_xyz
  1  'x, y, z'
loop_
 _atom_site_type_symbol
 _atom_site_label
 _atom_site_symmetry_multiplicity
 _atom_site_fract_x
 _atom_site_fract_y
 _atom_site_fract_z
 _atom_site_occupancy
  Hf  Hf0  1  0.812601  0.812601  0.187399  1
  Hf  Hf1  1  0.187399  0.187399  0.812601  1
  Hf  Hf2  1  0.812601  0.187399  0.812601  1
  Hf  Hf3  1  0.187399  0.812601  0.187399  1
  Hf  Hf4  1  0.187399  0.812601  0.812601  1
  Hf  Hf5  1  0.812601  0.187399  0.187399  1
  Hf  Hf6  1  0.437399  0.437399  0.062601  1
  Hf  Hf7  1  0.062601  0.062601  0.437399  1
  Hf  Hf8  1  0.437399  0.062601  0.437399  1
  Hf  Hf9  1  0.062601  0.437399  0.062601  1
  Hf  Hf10  1  0.062601  0.437399  0.437399  1
  Hf  Hf11  1  0.437399  0.062601  0.062601  1
  Ta  Ta12  1  0.125000  0.625000  0.625000  1
  Ta  Ta13  1  0.625000  0.125000  0.625000  1
  Ta  Ta14  1  0.625000  0.625000  0.125000  1
  Ta  Ta15  1  0.625000  0.625000  0.625000  1
  Re  Re16  1  0.750275  0.416575  0.416575  1
  Re  Re17  1  0.416575  0.750275  0.416575  1
  Re  Re18  1  0.416575  0.416575  0.750275  1
  Re  Re19  1  0.416575  0.416575  0.416575  1
  Re  Re20  1  0.499725  0.833425  0.833425  1
  Re  Re21  1  0.833425  0.499725  0.833425  1
  Re  Re22  1  0.833425  0.833425  0.499725  1
  Re  Re23  1  0.833425  0.833425  0.833425  1
  N  N24  1  0.625000  0.125000  0.125000  1
  N  N25  1  0.125000  0.625000  0.125000  1
  N  N26  1  0.125000  0.125000  0.625000  1
  N  N27  1  0.125000  0.125000  0.125000  1
