# generated using pymatgen
data_LaBi3Mo4F28
_symmetry_space_group_name_H-M   'P 1'
_cell_length_a   5.78112080
_cell_length_b   9.43990344
_cell_length_c   12.50369800
_cell_angle_alpha   61.98813604
_cell_angle_beta   90.14995122
_cell_angle_gamma   89.89315901
_symmetry_Int_Tables_number   1
_chemical_formula_structural   LaBi3Mo4F28
_chemical_formula_sum   'La1 Bi3 Mo4 F28'
_cell_volume   602.42226892
_cell_formula_units_Z   1
loop_
 _symmetry_equiv_pos_site_id
 _symmetry_equiv_pos_as_xyz
  1  'x, y, z'
loop_
 _atom_site_type_symbol
 _atom_site_label
 _atom_site_symmetry_multiplicity
 _atom_site_fract_x
 _atom_site_fract_y
 _atom_site_fract_z
 _atom_site_occupancy
  La  La0  1  0.737224  0.805186  0.265250  1
  Bi  Bi1  1  0.769846  0.821786  0.757792  1
  Bi  Bi2  1  0.267438  0.180556  0.742818  1
  Bi  Bi3  1  0.232131  0.178572  0.236957  1
  Mo  Mo4  1  0.759265  0.273625  0.957532  1
  Mo  Mo5  1  0.257920  0.725743  0.545578  1
  Mo  Mo6  1  0.243494  0.726279  0.038171  1
  Mo  Mo7  1  0.742300  0.271476  0.460408  1
  F  F8  1  0.436977  0.714514  0.913935  1
  F  F9  1  0.942457  0.291317  0.580574  1
  F  F10  1  0.562175  0.285854  0.081674  1
  F  F11  1  0.063645  0.714049  0.419060  1
  F  F12  1  0.456600  0.278075  0.548059  1
  F  F13  1  0.947830  0.724212  0.947135  1
  F  F14  1  0.548184  0.721984  0.453632  1
  F  F15  1  0.055768  0.276645  0.049990  1
  F  F16  1  0.767114  0.507985  0.861822  1
  F  F17  1  0.264681  0.490334  0.638359  1
  F  F18  1  0.231698  0.492954  0.135926  1
  F  F19  1  0.736304  0.515854  0.361000  1
  F  F20  1  0.758417  0.036183  0.052621  1
  F  F21  1  0.252853  0.964830  0.446510  1
  F  F22  1  0.243036  0.968190  0.942767  1
  F  F23  1  0.738275  0.024929  0.559949  1
  F  F24  1  0.974077  0.731469  0.642423  1
  F  F25  1  0.475562  0.266464  0.859873  1
  F  F26  1  0.014246  0.265737  0.366086  1
  F  F27  1  0.525589  0.733604  0.134397  1
  F  F28  1  0.052806  0.751996  0.160838  1
  F  F29  1  0.545580  0.250666  0.338314  1
  F  F30  1  0.953687  0.248635  0.835185  1
  F  F31  1  0.447946  0.748580  0.668450  1
  F  F32  1  0.402163  0.976671  0.227657  1
  F  F33  1  0.919329  0.030453  0.269173  1
  F  F34  1  0.585986  0.029169  0.770666  1
  F  F35  1  0.087398  0.975425  0.729418  1
