# generated using pymatgen
data_Tb20N19
_symmetry_space_group_name_H-M   'P 1'
_cell_length_a   9.26581078
_cell_length_b   9.26580973
_cell_length_c   9.26580969
_cell_angle_alpha   106.56860760
_cell_angle_beta   106.56860198
_cell_angle_gamma   115.44684441
_symmetry_Int_Tables_number   1
_chemical_formula_structural   Tb20N19
_chemical_formula_sum   'Tb20 N19'
_cell_volume   607.34272175
_cell_formula_units_Z   1
loop_
 _symmetry_equiv_pos_site_id
 _symmetry_equiv_pos_as_xyz
  1  'x, y, z'
loop_
 _atom_site_type_symbol
 _atom_site_label
 _atom_site_symmetry_multiplicity
 _atom_site_fract_x
 _atom_site_fract_y
 _atom_site_fract_z
 _atom_site_occupancy
  Tb  Tb0  1  0.047351  0.649944  0.200520  1
  Tb  Tb1  1  0.394976  0.708941  0.103918  1
  Tb  Tb2  1  0.100172  0.798085  0.898257  1
  Tb  Tb3  1  0.760431  0.760431  0.000000  1
  Tb  Tb4  1  0.798085  0.899828  0.697913  1
  Tb  Tb5  1  0.449425  0.846830  0.799480  1
  Tb  Tb6  1  0.500000  0.000000  0.500000  1
  Tb  Tb7  1  0.153170  0.952649  0.602593  1
  Tb  Tb8  1  0.201915  0.100172  0.302087  1
  Tb  Tb9  1  0.846830  0.047351  0.397407  1
  Tb  Tb10  1  0.899828  0.201915  0.101743  1
  Tb  Tb11  1  0.550575  0.153170  0.200520  1
  Tb  Tb12  1  0.605024  0.291059  0.896082  1
  Tb  Tb13  1  0.239569  0.239569  0.000000  1
  Tb  Tb14  1  0.291059  0.394976  0.686036  1
  Tb  Tb15  1  0.952649  0.350056  0.799480  1
  Tb  Tb16  1  0.000000  0.500000  0.500000  1
  Tb  Tb17  1  0.649944  0.449425  0.602593  1
  Tb  Tb18  1  0.708941  0.605024  0.313964  1
  Tb  Tb19  1  0.350056  0.550575  0.397407  1
  N  N20  1  0.897870  0.699118  0.596988  1
  N  N21  1  0.550607  0.650264  0.702665  1
  N  N22  1  0.600208  0.798903  0.399111  1
  N  N23  1  0.250000  0.750000  0.500000  1
  N  N24  1  0.300882  0.897870  0.198752  1
  N  N25  1  0.947599  0.847942  0.297335  1
  N  N26  1  0.000000  0.000000  0.000000  1
  N  N27  1  0.650264  0.947599  0.099656  1
  N  N28  1  0.699118  0.102130  0.801248  1
  N  N29  1  0.349736  0.052401  0.900344  1
  N  N30  1  0.052401  0.152058  0.702665  1
  N  N31  1  0.750000  0.250000  0.500000  1
  N  N32  1  0.399792  0.201097  0.600889  1
  N  N33  1  0.449393  0.349736  0.297335  1
  N  N34  1  0.102130  0.300882  0.403012  1
  N  N35  1  0.152058  0.449393  0.099656  1
  N  N36  1  0.201097  0.600208  0.801306  1
  N  N37  1  0.798903  0.399792  0.198694  1
  N  N38  1  0.847942  0.550607  0.900344  1
