# generated using pymatgen
data_DyAlGaCu3
_symmetry_space_group_name_H-M   'P 1'
_cell_length_a   5.13135429
_cell_length_b   5.04467015
_cell_length_c   4.14641600
_cell_angle_alpha   90.00000000
_cell_angle_beta   90.00000000
_cell_angle_gamma   118.20439445
_symmetry_Int_Tables_number   1
_chemical_formula_structural   DyAlGaCu3
_chemical_formula_sum   'Dy1 Al1 Ga1 Cu3'
_cell_volume   94.59000696
_cell_formula_units_Z   1
loop_
 _symmetry_equiv_pos_site_id
 _symmetry_equiv_pos_as_xyz
  1  'x, y, z'
loop_
 _atom_site_type_symbol
 _atom_site_label
 _atom_site_symmetry_multiplicity
 _atom_site_fract_x
 _atom_site_fract_y
 _atom_site_fract_z
 _atom_site_occupancy
  Dy  Dy0  1  0.000000  0.000000  0.000000  1
  Al  Al1  1  0.500000  0.000000  0.500000  1
  Ga  Ga2  1  0.000000  0.500000  0.500000  1
  Cu  Cu3  1  0.658720  0.331334  0.000000  1
  Cu  Cu4  1  0.341280  0.668666  0.000000  1
  Cu  Cu5  1  0.500000  0.500000  0.500000  1
