# generated using pymatgen
data_Dy6Ho2Ti12Si15As
_symmetry_space_group_name_H-M   'P 1'
_cell_length_a   7.05345486
_cell_length_b   7.04598486
_cell_length_c   12.95678002
_cell_angle_alpha   89.98199576
_cell_angle_beta   89.83189532
_cell_angle_gamma   89.93765022
_symmetry_Int_Tables_number   1
_chemical_formula_structural   Dy6Ho2Ti12Si15As
_chemical_formula_sum   'Dy6 Ho2 Ti12 Si15 As1'
_cell_volume   643.92981572
_cell_formula_units_Z   1
loop_
 _symmetry_equiv_pos_site_id
 _symmetry_equiv_pos_as_xyz
  1  'x, y, z'
loop_
 _atom_site_type_symbol
 _atom_site_label
 _atom_site_symmetry_multiplicity
 _atom_site_fract_x
 _atom_site_fract_y
 _atom_site_fract_z
 _atom_site_occupancy
  Dy  Dy0  1  0.341637  0.002183  0.466101  1
  Dy  Dy1  1  0.497088  0.842107  0.717316  1
  Dy  Dy2  1  0.502528  0.159019  0.216473  1
  Dy  Dy3  1  0.840706  0.496988  0.283216  1
  Dy  Dy4  1  0.158760  0.501867  0.783364  1
  Dy  Dy5  1  0.660326  0.995191  0.967414  1
  Ho  Ho6  1  0.999912  0.343373  0.532069  1
  Ho  Ho7  1  0.998006  0.659079  0.033531  1
  Ti  Ti8  1  0.325804  0.326586  0.999723  1
  Ti  Ti9  1  0.173161  0.826896  0.250008  1
  Ti  Ti10  1  0.823727  0.173694  0.750190  1
  Ti  Ti11  1  0.673260  0.672973  0.500051  1
  Ti  Ti12  1  0.153666  0.008987  0.875582  1
  Ti  Ti13  1  0.491773  0.651735  0.125782  1
  Ti  Ti14  1  0.509149  0.347850  0.626912  1
  Ti  Ti15  1  0.654095  0.494212  0.874666  1
  Ti  Ti16  1  0.347472  0.507699  0.373971  1
  Ti  Ti17  1  0.847725  0.992265  0.375791  1
  Ti  Ti18  1  0.007998  0.151567  0.124112  1
  Ti  Ti19  1  0.989935  0.844443  0.623264  1
  Si  Si20  1  0.368415  0.703078  0.933980  1
  Si  Si21  1  0.630142  0.297741  0.434661  1
  Si  Si22  1  0.703020  0.369716  0.065966  1
  Si  Si23  1  0.297309  0.630496  0.565929  1
  Si  Si24  1  0.797315  0.869293  0.184399  1
  Si  Si25  1  0.130790  0.202723  0.316054  1
  Si  Si26  1  0.870092  0.797679  0.815497  1
  Si  Si27  1  0.290541  0.952513  0.064589  1
  Si  Si28  1  0.547244  0.790295  0.314562  1
  Si  Si29  1  0.460953  0.211392  0.819211  1
  Si  Si30  1  0.790695  0.546822  0.685130  1
  Si  Si31  1  0.209111  0.452829  0.185318  1
  Si  Si32  1  0.709144  0.046677  0.564317  1
  Si  Si33  1  0.953346  0.290832  0.935529  1
  Si  Si34  1  0.047184  0.709599  0.435003  1
  As  As35  1  0.197970  0.129603  0.680319  1
