# generated using pymatgen
data_Nd3Tm2(InSb)2
_symmetry_space_group_name_H-M   'P 1'
_cell_length_a   9.16930244
_cell_length_b   8.70395170
_cell_length_c   8.26366000
_cell_angle_alpha   90.35376484
_cell_angle_beta   90.21145486
_cell_angle_gamma   125.10997452
_symmetry_Int_Tables_number   1
_chemical_formula_structural   Nd3Tm2(InSb)2
_chemical_formula_sum   'Nd6 Tm4 In4 Sb4'
_cell_volume   539.48522186
_cell_formula_units_Z   2
loop_
 _symmetry_equiv_pos_site_id
 _symmetry_equiv_pos_as_xyz
  1  'x, y, z'
loop_
 _atom_site_type_symbol
 _atom_site_label
 _atom_site_symmetry_multiplicity
 _atom_site_fract_x
 _atom_site_fract_y
 _atom_site_fract_z
 _atom_site_occupancy
  Nd  Nd0  1  0.048427  0.335480  0.327052  1
  Nd  Nd1  1  0.951573  0.664520  0.672948  1
  Nd  Nd2  1  0.453090  0.159989  0.820056  1
  Nd  Nd3  1  0.792022  0.517621  0.162951  1
  Nd  Nd4  1  0.546910  0.840011  0.179944  1
  Nd  Nd5  1  0.207978  0.482379  0.837049  1
  Tm  Tm6  1  0.715350  0.976817  0.660552  1
  Tm  Tm7  1  0.284650  0.023183  0.339448  1
  Tm  Tm8  1  0.000000  0.000000  0.000000  1
  Tm  Tm9  1  0.500000  0.500000  0.500000  1
  In  In10  1  0.372594  0.374508  0.129285  1
  In  In11  1  0.627406  0.625492  0.870715  1
  In  In12  1  0.127776  0.125502  0.628122  1
  In  In13  1  0.872224  0.874498  0.371878  1
  Sb  Sb14  1  0.810298  0.209078  0.974744  1
  Sb  Sb15  1  0.189702  0.790922  0.025256  1
  Sb  Sb16  1  0.681120  0.270192  0.479249  1
  Sb  Sb17  1  0.318880  0.729808  0.520751  1
