# generated using pymatgen
data_Dy3Cd5Pt
_symmetry_space_group_name_H-M   'P 1'
_cell_length_a   8.11508300
_cell_length_b   8.11508409
_cell_length_c   3.79678400
_cell_angle_alpha   90.00000000
_cell_angle_beta   90.00000000
_cell_angle_gamma   120.00000670
_symmetry_Int_Tables_number   1
_chemical_formula_structural   Dy3Cd5Pt
_chemical_formula_sum   'Dy3 Cd5 Pt1'
_cell_volume   216.53718346
_cell_formula_units_Z   1
loop_
 _symmetry_equiv_pos_site_id
 _symmetry_equiv_pos_as_xyz
  1  'x, y, z'
loop_
 _atom_site_type_symbol
 _atom_site_label
 _atom_site_symmetry_multiplicity
 _atom_site_fract_x
 _atom_site_fract_y
 _atom_site_fract_z
 _atom_site_occupancy
  Dy  Dy0  1  0.576686  0.960685  0.000000  1
  Dy  Dy1  1  0.039315  0.616001  0.000000  1
  Dy  Dy2  1  0.383999  0.423314  0.000000  1
  Cd  Cd3  1  0.280932  0.011073  0.500000  1
  Cd  Cd4  1  0.988927  0.269859  0.500000  1
  Cd  Cd5  1  0.730141  0.719068  0.500000  1
  Cd  Cd6  1  0.666667  0.333333  0.500000  1
  Cd  Cd7  1  0.000000  0.000000  0.000000  1
  Pt  Pt8  1  0.333333  0.666667  0.500000  1
