# generated using pymatgen
data_Er3AlIn2Au3
_symmetry_space_group_name_H-M   'P 1'
_cell_length_a   7.68988795
_cell_length_b   7.59859002
_cell_length_c   3.92775300
_cell_angle_alpha   90.00000000
_cell_angle_beta   90.00000000
_cell_angle_gamma   119.60803286
_symmetry_Int_Tables_number   1
_chemical_formula_structural   Er3AlIn2Au3
_chemical_formula_sum   'Er3 Al1 In2 Au3'
_cell_volume   199.53985507
_cell_formula_units_Z   1
loop_
 _symmetry_equiv_pos_site_id
 _symmetry_equiv_pos_as_xyz
  1  'x, y, z'
loop_
 _atom_site_type_symbol
 _atom_site_label
 _atom_site_symmetry_multiplicity
 _atom_site_fract_x
 _atom_site_fract_y
 _atom_site_fract_z
 _atom_site_occupancy
  Er  Er0  1  0.598316  0.002083  0.500000  1
  Er  Er1  1  0.401684  0.403767  0.500000  1
  Er  Er2  1  0.000000  0.591486  0.500000  1
  Al  Al3  1  0.000000  0.256608  0.000000  1
  In  In4  1  0.739645  0.740653  0.000000  1
  In  In5  1  0.260355  0.001008  0.000000  1
  Au  Au6  1  0.678473  0.330021  0.000000  1
  Au  Au7  1  0.321527  0.651550  0.000000  1
  Au  Au8  1  0.000000  0.022824  0.500000  1
