# generated using pymatgen
data_YHo11(Tm2Bi3)4
_symmetry_space_group_name_H-M   'P 1'
_cell_length_a   8.21385576
_cell_length_b   9.47180500
_cell_length_c   12.00308811
_cell_angle_alpha   90.00013363
_cell_angle_beta   89.95070046
_cell_angle_gamma   90.00120483
_symmetry_Int_Tables_number   1
_chemical_formula_structural   YHo11(Tm2Bi3)4
_chemical_formula_sum   'Y1 Ho11 Tm8 Bi12'
_cell_volume   933.84039005
_cell_formula_units_Z   1
loop_
 _symmetry_equiv_pos_site_id
 _symmetry_equiv_pos_as_xyz
  1  'x, y, z'
loop_
 _atom_site_type_symbol
 _atom_site_label
 _atom_site_symmetry_multiplicity
 _atom_site_fract_x
 _atom_site_fract_y
 _atom_site_fract_z
 _atom_site_occupancy
  Y  Y0  1  0.145736  0.249863  0.715981  1
  Ho  Ho1  1  0.186372  0.749749  0.718645  1
  Ho  Ho2  1  0.686716  0.750247  0.781578  1
  Ho  Ho3  1  0.813464  0.249756  0.281386  1
  Ho  Ho4  1  0.313488  0.250253  0.218491  1
  Ho  Ho5  1  0.693582  0.563534  0.059822  1
  Ho  Ho6  1  0.193657  0.936375  0.440064  1
  Ho  Ho7  1  0.306538  0.063404  0.940391  1
  Ho  Ho8  1  0.806273  0.436441  0.559839  1
  Ho  Ho9  1  0.354313  0.750144  0.216191  1
  Ho  Ho10  1  0.854301  0.749858  0.283805  1
  Ho  Ho11  1  0.645832  0.250137  0.783867  1
  Tm  Tm12  1  0.025224  0.750128  0.988740  1
  Tm  Tm13  1  0.525371  0.749893  0.511192  1
  Tm  Tm14  1  0.974518  0.250127  0.011431  1
  Tm  Tm15  1  0.474734  0.249876  0.488727  1
  Tm  Tm16  1  0.306900  0.433991  0.940456  1
  Tm  Tm17  1  0.806652  0.066168  0.559764  1
  Tm  Tm18  1  0.693205  0.933867  0.059743  1
  Tm  Tm19  1  0.193265  0.566229  0.440138  1
  Bi  Bi20  1  0.434123  0.003518  0.672869  1
  Bi  Bi21  1  0.933758  0.496646  0.827115  1
  Bi  Bi22  1  0.566096  0.503679  0.327101  1
  Bi  Bi23  1  0.066063  0.996439  0.172974  1
  Bi  Bi24  1  0.566678  0.995981  0.327236  1
  Bi  Bi25  1  0.066634  0.503890  0.172848  1
  Bi  Bi26  1  0.433551  0.496138  0.672736  1
  Bi  Bi27  1  0.933193  0.003683  0.827235  1
  Bi  Bi28  1  0.407274  0.748199  0.957800  1
  Bi  Bi29  1  0.907340  0.751787  0.542295  1
  Bi  Bi30  1  0.592719  0.248215  0.042161  1
  Bi  Bi31  1  0.092429  0.251785  0.457381  1
