# generated using pymatgen
data_DyY(SnPt2)2
_symmetry_space_group_name_H-M   'P 1'
_cell_length_a   4.56400400
_cell_length_b   4.56400401
_cell_length_c   9.14806800
_cell_angle_alpha   90.00000000
_cell_angle_beta   90.00000000
_cell_angle_gamma   119.99998541
_symmetry_Int_Tables_number   1
_chemical_formula_structural   DyY(SnPt2)2
_chemical_formula_sum   'Dy1 Y1 Sn2 Pt4'
_cell_volume   165.02590146
_cell_formula_units_Z   1
loop_
 _symmetry_equiv_pos_site_id
 _symmetry_equiv_pos_as_xyz
  1  'x, y, z'
loop_
 _atom_site_type_symbol
 _atom_site_label
 _atom_site_symmetry_multiplicity
 _atom_site_fract_x
 _atom_site_fract_y
 _atom_site_fract_z
 _atom_site_occupancy
  Dy  Dy0  1  0.333333  0.666667  0.250000  1
  Y  Y1  1  0.666667  0.333333  0.750000  1
  Sn  Sn2  1  0.000000  0.000000  0.499509  1
  Sn  Sn3  1  0.000000  0.000000  0.000491  1
  Pt  Pt4  1  0.333333  0.666667  0.910464  1
  Pt  Pt5  1  0.666667  0.333333  0.091393  1
  Pt  Pt6  1  0.666667  0.333333  0.408607  1
  Pt  Pt7  1  0.333333  0.666667  0.589536  1
