# generated using pymatgen
data_Mo2Br7N
_symmetry_space_group_name_H-M   'P 1'
_cell_length_a   9.84320016
_cell_length_b   10.76449362
_cell_length_c   14.47744143
_cell_angle_alpha   100.93919811
_cell_angle_beta   106.07301173
_cell_angle_gamma   104.92239351
_symmetry_Int_Tables_number   1
_chemical_formula_structural   Mo2Br7N
_chemical_formula_sum   'Mo8 Br28 N4'
_cell_volume   1366.85517491
_cell_formula_units_Z   4
loop_
 _symmetry_equiv_pos_site_id
 _symmetry_equiv_pos_as_xyz
  1  'x, y, z'
loop_
 _atom_site_type_symbol
 _atom_site_label
 _atom_site_symmetry_multiplicity
 _atom_site_fract_x
 _atom_site_fract_y
 _atom_site_fract_z
 _atom_site_occupancy
  Mo  Mo0  1  0.066668  0.939029  0.730306  1
  Mo  Mo1  1  0.933332  0.060971  0.269694  1
  Mo  Mo2  1  0.843614  0.570873  0.681360  1
  Mo  Mo3  1  0.156386  0.429127  0.318640  1
  Mo  Mo4  1  0.617088  0.397109  0.814790  1
  Mo  Mo5  1  0.382912  0.602891  0.185210  1
  Mo  Mo6  1  0.465897  0.112192  0.770003  1
  Mo  Mo7  1  0.534103  0.887808  0.229997  1
  Br  Br8  1  0.956466  0.054455  0.616684  1
  Br  Br9  1  0.043534  0.945545  0.383316  1
  Br  Br10  1  0.050336  0.069558  0.883404  1
  Br  Br11  1  0.949664  0.930442  0.116596  1
  Br  Br12  1  0.034165  0.738677  0.590425  1
  Br  Br13  1  0.965835  0.261323  0.409575  1
  Br  Br14  1  0.079642  0.755945  0.834183  1
  Br  Br15  1  0.920358  0.244055  0.165817  1
  Br  Br16  1  0.748582  0.769889  0.691872  1
  Br  Br17  1  0.251418  0.230111  0.308128  1
  Br  Br18  1  0.019709  0.443952  0.689674  1
  Br  Br19  1  0.980291  0.556048  0.310326  1
  Br  Br20  1  0.677136  0.452663  0.510796  1
  Br  Br21  1  0.322864  0.547337  0.489204  1
  Br  Br22  1  0.504063  0.576972  0.812822  1
  Br  Br23  1  0.495937  0.423028  0.187178  1
  Br  Br24  1  0.807170  0.495080  0.981325  1
  Br  Br25  1  0.192830  0.504920  0.018675  1
  Br  Br26  1  0.737321  0.218413  0.768918  1
  Br  Br27  1  0.262679  0.781587  0.231082  1
  Br  Br28  1  0.392800  0.256097  0.645932  1
  Br  Br29  1  0.607200  0.743903  0.354068  1
  Br  Br30  1  0.429704  0.289920  0.899455  1
  Br  Br31  1  0.570296  0.710080  0.100545  1
  Br  Br32  1  0.426064  0.935199  0.619481  1
  Br  Br33  1  0.573936  0.064801  0.380519  1
  Br  Br34  1  0.571668  0.010418  0.896503  1
  Br  Br35  1  0.428332  0.989582  0.103497  1
  N  N36  1  0.253535  0.016534  0.751887  1
  N  N37  1  0.746465  0.983466  0.248113  1
  N  N38  1  0.742370  0.493087  0.746517  1
  N  N39  1  0.257630  0.506913  0.253483  1
