# generated using pymatgen
data_Ho7Er3(Co2Ag)2
_symmetry_space_group_name_H-M   'P 1'
_cell_length_a   8.47225429
_cell_length_b   8.47670618
_cell_length_c   8.47615974
_cell_angle_alpha   127.32039519
_cell_angle_beta   127.30683473
_cell_angle_gamma   77.69284129
_symmetry_Int_Tables_number   1
_chemical_formula_structural   Ho7Er3(Co2Ag)2
_chemical_formula_sum   'Ho7 Er3 Co4 Ag2'
_cell_volume   373.42052495
_cell_formula_units_Z   1
loop_
 _symmetry_equiv_pos_site_id
 _symmetry_equiv_pos_as_xyz
  1  'x, y, z'
loop_
 _atom_site_type_symbol
 _atom_site_label
 _atom_site_symmetry_multiplicity
 _atom_site_fract_x
 _atom_site_fract_y
 _atom_site_fract_z
 _atom_site_occupancy
  Ho  Ho0  1  0.473069  0.973029  0.179852  1
  Ho  Ho1  1  0.793081  0.293187  0.820130  1
  Ho  Ho2  1  0.527107  0.027101  0.820345  1
  Ho  Ho3  1  0.026643  0.207258  0.500109  1
  Ho  Ho4  1  0.293753  0.472704  0.499939  1
  Ho  Ho5  1  0.206637  0.706564  0.179566  1
  Ho  Ho6  1  0.972468  0.793122  0.499782  1
  Er  Er7  1  0.707088  0.527712  0.500148  1
  Er  Er8  1  0.999772  0.999862  0.999846  1
  Er  Er9  1  0.500091  0.499899  0.000263  1
  Co  Co10  1  0.136606  0.636831  0.773771  1
  Co  Co11  1  0.862883  0.363200  0.226300  1
  Co  Co12  1  0.636892  0.862884  0.499936  1
  Co  Co13  1  0.362780  0.137065  0.500015  1
  Ag  Ag14  1  0.249824  0.248522  0.998710  1
  Ag  Ag15  1  0.751308  0.751058  0.001287  1
