# generated using pymatgen
data_NdYNb2(SnPt)4
_symmetry_space_group_name_H-M   'P 1'
_cell_length_a   6.51408567
_cell_length_b   4.57560400
_cell_length_c   9.18691594
_cell_angle_alpha   90.00000000
_cell_angle_beta   90.05194201
_cell_angle_gamma   90.00000000
_symmetry_Int_Tables_number   1
_chemical_formula_structural   NdYNb2(SnPt)4
_chemical_formula_sum   'Nd1 Y1 Nb2 Sn4 Pt4'
_cell_volume   273.82396900
_cell_formula_units_Z   1
loop_
 _symmetry_equiv_pos_site_id
 _symmetry_equiv_pos_as_xyz
  1  'x, y, z'
loop_
 _atom_site_type_symbol
 _atom_site_label
 _atom_site_symmetry_multiplicity
 _atom_site_fract_x
 _atom_site_fract_y
 _atom_site_fract_z
 _atom_site_occupancy
  Nd  Nd0  1  0.002977  0.000000  0.376287  1
  Y  Y1  1  0.503324  0.499999  0.623806  1
  Nb  Nb2  1  0.497789  0.499999  0.122208  1
  Nb  Nb3  1  0.996422  0.000000  0.877579  1
  Sn  Sn4  1  0.985119  0.499999  0.120205  1
  Sn  Sn5  1  0.511216  0.000000  0.370748  1
  Sn  Sn6  1  0.009987  0.499999  0.633401  1
  Sn  Sn7  1  0.482917  0.000000  0.875916  1
  Pt  Pt8  1  0.733644  0.000000  0.108410  1
  Pt  Pt9  1  0.274881  0.499999  0.354189  1
  Pt  Pt10  1  0.765311  0.000000  0.648300  1
  Pt  Pt11  1  0.236408  0.499999  0.888945  1
