# generated using pymatgen
data_TbCe(BPt4)2
_symmetry_space_group_name_H-M   'P 1'
_cell_length_a   5.43437315
_cell_length_b   5.45190389
_cell_length_c   7.75168400
_cell_angle_alpha   90.00000000
_cell_angle_beta   90.00000000
_cell_angle_gamma   120.10676973
_symmetry_Int_Tables_number   1
_chemical_formula_structural   TbCe(BPt4)2
_chemical_formula_sum   'Tb1 Ce1 B2 Pt8'
_cell_volume   198.68088334
_cell_formula_units_Z   1
loop_
 _symmetry_equiv_pos_site_id
 _symmetry_equiv_pos_as_xyz
  1  'x, y, z'
loop_
 _atom_site_type_symbol
 _atom_site_label
 _atom_site_symmetry_multiplicity
 _atom_site_fract_x
 _atom_site_fract_y
 _atom_site_fract_z
 _atom_site_occupancy
  Tb  Tb0  1  0.000000  0.000000  0.500000  1
  Ce  Ce1  1  0.000000  0.000000  0.000000  1
  B  B2  1  0.666466  0.333233  0.500000  1
  B  B3  1  0.333534  0.666767  0.500000  1
  Pt  Pt4  1  0.666320  0.333159  0.000000  1
  Pt  Pt5  1  0.500000  0.500000  0.300837  1
  Pt  Pt6  1  0.500000  0.000000  0.300837  1
  Pt  Pt7  1  0.500000  0.000000  0.699163  1
  Pt  Pt8  1  0.500000  0.500000  0.699163  1
  Pt  Pt9  1  0.000000  0.500000  0.699185  1
  Pt  Pt10  1  0.333680  0.666841  0.000000  1
  Pt  Pt11  1  0.000000  0.500000  0.300815  1
