# generated using pymatgen
data_Tb4Y12MgCd3Pt4
_symmetry_space_group_name_H-M   'P 1'
_cell_length_a   9.72086864
_cell_length_b   9.72086906
_cell_length_c   9.72086932
_cell_angle_alpha   60.22973474
_cell_angle_beta   60.22973520
_cell_angle_gamma   60.22973197
_symmetry_Int_Tables_number   1
_chemical_formula_structural   Tb4Y12MgCd3Pt4
_chemical_formula_sum   'Tb4 Y12 Mg1 Cd3 Pt4'
_cell_volume   652.90982918
_cell_formula_units_Z   1
loop_
 _symmetry_equiv_pos_site_id
 _symmetry_equiv_pos_as_xyz
  1  'x, y, z'
loop_
 _atom_site_type_symbol
 _atom_site_label
 _atom_site_symmetry_multiplicity
 _atom_site_fract_x
 _atom_site_fract_y
 _atom_site_fract_z
 _atom_site_occupancy
  Tb  Tb0  1  0.348933  0.348933  0.348933  1
  Tb  Tb1  1  0.353684  0.353684  0.942757  1
  Tb  Tb2  1  0.353684  0.942757  0.353684  1
  Tb  Tb3  1  0.942757  0.353684  0.353684  1
  Y  Y4  1  0.809865  0.191758  0.191758  1
  Y  Y5  1  0.189564  0.811950  0.811950  1
  Y  Y6  1  0.191758  0.809865  0.191758  1
  Y  Y7  1  0.811950  0.189564  0.811950  1
  Y  Y8  1  0.191758  0.191758  0.809865  1
  Y  Y9  1  0.811950  0.811950  0.189564  1
  Y  Y10  1  0.934962  0.566381  0.566381  1
  Y  Y11  1  0.563640  0.937608  0.937608  1
  Y  Y12  1  0.566381  0.934962  0.566381  1
  Y  Y13  1  0.937608  0.563640  0.937608  1
  Y  Y14  1  0.566381  0.566381  0.934962  1
  Y  Y15  1  0.937608  0.937608  0.563640  1
  Mg  Mg16  1  0.575202  0.575202  0.575202  1
  Cd  Cd17  1  0.580419  0.580419  0.253016  1
  Cd  Cd18  1  0.580419  0.253016  0.580419  1
  Cd  Cd19  1  0.253016  0.580419  0.580419  1
  Pt  Pt20  1  0.144986  0.144986  0.144986  1
  Pt  Pt21  1  0.141089  0.141089  0.571294  1
  Pt  Pt22  1  0.141089  0.571294  0.141089  1
  Pt  Pt23  1  0.571294  0.141089  0.141089  1
