# generated using pymatgen
data_TbHo2Lu5Pt4
_symmetry_space_group_name_H-M   'P 1'
_cell_length_a   4.73750700
_cell_length_b   7.07468674
_cell_length_c   8.61909544
_cell_angle_alpha   90.23611133
_cell_angle_beta   90.00000000
_cell_angle_gamma   90.00000000
_symmetry_Int_Tables_number   1
_chemical_formula_structural   TbHo2Lu5Pt4
_chemical_formula_sum   'Tb1 Ho2 Lu5 Pt4'
_cell_volume   288.87840749
_cell_formula_units_Z   1
loop_
 _symmetry_equiv_pos_site_id
 _symmetry_equiv_pos_as_xyz
  1  'x, y, z'
loop_
 _atom_site_type_symbol
 _atom_site_label
 _atom_site_symmetry_multiplicity
 _atom_site_fract_x
 _atom_site_fract_y
 _atom_site_fract_z
 _atom_site_occupancy
  Tb  Tb0  1  0.250000  0.487911  0.171102  1
  Ho  Ho1  1  0.750000  0.012977  0.670307  1
  Ho  Ho2  1  0.750000  0.511905  0.829440  1
  Lu  Lu3  1  0.250000  0.856574  0.923113  1
  Lu  Lu4  1  0.250000  0.357343  0.576961  1
  Lu  Lu5  1  0.750000  0.142435  0.079274  1
  Lu  Lu6  1  0.750000  0.644485  0.422515  1
  Lu  Lu7  1  0.250000  0.987559  0.331309  1
  Pt  Pt8  1  0.250000  0.254416  0.903673  1
  Pt  Pt9  1  0.250000  0.756220  0.591302  1
  Pt  Pt10  1  0.750000  0.745043  0.094785  1
  Pt  Pt11  1  0.750000  0.243129  0.406222  1
