# generated using pymatgen
data_La3MgCd2PtAu2
_symmetry_space_group_name_H-M   'P 1'
_cell_length_a   7.96680106
_cell_length_b   8.04501758
_cell_length_c   4.06682200
_cell_angle_alpha   90.00000000
_cell_angle_beta   90.00000000
_cell_angle_gamma   119.82141642
_symmetry_Int_Tables_number   1
_chemical_formula_structural   La3MgCd2PtAu2
_chemical_formula_sum   'La3 Mg1 Cd2 Pt1 Au2'
_cell_volume   226.13900719
_cell_formula_units_Z   1
loop_
 _symmetry_equiv_pos_site_id
 _symmetry_equiv_pos_as_xyz
  1  'x, y, z'
loop_
 _atom_site_type_symbol
 _atom_site_label
 _atom_site_symmetry_multiplicity
 _atom_site_fract_x
 _atom_site_fract_y
 _atom_site_fract_z
 _atom_site_occupancy
  La  La0  1  0.413831  0.014433  0.000000  1
  La  La1  1  0.594581  0.577371  0.000000  1
  La  La2  1  0.988634  0.408092  0.000000  1
  Mg  Mg3  1  0.752396  0.997993  0.500000  1
  Cd  Cd4  1  0.252140  0.255875  0.500000  1
  Cd  Cd5  1  0.001920  0.747153  0.500000  1
  Pt  Pt6  1  0.667922  0.324164  0.500000  1
  Au  Au7  1  0.342812  0.675102  0.500000  1
  Au  Au8  1  0.985763  0.999819  0.000000  1
