# generated using pymatgen
data_KPr2Sn4Pt7
_symmetry_space_group_name_H-M   'P 1'
_cell_length_a   4.36008524
_cell_length_b   8.98403746
_cell_length_c   8.64306931
_cell_angle_alpha   71.71697771
_cell_angle_beta   75.39047340
_cell_angle_gamma   75.95656257
_symmetry_Int_Tables_number   1
_chemical_formula_structural   KPr2Sn4Pt7
_chemical_formula_sum   'K1 Pr2 Sn4 Pt7'
_cell_volume   306.10769464
_cell_formula_units_Z   1
loop_
 _symmetry_equiv_pos_site_id
 _symmetry_equiv_pos_as_xyz
  1  'x, y, z'
loop_
 _atom_site_type_symbol
 _atom_site_label
 _atom_site_symmetry_multiplicity
 _atom_site_fract_x
 _atom_site_fract_y
 _atom_site_fract_z
 _atom_site_occupancy
  K  K0  1  0.500000  0.000000  0.000000  1
  Pr  Pr1  1  0.833654  0.673364  0.659327  1
  Pr  Pr2  1  0.166346  0.326636  0.340673  1
  Sn  Sn3  1  0.634673  0.603131  0.127522  1
  Sn  Sn4  1  0.365327  0.396869  0.872478  1
  Sn  Sn5  1  0.822739  0.025001  0.329521  1
  Sn  Sn6  1  0.177261  0.974999  0.670479  1
  Pt  Pt7  1  0.811198  0.296605  0.080998  1
  Pt  Pt8  1  0.188802  0.703395  0.919003  1
  Pt  Pt9  1  0.014329  0.683304  0.288039  1
  Pt  Pt10  1  0.985671  0.316696  0.711961  1
  Pt  Pt11  1  0.619769  0.162258  0.598203  1
  Pt  Pt12  1  0.380231  0.837742  0.401797  1
  Pt  Pt13  1  0.500000  0.500000  0.500000  1
