# generated using pymatgen
data_Rb8Li4HoTm3Bi8
_symmetry_space_group_name_H-M   'P 1'
_cell_length_a   11.38044638
_cell_length_b   11.38044676
_cell_length_c   7.32543800
_cell_angle_alpha   90.01489229
_cell_angle_beta   89.98510771
_cell_angle_gamma   99.90485892
_symmetry_Int_Tables_number   1
_chemical_formula_structural   Rb8Li4HoTm3Bi8
_chemical_formula_sum   'Rb8 Li4 Ho1 Tm3 Bi8'
_cell_volume   934.60947927
_cell_formula_units_Z   1
loop_
 _symmetry_equiv_pos_site_id
 _symmetry_equiv_pos_as_xyz
  1  'x, y, z'
loop_
 _atom_site_type_symbol
 _atom_site_label
 _atom_site_symmetry_multiplicity
 _atom_site_fract_x
 _atom_site_fract_y
 _atom_site_fract_z
 _atom_site_occupancy
  Rb  Rb0  1  0.571233  0.928948  0.750149  1
  Rb  Rb1  1  0.928948  0.571233  0.249851  1
  Rb  Rb2  1  0.428996  0.070579  0.249935  1
  Rb  Rb3  1  0.070579  0.428996  0.750065  1
  Rb  Rb4  1  0.675573  0.324829  0.783921  1
  Rb  Rb5  1  0.824681  0.175162  0.283787  1
  Rb  Rb6  1  0.324829  0.675573  0.216079  1
  Rb  Rb7  1  0.175162  0.824681  0.716213  1
  Li  Li8  1  0.620448  0.620448  0.000000  1
  Li  Li9  1  0.879874  0.879874  0.500000  1
  Li  Li10  1  0.379948  0.379948  0.000000  1
  Li  Li11  1  0.119599  0.119599  0.500000  1
  Ho  Ho12  1  0.369935  0.369935  0.500000  1
  Tm  Tm13  1  0.870270  0.870270  0.000000  1
  Tm  Tm14  1  0.630215  0.630215  0.500000  1
  Tm  Tm15  1  0.129503  0.129503  0.000000  1
  Bi  Bi16  1  0.346998  0.151902  0.751224  1
  Bi  Bi17  1  0.151902  0.346998  0.248776  1
  Bi  Bi18  1  0.653169  0.847108  0.250027  1
  Bi  Bi19  1  0.847108  0.653169  0.749973  1
  Bi  Bi20  1  0.904519  0.095181  0.760415  1
  Bi  Bi21  1  0.596219  0.405110  0.259900  1
  Bi  Bi22  1  0.095181  0.904519  0.239585  1
  Bi  Bi23  1  0.405110  0.596219  0.740100  1
