# generated using pymatgen
data_LiMg3V2(SbPt)6
_symmetry_space_group_name_H-M   'P 1'
_cell_length_a   7.64829127
_cell_length_b   7.65452189
_cell_length_c   7.66784709
_cell_angle_alpha   99.64687510
_cell_angle_beta   99.81115090
_cell_angle_gamma   119.94552596
_symmetry_Int_Tables_number   1
_chemical_formula_structural   LiMg3V2(SbPt)6
_chemical_formula_sum   'Li1 Mg3 V2 Sb6 Pt6'
_cell_volume   366.12637036
_cell_formula_units_Z   1
loop_
 _symmetry_equiv_pos_site_id
 _symmetry_equiv_pos_as_xyz
  1  'x, y, z'
loop_
 _atom_site_type_symbol
 _atom_site_label
 _atom_site_symmetry_multiplicity
 _atom_site_fract_x
 _atom_site_fract_y
 _atom_site_fract_z
 _atom_site_occupancy
  Li  Li0  1  0.329903  0.163508  0.499275  1
  Mg  Mg1  1  0.999706  0.502669  0.499417  1
  Mg  Mg2  1  0.162052  0.331163  0.999507  1
  Mg  Mg3  1  0.504005  0.999012  0.999839  1
  V  V4  1  0.832527  0.668612  0.000845  1
  V  V5  1  0.669221  0.832550  0.500433  1
  Sb  Sb6  1  0.921949  0.093577  0.248991  1
  Sb  Sb7  1  0.260542  0.754236  0.251078  1
  Sb  Sb8  1  0.571758  0.404452  0.259051  1
  Sb  Sb9  1  0.099773  0.922771  0.741675  1
  Sb  Sb10  1  0.743188  0.258922  0.746316  1
  Sb  Sb11  1  0.406429  0.568791  0.753054  1
  Pt  Pt12  1  0.188293  0.020426  0.113054  1
  Pt  Pt13  1  0.871629  0.392814  0.120923  1
  Pt  Pt14  1  0.561954  0.708922  0.135635  1
  Pt  Pt15  1  0.017965  0.191207  0.620768  1
  Pt  Pt16  1  0.393219  0.868175  0.622106  1
  Pt  Pt17  1  0.715883  0.568194  0.638031  1
