# generated using pymatgen
data_Sm8Ho12Sn11Sb5
_symmetry_space_group_name_H-M   'P 1'
_cell_length_a   8.14889687
_cell_length_b   8.17937172
_cell_length_c   15.43775804
_cell_angle_alpha   90.08224178
_cell_angle_beta   90.16492305
_cell_angle_gamma   89.90944537
_symmetry_Int_Tables_number   1
_chemical_formula_structural   Sm8Ho12Sn11Sb5
_chemical_formula_sum   'Sm8 Ho12 Sn11 Sb5'
_cell_volume   1028.96407125
_cell_formula_units_Z   1
loop_
 _symmetry_equiv_pos_site_id
 _symmetry_equiv_pos_as_xyz
  1  'x, y, z'
loop_
 _atom_site_type_symbol
 _atom_site_label
 _atom_site_symmetry_multiplicity
 _atom_site_fract_x
 _atom_site_fract_y
 _atom_site_fract_z
 _atom_site_occupancy
  Sm  Sm0  1  0.533654  0.327231  0.898181  1
  Sm  Sm1  1  0.032018  0.175609  0.601107  1
  Sm  Sm2  1  0.467991  0.675740  0.398715  1
  Sm  Sm3  1  0.968179  0.822616  0.101733  1
  Sm  Sm4  1  0.471451  0.674399  0.101341  1
  Sm  Sm5  1  0.974585  0.822079  0.400274  1
  Sm  Sm6  1  0.525002  0.322309  0.599863  1
  Sm  Sm7  1  0.028998  0.179840  0.899337  1
  Ho  Ho8  1  0.371724  0.839767  0.878304  1
  Ho  Ho9  1  0.871472  0.660866  0.622881  1
  Ho  Ho10  1  0.628496  0.160159  0.377245  1
  Ho  Ho11  1  0.127287  0.339508  0.122564  1
  Ho  Ho12  1  0.629462  0.161358  0.121806  1
  Ho  Ho13  1  0.130733  0.337791  0.377387  1
  Ho  Ho14  1  0.368632  0.838494  0.622847  1
  Ho  Ho15  1  0.870765  0.660842  0.877442  1
  Ho  Ho16  1  0.201009  0.501218  0.747705  1
  Ho  Ho17  1  0.700888  0.999566  0.749552  1
  Ho  Ho18  1  0.799094  0.498761  0.248954  1
  Ho  Ho19  1  0.299341  0.000767  0.251791  1
  Sn  Sn20  1  0.210636  0.535836  0.543336  1
  Sn  Sn21  1  0.289295  0.035561  0.456902  1
  Sn  Sn22  1  0.787764  0.464840  0.043035  1
  Sn  Sn23  1  0.566549  0.625470  0.750213  1
  Sn  Sn24  1  0.066706  0.876056  0.751492  1
  Sn  Sn25  1  0.433097  0.374914  0.249371  1
  Sn  Sn26  1  0.933084  0.124253  0.249844  1
  Sn  Sn27  1  0.336746  0.144208  0.751493  1
  Sn  Sn28  1  0.835781  0.355055  0.749508  1
  Sn  Sn29  1  0.664390  0.855370  0.250344  1
  Sn  Sn30  1  0.163815  0.644292  0.249749  1
  Sb  Sb31  1  0.284682  0.033201  0.044592  1
  Sb  Sb32  1  0.787255  0.464562  0.456258  1
  Sb  Sb33  1  0.712154  0.965103  0.543820  1
  Sb  Sb34  1  0.212954  0.534956  0.955897  1
  Sb  Sb35  1  0.714312  0.967404  0.955116  1
