# generated using pymatgen
data_V3Co5Ni4
_symmetry_space_group_name_H-M   'P 1'
_cell_length_a   5.01680100
_cell_length_b   5.02859884
_cell_length_c   12.21824346
_cell_angle_alpha   89.80933793
_cell_angle_beta   90.00000000
_cell_angle_gamma   119.92241376
_symmetry_Int_Tables_number   1
_chemical_formula_structural   V3Co5Ni4
_chemical_formula_sum   'V6 Co10 Ni8'
_cell_volume   267.14624607
_cell_formula_units_Z   2
loop_
 _symmetry_equiv_pos_site_id
 _symmetry_equiv_pos_as_xyz
  1  'x, y, z'
loop_
 _atom_site_type_symbol
 _atom_site_label
 _atom_site_symmetry_multiplicity
 _atom_site_fract_x
 _atom_site_fract_y
 _atom_site_fract_z
 _atom_site_occupancy
  V  V0  1  0.000099  0.000198  0.993711  1
  V  V1  1  0.666467  0.332934  0.152744  1
  V  V2  1  0.333473  0.666944  0.347813  1
  V  V3  1  0.996426  0.992853  0.502321  1
  V  V4  1  0.333772  0.667544  0.659638  1
  V  V5  1  0.668659  0.337319  0.842420  1
  Co  Co6  1  0.008683  0.505378  0.999910  1
  Co  Co7  1  0.496696  0.505378  0.999910  1
  Co  Co8  1  0.496594  0.993187  0.000089  1
  Co  Co9  1  0.502053  0.004106  0.500069  1
  Co  Co10  1  0.502057  0.493646  0.500283  1
  Co  Co11  1  0.991589  0.493646  0.500283  1
  Co  Co12  1  0.835372  0.670743  0.666627  1
  Co  Co13  1  0.166626  0.333252  0.833517  1
  Co  Co14  1  0.165706  0.834793  0.832637  1
  Co  Co15  1  0.669087  0.834793  0.832637  1
  Ni  Ni16  1  0.166587  0.333175  0.167738  1
  Ni  Ni17  1  0.166547  0.833059  0.167932  1
  Ni  Ni18  1  0.666512  0.833059  0.167932  1
  Ni  Ni19  1  0.832509  0.665017  0.331934  1
  Ni  Ni20  1  0.333156  0.166471  0.331898  1
  Ni  Ni21  1  0.833316  0.166471  0.331898  1
  Ni  Ni22  1  0.334039  0.168016  0.668031  1
  Ni  Ni23  1  0.833977  0.168016  0.668031  1
