# generated using pymatgen
data_Hf4Nb4GeAsP2
_symmetry_space_group_name_H-M   'P 1'
_cell_length_a   3.56980300
_cell_length_b   6.97281616
_cell_length_c   8.46676324
_cell_angle_alpha   90.13926689
_cell_angle_beta   90.00000000
_cell_angle_gamma   90.00000000
_symmetry_Int_Tables_number   1
_chemical_formula_structural   Hf4Nb4GeAsP2
_chemical_formula_sum   'Hf4 Nb4 Ge1 As1 P2'
_cell_volume   210.75049235
_cell_formula_units_Z   1
loop_
 _symmetry_equiv_pos_site_id
 _symmetry_equiv_pos_as_xyz
  1  'x, y, z'
loop_
 _atom_site_type_symbol
 _atom_site_label
 _atom_site_symmetry_multiplicity
 _atom_site_fract_x
 _atom_site_fract_y
 _atom_site_fract_z
 _atom_site_occupancy
  Hf  Hf0  1  0.250000  0.033950  0.671811  1
  Hf  Hf1  1  0.250000  0.536258  0.830232  1
  Hf  Hf2  1  0.750000  0.458394  0.159821  1
  Hf  Hf3  1  0.750000  0.958102  0.339595  1
  Nb  Nb4  1  0.750000  0.865773  0.932413  1
  Nb  Nb5  1  0.250000  0.640636  0.446285  1
  Nb  Nb6  1  0.750000  0.363567  0.566617  1
  Nb  Nb7  1  0.250000  0.141092  0.054312  1
  Ge  Ge8  1  0.250000  0.759044  0.142234  1
  As  As9  1  0.250000  0.259508  0.356365  1
  P  P10  1  0.750000  0.740820  0.643745  1
  P  P11  1  0.750000  0.242857  0.856571  1
