# generated using pymatgen
data_Zr6Co17P12W
_symmetry_space_group_name_H-M   'P 1'
_cell_length_a   3.65436700
_cell_length_b   10.35767700
_cell_length_c   12.00613200
_cell_angle_alpha   90.00000000
_cell_angle_beta   90.00000000
_cell_angle_gamma   90.00000000
_symmetry_Int_Tables_number   1
_chemical_formula_structural   Zr6Co17P12W
_chemical_formula_sum   'Zr6 Co17 P12 W1'
_cell_volume   454.44113712
_cell_formula_units_Z   1
loop_
 _symmetry_equiv_pos_site_id
 _symmetry_equiv_pos_as_xyz
  1  'x, y, z'
loop_
 _atom_site_type_symbol
 _atom_site_label
 _atom_site_symmetry_multiplicity
 _atom_site_fract_x
 _atom_site_fract_y
 _atom_site_fract_z
 _atom_site_occupancy
  Zr  Zr0  1  0.000000  0.500000  0.529662  1
  Zr  Zr1  1  0.500000  0.000000  0.474222  1
  Zr  Zr2  1  0.500000  0.821291  0.208591  1
  Zr  Zr3  1  0.500000  0.178709  0.208591  1
  Zr  Zr4  1  0.000000  0.679639  0.793369  1
  Zr  Zr5  1  0.000000  0.320361  0.793369  1
  Co  Co6  1  0.000000  0.000000  0.835113  1
  Co  Co7  1  0.500000  0.500000  0.701717  1
  Co  Co8  1  0.000000  0.000000  0.297031  1
  Co  Co9  1  0.000000  0.500000  0.987265  1
  Co  Co10  1  0.500000  0.000000  0.014675  1
  Co  Co11  1  0.500000  0.331343  0.989619  1
  Co  Co12  1  0.500000  0.668657  0.989619  1
  Co  Co13  1  0.000000  0.165809  0.005925  1
  Co  Co14  1  0.000000  0.834191  0.005925  1
  Co  Co15  1  0.500000  0.298399  0.433321  1
  Co  Co16  1  0.500000  0.701601  0.433321  1
  Co  Co17  1  0.000000  0.200294  0.567858  1
  Co  Co18  1  0.000000  0.799706  0.567858  1
  Co  Co19  1  0.500000  0.876354  0.707424  1
  Co  Co20  1  0.500000  0.123646  0.707424  1
  Co  Co21  1  0.000000  0.624626  0.293273  1
  Co  Co22  1  0.000000  0.375374  0.293273  1
  P  P23  1  0.500000  0.500000  0.877465  1
  P  P24  1  0.000000  0.000000  0.120910  1
  P  P25  1  0.500000  0.500000  0.357129  1
  P  P26  1  0.000000  0.000000  0.649049  1
  P  P27  1  0.500000  0.315613  0.617929  1
  P  P28  1  0.500000  0.684387  0.617929  1
  P  P29  1  0.000000  0.182810  0.383622  1
  P  P30  1  0.000000  0.817190  0.383622  1
  P  P31  1  0.500000  0.848295  0.888456  1
  P  P32  1  0.500000  0.151705  0.888456  1
  P  P33  1  0.000000  0.660956  0.108454  1
  P  P34  1  0.000000  0.339044  0.108454  1
  W  W35  1  0.500000  0.500000  0.160080  1
