# generated using pymatgen
data_Sc2Co9Tc3As7
_symmetry_space_group_name_H-M   'P 1'
_cell_length_a   3.77459200
_cell_length_b   9.31076610
_cell_length_c   9.31076700
_cell_angle_alpha   119.99999965
_cell_angle_beta   90.00000000
_cell_angle_gamma   90.00000000
_symmetry_Int_Tables_number   1
_chemical_formula_structural   Sc2Co9Tc3As7
_chemical_formula_sum   'Sc2 Co9 Tc3 As7'
_cell_volume   283.38151886
_cell_formula_units_Z   1
loop_
 _symmetry_equiv_pos_site_id
 _symmetry_equiv_pos_as_xyz
  1  'x, y, z'
loop_
 _atom_site_type_symbol
 _atom_site_label
 _atom_site_symmetry_multiplicity
 _atom_site_fract_x
 _atom_site_fract_y
 _atom_site_fract_z
 _atom_site_occupancy
  Sc  Sc0  1  0.000000  0.666667  0.333333  1
  Sc  Sc1  1  0.500000  0.333333  0.666667  1
  Co  Co2  1  0.000000  0.567015  0.939228  1
  Co  Co3  1  0.000000  0.372213  0.432985  1
  Co  Co4  1  0.000000  0.060772  0.627787  1
  Co  Co5  1  0.000000  0.875429  0.160043  1
  Co  Co6  1  0.000000  0.284613  0.124571  1
  Co  Co7  1  0.000000  0.839957  0.715387  1
  Co  Co8  1  0.500000  0.945729  0.381731  1
  Co  Co9  1  0.500000  0.436001  0.054271  1
  Co  Co10  1  0.500000  0.618269  0.563999  1
  Tc  Tc11  1  0.500000  0.781258  0.901139  1
  Tc  Tc12  1  0.500000  0.119881  0.218742  1
  Tc  Tc13  1  0.500000  0.098861  0.880119  1
  As  As14  1  0.000000  0.000000  0.000000  1
  As  As15  1  0.500000  0.706537  0.121391  1
  As  As16  1  0.500000  0.414855  0.293463  1
  As  As17  1  0.500000  0.878609  0.585145  1
  As  As18  1  0.000000  0.583115  0.701598  1
  As  As19  1  0.000000  0.118482  0.416885  1
  As  As20  1  0.000000  0.298402  0.881518  1
