# generated using pymatgen
data_Rb5(CdAu)3
_symmetry_space_group_name_H-M   'P 1'
_cell_length_a   17.99843924
_cell_length_b   17.99843811
_cell_length_c   5.39316100
_cell_angle_alpha   90.00000000
_cell_angle_beta   90.00000000
_cell_angle_gamma   165.08570552
_symmetry_Int_Tables_number   1
_chemical_formula_structural   Rb5(CdAu)3
_chemical_formula_sum   'Rb5 Cd3 Au3'
_cell_volume   449.65302977
_cell_formula_units_Z   1
loop_
 _symmetry_equiv_pos_site_id
 _symmetry_equiv_pos_as_xyz
  1  'x, y, z'
loop_
 _atom_site_type_symbol
 _atom_site_label
 _atom_site_symmetry_multiplicity
 _atom_site_fract_x
 _atom_site_fract_y
 _atom_site_fract_z
 _atom_site_occupancy
  Rb  Rb0  1  0.000352  0.999648  0.000000  1
  Rb  Rb1  1  0.614087  0.385913  0.000000  1
  Rb  Rb2  1  0.384215  0.615785  0.000000  1
  Rb  Rb3  1  0.804435  0.195564  0.500000  1
  Rb  Rb4  1  0.194072  0.805927  0.500000  1
  Cd  Cd5  1  0.729480  0.270520  0.000000  1
  Cd  Cd6  1  0.917907  0.082093  0.500000  1
  Cd  Cd7  1  0.540736  0.459263  0.500000  1
  Au  Au8  1  0.271511  0.728489  0.000000  1
  Au  Au9  1  0.459981  0.540018  0.500000  1
  Au  Au10  1  0.083221  0.916779  0.500000  1
