# generated using pymatgen
data_TbEr3(MoN3)4
_symmetry_space_group_name_H-M   'P 1'
_cell_length_a   7.31106506
_cell_length_b   7.31106466
_cell_length_c   6.25899580
_cell_angle_alpha   73.42773001
_cell_angle_beta   73.42773056
_cell_angle_gamma   81.15478454
_symmetry_Int_Tables_number   1
_chemical_formula_structural   TbEr3(MoN3)4
_chemical_formula_sum   'Tb1 Er3 Mo4 N12'
_cell_volume   306.38051634
_cell_formula_units_Z   1
loop_
 _symmetry_equiv_pos_site_id
 _symmetry_equiv_pos_as_xyz
  1  'x, y, z'
loop_
 _atom_site_type_symbol
 _atom_site_label
 _atom_site_symmetry_multiplicity
 _atom_site_fract_x
 _atom_site_fract_y
 _atom_site_fract_z
 _atom_site_occupancy
  Tb  Tb0  1  0.293176  0.706824  0.750000  1
  Er  Er1  1  0.912349  0.087651  0.750000  1
  Er  Er2  1  0.708175  0.291825  0.250000  1
  Er  Er3  1  0.086577  0.913423  0.250000  1
  Mo  Mo4  1  0.800831  0.618768  0.772880  1
  Mo  Mo5  1  0.198759  0.380218  0.228674  1
  Mo  Mo6  1  0.619782  0.801241  0.271326  1
  Mo  Mo7  1  0.381232  0.199169  0.727120  1
  N  N8  1  0.217101  0.001123  0.848074  1
  N  N9  1  0.368566  0.346605  0.429655  1
  N  N10  1  0.634278  0.653458  0.567948  1
  N  N11  1  0.626296  0.110231  0.660916  1
  N  N12  1  0.998877  0.782899  0.651926  1
  N  N13  1  0.781313  0.001834  0.152583  1
  N  N14  1  0.110159  0.625345  0.163894  1
  N  N15  1  0.889769  0.373704  0.839084  1
  N  N16  1  0.998166  0.218687  0.347417  1
  N  N17  1  0.346542  0.365722  0.932052  1
  N  N18  1  0.653395  0.631434  0.070345  1
  N  N19  1  0.374655  0.889841  0.336106  1
