# generated using pymatgen
data_Zr3Ga3OsRh2
_symmetry_space_group_name_H-M   'P 1'
_cell_length_a   7.33821200
_cell_length_b   7.33821286
_cell_length_c   3.34820700
_cell_angle_alpha   90.00000000
_cell_angle_beta   90.00000000
_cell_angle_gamma   119.99998833
_symmetry_Int_Tables_number   1
_chemical_formula_structural   Zr3Ga3OsRh2
_chemical_formula_sum   'Zr3 Ga3 Os1 Rh2'
_cell_volume   156.14336776
_cell_formula_units_Z   1
loop_
 _symmetry_equiv_pos_site_id
 _symmetry_equiv_pos_as_xyz
  1  'x, y, z'
loop_
 _atom_site_type_symbol
 _atom_site_label
 _atom_site_symmetry_multiplicity
 _atom_site_fract_x
 _atom_site_fract_y
 _atom_site_fract_z
 _atom_site_occupancy
  Zr  Zr0  1  0.005476  0.397155  0.500000  1
  Zr  Zr1  1  0.602845  0.608322  0.500000  1
  Zr  Zr2  1  0.391678  0.994524  0.500000  1
  Ga  Ga3  1  0.999441  0.727953  0.000000  1
  Ga  Ga4  1  0.272047  0.271488  0.000000  1
  Ga  Ga5  1  0.728512  0.000559  0.000000  1
  Os  Os6  1  0.333333  0.666667  0.000000  1
  Rh  Rh7  1  0.666667  0.333333  0.000000  1
  Rh  Rh8  1  0.000000  0.000000  0.500000  1
