# generated using pymatgen
data_Li3Ca4Si8Pd
_symmetry_space_group_name_H-M   'P 1'
_cell_length_a   3.81625300
_cell_length_b   7.74706185
_cell_length_c   10.56962770
_cell_angle_alpha   90.32331386
_cell_angle_beta   90.00000000
_cell_angle_gamma   90.00000000
_symmetry_Int_Tables_number   1
_chemical_formula_structural   Li3Ca4Si8Pd
_chemical_formula_sum   'Li3 Ca4 Si8 Pd1'
_cell_volume   312.48340478
_cell_formula_units_Z   1
loop_
 _symmetry_equiv_pos_site_id
 _symmetry_equiv_pos_as_xyz
  1  'x, y, z'
loop_
 _atom_site_type_symbol
 _atom_site_label
 _atom_site_symmetry_multiplicity
 _atom_site_fract_x
 _atom_site_fract_y
 _atom_site_fract_z
 _atom_site_occupancy
  Li  Li0  1  0.750000  0.997877  0.609911  1
  Li  Li1  1  0.250000  0.500017  0.112174  1
  Li  Li2  1  0.750000  0.497437  0.886391  1
  Ca  Ca3  1  0.250000  0.135113  0.865032  1
  Ca  Ca4  1  0.750000  0.863737  0.139017  1
  Ca  Ca5  1  0.250000  0.640509  0.630755  1
  Ca  Ca6  1  0.750000  0.365820  0.365457  1
  Si  Si7  1  0.750000  0.262882  0.072357  1
  Si  Si8  1  0.250000  0.730329  0.932296  1
  Si  Si9  1  0.750000  0.779380  0.433885  1
  Si  Si10  1  0.250000  0.217018  0.563562  1
  Si  Si11  1  0.750000  0.833938  0.825169  1
  Si  Si12  1  0.250000  0.164014  0.184245  1
  Si  Si13  1  0.750000  0.329266  0.667537  1
  Si  Si14  1  0.250000  0.676964  0.323683  1
  Pd  Pd15  1  0.250000  0.005698  0.388531  1
