# generated using pymatgen
data_La3CeCdRu
_symmetry_space_group_name_H-M   'P 1'
_cell_length_a   9.99008491
_cell_length_b   9.99008419
_cell_length_c   9.99008300
_cell_angle_alpha   59.99999402
_cell_angle_beta   59.99999638
_cell_angle_gamma   59.99999523
_symmetry_Int_Tables_number   1
_chemical_formula_structural   La3CeCdRu
_chemical_formula_sum   'La12 Ce4 Cd4 Ru4'
_cell_volume   705.00529572
_cell_formula_units_Z   4
loop_
 _symmetry_equiv_pos_site_id
 _symmetry_equiv_pos_as_xyz
  1  'x, y, z'
loop_
 _atom_site_type_symbol
 _atom_site_label
 _atom_site_symmetry_multiplicity
 _atom_site_fract_x
 _atom_site_fract_y
 _atom_site_fract_z
 _atom_site_occupancy
  La  La0  1  0.557625  0.557625  0.942375  1
  La  La1  1  0.942375  0.557625  0.942375  1
  La  La2  1  0.557625  0.942375  0.942375  1
  La  La3  1  0.942375  0.942375  0.557625  1
  La  La4  1  0.557625  0.942375  0.557625  1
  La  La5  1  0.942375  0.557625  0.557625  1
  La  La6  1  0.192721  0.192721  0.807279  1
  La  La7  1  0.807279  0.192721  0.807279  1
  La  La8  1  0.192720  0.807280  0.807279  1
  La  La9  1  0.807279  0.807280  0.192721  1
  La  La10  1  0.192720  0.807279  0.192720  1
  La  La11  1  0.807279  0.192721  0.192721  1
  Ce  Ce12  1  0.342618  0.342618  0.972145  1
  Ce  Ce13  1  0.342618  0.972145  0.342618  1
  Ce  Ce14  1  0.972145  0.342618  0.342618  1
  Ce  Ce15  1  0.342618  0.342618  0.342618  1
  Cd  Cd16  1  0.578771  0.578771  0.263687  1
  Cd  Cd17  1  0.578771  0.263687  0.578771  1
  Cd  Cd18  1  0.263687  0.578771  0.578771  1
  Cd  Cd19  1  0.578771  0.578771  0.578771  1
  Ru  Ru20  1  0.145076  0.145076  0.564773  1
  Ru  Ru21  1  0.145076  0.564773  0.145076  1
  Ru  Ru22  1  0.564773  0.145076  0.145076  1
  Ru  Ru23  1  0.145076  0.145076  0.145076  1
