# generated using pymatgen
data_YbHo3(SiPd2)4
_symmetry_space_group_name_H-M   'P 1'
_cell_length_a   5.54227621
_cell_length_b   6.98537000
_cell_length_c   7.30835827
_cell_angle_alpha   90.00000000
_cell_angle_beta   89.96881493
_cell_angle_gamma   90.00000000
_symmetry_Int_Tables_number   1
_chemical_formula_structural   YbHo3(SiPd2)4
_chemical_formula_sum   'Yb1 Ho3 Si4 Pd8'
_cell_volume   282.94195181
_cell_formula_units_Z   1
loop_
 _symmetry_equiv_pos_site_id
 _symmetry_equiv_pos_as_xyz
  1  'x, y, z'
loop_
 _atom_site_type_symbol
 _atom_site_label
 _atom_site_symmetry_multiplicity
 _atom_site_fract_x
 _atom_site_fract_y
 _atom_site_fract_z
 _atom_site_occupancy
  Yb  Yb0  1  0.358162  0.750000  0.026710  1
  Ho  Ho1  1  0.142791  0.750000  0.527448  1
  Ho  Ho2  1  0.640313  0.250000  0.972348  1
  Ho  Ho3  1  0.858885  0.250000  0.473040  1
  Si  Si4  1  0.643363  0.750000  0.378328  1
  Si  Si5  1  0.859207  0.750000  0.878112  1
  Si  Si6  1  0.358780  0.250000  0.622839  1
  Si  Si7  1  0.139930  0.250000  0.122016  1
  Pd  Pd8  1  0.904611  0.551120  0.176498  1
  Pd  Pd9  1  0.598579  0.948389  0.677484  1
  Pd  Pd10  1  0.091049  0.051859  0.820938  1
  Pd  Pd11  1  0.405046  0.446958  0.324658  1
  Pd  Pd12  1  0.091049  0.448141  0.820938  1
  Pd  Pd13  1  0.405046  0.053042  0.324658  1
  Pd  Pd14  1  0.904611  0.948880  0.176498  1
  Pd  Pd15  1  0.598579  0.551611  0.677484  1
