# generated using pymatgen
data_Zr6Zn17Ag6As
_symmetry_space_group_name_H-M   'P 1'
_cell_length_a   8.90683702
_cell_length_b   8.90507404
_cell_length_c   8.90507400
_cell_angle_alpha   60.00000016
_cell_angle_beta   60.00654759
_cell_angle_gamma   60.00654164
_symmetry_Int_Tables_number   1
_chemical_formula_structural   Zr6Zn17Ag6As
_chemical_formula_sum   'Zr6 Zn17 Ag6 As1'
_cell_volume   499.48969179
_cell_formula_units_Z   1
loop_
 _symmetry_equiv_pos_site_id
 _symmetry_equiv_pos_as_xyz
  1  'x, y, z'
loop_
 _atom_site_type_symbol
 _atom_site_label
 _atom_site_symmetry_multiplicity
 _atom_site_fract_x
 _atom_site_fract_y
 _atom_site_fract_z
 _atom_site_occupancy
  Zr  Zr0  1  0.707789  0.292162  0.292162  1
  Zr  Zr1  1  0.292211  0.707838  0.707838  1
  Zr  Zr2  1  0.292211  0.707838  0.292111  1
  Zr  Zr3  1  0.707789  0.292162  0.707889  1
  Zr  Zr4  1  0.292211  0.292111  0.707838  1
  Zr  Zr5  1  0.707789  0.707889  0.292162  1
  Zn  Zn6  1  0.635949  0.121350  0.121350  1
  Zn  Zn7  1  0.364051  0.878650  0.878650  1
  Zn  Zn8  1  0.500000  0.000000  0.000000  1
  Zn  Zn9  1  0.000000  0.500000  0.500000  1
  Zn  Zn10  1  0.000000  0.500000  0.000000  1
  Zn  Zn11  1  0.500000  0.000000  0.500000  1
  Zn  Zn12  1  0.000000  0.000000  0.500000  1
  Zn  Zn13  1  0.500000  0.500000  0.000000  1
  Zn  Zn14  1  0.335023  0.334084  0.334084  1
  Zn  Zn15  1  0.664977  0.665916  0.665916  1
  Zn  Zn16  1  0.335023  0.334084  0.996809  1
  Zn  Zn17  1  0.335023  0.996809  0.334084  1
  Zn  Zn18  1  0.664977  0.665916  0.003191  1
  Zn  Zn19  1  0.664977  0.003191  0.665916  1
  Zn  Zn20  1  0.997211  0.334264  0.334264  1
  Zn  Zn21  1  0.002789  0.665736  0.665736  1
  Zn  Zn22  1  0.000000  0.000000  0.000000  1
  Ag  Ag23  1  0.121649  0.119585  0.119585  1
  Ag  Ag24  1  0.878351  0.880415  0.880415  1
  Ag  Ag25  1  0.121649  0.119585  0.639182  1
  Ag  Ag26  1  0.121649  0.639182  0.119585  1
  Ag  Ag27  1  0.878351  0.880415  0.360818  1
  Ag  Ag28  1  0.878351  0.360818  0.880415  1
  As  As29  1  0.500000  0.500000  0.500000  1
