# generated using pymatgen
data_Dy5ErAl24Ir5Ru3
_symmetry_space_group_name_H-M   'P 1'
_cell_length_a   8.81744302
_cell_length_b   8.82814479
_cell_length_c   9.50840801
_cell_angle_alpha   90.10547114
_cell_angle_beta   90.00200080
_cell_angle_gamma   119.96814825
_symmetry_Int_Tables_number   1
_chemical_formula_structural   Dy5ErAl24Ir5Ru3
_chemical_formula_sum   'Dy5 Er1 Al24 Ir5 Ru3'
_cell_volume   641.19311802
_cell_formula_units_Z   1
loop_
 _symmetry_equiv_pos_site_id
 _symmetry_equiv_pos_as_xyz
  1  'x, y, z'
loop_
 _atom_site_type_symbol
 _atom_site_label
 _atom_site_symmetry_multiplicity
 _atom_site_fract_x
 _atom_site_fract_y
 _atom_site_fract_z
 _atom_site_occupancy
  Dy  Dy0  1  0.194170  0.388259  0.249598  1
  Dy  Dy1  1  0.805826  0.611532  0.750401  1
  Dy  Dy2  1  0.612084  0.806102  0.250732  1
  Dy  Dy3  1  0.388099  0.193929  0.749261  1
  Dy  Dy4  1  0.194064  0.806146  0.250733  1
  Er  Er5  1  0.805476  0.194418  0.749275  1
  Al  Al6  1  0.333509  0.666964  0.027551  1
  Al  Al7  1  0.666641  0.332854  0.972180  1
  Al  Al8  1  0.665807  0.331130  0.526103  1
  Al  Al9  1  0.334389  0.668702  0.474179  1
  Al  Al10  1  0.162600  0.325480  0.576609  1
  Al  Al11  1  0.837185  0.674416  0.423581  1
  Al  Al12  1  0.673833  0.837725  0.577220  1
  Al  Al13  1  0.837253  0.674542  0.076676  1
  Al  Al14  1  0.326271  0.162500  0.422971  1
  Al  Al15  1  0.162547  0.325365  0.923133  1
  Al  Al16  1  0.163754  0.837518  0.577117  1
  Al  Al17  1  0.325560  0.162670  0.076181  1
  Al  Al18  1  0.836214  0.162469  0.423192  1
  Al  Al19  1  0.674532  0.837503  0.923637  1
  Al  Al20  1  0.837094  0.162660  0.075956  1
  Al  Al21  1  0.162889  0.837354  0.923743  1
  Al  Al22  1  0.562058  0.124120  0.251080  1
  Al  Al23  1  0.438334  0.876171  0.748923  1
  Al  Al24  1  0.874890  0.437713  0.249645  1
  Al  Al25  1  0.124814  0.561892  0.750338  1
  Al  Al26  1  0.562821  0.437739  0.249654  1
  Al  Al27  1  0.437151  0.562303  0.750342  1
  Al  Al28  1  0.000510  0.001039  0.249904  1
  Al  Al29  1  0.999253  0.999186  0.750090  1
  Ir  Ir30  1  0.500224  0.000096  0.999834  1
  Ir  Ir31  1  0.999853  0.499719  0.999804  1
  Ir  Ir32  1  0.500063  0.499922  0.999980  1
  Ir  Ir33  1  0.999884  0.499761  0.500167  1
  Ir  Ir34  1  0.500065  0.499917  0.500023  1
  Ru  Ru35  1  0.500291  0.000165  0.500189  1
  Ru  Ru36  1  0.999995  0.000008  0.999985  1
  Ru  Ru37  1  0.999996  0.000008  0.500013  1
