# generated using pymatgen
data_SmSi4PdRh5
_symmetry_space_group_name_H-M   'P 1'
_cell_length_a   7.03420100
_cell_length_b   7.07778118
_cell_length_c   3.82232700
_cell_angle_alpha   90.00000000
_cell_angle_beta   90.00000000
_cell_angle_gamma   119.79653024
_symmetry_Int_Tables_number   1
_chemical_formula_structural   SmSi4PdRh5
_chemical_formula_sum   'Sm1 Si4 Pd1 Rh5'
_cell_volume   165.14185619
_cell_formula_units_Z   1
loop_
 _symmetry_equiv_pos_site_id
 _symmetry_equiv_pos_as_xyz
  1  'x, y, z'
loop_
 _atom_site_type_symbol
 _atom_site_label
 _atom_site_symmetry_multiplicity
 _atom_site_fract_x
 _atom_site_fract_y
 _atom_site_fract_z
 _atom_site_occupancy
  Sm  Sm0  1  0.995948  0.991897  0.000000  1
  Si  Si1  1  0.338194  0.676388  0.000000  1
  Si  Si2  1  0.404813  0.198469  0.500000  1
  Si  Si3  1  0.793655  0.198469  0.500000  1
  Si  Si4  1  0.799273  0.598546  0.500000  1
  Pd  Pd5  1  0.197386  0.394771  0.500000  1
  Rh  Rh6  1  0.534071  0.068140  0.000000  1
  Rh  Rh7  1  0.935951  0.468299  0.000000  1
  Rh  Rh8  1  0.532346  0.468299  0.000000  1
  Rh  Rh9  1  0.199619  0.801696  0.500000  1
  Rh  Rh10  1  0.602077  0.801696  0.500000  1
