# generated using pymatgen
data_Yb3In(Ru2O7)2
_symmetry_space_group_name_H-M   'P 1'
_cell_length_a   7.16203986
_cell_length_b   7.25581211
_cell_length_c   7.25581200
_cell_angle_alpha   60.00000049
_cell_angle_beta   59.56593567
_cell_angle_gamma   59.56593602
_symmetry_Int_Tables_number   1
_chemical_formula_structural   Yb3In(Ru2O7)2
_chemical_formula_sum   'Yb3 In1 Ru4 O14'
_cell_volume   264.85797619
_cell_formula_units_Z   1
loop_
 _symmetry_equiv_pos_site_id
 _symmetry_equiv_pos_as_xyz
  1  'x, y, z'
loop_
 _atom_site_type_symbol
 _atom_site_label
 _atom_site_symmetry_multiplicity
 _atom_site_fract_x
 _atom_site_fract_y
 _atom_site_fract_z
 _atom_site_occupancy
  Yb  Yb0  1  0.125000  0.125000  0.125000  1
  Yb  Yb1  1  0.125000  0.125000  0.625000  1
  Yb  Yb2  1  0.125000  0.625000  0.125000  1
  In  In3  1  0.625000  0.125000  0.125000  1
  Ru  Ru4  1  0.625000  0.625000  0.625000  1
  Ru  Ru5  1  0.125000  0.625000  0.625000  1
  Ru  Ru6  1  0.625000  0.625000  0.125000  1
  Ru  Ru7  1  0.625000  0.125000  0.625000  1
  O  O8  1  0.974276  0.008575  0.008575  1
  O  O9  1  0.275724  0.241425  0.241425  1
  O  O10  1  0.298924  0.299146  0.700965  1
  O  O11  1  0.551516  0.550518  0.948983  1
  O  O12  1  0.698484  0.301017  0.699482  1
  O  O13  1  0.698484  0.301017  0.301017  1
  O  O14  1  0.298924  0.700965  0.700965  1
  O  O15  1  0.298924  0.700965  0.299146  1
  O  O16  1  0.698484  0.699482  0.301017  1
  O  O17  1  0.951076  0.549035  0.549035  1
  O  O18  1  0.551516  0.948983  0.948983  1
  O  O19  1  0.951076  0.950854  0.549035  1
  O  O20  1  0.951076  0.549035  0.950854  1
  O  O21  1  0.551516  0.948983  0.550518  1
