# generated using pymatgen
data_ErZrCo9CuP6
_symmetry_space_group_name_H-M   'P 1'
_cell_length_a   3.63098700
_cell_length_b   10.15563000
_cell_length_c   11.72706500
_cell_angle_alpha   90.00000000
_cell_angle_beta   90.00000000
_cell_angle_gamma   90.00000000
_symmetry_Int_Tables_number   1
_chemical_formula_structural   ErZrCo9CuP6
_chemical_formula_sum   'Er2 Zr2 Co18 Cu2 P12'
_cell_volume   432.43505874
_cell_formula_units_Z   2
loop_
 _symmetry_equiv_pos_site_id
 _symmetry_equiv_pos_as_xyz
  1  'x, y, z'
loop_
 _atom_site_type_symbol
 _atom_site_label
 _atom_site_symmetry_multiplicity
 _atom_site_fract_x
 _atom_site_fract_y
 _atom_site_fract_z
 _atom_site_occupancy
  Er  Er0  1  0.750000  0.420179  0.295936  1
  Er  Er1  1  0.750000  0.079821  0.795936  1
  Zr  Zr2  1  0.250000  0.578105  0.702410  1
  Zr  Zr3  1  0.250000  0.921895  0.202410  1
  Co  Co4  1  0.750000  0.285688  0.007772  1
  Co  Co5  1  0.750000  0.214312  0.507772  1
  Co  Co6  1  0.250000  0.408251  0.488683  1
  Co  Co7  1  0.250000  0.091749  0.988683  1
  Co  Co8  1  0.750000  0.592795  0.520170  1
  Co  Co9  1  0.750000  0.907205  0.020170  1
  Co  Co10  1  0.250000  0.223788  0.176304  1
  Co  Co11  1  0.250000  0.276212  0.676304  1
  Co  Co12  1  0.750000  0.776152  0.825703  1
  Co  Co13  1  0.750000  0.723848  0.325703  1
  Co  Co14  1  0.250000  0.879598  0.698767  1
  Co  Co15  1  0.250000  0.620402  0.198767  1
  Co  Co16  1  0.750000  0.119050  0.298583  1
  Co  Co17  1  0.750000  0.380950  0.798583  1
  Co  Co18  1  0.250000  0.466080  0.928785  1
  Co  Co19  1  0.250000  0.033920  0.428785  1
  Co  Co20  1  0.750000  0.537501  0.064764  1
  Co  Co21  1  0.750000  0.962499  0.564764  1
  Cu  Cu22  1  0.250000  0.713021  0.991965  1
  Cu  Cu23  1  0.250000  0.786979  0.491965  1
  P  P24  1  0.250000  0.421654  0.111037  1
  P  P25  1  0.250000  0.078346  0.611037  1
  P  P26  1  0.750000  0.576304  0.880283  1
  P  P27  1  0.750000  0.923696  0.380283  1
  P  P28  1  0.250000  0.266537  0.869115  1
  P  P29  1  0.250000  0.233463  0.369115  1
  P  P30  1  0.750000  0.734087  0.139410  1
  P  P31  1  0.750000  0.765913  0.639410  1
  P  P32  1  0.250000  0.599415  0.391043  1
  P  P33  1  0.250000  0.900585  0.891043  1
  P  P34  1  0.750000  0.397908  0.609268  1
  P  P35  1  0.750000  0.102092  0.109268  1
