# generated using pymatgen
data_Dy2Ho2Al13Ga5Ir6
_symmetry_space_group_name_H-M   'P 1'
_cell_length_a   7.52332704
_cell_length_b   7.52406351
_cell_length_c   9.55220900
_cell_angle_alpha   90.00000000
_cell_angle_beta   90.00000000
_cell_angle_gamma   119.58961899
_symmetry_Int_Tables_number   1
_chemical_formula_structural   Dy2Ho2Al13Ga5Ir6
_chemical_formula_sum   'Dy2 Ho2 Al13 Ga5 Ir6'
_cell_volume   470.19494366
_cell_formula_units_Z   1
loop_
 _symmetry_equiv_pos_site_id
 _symmetry_equiv_pos_as_xyz
  1  'x, y, z'
loop_
 _atom_site_type_symbol
 _atom_site_label
 _atom_site_symmetry_multiplicity
 _atom_site_fract_x
 _atom_site_fract_y
 _atom_site_fract_z
 _atom_site_occupancy
  Dy  Dy0  1  0.995000  0.669867  0.250000  1
  Dy  Dy1  1  0.670161  0.996449  0.250000  1
  Ho  Ho2  1  0.000688  0.326566  0.750000  1
  Ho  Ho3  1  0.330440  0.006467  0.750000  1
  Al  Al4  1  0.002531  0.334911  0.072140  1
  Al  Al5  1  0.999427  0.665470  0.927149  1
  Al  Al6  1  0.999427  0.665470  0.572851  1
  Al  Al7  1  0.334755  0.001868  0.428042  1
  Al  Al8  1  0.002531  0.334911  0.427860  1
  Al  Al9  1  0.664817  0.998000  0.573084  1
  Al  Al10  1  0.664817  0.998000  0.926916  1
  Al  Al11  1  0.334755  0.001868  0.071958  1
  Al  Al12  1  0.333734  0.334160  0.557377  1
  Al  Al13  1  0.665884  0.665867  0.446446  1
  Al  Al14  1  0.665884  0.665867  0.053554  1
  Al  Al15  1  0.333734  0.334160  0.942623  1
  Al  Al16  1  0.450808  0.661790  0.750000  1
  Ga  Ga17  1  0.128688  0.128726  0.250000  1
  Ga  Ga18  1  0.869919  0.869162  0.750000  1
  Ga  Ga19  1  0.338565  0.547045  0.250000  1
  Ga  Ga20  1  0.662034  0.454414  0.750000  1
  Ga  Ga21  1  0.546913  0.339077  0.250000  1
  Ir  Ir22  1  0.672471  0.327937  0.000133  1
  Ir  Ir23  1  0.329286  0.671794  0.997653  1
  Ir  Ir24  1  0.329286  0.671794  0.502347  1
  Ir  Ir25  1  0.672471  0.327937  0.499867  1
  Ir  Ir26  1  0.000487  0.000211  0.999865  1
  Ir  Ir27  1  0.000487  0.000211  0.500135  1
