# generated using pymatgen
data_Hf2Sc(AlNi)3
_symmetry_space_group_name_H-M   'P 1'
_cell_length_a   6.94508841
_cell_length_b   6.94508842
_cell_length_c   3.39063700
_cell_angle_alpha   90.00000000
_cell_angle_beta   90.00000000
_cell_angle_gamma   119.96076636
_symmetry_Int_Tables_number   1
_chemical_formula_structural   Hf2Sc(AlNi)3
_chemical_formula_sum   'Hf2 Sc1 Al3 Ni3'
_cell_volume   141.68994985
_cell_formula_units_Z   1
loop_
 _symmetry_equiv_pos_site_id
 _symmetry_equiv_pos_as_xyz
  1  'x, y, z'
loop_
 _atom_site_type_symbol
 _atom_site_label
 _atom_site_symmetry_multiplicity
 _atom_site_fract_x
 _atom_site_fract_y
 _atom_site_fract_z
 _atom_site_occupancy
  Hf  Hf0  1  0.591023  0.000357  0.500000  1
  Hf  Hf1  1  0.000357  0.591023  0.500000  1
  Sc  Sc2  1  0.409985  0.409985  0.500000  1
  Al  Al3  1  0.745910  0.745910  0.000000  1
  Al  Al4  1  0.251833  0.002002  0.000000  1
  Al  Al5  1  0.002002  0.251833  0.000000  1
  Ni  Ni6  1  0.672619  0.332247  0.000000  1
  Ni  Ni7  1  0.332247  0.672619  0.000000  1
  Ni  Ni8  1  0.994023  0.994023  0.500000  1
