# generated using pymatgen
data_Li3La8Ho9Si16
_symmetry_space_group_name_H-M   'P 1'
_cell_length_a   7.35819300
_cell_length_b   7.80082952
_cell_length_c   14.82867000
_cell_angle_alpha   90.00000000
_cell_angle_beta   90.00000000
_cell_angle_gamma   89.97908926
_symmetry_Int_Tables_number   1
_chemical_formula_structural   Li3La8Ho9Si16
_chemical_formula_sum   'Li3 La8 Ho9 Si16'
_cell_volume   851.16573721
_cell_formula_units_Z   1
loop_
 _symmetry_equiv_pos_site_id
 _symmetry_equiv_pos_as_xyz
  1  'x, y, z'
loop_
 _atom_site_type_symbol
 _atom_site_label
 _atom_site_symmetry_multiplicity
 _atom_site_fract_x
 _atom_site_fract_y
 _atom_site_fract_z
 _atom_site_occupancy
  Li  Li0  1  0.650419  0.990666  0.250000  1
  Li  Li1  1  0.150740  0.506127  0.250000  1
  Li  Li2  1  0.849376  0.489914  0.750000  1
  La  La3  1  0.974089  0.815961  0.104773  1
  La  La4  1  0.474042  0.686007  0.396414  1
  La  La5  1  0.527632  0.325501  0.899089  1
  La  La6  1  0.017174  0.185415  0.600060  1
  La  La7  1  0.017174  0.185415  0.899940  1
  La  La8  1  0.527632  0.325501  0.600911  1
  La  La9  1  0.474042  0.686007  0.103586  1
  La  La10  1  0.974089  0.815961  0.395227  1
  Ho  Ho11  1  0.350403  0.005480  0.750000  1
  Ho  Ho12  1  0.683017  0.811960  0.875018  1
  Ho  Ho13  1  0.170696  0.673961  0.625058  1
  Ho  Ho14  1  0.823775  0.317011  0.127595  1
  Ho  Ho15  1  0.326998  0.179789  0.374292  1
  Ho  Ho16  1  0.326998  0.179789  0.125708  1
  Ho  Ho17  1  0.823775  0.317011  0.372405  1
  Ho  Ho18  1  0.170696  0.673961  0.874942  1
  Ho  Ho19  1  0.683017  0.811960  0.624982  1
  Si  Si20  1  0.766909  0.609027  0.250000  1
  Si  Si21  1  0.269811  0.892101  0.250000  1
  Si  Si22  1  0.726125  0.108227  0.750000  1
  Si  Si23  1  0.230910  0.383114  0.750000  1
  Si  Si24  1  0.028138  0.101897  0.250000  1
  Si  Si25  1  0.524304  0.400018  0.250000  1
  Si  Si26  1  0.468899  0.611312  0.750000  1
  Si  Si27  1  0.976511  0.897542  0.750000  1
  Si  Si28  1  0.853647  0.535208  0.969183  1
  Si  Si29  1  0.355117  0.970839  0.539924  1
  Si  Si30  1  0.649245  0.035359  0.032998  1
  Si  Si31  1  0.148295  0.465275  0.462527  1
  Si  Si32  1  0.148295  0.465275  0.037473  1
  Si  Si33  1  0.649245  0.035359  0.467002  1
  Si  Si34  1  0.355117  0.970839  0.960076  1
  Si  Si35  1  0.853647  0.535208  0.530817  1
