# generated using pymatgen
data_Gd2Y3Tm3(WO6)4
_symmetry_space_group_name_H-M   'P 1'
_cell_length_a   5.41101828
_cell_length_b   7.71082647
_cell_length_c   11.45262633
_cell_angle_alpha   75.58188987
_cell_angle_beta   90.00476160
_cell_angle_gamma   90.07721350
_symmetry_Int_Tables_number   1
_chemical_formula_structural   Gd2Y3Tm3(WO6)4
_chemical_formula_sum   'Gd2 Y3 Tm3 W4 O24'
_cell_volume   462.79244207
_cell_formula_units_Z   1
loop_
 _symmetry_equiv_pos_site_id
 _symmetry_equiv_pos_as_xyz
  1  'x, y, z'
loop_
 _atom_site_type_symbol
 _atom_site_label
 _atom_site_symmetry_multiplicity
 _atom_site_fract_x
 _atom_site_fract_y
 _atom_site_fract_z
 _atom_site_occupancy
  Gd  Gd0  1  0.684513  0.499223  0.751002  1
  Gd  Gd1  1  0.316163  0.499640  0.249686  1
  Y  Y2  1  0.741594  0.000587  0.751327  1
  Y  Y3  1  0.258686  0.000365  0.248975  1
  Y  Y4  1  0.185506  0.795995  0.577530  1
  Tm  Tm5  1  0.815924  0.794815  0.078209  1
  Tm  Tm6  1  0.184475  0.205215  0.921751  1
  Tm  Tm7  1  0.814678  0.205580  0.421454  1
  W  W8  1  0.255291  0.724432  0.886618  1
  W  W9  1  0.745444  0.724559  0.384484  1
  W  W10  1  0.254563  0.274936  0.614357  1
  W  W11  1  0.745297  0.275196  0.114374  1
  O  O12  1  0.046247  0.941389  0.897451  1
  O  O13  1  0.535412  0.844562  0.933788  1
  O  O14  1  0.953676  0.942177  0.395572  1
  O  O15  1  0.457791  0.791324  0.728673  1
  O  O16  1  0.467211  0.846380  0.429633  1
  O  O17  1  0.982747  0.713780  0.772191  1
  O  O18  1  0.545376  0.791371  0.225493  1
  O  O19  1  0.850743  0.636010  0.547258  1
  O  O20  1  0.354547  0.489430  0.887621  1
  O  O21  1  0.017278  0.714328  0.269800  1
  O  O22  1  0.358126  0.508565  0.612822  1
  O  O23  1  0.855216  0.362285  0.952082  1
  O  O24  1  0.144937  0.637080  0.048580  1
  O  O25  1  0.644780  0.489245  0.386173  1
  O  O26  1  0.984576  0.286567  0.730595  1
  O  O27  1  0.645657  0.510142  0.112533  1
  O  O28  1  0.144988  0.362814  0.451967  1
  O  O29  1  0.454572  0.207280  0.773869  1
  O  O30  1  0.016255  0.285577  0.229889  1
  O  O31  1  0.533777  0.154362  0.567610  1
  O  O32  1  0.544992  0.208098  0.273354  1
  O  O33  1  0.040813  0.061644  0.603044  1
  O  O34  1  0.464005  0.156274  0.067439  1
  O  O35  1  0.954148  0.058776  0.102796  1
