# generated using pymatgen
data_Nd4Dy3Au10
_symmetry_space_group_name_H-M   'P 1'
_cell_length_a   8.87092221
_cell_length_b   8.87092412
_cell_length_c   10.54742600
_cell_angle_alpha   90.00000000
_cell_angle_beta   90.00000000
_cell_angle_gamma   107.10738930
_symmetry_Int_Tables_number   1
_chemical_formula_structural   Nd4Dy3Au10
_chemical_formula_sum   'Nd8 Dy6 Au20'
_cell_volume   793.28773486
_cell_formula_units_Z   2
loop_
 _symmetry_equiv_pos_site_id
 _symmetry_equiv_pos_as_xyz
  1  'x, y, z'
loop_
 _atom_site_type_symbol
 _atom_site_label
 _atom_site_symmetry_multiplicity
 _atom_site_fract_x
 _atom_site_fract_y
 _atom_site_fract_z
 _atom_site_occupancy
  Nd  Nd0  1  0.695822  0.304178  0.000000  1
  Nd  Nd1  1  0.195822  0.804178  0.500000  1
  Nd  Nd2  1  0.808592  0.808592  0.305246  1
  Nd  Nd3  1  0.308592  0.308592  0.194754  1
  Nd  Nd4  1  0.804178  0.195822  0.500000  1
  Nd  Nd5  1  0.304178  0.695822  0.000000  1
  Nd  Nd6  1  0.691408  0.691408  0.805246  1
  Nd  Nd7  1  0.191408  0.191408  0.694754  1
  Dy  Dy8  1  0.504060  0.004060  0.250000  1
  Dy  Dy9  1  0.995940  0.495940  0.750000  1
  Dy  Dy10  1  0.000000  0.000000  0.000000  1
  Dy  Dy11  1  0.004060  0.504060  0.250000  1
  Dy  Dy12  1  0.495940  0.995940  0.750000  1
  Dy  Dy13  1  0.500000  0.500000  0.500000  1
  Au  Au14  1  0.146613  0.437051  0.494901  1
  Au  Au15  1  0.898017  0.898017  0.599163  1
  Au  Au16  1  0.562949  0.853387  0.505099  1
  Au  Au17  1  0.864653  0.152747  0.208614  1
  Au  Au18  1  0.364653  0.652747  0.291386  1
  Au  Au19  1  0.652747  0.364653  0.291386  1
  Au  Au20  1  0.398017  0.398017  0.900837  1
  Au  Au21  1  0.937051  0.646613  0.005099  1
  Au  Au22  1  0.347253  0.635347  0.708614  1
  Au  Au23  1  0.353387  0.062949  0.994901  1
  Au  Au24  1  0.601983  0.601983  0.099163  1
  Au  Au25  1  0.646613  0.937051  0.005099  1
  Au  Au26  1  0.101983  0.101983  0.400837  1
  Au  Au27  1  0.635347  0.347253  0.708614  1
  Au  Au28  1  0.135347  0.847253  0.791386  1
  Au  Au29  1  0.062949  0.353387  0.994901  1
  Au  Au30  1  0.853387  0.562949  0.505099  1
  Au  Au31  1  0.152747  0.864653  0.208614  1
  Au  Au32  1  0.437051  0.146613  0.494901  1
  Au  Au33  1  0.847253  0.135347  0.791386  1
