# generated using pymatgen
data_Ba8Al(ReN4)3
_symmetry_space_group_name_H-M   'P 1'
_cell_length_a   6.67138432
_cell_length_b   6.67138442
_cell_length_c   13.40671200
_cell_angle_alpha   89.56949936
_cell_angle_beta   90.43050924
_cell_angle_gamma   126.68779013
_symmetry_Int_Tables_number   1
_chemical_formula_structural   Ba8Al(ReN4)3
_chemical_formula_sum   'Ba8 Al1 Re3 N12'
_cell_volume   478.47658043
_cell_formula_units_Z   1
loop_
 _symmetry_equiv_pos_site_id
 _symmetry_equiv_pos_as_xyz
  1  'x, y, z'
loop_
 _atom_site_type_symbol
 _atom_site_label
 _atom_site_symmetry_multiplicity
 _atom_site_fract_x
 _atom_site_fract_y
 _atom_site_fract_z
 _atom_site_occupancy
  Ba  Ba0  1  0.565186  0.434814  0.653111  1
  Ba  Ba1  1  0.438825  0.561175  0.366782  1
  Ba  Ba2  1  0.927435  0.072565  0.128020  1
  Ba  Ba3  1  0.048730  0.951270  0.865130  1
  Ba  Ba4  1  0.865246  0.134754  0.581975  1
  Ba  Ba5  1  0.144460  0.855540  0.420069  1
  Ba  Ba6  1  0.635968  0.364032  0.068078  1
  Ba  Ba7  1  0.358778  0.641222  0.916016  1
  Al  Al8  1  0.738910  0.261090  0.840816  1
  Re  Re9  1  0.257840  0.742160  0.165067  1
  Re  Re10  1  0.762310  0.237690  0.341042  1
  Re  Re11  1  0.243544  0.756456  0.669496  1
  N  N12  1  0.842414  0.157586  0.946195  1
  N  N13  1  0.158302  0.841698  0.056388  1
  N  N14  1  0.665365  0.334635  0.450080  1
  N  N15  1  0.333248  0.666752  0.557970  1
  N  N16  1  0.583367  0.416633  0.862995  1
  N  N17  1  0.406866  0.593134  0.126397  1
  N  N18  1  0.909594  0.090406  0.383782  1
  N  N19  1  0.095307  0.904693  0.630480  1
  N  N20  1  0.524241  0.980828  0.746019  1
  N  N21  1  0.973806  0.498915  0.239037  1
  N  N22  1  0.501085  0.026194  0.239037  1
  N  N23  1  0.019172  0.475759  0.746019  1
