# generated using pymatgen
data_Ho2Sc3Sn3Hg
_symmetry_space_group_name_H-M   'P 1'
_cell_length_a   7.55680500
_cell_length_b   7.98878800
_cell_length_c   14.83846000
_cell_angle_alpha   90.00000000
_cell_angle_beta   90.00000000
_cell_angle_gamma   90.00000000
_symmetry_Int_Tables_number   1
_chemical_formula_structural   Ho2Sc3Sn3Hg
_chemical_formula_sum   'Ho8 Sc12 Sn12 Hg4'
_cell_volume   895.79357308
_cell_formula_units_Z   4
loop_
 _symmetry_equiv_pos_site_id
 _symmetry_equiv_pos_as_xyz
  1  'x, y, z'
loop_
 _atom_site_type_symbol
 _atom_site_label
 _atom_site_symmetry_multiplicity
 _atom_site_fract_x
 _atom_site_fract_y
 _atom_site_fract_z
 _atom_site_occupancy
  Ho  Ho0  1  0.995435  0.180756  0.091446  1
  Ho  Ho1  1  0.004565  0.819244  0.908554  1
  Ho  Ho2  1  0.504565  0.680756  0.908554  1
  Ho  Ho3  1  0.004565  0.819244  0.591446  1
  Ho  Ho4  1  0.495435  0.319244  0.091446  1
  Ho  Ho5  1  0.995435  0.180756  0.408554  1
  Ho  Ho6  1  0.495435  0.319244  0.408554  1
  Ho  Ho7  1  0.504565  0.680756  0.591446  1
  Sc  Sc8  1  0.171581  0.496860  0.750000  1
  Sc  Sc9  1  0.828419  0.503140  0.250000  1
  Sc  Sc10  1  0.328419  0.996860  0.250000  1
  Sc  Sc11  1  0.671581  0.003140  0.750000  1
  Sc  Sc12  1  0.333998  0.163078  0.627287  1
  Sc  Sc13  1  0.666002  0.836922  0.372713  1
  Sc  Sc14  1  0.166002  0.663078  0.372713  1
  Sc  Sc15  1  0.666002  0.836922  0.127287  1
  Sc  Sc16  1  0.833998  0.336922  0.627287  1
  Sc  Sc17  1  0.333998  0.163078  0.872713  1
  Sc  Sc18  1  0.833998  0.336922  0.872713  1
  Sc  Sc19  1  0.166002  0.663078  0.127287  1
  Sn  Sn20  1  0.301185  0.855555  0.750000  1
  Sn  Sn21  1  0.698815  0.144445  0.250000  1
  Sn  Sn22  1  0.198815  0.355555  0.250000  1
  Sn  Sn23  1  0.801185  0.644445  0.750000  1
  Sn  Sn24  1  0.181266  0.458891  0.542486  1
  Sn  Sn25  1  0.818734  0.541109  0.457514  1
  Sn  Sn26  1  0.318734  0.958891  0.457514  1
  Sn  Sn27  1  0.818734  0.541109  0.042486  1
  Sn  Sn28  1  0.681266  0.041109  0.542486  1
  Sn  Sn29  1  0.181266  0.458891  0.957514  1
  Sn  Sn30  1  0.681266  0.041109  0.957514  1
  Sn  Sn31  1  0.318734  0.958891  0.042486  1
  Hg  Hg32  1  0.029712  0.121362  0.750000  1
  Hg  Hg33  1  0.970288  0.878638  0.250000  1
  Hg  Hg34  1  0.470288  0.621362  0.250000  1
  Hg  Hg35  1  0.529712  0.378638  0.750000  1
