# generated using pymatgen
data_Pa2V3Si7Ni9
_symmetry_space_group_name_H-M   'P 1'
_cell_length_a   3.82244200
_cell_length_b   9.37831645
_cell_length_c   9.37831600
_cell_angle_alpha   119.99999135
_cell_angle_beta   90.00000000
_cell_angle_gamma   90.00000000
_symmetry_Int_Tables_number   1
_chemical_formula_structural   Pa2V3Si7Ni9
_chemical_formula_sum   'Pa2 V3 Si7 Ni9'
_cell_volume   291.15303327
_cell_formula_units_Z   1
loop_
 _symmetry_equiv_pos_site_id
 _symmetry_equiv_pos_as_xyz
  1  'x, y, z'
loop_
 _atom_site_type_symbol
 _atom_site_label
 _atom_site_symmetry_multiplicity
 _atom_site_fract_x
 _atom_site_fract_y
 _atom_site_fract_z
 _atom_site_occupancy
  Pa  Pa0  1  0.000000  0.666667  0.333333  1
  Pa  Pa1  1  0.500000  0.333333  0.666667  1
  V  V2  1  0.500000  0.789933  0.895423  1
  V  V3  1  0.500000  0.105491  0.210067  1
  V  V4  1  0.500000  0.104577  0.894509  1
  Si  Si5  1  0.000000  0.000000  0.000000  1
  Si  Si6  1  0.500000  0.705883  0.106174  1
  Si  Si7  1  0.500000  0.400291  0.294117  1
  Si  Si8  1  0.500000  0.893826  0.599709  1
  Si  Si9  1  0.000000  0.597000  0.701408  1
  Si  Si10  1  0.000000  0.104409  0.403000  1
  Si  Si11  1  0.000000  0.298592  0.895591  1
  Ni  Ni12  1  0.000000  0.565269  0.933305  1
  Ni  Ni13  1  0.000000  0.368035  0.434731  1
  Ni  Ni14  1  0.000000  0.066695  0.631965  1
  Ni  Ni15  1  0.000000  0.867523  0.150706  1
  Ni  Ni16  1  0.000000  0.283183  0.132477  1
  Ni  Ni17  1  0.000000  0.849294  0.716817  1
  Ni  Ni18  1  0.500000  0.943245  0.378551  1
  Ni  Ni19  1  0.500000  0.435305  0.056755  1
  Ni  Ni20  1  0.500000  0.621449  0.564695  1
