# generated using pymatgen
data_SrPr(BPd4)2
_symmetry_space_group_name_H-M   'P 1'
_cell_length_a   5.55124300
_cell_length_b   6.17209500
_cell_length_c   11.92072400
_cell_angle_alpha   90.00000000
_cell_angle_beta   90.00000000
_cell_angle_gamma   90.00000000
_symmetry_Int_Tables_number   1
_chemical_formula_structural   SrPr(BPd4)2
_chemical_formula_sum   'Sr2 Pr2 B4 Pd16'
_cell_volume   408.43737230
_cell_formula_units_Z   2
loop_
 _symmetry_equiv_pos_site_id
 _symmetry_equiv_pos_as_xyz
  1  'x, y, z'
loop_
 _atom_site_type_symbol
 _atom_site_label
 _atom_site_symmetry_multiplicity
 _atom_site_fract_x
 _atom_site_fract_y
 _atom_site_fract_z
 _atom_site_occupancy
  Sr  Sr0  1  0.250000  0.687807  0.838774  1
  Sr  Sr1  1  0.250000  0.187807  0.661226  1
  Pr  Pr2  1  0.750000  0.309108  0.155885  1
  Pr  Pr3  1  0.750000  0.809108  0.344115  1
  B  B4  1  0.750000  0.400698  0.551299  1
  B  B5  1  0.750000  0.900698  0.948701  1
  B  B6  1  0.250000  0.596479  0.447783  1
  B  B7  1  0.250000  0.096479  0.052217  1
  Pd  Pd8  1  0.750000  0.386921  0.733637  1
  Pd  Pd9  1  0.750000  0.886921  0.766363  1
  Pd  Pd10  1  0.250000  0.618844  0.266314  1
  Pd  Pd11  1  0.250000  0.118844  0.233686  1
  Pd  Pd12  1  0.750000  0.059332  0.555395  1
  Pd  Pd13  1  0.750000  0.559332  0.944605  1
  Pd  Pd14  1  0.250000  0.938817  0.440026  1
  Pd  Pd15  1  0.250000  0.438817  0.059974  1
  Pd  Pd16  1  0.997439  0.162606  0.915981  1
  Pd  Pd17  1  0.502561  0.662606  0.584019  1
  Pd  Pd18  1  0.501525  0.838392  0.090344  1
  Pd  Pd19  1  0.998475  0.338392  0.409656  1
  Pd  Pd20  1  0.998475  0.838392  0.090344  1
  Pd  Pd21  1  0.501525  0.338392  0.409656  1
  Pd  Pd22  1  0.502561  0.162606  0.915981  1
  Pd  Pd23  1  0.997439  0.662606  0.584019  1
