# generated using pymatgen
data_LuZr2(ScRe12)2
_symmetry_space_group_name_H-M   'P 1'
_cell_length_a   8.44973670
_cell_length_b   8.44974595
_cell_length_c   8.45832700
_cell_angle_alpha   109.47310508
_cell_angle_beta   109.47327831
_cell_angle_gamma   109.42528922
_symmetry_Int_Tables_number   1
_chemical_formula_structural   LuZr2(ScRe12)2
_chemical_formula_sum   'Lu1 Zr2 Sc2 Re24'
_cell_volume   465.12981796
_cell_formula_units_Z   1
loop_
 _symmetry_equiv_pos_site_id
 _symmetry_equiv_pos_as_xyz
  1  'x, y, z'
loop_
 _atom_site_type_symbol
 _atom_site_label
 _atom_site_symmetry_multiplicity
 _atom_site_fract_x
 _atom_site_fract_y
 _atom_site_fract_z
 _atom_site_occupancy
  Lu  Lu0  1  0.002195  0.002196  0.000014  1
  Zr  Zr1  1  0.630453  0.999712  0.999965  1
  Zr  Zr2  1  0.999735  0.630476  0.000009  1
  Sc  Sc3  1  0.999786  0.999797  0.629859  1
  Sc  Sc4  1  0.369939  0.369929  0.370181  1
  Re  Re5  1  0.397491  0.676453  0.000035  1
  Re  Re6  1  0.719978  0.323822  0.322275  1
  Re  Re7  1  0.397687  0.001552  0.677707  1
  Re  Re8  1  0.676464  0.397492  0.000054  1
  Re  Re9  1  0.001504  0.397670  0.677690  1
  Re  Re10  1  0.323860  0.719978  0.322284  1
  Re  Re11  1  0.322712  0.322724  0.720790  1
  Re  Re12  1  0.001606  0.677815  0.398934  1
  Re  Re13  1  0.677860  0.001670  0.398947  1
  Re  Re14  1  0.601895  0.601889  0.279187  1
  Re  Re15  1  0.278885  0.602715  0.601050  1
  Re  Re16  1  0.602749  0.278908  0.601018  1
  Re  Re17  1  0.376717  0.191623  0.000057  1
  Re  Re18  1  0.183654  0.806052  0.805130  1
  Re  Re19  1  0.378521  0.000943  0.194855  1
  Re  Re20  1  0.191595  0.376693  0.000006  1
  Re  Re21  1  0.000912  0.378525  0.194870  1
  Re  Re22  1  0.806102  0.183680  0.805138  1
  Re  Re23  1  0.805660  0.805633  0.184966  1
  Re  Re24  1  0.001126  0.193043  0.378491  1
  Re  Re25  1  0.193004  0.001120  0.378483  1
  Re  Re26  1  0.620701  0.620724  0.815054  1
  Re  Re27  1  0.814551  0.622642  0.621462  1
  Re  Re28  1  0.622657  0.814528  0.621490  1
