# generated using pymatgen
data_Nd6SmCoI12
_symmetry_space_group_name_H-M   'P 1'
_cell_length_a   9.99765665
_cell_length_b   9.99765756
_cell_length_c   9.99765716
_cell_angle_alpha   106.87378519
_cell_angle_beta   106.87377819
_cell_angle_gamma   106.87378072
_symmetry_Int_Tables_number   1
_chemical_formula_structural   Nd6SmCoI12
_chemical_formula_sum   'Nd6 Sm1 Co1 I12'
_cell_volume   835.07322035
_cell_formula_units_Z   1
loop_
 _symmetry_equiv_pos_site_id
 _symmetry_equiv_pos_as_xyz
  1  'x, y, z'
loop_
 _atom_site_type_symbol
 _atom_site_label
 _atom_site_symmetry_multiplicity
 _atom_site_fract_x
 _atom_site_fract_y
 _atom_site_fract_z
 _atom_site_occupancy
  Nd  Nd0  1  0.022903  0.095164  0.294818  1
  Nd  Nd1  1  0.095164  0.294818  0.022903  1
  Nd  Nd2  1  0.294818  0.022903  0.095164  1
  Nd  Nd3  1  0.977097  0.904836  0.705182  1
  Nd  Nd4  1  0.904836  0.705182  0.977097  1
  Nd  Nd5  1  0.705182  0.977097  0.904836  1
  Sm  Sm6  1  0.500000  0.500000  0.500000  1
  Co  Co7  1  0.000000  0.000000  0.000000  1
  I  I8  1  0.163950  0.465615  0.387998  1
  I  I9  1  0.465615  0.387998  0.163950  1
  I  I10  1  0.387998  0.163950  0.465615  1
  I  I11  1  0.836050  0.534385  0.612002  1
  I  I12  1  0.534385  0.612002  0.836050  1
  I  I13  1  0.612002  0.836050  0.534385  1
  I  I14  1  0.678484  0.072076  0.226304  1
  I  I15  1  0.072076  0.226304  0.678484  1
  I  I16  1  0.226304  0.678484  0.072076  1
  I  I17  1  0.321516  0.927924  0.773696  1
  I  I18  1  0.927924  0.773696  0.321516  1
  I  I19  1  0.773696  0.321516  0.927924  1
