# generated using pymatgen
data_Tb8Hf12Si15Pd
_symmetry_space_group_name_H-M   'P 1'
_cell_length_a   7.28855328
_cell_length_b   7.32573229
_cell_length_c   13.43263606
_cell_angle_alpha   89.96071436
_cell_angle_beta   89.88909455
_cell_angle_gamma   90.05553492
_symmetry_Int_Tables_number   1
_chemical_formula_structural   Tb8Hf12Si15Pd
_chemical_formula_sum   'Tb8 Hf12 Si15 Pd1'
_cell_volume   717.22018737
_cell_formula_units_Z   1
loop_
 _symmetry_equiv_pos_site_id
 _symmetry_equiv_pos_as_xyz
  1  'x, y, z'
loop_
 _atom_site_type_symbol
 _atom_site_label
 _atom_site_symmetry_multiplicity
 _atom_site_fract_x
 _atom_site_fract_y
 _atom_site_fract_z
 _atom_site_occupancy
  Tb  Tb0  1  0.993551  0.346826  0.214684  1
  Tb  Tb1  1  0.004725  0.655220  0.715022  1
  Tb  Tb2  1  0.156994  0.497470  0.465232  1
  Tb  Tb3  1  0.503804  0.842917  0.033717  1
  Tb  Tb4  1  0.843352  0.502490  0.965175  1
  Tb  Tb5  1  0.496796  0.155440  0.537083  1
  Tb  Tb6  1  0.342999  0.997788  0.785009  1
  Tb  Tb7  1  0.661266  0.998916  0.283853  1
  Hf  Hf8  1  0.174516  0.176183  0.999171  1
  Hf  Hf9  1  0.826877  0.825110  0.500162  1
  Hf  Hf10  1  0.325879  0.678922  0.250066  1
  Hf  Hf11  1  0.675045  0.324601  0.750082  1
  Hf  Hf12  1  0.149713  0.999130  0.374058  1
  Hf  Hf13  1  0.850684  0.003918  0.874523  1
  Hf  Hf14  1  0.504513  0.650221  0.624666  1
  Hf  Hf15  1  0.351125  0.495580  0.874806  1
  Hf  Hf16  1  0.493597  0.348869  0.124707  1
  Hf  Hf17  1  0.648885  0.507286  0.379503  1
  Hf  Hf18  1  0.996570  0.149136  0.626000  1
  Hf  Hf19  1  0.001584  0.848853  0.123789  1
  Si  Si20  1  0.636929  0.705875  0.817984  1
  Si  Si21  1  0.204468  0.863024  0.567169  1
  Si  Si22  1  0.137135  0.795229  0.932353  1
  Si  Si23  1  0.795483  0.136983  0.066660  1
  Si  Si24  1  0.861164  0.201081  0.434574  1
  Si  Si25  1  0.295576  0.363121  0.683326  1
  Si  Si26  1  0.703900  0.638071  0.182344  1
  Si  Si27  1  0.291789  0.046108  0.182818  1
  Si  Si28  1  0.705496  0.951084  0.685500  1
  Si  Si29  1  0.449988  0.796109  0.436165  1
  Si  Si30  1  0.205018  0.549443  0.063736  1
  Si  Si31  1  0.548403  0.204965  0.935307  1
  Si  Si32  1  0.795197  0.450404  0.566047  1
  Si  Si33  1  0.048090  0.295775  0.814648  1
  Si  Si34  1  0.951045  0.705591  0.313843  1
  Pd  Pd35  1  0.367844  0.292261  0.316216  1
