# generated using pymatgen
data_Hf3Sc2ZnIr6
_symmetry_space_group_name_H-M   'P 1'
_cell_length_a   4.40888300
_cell_length_b   6.90720800
_cell_length_c   13.22946100
_cell_angle_alpha   90.00000000
_cell_angle_beta   89.99990038
_cell_angle_gamma   90.00000000
_symmetry_Int_Tables_number   1
_chemical_formula_structural   Hf3Sc2ZnIr6
_chemical_formula_sum   'Hf6 Sc4 Zn2 Ir12'
_cell_volume   402.87772741
_cell_formula_units_Z   2
loop_
 _symmetry_equiv_pos_site_id
 _symmetry_equiv_pos_as_xyz
  1  'x, y, z'
loop_
 _atom_site_type_symbol
 _atom_site_label
 _atom_site_symmetry_multiplicity
 _atom_site_fract_x
 _atom_site_fract_y
 _atom_site_fract_z
 _atom_site_occupancy
  Hf  Hf0  1  0.999994  0.000000  0.009389  1
  Hf  Hf1  1  0.499997  0.500000  0.157260  1
  Hf  Hf2  1  0.999991  0.000000  0.322714  1
  Hf  Hf3  1  0.500012  0.500000  0.498570  1
  Hf  Hf4  1  0.000005  0.000000  0.668087  1
  Hf  Hf5  1  0.500012  0.500000  0.843976  1
  Sc  Sc6  1  0.000022  0.500000  0.329730  1
  Sc  Sc7  1  0.499998  0.000000  0.497153  1
  Sc  Sc8  1  0.000024  0.500000  0.669541  1
  Sc  Sc9  1  0.500000  0.000000  0.836914  1
  Zn  Zn10  1  0.999997  0.500000  0.000728  1
  Zn  Zn11  1  0.499984  0.000000  0.165944  1
  Ir  Ir12  1  0.499993  0.244407  0.000129  1
  Ir  Ir13  1  0.499993  0.755593  0.000129  1
  Ir  Ir14  1  0.999988  0.255589  0.166530  1
  Ir  Ir15  1  0.999988  0.744410  0.166530  1
  Ir  Ir16  1  0.499994  0.250910  0.331289  1
  Ir  Ir17  1  0.499994  0.749090  0.331289  1
  Ir  Ir18  1  0.999996  0.248880  0.498883  1
  Ir  Ir19  1  0.999996  0.751119  0.498883  1
  Ir  Ir20  1  0.500007  0.251134  0.667783  1
  Ir  Ir21  1  0.500007  0.748866  0.667783  1
  Ir  Ir22  1  0.000002  0.249095  0.835380  1
  Ir  Ir23  1  0.000002  0.750904  0.835380  1
