# generated using pymatgen
data_Lu2UCo2Tc
_symmetry_space_group_name_H-M   'P 1'
_cell_length_a   5.04880501
_cell_length_b   5.14574017
_cell_length_c   5.04880688
_cell_angle_alpha   67.18375843
_cell_angle_beta   66.10175340
_cell_angle_gamma   67.18376408
_symmetry_Int_Tables_number   1
_chemical_formula_structural   Lu2UCo2Tc
_chemical_formula_sum   'Lu2 U1 Co2 Tc1'
_cell_volume   106.31630892
_cell_formula_units_Z   1
loop_
 _symmetry_equiv_pos_site_id
 _symmetry_equiv_pos_as_xyz
  1  'x, y, z'
loop_
 _atom_site_type_symbol
 _atom_site_label
 _atom_site_symmetry_multiplicity
 _atom_site_fract_x
 _atom_site_fract_y
 _atom_site_fract_z
 _atom_site_occupancy
  Lu  Lu0  1  0.626410  0.628523  0.626410  1
  Lu  Lu1  1  0.373590  0.371477  0.373590  1
  U  U2  1  0.000000  0.000000  0.000000  1
  Co  Co3  1  0.500000  0.000000  0.000000  1
  Co  Co4  1  0.000000  0.000000  0.500000  1
  Tc  Tc5  1  0.000000  0.500000  0.000000  1
