# generated using pymatgen
data_Rb3(OsO4)2
_symmetry_space_group_name_H-M   'P 1'
_cell_length_a   8.39685324
_cell_length_b   8.39685362
_cell_length_c   8.39685369
_cell_angle_alpha   44.31954854
_cell_angle_beta   44.31954396
_cell_angle_gamma   44.31955197
_symmetry_Int_Tables_number   1
_chemical_formula_structural   Rb3(OsO4)2
_chemical_formula_sum   'Rb3 Os2 O8'
_cell_volume   262.65515487
_cell_formula_units_Z   1
loop_
 _symmetry_equiv_pos_site_id
 _symmetry_equiv_pos_as_xyz
  1  'x, y, z'
loop_
 _atom_site_type_symbol
 _atom_site_label
 _atom_site_symmetry_multiplicity
 _atom_site_fract_x
 _atom_site_fract_y
 _atom_site_fract_z
 _atom_site_occupancy
  Rb  Rb0  1  0.000000  0.000000  0.000000  1
  Rb  Rb1  1  0.799316  0.799316  0.799316  1
  Rb  Rb2  1  0.200684  0.200684  0.200684  1
  Os  Os3  1  0.594057  0.594057  0.594057  1
  Os  Os4  1  0.405943  0.405943  0.405943  1
  O  O5  1  0.279966  0.740222  0.279966  1
  O  O6  1  0.279966  0.279966  0.740222  1
  O  O7  1  0.740222  0.279966  0.279966  1
  O  O8  1  0.720034  0.259778  0.720034  1
  O  O9  1  0.720034  0.720034  0.259778  1
  O  O10  1  0.259778  0.720034  0.720034  1
  O  O11  1  0.672718  0.672718  0.672718  1
  O  O12  1  0.327282  0.327282  0.327282  1
