# generated using pymatgen
data_BaLaCu17Si8Ni
_symmetry_space_group_name_H-M   'P 1'
_cell_length_a   8.22140451
_cell_length_b   8.22140306
_cell_length_c   8.18069911
_cell_angle_alpha   120.39515871
_cell_angle_beta   120.39516082
_cell_angle_gamma   89.60399508
_symmetry_Int_Tables_number   1
_chemical_formula_structural   BaLaCu17Si8Ni
_chemical_formula_sum   'Ba1 La1 Cu17 Si8 Ni1'
_cell_volume   387.65310354
_cell_formula_units_Z   1
loop_
 _symmetry_equiv_pos_site_id
 _symmetry_equiv_pos_as_xyz
  1  'x, y, z'
loop_
 _atom_site_type_symbol
 _atom_site_label
 _atom_site_symmetry_multiplicity
 _atom_site_fract_x
 _atom_site_fract_y
 _atom_site_fract_z
 _atom_site_occupancy
  Ba  Ba0  1  0.250000  0.250000  0.000000  1
  La  La1  1  0.750000  0.750000  0.000000  1
  Cu  Cu2  1  0.932558  0.202051  0.137951  1
  Cu  Cu3  1  0.201118  0.065724  0.269983  1
  Cu  Cu4  1  0.795743  0.931136  0.730017  1
  Cu  Cu5  1  0.434276  0.298882  0.730017  1
  Cu  Cu6  1  0.064099  0.794607  0.862049  1
  Cu  Cu7  1  0.805037  0.057328  0.497576  1
  Cu  Cu8  1  0.559753  0.307461  0.502424  1
  Cu  Cu9  1  0.192539  0.940247  0.497576  1
  Cu  Cu10  1  0.442672  0.694963  0.502424  1
  Cu  Cu11  1  0.942296  0.445092  0.753373  1
  Cu  Cu12  1  0.691718  0.188923  0.246627  1
  Cu  Cu13  1  0.054908  0.557704  0.246627  1
  Cu  Cu14  1  0.705393  0.435901  0.137951  1
  Cu  Cu15  1  0.568864  0.704257  0.269983  1
  Cu  Cu16  1  0.000000  0.500000  0.500000  1
  Cu  Cu17  1  0.311077  0.808282  0.753373  1
  Cu  Cu18  1  0.297949  0.567442  0.862049  1
  Si  Si19  1  0.781774  0.286143  0.840117  1
  Si  Si20  1  0.558343  0.053974  0.840117  1
  Si  Si21  1  0.053776  0.206442  0.494957  1
  Si  Si22  1  0.293558  0.446224  0.505043  1
  Si  Si23  1  0.941181  0.788515  0.494957  1
  Si  Si24  1  0.446026  0.941657  0.159883  1
  Si  Si25  1  0.213857  0.718226  0.159883  1
  Si  Si26  1  0.711485  0.558819  0.505043  1
  Ni  Ni27  1  0.500000  0.000000  0.500000  1
