# generated using pymatgen
data_La8YbLuIr6
_symmetry_space_group_name_H-M   'P 1'
_cell_length_a   6.54539500
_cell_length_b   11.29806800
_cell_length_c   11.29806800
_cell_angle_alpha   90.00000000
_cell_angle_beta   90.00000000
_cell_angle_gamma   90.00000000
_symmetry_Int_Tables_number   1
_chemical_formula_structural   La8YbLuIr6
_chemical_formula_sum   'La16 Yb2 Lu2 Ir12'
_cell_volume   835.49571909
_cell_formula_units_Z   2
loop_
 _symmetry_equiv_pos_site_id
 _symmetry_equiv_pos_as_xyz
  1  'x, y, z'
loop_
 _atom_site_type_symbol
 _atom_site_label
 _atom_site_symmetry_multiplicity
 _atom_site_fract_x
 _atom_site_fract_y
 _atom_site_fract_z
 _atom_site_occupancy
  La  La0  1  0.385802  0.838963  0.538015  1
  La  La1  1  0.885802  0.661037  0.538015  1
  La  La2  1  0.885802  0.838963  0.961985  1
  La  La3  1  0.385802  0.661037  0.961985  1
  La  La4  1  0.887170  0.537012  0.837955  1
  La  La5  1  0.387170  0.962988  0.837955  1
  La  La6  1  0.387170  0.537012  0.662045  1
  La  La7  1  0.887170  0.962988  0.662045  1
  La  La8  1  0.612830  0.162045  0.462989  1
  La  La9  1  0.112830  0.337955  0.462989  1
  La  La10  1  0.112830  0.162045  0.037012  1
  La  La11  1  0.612830  0.337955  0.037012  1
  La  La12  1  0.114198  0.461986  0.161037  1
  La  La13  1  0.614198  0.038015  0.161037  1
  La  La14  1  0.614198  0.461986  0.338963  1
  La  La15  1  0.114198  0.038015  0.338963  1
  Yb  Yb16  1  0.000000  0.250000  0.750000  1
  Yb  Yb17  1  0.500000  0.250000  0.750000  1
  Lu  Lu18  1  0.500000  0.750000  0.250000  1
  Lu  Lu19  1  0.000000  0.750000  0.250000  1
  Ir  Ir20  1  0.250000  0.896200  0.103800  1
  Ir  Ir21  1  0.750000  0.603800  0.103800  1
  Ir  Ir22  1  0.750000  0.896200  0.396200  1
  Ir  Ir23  1  0.250000  0.603800  0.396200  1
  Ir  Ir24  1  0.750000  0.094371  0.905629  1
  Ir  Ir25  1  0.250000  0.405629  0.905629  1
  Ir  Ir26  1  0.250000  0.094371  0.594371  1
  Ir  Ir27  1  0.750000  0.405629  0.594371  1
  Ir  Ir28  1  0.119687  0.750000  0.750000  1
  Ir  Ir29  1  0.619687  0.750000  0.750000  1
  Ir  Ir30  1  0.880313  0.250000  0.250000  1
  Ir  Ir31  1  0.380313  0.250000  0.250000  1
