# generated using pymatgen
data_Y10InSnSb4
_symmetry_space_group_name_H-M   'P 1'
_cell_length_a   6.46353100
_cell_length_b   9.01235082
_cell_length_c   8.98890356
_cell_angle_alpha   120.08633314
_cell_angle_beta   89.99994469
_cell_angle_gamma   90.00010273
_symmetry_Int_Tables_number   1
_chemical_formula_structural   Y10InSnSb4
_chemical_formula_sum   'Y10 In1 Sn1 Sb4'
_cell_volume   453.07156380
_cell_formula_units_Z   1
loop_
 _symmetry_equiv_pos_site_id
 _symmetry_equiv_pos_as_xyz
  1  'x, y, z'
loop_
 _atom_site_type_symbol
 _atom_site_label
 _atom_site_symmetry_multiplicity
 _atom_site_fract_x
 _atom_site_fract_y
 _atom_site_fract_z
 _atom_site_occupancy
  Y  Y0  1  0.498888  0.334498  0.668386  1
  Y  Y1  1  0.498888  0.666112  0.331614  1
  Y  Y2  1  0.001114  0.666113  0.331619  1
  Y  Y3  1  0.001114  0.334495  0.668381  1
  Y  Y4  1  0.750000  0.243099  0.000000  1
  Y  Y5  1  0.750000  0.753694  0.758233  1
  Y  Y6  1  0.750000  0.995461  0.241767  1
  Y  Y7  1  0.250001  0.757487  0.000000  1
  Y  Y8  1  0.250000  0.246655  0.243348  1
  Y  Y9  1  0.250000  0.003307  0.756652  1
  In  In10  1  0.750005  0.605377  0.000000  1
  Sn  Sn11  1  0.250001  0.393174  0.000000  1
  Sb  Sb12  1  0.750000  0.388653  0.389476  1
  Sb  Sb13  1  0.750000  0.999177  0.610524  1
  Sb  Sb14  1  0.249998  0.611653  0.610609  1
  Sb  Sb15  1  0.249998  0.001045  0.389391  1
