# generated using pymatgen
data_Pr6EuOsI12
_symmetry_space_group_name_H-M   'P 1'
_cell_length_a   10.21458739
_cell_length_b   10.21458637
_cell_length_c   10.21458664
_cell_angle_alpha   106.90119237
_cell_angle_beta   106.90118765
_cell_angle_gamma   106.90118717
_symmetry_Int_Tables_number   1
_chemical_formula_structural   Pr6EuOsI12
_chemical_formula_sum   'Pr6 Eu1 Os1 I12'
_cell_volume   889.96283921
_cell_formula_units_Z   1
loop_
 _symmetry_equiv_pos_site_id
 _symmetry_equiv_pos_as_xyz
  1  'x, y, z'
loop_
 _atom_site_type_symbol
 _atom_site_label
 _atom_site_symmetry_multiplicity
 _atom_site_fract_x
 _atom_site_fract_y
 _atom_site_fract_z
 _atom_site_occupancy
  Pr  Pr0  1  0.800749  0.524878  0.597193  1
  Pr  Pr1  1  0.524878  0.597193  0.800749  1
  Pr  Pr2  1  0.199251  0.475122  0.402807  1
  Pr  Pr3  1  0.475122  0.402807  0.199251  1
  Pr  Pr4  1  0.597193  0.800749  0.524878  1
  Pr  Pr5  1  0.402807  0.199251  0.475122  1
  Eu  Eu6  1  0.000000  0.000000  0.000000  1
  Os  Os7  1  0.500000  0.500000  0.500000  1
  I  I8  1  0.724103  0.184292  0.573737  1
  I  I9  1  0.955066  0.877107  0.651034  1
  I  I10  1  0.573737  0.724103  0.184292  1
  I  I11  1  0.122893  0.348966  0.044934  1
  I  I12  1  0.651034  0.955066  0.877107  1
  I  I13  1  0.877107  0.651034  0.955066  1
  I  I14  1  0.044934  0.122893  0.348966  1
  I  I15  1  0.815708  0.426263  0.275897  1
  I  I16  1  0.348966  0.044934  0.122893  1
  I  I17  1  0.275897  0.815708  0.426263  1
  I  I18  1  0.184292  0.573737  0.724103  1
  I  I19  1  0.426263  0.275897  0.815708  1
