# generated using pymatgen
data_La10Pr6Ag4Os3Pt
_symmetry_space_group_name_H-M   'P 1'
_cell_length_a   9.97476665
_cell_length_b   10.02246562
_cell_length_c   10.02246400
_cell_angle_alpha   59.99999875
_cell_angle_beta   59.84168619
_cell_angle_gamma   59.84168852
_symmetry_Int_Tables_number   1
_chemical_formula_structural   La10Pr6Ag4Os3Pt
_chemical_formula_sum   'La10 Pr6 Ag4 Os3 Pt1'
_cell_volume   706.79496453
_cell_formula_units_Z   1
loop_
 _symmetry_equiv_pos_site_id
 _symmetry_equiv_pos_as_xyz
  1  'x, y, z'
loop_
 _atom_site_type_symbol
 _atom_site_label
 _atom_site_symmetry_multiplicity
 _atom_site_fract_x
 _atom_site_fract_y
 _atom_site_fract_z
 _atom_site_occupancy
  La  La0  1  0.347016  0.353290  0.353290  1
  La  La1  1  0.347016  0.353290  0.946405  1
  La  La2  1  0.347016  0.946405  0.353290  1
  La  La3  1  0.954327  0.348557  0.348557  1
  La  La4  1  0.815082  0.191461  0.191461  1
  La  La5  1  0.187603  0.812193  0.812193  1
  La  La6  1  0.187603  0.812193  0.188011  1
  La  La7  1  0.815082  0.191461  0.801996  1
  La  La8  1  0.187603  0.188011  0.812193  1
  La  La9  1  0.815082  0.801996  0.191461  1
  Pr  Pr10  1  0.938043  0.562632  0.562632  1
  Pr  Pr11  1  0.558586  0.938386  0.938386  1
  Pr  Pr12  1  0.558586  0.938386  0.564643  1
  Pr  Pr13  1  0.938043  0.562632  0.936694  1
  Pr  Pr14  1  0.558586  0.564643  0.938386  1
  Pr  Pr15  1  0.938043  0.936694  0.562632  1
  Ag  Ag16  1  0.581444  0.581570  0.581570  1
  Ag  Ag17  1  0.581444  0.581570  0.255414  1
  Ag  Ag18  1  0.581444  0.255414  0.581570  1
  Ag  Ag19  1  0.254516  0.581828  0.581828  1
  Os  Os20  1  0.144108  0.138527  0.138527  1
  Os  Os21  1  0.144108  0.138527  0.578839  1
  Os  Os22  1  0.144108  0.578839  0.138527  1
  Pt  Pt23  1  0.575509  0.141497  0.141497  1
