# generated using pymatgen
data_SmHo2ErZr4F28
_symmetry_space_group_name_H-M   'P 1'
_cell_length_a   5.76031801
_cell_length_b   9.11780020
_cell_length_c   12.25406648
_cell_angle_alpha   62.39554664
_cell_angle_beta   89.98584761
_cell_angle_gamma   90.02124923
_symmetry_Int_Tables_number   1
_chemical_formula_structural   SmHo2ErZr4F28
_chemical_formula_sum   'Sm1 Ho2 Er1 Zr4 F28'
_cell_volume   570.33829852
_cell_formula_units_Z   1
loop_
 _symmetry_equiv_pos_site_id
 _symmetry_equiv_pos_as_xyz
  1  'x, y, z'
loop_
 _atom_site_type_symbol
 _atom_site_label
 _atom_site_symmetry_multiplicity
 _atom_site_fract_x
 _atom_site_fract_y
 _atom_site_fract_z
 _atom_site_occupancy
  Sm  Sm0  1  0.756645  0.817157  0.766355  1
  Ho  Ho1  1  0.743796  0.817624  0.266173  1
  Ho  Ho2  1  0.243722  0.184039  0.233911  1
  Er  Er3  1  0.257268  0.187039  0.733561  1
  Zr  Zr4  1  0.743849  0.277020  0.453414  1
  Zr  Zr5  1  0.244555  0.725696  0.048412  1
  Zr  Zr6  1  0.254867  0.725223  0.541788  1
  Zr  Zr7  1  0.755389  0.271050  0.956223  1
  F  F8  1  0.463899  0.709860  0.924264  1
  F  F9  1  0.967995  0.288781  0.577785  1
  F  F10  1  0.531159  0.286908  0.079028  1
  F  F11  1  0.030684  0.710815  0.418745  1
  F  F12  1  0.453923  0.280868  0.550209  1
  F  F13  1  0.954181  0.717254  0.955006  1
  F  F14  1  0.547529  0.719587  0.447721  1
  F  F15  1  0.045283  0.278330  0.051996  1
  F  F16  1  0.769322  0.521546  0.859473  1
  F  F17  1  0.267650  0.473356  0.640330  1
  F  F18  1  0.234665  0.473457  0.143795  1
  F  F19  1  0.732856  0.527966  0.356472  1
  F  F20  1  0.759200  0.020443  0.059641  1
  F  F21  1  0.259015  0.976352  0.439914  1
  F  F22  1  0.240524  0.975835  0.942157  1
  F  F23  1  0.739662  0.026241  0.555237  1
  F  F24  1  0.984448  0.732439  0.646012  1
  F  F25  1  0.484676  0.265345  0.850384  1
  F  F26  1  0.011857  0.265193  0.348163  1
  F  F27  1  0.513990  0.735341  0.153111  1
  F  F28  1  0.031821  0.747345  0.174989  1
  F  F29  1  0.529940  0.254034  0.327069  1
  F  F30  1  0.969007  0.250802  0.828588  1
  F  F31  1  0.461856  0.744338  0.670745  1
  F  F32  1  0.433458  0.975807  0.235821  1
  F  F33  1  0.933965  0.025151  0.264282  1
  F  F34  1  0.567632  0.033869  0.765260  1
  F  F35  1  0.079712  0.977887  0.733965  1
