# generated using pymatgen
data_Th3HgC
_symmetry_space_group_name_H-M   'P 1'
_cell_length_a   6.64030100
_cell_length_b   6.64030110
_cell_length_c   10.24574800
_cell_angle_alpha   90.00000000
_cell_angle_beta   90.00000000
_cell_angle_gamma   147.00112331
_symmetry_Int_Tables_number   1
_chemical_formula_structural   Th3HgC
_chemical_formula_sum   'Th6 Hg2 C2'
_cell_volume   246.04518006
_cell_formula_units_Z   2
loop_
 _symmetry_equiv_pos_site_id
 _symmetry_equiv_pos_as_xyz
  1  'x, y, z'
loop_
 _atom_site_type_symbol
 _atom_site_label
 _atom_site_symmetry_multiplicity
 _atom_site_fract_x
 _atom_site_fract_y
 _atom_site_fract_z
 _atom_site_occupancy
  Th  Th0  1  0.371118  0.628883  0.039612  1
  Th  Th1  1  0.040688  0.959313  0.250000  1
  Th  Th2  1  0.371118  0.628883  0.460387  1
  Th  Th3  1  0.628883  0.371118  0.539612  1
  Th  Th4  1  0.959313  0.040688  0.750000  1
  Th  Th5  1  0.628883  0.371118  0.960388  1
  Hg  Hg6  1  0.751798  0.248203  0.250000  1
  Hg  Hg7  1  0.248203  0.751798  0.750000  1
  C  C8  1  0.000000  0.000000  0.000000  1
  C  C9  1  0.000000  0.000000  0.499999  1
