# generated using pymatgen
data_Tb2Y2Se3N2
_symmetry_space_group_name_H-M   'P 1'
_cell_length_a   6.97011625
_cell_length_b   6.97011615
_cell_length_c   10.37783967
_cell_angle_alpha   51.91579491
_cell_angle_beta   51.91579427
_cell_angle_gamma   32.93933958
_symmetry_Int_Tables_number   1
_chemical_formula_structural   Tb2Y2Se3N2
_chemical_formula_sum   'Tb2 Y2 Se3 N2'
_cell_volume   209.91324920
_cell_formula_units_Z   1
loop_
 _symmetry_equiv_pos_site_id
 _symmetry_equiv_pos_as_xyz
  1  'x, y, z'
loop_
 _atom_site_type_symbol
 _atom_site_label
 _atom_site_symmetry_multiplicity
 _atom_site_fract_x
 _atom_site_fract_y
 _atom_site_fract_z
 _atom_site_occupancy
  Tb  Tb0  1  0.755603  0.755603  0.361181  1
  Tb  Tb1  1  0.244397  0.244397  0.638819  1
  Y  Y2  1  0.441103  0.441103  0.850984  1
  Y  Y3  1  0.558897  0.558897  0.149016  1
  Se  Se4  1  0.835121  0.835121  0.771926  1
  Se  Se5  1  0.000000  0.000000  0.000000  1
  Se  Se6  1  0.164879  0.164879  0.228074  1
  N  N7  1  0.351541  0.351541  0.361278  1
  N  N8  1  0.648459  0.648459  0.638723  1
