# generated using pymatgen
data_Pr2NdMg3Sn2Pt
_symmetry_space_group_name_H-M   'P 1'
_cell_length_a   7.65517896
_cell_length_b   7.66182927
_cell_length_c   4.60386500
_cell_angle_alpha   90.00000000
_cell_angle_beta   90.00000000
_cell_angle_gamma   120.02875256
_symmetry_Int_Tables_number   1
_chemical_formula_structural   Pr2NdMg3Sn2Pt
_chemical_formula_sum   'Pr2 Nd1 Mg3 Sn2 Pt1'
_cell_volume   233.78418534
_cell_formula_units_Z   1
loop_
 _symmetry_equiv_pos_site_id
 _symmetry_equiv_pos_as_xyz
  1  'x, y, z'
loop_
 _atom_site_type_symbol
 _atom_site_label
 _atom_site_symmetry_multiplicity
 _atom_site_fract_x
 _atom_site_fract_y
 _atom_site_fract_z
 _atom_site_occupancy
  Pr  Pr0  1  0.398515  0.398573  0.000000  1
  Pr  Pr1  1  0.601485  0.000058  0.000000  1
  Nd  Nd2  1  0.000000  0.601790  0.000000  1
  Mg  Mg3  1  0.000000  0.228868  0.500000  1
  Mg  Mg4  1  0.771482  0.771183  0.500000  1
  Mg  Mg5  1  0.228518  0.999700  0.500000  1
  Sn  Sn6  1  0.667373  0.333838  0.500000  1
  Sn  Sn7  1  0.332627  0.666465  0.500000  1
  Pt  Pt8  1  0.000000  0.999525  0.000000  1
