# generated using pymatgen
data_Ba3DyIr2O9
_symmetry_space_group_name_H-M   'P 1'
_cell_length_a   5.95621000
_cell_length_b   5.95620985
_cell_length_c   14.72028300
_cell_angle_alpha   90.00000000
_cell_angle_beta   90.00000000
_cell_angle_gamma   120.00000082
_symmetry_Int_Tables_number   1
_chemical_formula_structural   Ba3DyIr2O9
_chemical_formula_sum   'Ba6 Dy2 Ir4 O18'
_cell_volume   452.25854339
_cell_formula_units_Z   2
loop_
 _symmetry_equiv_pos_site_id
 _symmetry_equiv_pos_as_xyz
  1  'x, y, z'
loop_
 _atom_site_type_symbol
 _atom_site_label
 _atom_site_symmetry_multiplicity
 _atom_site_fract_x
 _atom_site_fract_y
 _atom_site_fract_z
 _atom_site_occupancy
  Ba  Ba0  1  0.000000  0.000000  0.250000  1
  Ba  Ba1  1  0.000000  0.000000  0.750000  1
  Ba  Ba2  1  0.333333  0.666667  0.592595  1
  Ba  Ba3  1  0.666667  0.333333  0.407405  1
  Ba  Ba4  1  0.666667  0.333333  0.092595  1
  Ba  Ba5  1  0.333333  0.666667  0.907405  1
  Dy  Dy6  1  0.000000  0.000000  0.500000  1
  Dy  Dy7  1  0.000000  0.000000  0.000000  1
  Ir  Ir8  1  0.333333  0.666667  0.335833  1
  Ir  Ir9  1  0.666667  0.333333  0.664167  1
  Ir  Ir10  1  0.666667  0.333333  0.835833  1
  Ir  Ir11  1  0.333333  0.666667  0.164167  1
  O  O12  1  0.490944  0.509056  0.250000  1
  O  O13  1  0.490944  0.981889  0.250000  1
  O  O14  1  0.018111  0.509056  0.250000  1
  O  O15  1  0.509056  0.490944  0.750000  1
  O  O16  1  0.509056  0.018111  0.750000  1
  O  O17  1  0.981889  0.490944  0.750000  1
  O  O18  1  0.176094  0.823906  0.086816  1
  O  O19  1  0.176094  0.352190  0.086816  1
  O  O20  1  0.647810  0.823906  0.086816  1
  O  O21  1  0.823906  0.176094  0.913184  1
  O  O22  1  0.823906  0.647810  0.913184  1
  O  O23  1  0.352190  0.176094  0.913184  1
  O  O24  1  0.823906  0.176094  0.586816  1
  O  O25  1  0.823906  0.647810  0.586816  1
  O  O26  1  0.352190  0.176094  0.586816  1
  O  O27  1  0.176094  0.823906  0.413184  1
  O  O28  1  0.176094  0.352190  0.413184  1
  O  O29  1  0.647810  0.823906  0.413184  1
