# generated using pymatgen
data_Zr3PaRh4
_symmetry_space_group_name_H-M   'P 1'
_cell_length_a   4.43730800
_cell_length_b   5.41983745
_cell_length_c   6.38923609
_cell_angle_alpha   89.96710610
_cell_angle_beta   90.00000000
_cell_angle_gamma   90.00000000
_symmetry_Int_Tables_number   1
_chemical_formula_structural   Zr3PaRh4
_chemical_formula_sum   'Zr3 Pa1 Rh4'
_cell_volume   153.65783181
_cell_formula_units_Z   1
loop_
 _symmetry_equiv_pos_site_id
 _symmetry_equiv_pos_as_xyz
  1  'x, y, z'
loop_
 _atom_site_type_symbol
 _atom_site_label
 _atom_site_symmetry_multiplicity
 _atom_site_fract_x
 _atom_site_fract_y
 _atom_site_fract_z
 _atom_site_occupancy
  Zr  Zr0  1  0.250000  0.356344  0.669596  1
  Zr  Zr1  1  0.750000  0.636911  0.321738  1
  Zr  Zr2  1  0.250000  0.145566  0.184711  1
  Pa  Pa3  1  0.750000  0.860960  0.820638  1
  Rh  Rh4  1  0.750000  0.162901  0.461811  1
  Rh  Rh5  1  0.250000  0.831819  0.546936  1
  Rh  Rh6  1  0.250000  0.667559  0.048907  1
  Rh  Rh7  1  0.750000  0.337940  0.945662  1
