# generated using pymatgen
data_ErHf3(Al3Ir)6
_symmetry_space_group_name_H-M   'P 1'
_cell_length_a   7.49152407
_cell_length_b   7.48461663
_cell_length_c   9.28038600
_cell_angle_alpha   90.00000000
_cell_angle_beta   90.00000000
_cell_angle_gamma   119.80904885
_symmetry_Int_Tables_number   1
_chemical_formula_structural   ErHf3(Al3Ir)6
_chemical_formula_sum   'Er1 Hf3 Al18 Ir6'
_cell_volume   451.51153232
_cell_formula_units_Z   1
loop_
 _symmetry_equiv_pos_site_id
 _symmetry_equiv_pos_as_xyz
  1  'x, y, z'
loop_
 _atom_site_type_symbol
 _atom_site_label
 _atom_site_symmetry_multiplicity
 _atom_site_fract_x
 _atom_site_fract_y
 _atom_site_fract_z
 _atom_site_occupancy
  Er  Er0  1  0.329400  0.005436  0.750000  1
  Hf  Hf1  1  0.994717  0.671247  0.250000  1
  Hf  Hf2  1  0.005304  0.329568  0.750000  1
  Hf  Hf3  1  0.671132  0.994676  0.250000  1
  Al  Al4  1  0.123378  0.124266  0.250000  1
  Al  Al5  1  0.872584  0.875478  0.750000  1
  Al  Al6  1  0.997896  0.334437  0.077163  1
  Al  Al7  1  0.000039  0.663188  0.924651  1
  Al  Al8  1  0.000039  0.663188  0.575349  1
  Al  Al9  1  0.334691  0.998412  0.420352  1
  Al  Al10  1  0.997896  0.334437  0.422837  1
  Al  Al11  1  0.667653  0.001971  0.575431  1
  Al  Al12  1  0.667653  0.001971  0.924569  1
  Al  Al13  1  0.334691  0.998412  0.079648  1
  Al  Al14  1  0.331357  0.333422  0.557711  1
  Al  Al15  1  0.668187  0.668107  0.439681  1
  Al  Al16  1  0.668187  0.668107  0.060319  1
  Al  Al17  1  0.331357  0.333422  0.942289  1
  Al  Al18  1  0.338326  0.551811  0.250000  1
  Al  Al19  1  0.665475  0.452104  0.750000  1
  Al  Al20  1  0.552728  0.339155  0.250000  1
  Al  Al21  1  0.447684  0.657723  0.750000  1
  Ir  Ir22  1  0.673003  0.327701  0.001109  1
  Ir  Ir23  1  0.327809  0.673150  0.001445  1
  Ir  Ir24  1  0.327809  0.673150  0.498555  1
  Ir  Ir25  1  0.673003  0.327701  0.498891  1
  Ir  Ir26  1  0.999000  0.998878  0.001343  1
  Ir  Ir27  1  0.999000  0.998878  0.498657  1
