# generated using pymatgen
data_Dy3Tm3(CoSn6)2
_symmetry_space_group_name_H-M   'P 1'
_cell_length_a   8.42809436
_cell_length_b   8.42809406
_cell_length_c   13.10439863
_cell_angle_alpha   90.01378656
_cell_angle_beta   89.98621954
_cell_angle_gamma   148.75758099
_symmetry_Int_Tables_number   1
_chemical_formula_structural   Dy3Tm3(CoSn6)2
_chemical_formula_sum   'Dy3 Tm3 Co2 Sn12'
_cell_volume   482.79050051
_cell_formula_units_Z   1
loop_
 _symmetry_equiv_pos_site_id
 _symmetry_equiv_pos_as_xyz
  1  'x, y, z'
loop_
 _atom_site_type_symbol
 _atom_site_label
 _atom_site_symmetry_multiplicity
 _atom_site_fract_x
 _atom_site_fract_y
 _atom_site_fract_z
 _atom_site_occupancy
  Dy  Dy0  1  0.100486  0.899514  0.593941  1
  Dy  Dy1  1  0.100412  0.899588  0.906381  1
  Dy  Dy2  1  0.899750  0.100250  0.405388  1
  Tm  Tm3  1  0.898397  0.101603  0.094518  1
  Tm  Tm4  1  0.900752  0.099248  0.751664  1
  Tm  Tm5  1  0.099409  0.900591  0.248541  1
  Co  Co6  1  0.299285  0.700715  0.249334  1
  Co  Co7  1  0.701447  0.298553  0.750395  1
  Sn  Sn8  1  0.756596  0.243404  0.571622  1
  Sn  Sn9  1  0.426740  0.573260  0.576843  1
  Sn  Sn10  1  0.572950  0.427050  0.423103  1
  Sn  Sn11  1  0.732406  0.267594  0.249665  1
  Sn  Sn12  1  0.268057  0.731943  0.750068  1
  Sn  Sn13  1  0.243592  0.756408  0.071412  1
  Sn  Sn14  1  0.243574  0.756426  0.427886  1
  Sn  Sn15  1  0.572810  0.427190  0.075756  1
  Sn  Sn16  1  0.454115  0.545885  0.248587  1
  Sn  Sn17  1  0.546094  0.453906  0.750512  1
  Sn  Sn18  1  0.756815  0.243185  0.928986  1
  Sn  Sn19  1  0.426313  0.573687  0.925398  1
