# generated using pymatgen
data_Yb4MnFe3B16
_symmetry_space_group_name_H-M   'P 1'
_cell_length_a   3.33251700
_cell_length_b   5.90391626
_cell_length_c   11.42985651
_cell_angle_alpha   90.03414424
_cell_angle_beta   90.00000000
_cell_angle_gamma   90.00000000
_symmetry_Int_Tables_number   1
_chemical_formula_structural   Yb4MnFe3B16
_chemical_formula_sum   'Yb4 Mn1 Fe3 B16'
_cell_volume   224.88125884
_cell_formula_units_Z   1
loop_
 _symmetry_equiv_pos_site_id
 _symmetry_equiv_pos_as_xyz
  1  'x, y, z'
loop_
 _atom_site_type_symbol
 _atom_site_label
 _atom_site_symmetry_multiplicity
 _atom_site_fract_x
 _atom_site_fract_y
 _atom_site_fract_z
 _atom_site_occupancy
  Yb  Yb0  1  0.000000  0.126014  0.650093  1
  Yb  Yb1  1  0.000000  0.873871  0.348848  1
  Yb  Yb2  1  0.000000  0.625592  0.848715  1
  Yb  Yb3  1  0.000000  0.375065  0.151856  1
  Mn  Mn4  1  0.000000  0.125954  0.917061  1
  Fe  Fe5  1  0.000000  0.874923  0.083004  1
  Fe  Fe6  1  0.000000  0.626930  0.582153  1
  Fe  Fe7  1  0.000000  0.373262  0.417204  1
  B  B8  1  0.500000  0.362030  0.968076  1
  B  B9  1  0.500000  0.638473  0.033008  1
  B  B10  1  0.500000  0.861149  0.532306  1
  B  B11  1  0.500000  0.138969  0.467583  1
  B  B12  1  0.500000  0.475529  0.690161  1
  B  B13  1  0.500000  0.524929  0.309729  1
  B  B14  1  0.500000  0.974305  0.809166  1
  B  B15  1  0.500000  0.023990  0.190811  1
  B  B16  1  0.500000  0.281297  0.816159  1
  B  B17  1  0.500000  0.720896  0.182531  1
  B  B18  1  0.500000  0.778738  0.682296  1
  B  B19  1  0.500000  0.221134  0.317656  1
  B  B20  1  0.500000  0.387832  0.546265  1
  B  B21  1  0.500000  0.611893  0.453372  1
  B  B22  1  0.500000  0.885886  0.954472  1
  B  B23  1  0.500000  0.111340  0.047476  1
