# generated using pymatgen
data_Nd16MgCd3IrOs3
_symmetry_space_group_name_H-M   'P 1'
_cell_length_a   9.98226633
_cell_length_b   10.01951563
_cell_length_c   10.01951626
_cell_angle_alpha   59.79020589
_cell_angle_beta   59.70413722
_cell_angle_gamma   59.70413910
_symmetry_Int_Tables_number   1
_chemical_formula_structural   Nd16MgCd3IrOs3
_chemical_formula_sum   'Nd16 Mg1 Cd3 Ir1 Os3'
_cell_volume   704.30997424
_cell_formula_units_Z   1
loop_
 _symmetry_equiv_pos_site_id
 _symmetry_equiv_pos_as_xyz
  1  'x, y, z'
loop_
 _atom_site_type_symbol
 _atom_site_label
 _atom_site_symmetry_multiplicity
 _atom_site_fract_x
 _atom_site_fract_y
 _atom_site_fract_z
 _atom_site_occupancy
  Nd  Nd0  1  0.345448  0.346912  0.346912  1
  Nd  Nd1  1  0.344738  0.346018  0.962517  1
  Nd  Nd2  1  0.344738  0.962517  0.346018  1
  Nd  Nd3  1  0.965256  0.344707  0.344707  1
  Nd  Nd4  1  0.809788  0.191845  0.191845  1
  Nd  Nd5  1  0.189842  0.810711  0.810711  1
  Nd  Nd6  1  0.191388  0.808407  0.191565  1
  Nd  Nd7  1  0.812036  0.190264  0.809357  1
  Nd  Nd8  1  0.191388  0.191565  0.808407  1
  Nd  Nd9  1  0.812036  0.809357  0.190264  1
  Nd  Nd10  1  0.938290  0.561333  0.561333  1
  Nd  Nd11  1  0.557993  0.940605  0.940605  1
  Nd  Nd12  1  0.559789  0.938150  0.563788  1
  Nd  Nd13  1  0.940635  0.559963  0.941652  1
  Nd  Nd14  1  0.559789  0.563788  0.938150  1
  Nd  Nd15  1  0.940635  0.941652  0.559963  1
  Mg  Mg16  1  0.574391  0.574367  0.574367  1
  Cd  Cd17  1  0.579867  0.580169  0.259524  1
  Cd  Cd18  1  0.579867  0.259524  0.580169  1
  Cd  Cd19  1  0.259321  0.579882  0.579882  1
  Ir  Ir20  1  0.581576  0.139535  0.139535  1
  Os  Os21  1  0.140914  0.137701  0.137701  1
  Os  Os22  1  0.140135  0.137009  0.584017  1
  Os  Os23  1  0.140135  0.584017  0.137009  1
