# generated using pymatgen
data_TbEr3Co3Ru5
_symmetry_space_group_name_H-M   'P 1'
_cell_length_a   5.13098804
_cell_length_b   5.11508546
_cell_length_c   8.78105100
_cell_angle_alpha   90.00000000
_cell_angle_beta   90.00669997
_cell_angle_gamma   119.89752685
_symmetry_Int_Tables_number   1
_chemical_formula_structural   TbEr3Co3Ru5
_chemical_formula_sum   'Tb1 Er3 Co3 Ru5'
_cell_volume   199.79220707
_cell_formula_units_Z   1
loop_
 _symmetry_equiv_pos_site_id
 _symmetry_equiv_pos_as_xyz
  1  'x, y, z'
loop_
 _atom_site_type_symbol
 _atom_site_label
 _atom_site_symmetry_multiplicity
 _atom_site_fract_x
 _atom_site_fract_y
 _atom_site_fract_z
 _atom_site_occupancy
  Tb  Tb0  1  0.329152  0.664577  0.435517  1
  Er  Er1  1  0.662855  0.331427  0.569162  1
  Er  Er2  1  0.663732  0.331866  0.931432  1
  Er  Er3  1  0.329940  0.664970  0.064156  1
  Co  Co4  1  0.175423  0.344250  0.751116  1
  Co  Co5  1  0.175423  0.831173  0.751116  1
  Co  Co6  1  0.339555  0.169778  0.248411  1
  Ru  Ru7  1  0.830428  0.659659  0.248791  1
  Ru  Ru8  1  0.664302  0.832151  0.750984  1
  Ru  Ru9  1  0.000057  0.000029  0.996590  1
  Ru  Ru10  1  0.830428  0.170770  0.248791  1
  Ru  Ru11  1  0.998702  0.999351  0.503933  1
