# generated using pymatgen
data_Zr10CdB2Sb5
_symmetry_space_group_name_H-M   'P 1'
_cell_length_a   8.53751635
_cell_length_b   8.53751701
_cell_length_c   5.78761800
_cell_angle_alpha   90.00000000
_cell_angle_beta   90.00000000
_cell_angle_gamma   119.93152860
_symmetry_Int_Tables_number   1
_chemical_formula_structural   Zr10CdB2Sb5
_chemical_formula_sum   'Zr10 Cd1 B2 Sb5'
_cell_volume   365.58877657
_cell_formula_units_Z   1
loop_
 _symmetry_equiv_pos_site_id
 _symmetry_equiv_pos_as_xyz
  1  'x, y, z'
loop_
 _atom_site_type_symbol
 _atom_site_label
 _atom_site_symmetry_multiplicity
 _atom_site_fract_x
 _atom_site_fract_y
 _atom_site_fract_z
 _atom_site_occupancy
  Zr  Zr0  1  0.669672  0.333332  0.499179  1
  Zr  Zr1  1  0.333332  0.669672  0.499179  1
  Zr  Zr2  1  0.333332  0.669672  0.000821  1
  Zr  Zr3  1  0.669672  0.333332  0.000821  1
  Zr  Zr4  1  0.766660  0.766660  0.250000  1
  Zr  Zr5  1  0.232923  0.000209  0.250000  1
  Zr  Zr6  1  0.000209  0.232923  0.250000  1
  Zr  Zr7  1  0.228818  0.228818  0.750000  1
  Zr  Zr8  1  0.765862  0.999068  0.750000  1
  Zr  Zr9  1  0.999068  0.765862  0.750000  1
  Cd  Cd10  1  0.398722  0.398722  0.250000  1
  B  B11  1  0.000535  0.000535  0.498931  1
  B  B12  1  0.000535  0.000535  0.001069  1
  Sb  Sb13  1  0.602537  0.001201  0.250000  1
  Sb  Sb14  1  0.001201  0.602537  0.250000  1
  Sb  Sb15  1  0.595898  0.595898  0.750000  1
  Sb  Sb16  1  0.398975  0.002052  0.750000  1
  Sb  Sb17  1  0.002052  0.398975  0.750000  1
