# generated using pymatgen
data_TmZr3(MoN2)4
_symmetry_space_group_name_H-M   'P 1'
_cell_length_a   3.08773100
_cell_length_b   5.56685349
_cell_length_c   10.59140278
_cell_angle_alpha   90.08338818
_cell_angle_beta   90.00000000
_cell_angle_gamma   90.00000000
_symmetry_Int_Tables_number   1
_chemical_formula_structural   TmZr3(MoN2)4
_chemical_formula_sum   'Tm1 Zr3 Mo4 N8'
_cell_volume   182.05485852
_cell_formula_units_Z   1
loop_
 _symmetry_equiv_pos_site_id
 _symmetry_equiv_pos_as_xyz
  1  'x, y, z'
loop_
 _atom_site_type_symbol
 _atom_site_label
 _atom_site_symmetry_multiplicity
 _atom_site_fract_x
 _atom_site_fract_y
 _atom_site_fract_z
 _atom_site_occupancy
  Tm  Tm0  1  0.750000  0.417145  0.353922  1
  Zr  Zr1  1  0.250000  0.088229  0.849722  1
  Zr  Zr2  1  0.250000  0.582767  0.649479  1
  Zr  Zr3  1  0.750000  0.912571  0.149951  1
  Mo  Mo4  1  0.250000  0.428533  0.093889  1
  Mo  Mo5  1  0.250000  0.928891  0.402778  1
  Mo  Mo6  1  0.750000  0.572076  0.906848  1
  Mo  Mo7  1  0.750000  0.067300  0.595956  1
  N  N8  1  0.250000  0.154113  0.241231  1
  N  N9  1  0.250000  0.668818  0.249149  1
  N  N10  1  0.750000  0.838547  0.755766  1
  N  N11  1  0.750000  0.339327  0.747943  1
  N  N12  1  0.250000  0.775556  0.997670  1
  N  N13  1  0.250000  0.271002  0.504712  1
  N  N14  1  0.750000  0.224220  0.999158  1
  N  N15  1  0.750000  0.730904  0.501826  1
