# generated using pymatgen
data_Sr9Tl(PO4)7
_symmetry_space_group_name_H-M   'P 1'
_cell_length_a   9.12805479
_cell_length_b   9.12805487
_cell_length_c   18.29126000
_cell_angle_alpha   71.96825870
_cell_angle_beta   71.96825855
_cell_angle_gamma   72.55489797
_symmetry_Int_Tables_number   1
_chemical_formula_structural   Sr9Tl(PO4)7
_chemical_formula_sum   'Sr18 Tl2 P14 O56'
_cell_volume   1342.50016659
_cell_formula_units_Z   2
loop_
 _symmetry_equiv_pos_site_id
 _symmetry_equiv_pos_as_xyz
  1  'x, y, z'
loop_
 _atom_site_type_symbol
 _atom_site_label
 _atom_site_symmetry_multiplicity
 _atom_site_fract_x
 _atom_site_fract_y
 _atom_site_fract_z
 _atom_site_occupancy
  Sr  Sr0  1  0.954991  0.505007  0.252953  1
  Sr  Sr1  1  0.496605  0.039260  0.249659  1
  Sr  Sr2  1  0.039260  0.496605  0.749659  1
  Sr  Sr3  1  0.505007  0.954991  0.752953  1
  Sr  Sr4  1  0.158769  0.728103  0.860024  1
  Sr  Sr5  1  0.270829  0.844175  0.640703  1
  Sr  Sr6  1  0.844175  0.270829  0.140703  1
  Sr  Sr7  1  0.728103  0.158769  0.360024  1
  Sr  Sr8  1  0.286094  0.282456  0.412709  1
  Sr  Sr9  1  0.720371  0.714824  0.087084  1
  Sr  Sr10  1  0.714824  0.720371  0.587084  1
  Sr  Sr11  1  0.282456  0.286094  0.912709  1
  Sr  Sr12  1  0.164080  0.720273  0.365098  1
  Sr  Sr13  1  0.279935  0.836224  0.136359  1
  Sr  Sr14  1  0.836224  0.279935  0.636359  1
  Sr  Sr15  1  0.720273  0.164080  0.865098  1
  Sr  Sr16  1  0.495264  0.494228  0.514062  1
  Sr  Sr17  1  0.494228  0.495264  0.014062  1
  Tl  Tl18  1  0.000944  0.000889  0.499773  1
  Tl  Tl19  1  0.000889  0.000944  0.999773  1
  P  P20  1  0.103814  0.116205  0.792307  1
  P  P21  1  0.883947  0.896851  0.708220  1
  P  P22  1  0.896851  0.883947  0.208220  1
  P  P23  1  0.116205  0.103814  0.292307  1
  P  P24  1  0.415859  0.894687  0.943099  1
  P  P25  1  0.105099  0.583197  0.558018  1
  P  P26  1  0.583197  0.105099  0.058018  1
  P  P27  1  0.894687  0.415859  0.443099  1
  P  P28  1  0.415339  0.885803  0.449044  1
  P  P29  1  0.113570  0.584921  0.051716  1
  P  P30  1  0.584921  0.113570  0.551716  1
  P  P31  1  0.885803  0.415339  0.949044  1
  P  P32  1  0.472715  0.525630  0.747521  1
  P  P33  1  0.525630  0.472715  0.247521  1
  O  O34  1  0.618045  0.210622  0.597887  1
  O  O35  1  0.789755  0.381207  0.903123  1
  O  O36  1  0.381207  0.789755  0.403123  1
  O  O37  1  0.210622  0.618045  0.097887  1
  O  O38  1  0.615397  0.204343  0.104116  1
  O  O39  1  0.798196  0.380708  0.397042  1
  O  O40  1  0.380708  0.798196  0.897042  1
  O  O41  1  0.204343  0.615397  0.604116  1
  O  O42  1  0.478590  0.577614  0.169331  1
  O  O43  1  0.409416  0.529307  0.320625  1
  O  O44  1  0.529307  0.409416  0.820625  1
  O  O45  1  0.577614  0.478590  0.669331  1
  O  O46  1  0.500682  0.974733  0.117616  1
  O  O47  1  0.023739  0.500450  0.383816  1
  O  O48  1  0.500450  0.023739  0.883816  1
  O  O49  1  0.974733  0.500682  0.617616  1
  O  O50  1  0.228491  0.502602  0.986167  1
  O  O51  1  0.496244  0.772625  0.515595  1
  O  O52  1  0.772625  0.496244  0.015595  1
  O  O53  1  0.502602  0.228491  0.486167  1
  O  O54  1  0.217099  0.491006  0.496441  1
  O  O55  1  0.506829  0.782777  0.005354  1
  O  O56  1  0.782777  0.506829  0.505354  1
  O  O57  1  0.491006  0.217099  0.996441  1
  O  O58  1  0.701908  0.476151  0.235718  1
  O  O59  1  0.527877  0.293757  0.263354  1
  O  O60  1  0.293757  0.527877  0.763354  1
  O  O61  1  0.476151  0.701908  0.735718  1
  O  O62  1  0.011681  0.016722  0.872440  1
  O  O63  1  0.982674  0.988889  0.627859  1
  O  O64  1  0.988889  0.982674  0.127859  1
  O  O65  1  0.016722  0.011681  0.372440  1
  O  O66  1  0.255937  0.986627  0.494008  1
  O  O67  1  0.014271  0.744550  0.006674  1
  O  O68  1  0.744550  0.014271  0.506674  1
  O  O69  1  0.986627  0.255937  0.994008  1
  O  O70  1  0.991756  0.216031  0.247208  1
  O  O71  1  0.785598  0.008544  0.253371  1
  O  O72  1  0.008544  0.785598  0.753371  1
  O  O73  1  0.216031  0.991756  0.747208  1
  O  O74  1  0.492418  0.989752  0.608740  1
  O  O75  1  0.009321  0.508988  0.892554  1
  O  O76  1  0.508988  0.009321  0.392554  1
  O  O77  1  0.989752  0.492418  0.108740  1
  O  O78  1  0.800251  0.790005  0.191944  1
  O  O79  1  0.210923  0.198874  0.308989  1
  O  O80  1  0.198874  0.210923  0.808989  1
  O  O81  1  0.790005  0.800251  0.691944  1
  O  O82  1  0.257168  0.988150  0.991670  1
  O  O83  1  0.013332  0.742874  0.509767  1
  O  O84  1  0.742874  0.013332  0.009767  1
  O  O85  1  0.988150  0.257168  0.491670  1
  O  O86  1  0.974405  0.231095  0.750584  1
  O  O87  1  0.768330  0.026305  0.749658  1
  O  O88  1  0.026305  0.768330  0.249658  1
  O  O89  1  0.231095  0.974405  0.250584  1
