# generated using pymatgen
data_Y2ThMn(Co4P3)2
_symmetry_space_group_name_H-M   'P 1'
_cell_length_a   3.73817300
_cell_length_b   10.63700500
_cell_length_c   12.28333800
_cell_angle_alpha   90.00000000
_cell_angle_beta   90.00000000
_cell_angle_gamma   90.00000000
_symmetry_Int_Tables_number   1
_chemical_formula_structural   Y2ThMn(Co4P3)2
_chemical_formula_sum   'Y4 Th2 Mn2 Co16 P12'
_cell_volume   488.42193765
_cell_formula_units_Z   2
loop_
 _symmetry_equiv_pos_site_id
 _symmetry_equiv_pos_as_xyz
  1  'x, y, z'
loop_
 _atom_site_type_symbol
 _atom_site_label
 _atom_site_symmetry_multiplicity
 _atom_site_fract_x
 _atom_site_fract_y
 _atom_site_fract_z
 _atom_site_occupancy
  Y  Y0  1  0.500000  0.816643  0.203107  1
  Y  Y1  1  0.500000  0.183357  0.203107  1
  Y  Y2  1  0.000000  0.683357  0.796893  1
  Y  Y3  1  0.000000  0.316643  0.796893  1
  Th  Th4  1  0.000000  0.500000  0.525381  1
  Th  Th5  1  0.500000  0.000000  0.474619  1
  Mn  Mn6  1  0.500000  0.500000  0.153618  1
  Mn  Mn7  1  0.000000  0.000000  0.846382  1
  Co  Co8  1  0.500000  0.500000  0.701525  1
  Co  Co9  1  0.000000  0.000000  0.298475  1
  Co  Co10  1  0.000000  0.500000  0.985335  1
  Co  Co11  1  0.500000  0.000000  0.014665  1
  Co  Co12  1  0.500000  0.333268  0.994019  1
  Co  Co13  1  0.500000  0.666732  0.994019  1
  Co  Co14  1  0.000000  0.166732  0.005981  1
  Co  Co15  1  0.000000  0.833268  0.005981  1
  Co  Co16  1  0.500000  0.297995  0.430131  1
  Co  Co17  1  0.500000  0.702005  0.430131  1
  Co  Co18  1  0.000000  0.202005  0.569869  1
  Co  Co19  1  0.000000  0.797995  0.569869  1
  Co  Co20  1  0.500000  0.879969  0.712589  1
  Co  Co21  1  0.500000  0.120031  0.712589  1
  Co  Co22  1  0.000000  0.620031  0.287411  1
  Co  Co23  1  0.000000  0.379969  0.287411  1
  P  P24  1  0.500000  0.500000  0.882441  1
  P  P25  1  0.000000  0.000000  0.117559  1
  P  P26  1  0.500000  0.500000  0.338590  1
  P  P27  1  0.000000  0.000000  0.661410  1
  P  P28  1  0.500000  0.305027  0.618175  1
  P  P29  1  0.500000  0.694973  0.618175  1
  P  P30  1  0.000000  0.194973  0.381825  1
  P  P31  1  0.000000  0.805027  0.381825  1
  P  P32  1  0.500000  0.847279  0.894979  1
  P  P33  1  0.500000  0.152721  0.894979  1
  P  P34  1  0.000000  0.652721  0.105021  1
  P  P35  1  0.000000  0.347279  0.105021  1
