# generated using pymatgen
data_Pr3TmSb10
_symmetry_space_group_name_H-M   'P 1'
_cell_length_a   4.30625400
_cell_length_b   13.49151104
_cell_length_c   15.07423808
_cell_angle_alpha   78.13225001
_cell_angle_beta   90.00000000
_cell_angle_gamma   90.00000000
_symmetry_Int_Tables_number   1
_chemical_formula_structural   Pr3TmSb10
_chemical_formula_sum   'Pr6 Tm2 Sb20'
_cell_volume   857.06126207
_cell_formula_units_Z   2
loop_
 _symmetry_equiv_pos_site_id
 _symmetry_equiv_pos_as_xyz
  1  'x, y, z'
loop_
 _atom_site_type_symbol
 _atom_site_label
 _atom_site_symmetry_multiplicity
 _atom_site_fract_x
 _atom_site_fract_y
 _atom_site_fract_z
 _atom_site_occupancy
  Pr  Pr0  1  0.250000  0.665981  0.857843  1
  Pr  Pr1  1  0.750000  0.334019  0.142157  1
  Pr  Pr2  1  0.250000  0.667829  0.576640  1
  Pr  Pr3  1  0.750000  0.332171  0.423360  1
  Pr  Pr4  1  0.250000  0.947226  0.360806  1
  Pr  Pr5  1  0.750000  0.052774  0.639194  1
  Tm  Tm6  1  0.250000  0.399110  0.772214  1
  Tm  Tm7  1  0.750000  0.600890  0.227786  1
  Sb  Sb8  1  0.250000  0.150234  0.784279  1
  Sb  Sb9  1  0.750000  0.849766  0.215721  1
  Sb  Sb10  1  0.250000  0.143240  0.476987  1
  Sb  Sb11  1  0.750000  0.856760  0.523013  1
  Sb  Sb12  1  0.250000  0.145930  0.179473  1
  Sb  Sb13  1  0.750000  0.854070  0.820527  1
  Sb  Sb14  1  0.250000  0.420214  0.971852  1
  Sb  Sb15  1  0.750000  0.579786  0.028148  1
  Sb  Sb16  1  0.750000  0.035185  0.892633  1
  Sb  Sb17  1  0.250000  0.964815  0.107367  1
  Sb  Sb18  1  0.750000  0.136499  0.323910  1
  Sb  Sb19  1  0.250000  0.863501  0.676090  1
  Sb  Sb20  1  0.750000  0.286624  0.931692  1
  Sb  Sb21  1  0.250000  0.713376  0.068308  1
  Sb  Sb22  1  0.750000  0.296104  0.650199  1
  Sb  Sb23  1  0.250000  0.703896  0.349801  1
  Sb  Sb24  1  0.750000  0.570724  0.737865  1
  Sb  Sb25  1  0.250000  0.429276  0.262135  1
  Sb  Sb26  1  0.750000  0.575035  0.440148  1
  Sb  Sb27  1  0.250000  0.424965  0.559852  1
