# generated using pymatgen
data_HoEr2Fe8Ru
_symmetry_space_group_name_H-M   'P 1'
_cell_length_a   8.78343239
_cell_length_b   8.78343270
_cell_length_c   8.78343240
_cell_angle_alpha   33.52956454
_cell_angle_beta   33.52955980
_cell_angle_gamma   33.52956287
_symmetry_Int_Tables_number   1
_chemical_formula_structural   HoEr2Fe8Ru
_chemical_formula_sum   'Ho1 Er2 Fe8 Ru1'
_cell_volume   184.14996223
_cell_formula_units_Z   1
loop_
 _symmetry_equiv_pos_site_id
 _symmetry_equiv_pos_as_xyz
  1  'x, y, z'
loop_
 _atom_site_type_symbol
 _atom_site_label
 _atom_site_symmetry_multiplicity
 _atom_site_fract_x
 _atom_site_fract_y
 _atom_site_fract_z
 _atom_site_occupancy
  Ho  Ho0  1  0.000000  0.000000  0.000000  1
  Er  Er1  1  0.141759  0.141759  0.141759  1
  Er  Er2  1  0.858241  0.858241  0.858241  1
  Fe  Fe3  1  0.418243  0.418243  0.923171  1
  Fe  Fe4  1  0.923171  0.418243  0.418243  1
  Fe  Fe5  1  0.581757  0.076829  0.581757  1
  Fe  Fe6  1  0.581757  0.581757  0.076829  1
  Fe  Fe7  1  0.418243  0.923171  0.418243  1
  Fe  Fe8  1  0.076829  0.581757  0.581757  1
  Fe  Fe9  1  0.332822  0.332822  0.332822  1
  Fe  Fe10  1  0.667178  0.667178  0.667178  1
  Ru  Ru11  1  0.500000  0.500000  0.500000  1
