# generated using pymatgen
data_Er6Zr4Al12Os7
_symmetry_space_group_name_H-M   'P 1'
_cell_length_a   9.12467941
_cell_length_b   9.12467881
_cell_length_c   9.12467900
_cell_angle_alpha   59.99999569
_cell_angle_beta   59.99999786
_cell_angle_gamma   60.00000268
_symmetry_Int_Tables_number   1
_chemical_formula_structural   Er6Zr4Al12Os7
_chemical_formula_sum   'Er6 Zr4 Al12 Os7'
_cell_volume   537.20220421
_cell_formula_units_Z   1
loop_
 _symmetry_equiv_pos_site_id
 _symmetry_equiv_pos_as_xyz
  1  'x, y, z'
loop_
 _atom_site_type_symbol
 _atom_site_label
 _atom_site_symmetry_multiplicity
 _atom_site_fract_x
 _atom_site_fract_y
 _atom_site_fract_z
 _atom_site_occupancy
  Er  Er0  1  0.705192  0.705192  0.294808  1
  Er  Er1  1  0.294808  0.705192  0.294808  1
  Er  Er2  1  0.705192  0.294808  0.294808  1
  Er  Er3  1  0.294808  0.294808  0.705192  1
  Er  Er4  1  0.705192  0.294808  0.705192  1
  Er  Er5  1  0.294808  0.705192  0.705192  1
  Zr  Zr6  1  0.880098  0.880098  0.359703  1
  Zr  Zr7  1  0.880098  0.359703  0.880098  1
  Zr  Zr8  1  0.359703  0.880098  0.880098  1
  Zr  Zr9  1  0.880098  0.880098  0.880098  1
  Al  Al10  1  0.120601  0.120601  0.638199  1
  Al  Al11  1  0.120601  0.638199  0.120601  1
  Al  Al12  1  0.638199  0.120601  0.120601  1
  Al  Al13  1  0.120601  0.120601  0.120601  1
  Al  Al14  1  0.667354  0.667354  0.997940  1
  Al  Al15  1  0.667354  0.997940  0.667354  1
  Al  Al16  1  0.997940  0.667354  0.667354  1
  Al  Al17  1  0.667354  0.667354  0.667354  1
  Al  Al18  1  0.331276  0.331276  0.006171  1
  Al  Al19  1  0.331276  0.006171  0.331276  1
  Al  Al20  1  0.006171  0.331276  0.331276  1
  Al  Al21  1  0.331276  0.331276  0.331276  1
  Os  Os22  1  0.000000  0.000000  0.000000  1
  Os  Os23  1  0.000651  0.000651  0.499349  1
  Os  Os24  1  0.499349  0.000651  0.499349  1
  Os  Os25  1  0.000651  0.499349  0.499349  1
  Os  Os26  1  0.499349  0.499349  0.000651  1
  Os  Os27  1  0.000651  0.499349  0.000651  1
  Os  Os28  1  0.499349  0.000651  0.000651  1
