# generated using pymatgen
data_Mn4Ni2As2P
_symmetry_space_group_name_H-M   'P 1'
_cell_length_a   6.18281499
_cell_length_b   6.17975881
_cell_length_c   3.42444600
_cell_angle_alpha   90.00000000
_cell_angle_beta   90.00000000
_cell_angle_gamma   119.98364078
_symmetry_Int_Tables_number   1
_chemical_formula_structural   Mn4Ni2As2P
_chemical_formula_sum   'Mn4 Ni2 As2 P1'
_cell_volume   113.33141176
_cell_formula_units_Z   1
loop_
 _symmetry_equiv_pos_site_id
 _symmetry_equiv_pos_as_xyz
  1  'x, y, z'
loop_
 _atom_site_type_symbol
 _atom_site_label
 _atom_site_symmetry_multiplicity
 _atom_site_fract_x
 _atom_site_fract_y
 _atom_site_fract_z
 _atom_site_occupancy
  Mn  Mn0  1  0.605048  0.606483  0.500000  1
  Mn  Mn1  1  0.000000  0.751768  0.000000  1
  Mn  Mn2  1  0.394952  0.001435  0.500000  1
  Mn  Mn3  1  0.000000  0.394444  0.500000  1
  Ni  Ni4  1  0.248131  0.247744  0.000000  1
  Ni  Ni5  1  0.751869  0.999613  0.000000  1
  As  As6  1  0.333424  0.665820  0.000000  1
  As  As7  1  0.666576  0.332394  0.000000  1
  P  P8  1  0.000000  0.000297  0.500000  1
