# generated using pymatgen
data_YbDy4Tm3(B6Os)4
_symmetry_space_group_name_H-M   'P 1'
_cell_length_a   3.63810700
_cell_length_b   9.12210639
_cell_length_c   11.51481811
_cell_angle_alpha   89.94545992
_cell_angle_beta   90.00000000
_cell_angle_gamma   90.00000000
_symmetry_Int_Tables_number   1
_chemical_formula_structural   YbDy4Tm3(B6Os)4
_chemical_formula_sum   'Yb1 Dy4 Tm3 B24 Os4'
_cell_volume   382.14438824
_cell_formula_units_Z   1
loop_
 _symmetry_equiv_pos_site_id
 _symmetry_equiv_pos_as_xyz
  1  'x, y, z'
loop_
 _atom_site_type_symbol
 _atom_site_label
 _atom_site_symmetry_multiplicity
 _atom_site_fract_x
 _atom_site_fract_y
 _atom_site_fract_z
 _atom_site_occupancy
  Yb  Yb0  1  0.000000  0.322818  0.413647  1
  Dy  Dy1  1  0.000000  0.676361  0.585539  1
  Dy  Dy2  1  0.000000  0.821720  0.086316  1
  Dy  Dy3  1  0.000000  0.178858  0.914196  1
  Dy  Dy4  1  0.000000  0.944357  0.372130  1
  Tm  Tm5  1  0.000000  0.058068  0.627799  1
  Tm  Tm6  1  0.000000  0.443173  0.128504  1
  Tm  Tm7  1  0.000000  0.555972  0.872761  1
  B  B8  1  0.500000  0.552940  0.432473  1
  B  B9  1  0.500000  0.445631  0.567471  1
  B  B10  1  0.500000  0.053638  0.066447  1
  B  B11  1  0.500000  0.945897  0.932306  1
  B  B12  1  0.500000  0.747577  0.418986  1
  B  B13  1  0.500000  0.251782  0.581068  1
  B  B14  1  0.500000  0.248794  0.080696  1
  B  B15  1  0.500000  0.750841  0.919316  1
  B  B16  1  0.500000  0.790494  0.266032  1
  B  B17  1  0.500000  0.209489  0.733986  1
  B  B18  1  0.500000  0.291067  0.233539  1
  B  B19  1  0.500000  0.708880  0.766495  1
  B  B20  1  0.500000  0.630492  0.185544  1
  B  B21  1  0.500000  0.369408  0.815311  1
  B  B22  1  0.500000  0.131911  0.313771  1
  B  B23  1  0.500000  0.869209  0.685241  1
  B  B24  1  0.500000  0.983577  0.211761  1
  B  B25  1  0.500000  0.017200  0.786648  1
  B  B26  1  0.500000  0.482310  0.287145  1
  B  B27  1  0.500000  0.516978  0.713315  1
  B  B28  1  0.500000  0.605086  0.029259  1
  B  B29  1  0.500000  0.395048  0.971184  1
  B  B30  1  0.500000  0.104688  0.472130  1
  B  B31  1  0.500000  0.895710  0.529941  1
  Os  Os32  1  0.000000  0.637865  0.320244  1
  Os  Os33  1  0.000000  0.362186  0.680529  1
  Os  Os34  1  0.000000  0.137821  0.177385  1
  Os  Os35  1  0.000000  0.862152  0.820889  1
