# generated using pymatgen
data_Er7Hf9(Si4Mo)4
_symmetry_space_group_name_H-M   'P 1'
_cell_length_a   7.12269651
_cell_length_b   7.11927345
_cell_length_c   12.99490036
_cell_angle_alpha   90.12127600
_cell_angle_beta   90.01681541
_cell_angle_gamma   89.95991369
_symmetry_Int_Tables_number   1
_chemical_formula_structural   Er7Hf9(Si4Mo)4
_chemical_formula_sum   'Er7 Hf9 Si16 Mo4'
_cell_volume   658.94925433
_cell_formula_units_Z   1
loop_
 _symmetry_equiv_pos_site_id
 _symmetry_equiv_pos_as_xyz
  1  'x, y, z'
loop_
 _atom_site_type_symbol
 _atom_site_label
 _atom_site_symmetry_multiplicity
 _atom_site_fract_x
 _atom_site_fract_y
 _atom_site_fract_z
 _atom_site_occupancy
  Er  Er0  1  0.498922  0.154805  0.533279  1
  Er  Er1  1  0.501509  0.845937  0.034798  1
  Er  Er2  1  0.655764  0.002342  0.282940  1
  Er  Er3  1  0.345665  0.998543  0.784490  1
  Er  Er4  1  0.845183  0.501195  0.966699  1
  Er  Er5  1  0.153788  0.498547  0.466289  1
  Er  Er6  1  0.001187  0.654648  0.715876  1
  Hf  Hf7  1  0.003357  0.347416  0.215898  1
  Hf  Hf8  1  0.493721  0.354508  0.125062  1
  Hf  Hf9  1  0.505586  0.645337  0.623694  1
  Hf  Hf10  1  0.854535  0.007227  0.875532  1
  Hf  Hf11  1  0.143154  0.994113  0.372480  1
  Hf  Hf12  1  0.645682  0.504263  0.374226  1
  Hf  Hf13  1  0.354318  0.494247  0.876983  1
  Hf  Hf14  1  0.005432  0.855373  0.126829  1
  Hf  Hf15  1  0.993451  0.145725  0.625069  1
  Si  Si16  1  0.801478  0.145759  0.071970  1
  Si  Si17  1  0.202902  0.859048  0.567048  1
  Si  Si18  1  0.641035  0.702763  0.817542  1
  Si  Si19  1  0.353360  0.299258  0.316592  1
  Si  Si20  1  0.859716  0.205328  0.429640  1
  Si  Si21  1  0.140569  0.796225  0.933154  1
  Si  Si22  1  0.707942  0.637783  0.181147  1
  Si  Si23  1  0.297422  0.358696  0.682572  1
  Si  Si24  1  0.552454  0.204461  0.934344  1
  Si  Si25  1  0.448089  0.795733  0.433014  1
  Si  Si26  1  0.703842  0.948418  0.683742  1
  Si  Si27  1  0.294442  0.054076  0.183406  1
  Si  Si28  1  0.796250  0.448772  0.565730  1
  Si  Si29  1  0.200966  0.548693  0.068256  1
  Si  Si30  1  0.950476  0.698067  0.315085  1
  Si  Si31  1  0.051690  0.296272  0.816290  1
  Mo  Mo32  1  0.676299  0.323442  0.749976  1
  Mo  Mo33  1  0.321048  0.673337  0.249947  1
  Mo  Mo34  1  0.824110  0.822345  0.498800  1
  Mo  Mo35  1  0.174657  0.177298  0.001602  1
