# generated using pymatgen
data_Ho4Al18NiIr3Rh2
_symmetry_space_group_name_H-M   'P 1'
_cell_length_a   7.55366402
_cell_length_b   7.55362469
_cell_length_c   9.43393572
_cell_angle_alpha   90.14142744
_cell_angle_beta   90.14139794
_cell_angle_gamma   119.84213136
_symmetry_Int_Tables_number   1
_chemical_formula_structural   Ho4Al18NiIr3Rh2
_chemical_formula_sum   'Ho4 Al18 Ni1 Ir3 Rh2'
_cell_volume   466.89585696
_cell_formula_units_Z   1
loop_
 _symmetry_equiv_pos_site_id
 _symmetry_equiv_pos_as_xyz
  1  'x, y, z'
loop_
 _atom_site_type_symbol
 _atom_site_label
 _atom_site_symmetry_multiplicity
 _atom_site_fract_x
 _atom_site_fract_y
 _atom_site_fract_z
 _atom_site_occupancy
  Ho  Ho0  1  0.995181  0.668040  0.250075  1
  Ho  Ho1  1  0.004980  0.332329  0.749899  1
  Ho  Ho2  1  0.667669  0.995020  0.250102  1
  Ho  Ho3  1  0.331957  0.004815  0.749924  1
  Al  Al4  1  0.122597  0.122496  0.246803  1
  Al  Al5  1  0.877505  0.877403  0.753197  1
  Al  Al6  1  0.999483  0.331644  0.074762  1
  Al  Al7  1  0.999744  0.668084  0.925155  1
  Al  Al8  1  0.999404  0.666680  0.575154  1
  Al  Al9  1  0.333315  0.000593  0.424847  1
  Al  Al10  1  0.000356  0.333236  0.424808  1
  Al  Al11  1  0.666770  0.999649  0.575189  1
  Al  Al12  1  0.668357  0.000518  0.925240  1
  Al  Al13  1  0.331916  0.000256  0.074844  1
  Al  Al14  1  0.333195  0.333081  0.552324  1
  Al  Al15  1  0.666920  0.666806  0.447675  1
  Al  Al16  1  0.669528  0.669216  0.051676  1
  Al  Al17  1  0.330786  0.330471  0.948324  1
  Al  Al18  1  0.338646  0.546579  0.249633  1
  Al  Al19  1  0.661419  0.452898  0.750786  1
  Al  Al20  1  0.547101  0.338581  0.249214  1
  Al  Al21  1  0.453423  0.661355  0.750366  1
  Ni  Ni22  1  0.000023  0.999973  0.000002  1
  Ir  Ir23  1  0.327840  0.672151  0.999999  1
  Ir  Ir24  1  0.327699  0.672306  0.500000  1
  Ir  Ir25  1  0.672188  0.327811  0.499999  1
  Rh  Rh26  1  0.672027  0.327981  0.000001  1
  Rh  Rh27  1  0.999973  0.000029  0.500001  1
