# generated using pymatgen
data_TbU2Pa3(Ni3Bi4)2
_symmetry_space_group_name_H-M   'P 1'
_cell_length_a   8.35021989
_cell_length_b   8.36690770
_cell_length_c   8.35021983
_cell_angle_alpha   109.36217085
_cell_angle_beta   109.33494566
_cell_angle_gamma   109.63563936
_symmetry_Int_Tables_number   1
_chemical_formula_structural   TbU2Pa3(Ni3Bi4)2
_chemical_formula_sum   'Tb1 U2 Pa3 Ni6 Bi8'
_cell_volume   449.54072591
_cell_formula_units_Z   1
loop_
 _symmetry_equiv_pos_site_id
 _symmetry_equiv_pos_as_xyz
  1  'x, y, z'
loop_
 _atom_site_type_symbol
 _atom_site_label
 _atom_site_symmetry_multiplicity
 _atom_site_fract_x
 _atom_site_fract_y
 _atom_site_fract_z
 _atom_site_occupancy
  Tb  Tb0  1  0.626042  0.750000  0.376042  1
  U  U1  1  0.253969  0.131314  0.873643  1
  U  U2  1  0.742329  0.368686  0.622654  1
  Pa  Pa3  1  0.125754  0.878224  0.250964  1
  Pa  Pa4  1  0.372740  0.621776  0.747530  1
  Pa  Pa5  1  0.873735  0.250000  0.123735  1
  Ni  Ni6  1  0.634014  0.364376  0.243797  1
  Ni  Ni7  1  0.879421  0.135624  0.769638  1
  Ni  Ni8  1  0.371946  0.250000  0.621946  1
  Ni  Ni9  1  0.128428  0.750000  0.878428  1
  Ni  Ni10  1  0.235875  0.616071  0.371955  1
  Ni  Ni11  1  0.755885  0.883929  0.119803  1
  Bi  Bi12  1  0.334983  0.334961  0.329977  1
  Bi  Bi13  1  0.169954  0.503392  0.002504  1
  Bi  Bi14  1  0.995016  0.165039  0.500022  1
  Bi  Bi15  1  0.833711  0.830295  0.829533  1
  Bi  Bi16  1  0.499111  0.996608  0.166562  1
  Bi  Bi17  1  0.668847  0.504070  0.003073  1
  Bi  Bi18  1  0.499003  0.995930  0.664777  1
  Bi  Bi19  1  0.999238  0.669705  0.503415  1
