# generated using pymatgen
data_Lu3Mg3Ag2Ir
_symmetry_space_group_name_H-M   'P 1'
_cell_length_a   7.71546700
_cell_length_b   7.71546688
_cell_length_c   3.85229300
_cell_angle_alpha   90.00000000
_cell_angle_beta   90.00000000
_cell_angle_gamma   120.00000479
_symmetry_Int_Tables_number   1
_chemical_formula_structural   Lu3Mg3Ag2Ir
_chemical_formula_sum   'Lu3 Mg3 Ag2 Ir1'
_cell_volume   198.59776277
_cell_formula_units_Z   1
loop_
 _symmetry_equiv_pos_site_id
 _symmetry_equiv_pos_as_xyz
  1  'x, y, z'
loop_
 _atom_site_type_symbol
 _atom_site_label
 _atom_site_symmetry_multiplicity
 _atom_site_fract_x
 _atom_site_fract_y
 _atom_site_fract_z
 _atom_site_occupancy
  Lu  Lu0  1  0.431740  0.396610  0.500000  1
  Lu  Lu1  1  0.603390  0.035129  0.500000  1
  Lu  Lu2  1  0.964871  0.568260  0.500000  1
  Mg  Mg3  1  0.742823  0.742911  0.000000  1
  Mg  Mg4  1  0.257089  0.999912  0.000000  1
  Mg  Mg5  1  0.000088  0.257177  0.000000  1
  Ag  Ag6  1  0.333333  0.666667  0.000000  1
  Ag  Ag7  1  0.000000  0.000000  0.500000  1
  Ir  Ir8  1  0.666667  0.333333  0.000000  1
