# generated using pymatgen
data_Tb2Ho(CdGa)3
_symmetry_space_group_name_H-M   'P 1'
_cell_length_a   7.27310201
_cell_length_b   7.29337989
_cell_length_c   4.41697800
_cell_angle_alpha   90.00000000
_cell_angle_beta   90.00000000
_cell_angle_gamma   120.09227932
_symmetry_Int_Tables_number   1
_chemical_formula_structural   Tb2Ho(CdGa)3
_chemical_formula_sum   'Tb2 Ho1 Cd3 Ga3'
_cell_volume   202.72149233
_cell_formula_units_Z   1
loop_
 _symmetry_equiv_pos_site_id
 _symmetry_equiv_pos_as_xyz
  1  'x, y, z'
loop_
 _atom_site_type_symbol
 _atom_site_label
 _atom_site_symmetry_multiplicity
 _atom_site_fract_x
 _atom_site_fract_y
 _atom_site_fract_z
 _atom_site_occupancy
  Tb  Tb0  1  0.423995  0.424408  0.500000  1
  Tb  Tb1  1  0.576005  0.000412  0.500000  1
  Ho  Ho2  1  0.000000  0.576208  0.500000  1
  Cd  Cd3  1  0.751341  0.751000  0.000000  1
  Cd  Cd4  1  0.248659  0.999659  0.000000  1
  Cd  Cd5  1  0.000000  0.249548  0.000000  1
  Ga  Ga6  1  0.668214  0.334124  0.000000  1
  Ga  Ga7  1  0.331786  0.665910  0.000000  1
  Ga  Ga8  1  0.000000  0.998732  0.500000  1
