# generated using pymatgen
data_Er5TmNiI10
_symmetry_space_group_name_H-M   'P 1'
_cell_length_a   7.64691116
_cell_length_b   9.58935002
_cell_length_c   9.61550407
_cell_angle_alpha   106.98310746
_cell_angle_beta   96.76864176
_cell_angle_gamma   104.39440900
_symmetry_Int_Tables_number   1
_chemical_formula_structural   Er5TmNiI10
_chemical_formula_sum   'Er5 Tm1 Ni1 I10'
_cell_volume   639.22033713
_cell_formula_units_Z   1
loop_
 _symmetry_equiv_pos_site_id
 _symmetry_equiv_pos_as_xyz
  1  'x, y, z'
loop_
 _atom_site_type_symbol
 _atom_site_label
 _atom_site_symmetry_multiplicity
 _atom_site_fract_x
 _atom_site_fract_y
 _atom_site_fract_z
 _atom_site_occupancy
  Er  Er0  1  0.663550  0.880714  0.839968  1
  Er  Er1  1  0.968213  0.277516  0.082975  1
  Er  Er2  1  0.032405  0.722573  0.917446  1
  Er  Er3  1  0.888828  0.959759  0.234759  1
  Er  Er4  1  0.112553  0.040803  0.766078  1
  Tm  Tm5  1  0.334548  0.118753  0.159346  1
  Ni  Ni6  1  0.000245  0.000126  0.000123  1
  I  I7  1  0.349524  0.448932  0.272830  1
  I  I8  1  0.651632  0.550061  0.726527  1
  I  I9  1  0.769178  0.254862  0.343504  1
  I  I10  1  0.229452  0.744660  0.655862  1
  I  I11  1  0.545032  0.186806  0.907486  1
  I  I12  1  0.454902  0.814689  0.094146  1
  I  I13  1  0.742616  0.912662  0.536760  1
  I  I14  1  0.258026  0.087526  0.462605  1
  I  I15  1  0.913729  0.625641  0.180624  1
  I  I16  1  0.085567  0.373917  0.818962  1
