# generated using pymatgen
data_Tb11ThTc4
_symmetry_space_group_name_H-M   'P 1'
_cell_length_a   6.32154978
_cell_length_b   7.43892003
_cell_length_c   9.33923200
_cell_angle_alpha   90.00000000
_cell_angle_beta   90.00000000
_cell_angle_gamma   90.55335572
_symmetry_Int_Tables_number   1
_chemical_formula_structural   Tb11ThTc4
_chemical_formula_sum   'Tb11 Th1 Tc4'
_cell_volume   439.16160312
_cell_formula_units_Z   1
loop_
 _symmetry_equiv_pos_site_id
 _symmetry_equiv_pos_as_xyz
  1  'x, y, z'
loop_
 _atom_site_type_symbol
 _atom_site_label
 _atom_site_symmetry_multiplicity
 _atom_site_fract_x
 _atom_site_fract_y
 _atom_site_fract_z
 _atom_site_occupancy
  Tb  Tb0  1  0.334985  0.675699  0.062446  1
  Tb  Tb1  1  0.165720  0.176045  0.437587  1
  Tb  Tb2  1  0.666619  0.323517  0.566301  1
  Tb  Tb3  1  0.833634  0.825709  0.933149  1
  Tb  Tb4  1  0.666619  0.323517  0.933699  1
  Tb  Tb5  1  0.833634  0.825709  0.566851  1
  Tb  Tb6  1  0.334985  0.675699  0.437554  1
  Tb  Tb7  1  0.165720  0.176045  0.062413  1
  Tb  Tb8  1  0.628794  0.044628  0.250000  1
  Tb  Tb9  1  0.130326  0.457143  0.750000  1
  Tb  Tb10  1  0.369440  0.956324  0.750000  1
  Th  Th11  1  0.859666  0.552302  0.250000  1
  Tc  Tc12  1  0.023776  0.871540  0.250000  1
  Tc  Tc13  1  0.486271  0.388482  0.250000  1
  Tc  Tc14  1  0.962352  0.114455  0.750000  1
  Tc  Tc15  1  0.537460  0.613189  0.750000  1
