# generated using pymatgen
data_Sc5Nb3V12Si15P
_symmetry_space_group_name_H-M   'P 1'
_cell_length_a   6.57517139
_cell_length_b   6.55785833
_cell_length_c   12.14427198
_cell_angle_alpha   90.04617679
_cell_angle_beta   89.90211168
_cell_angle_gamma   89.95782796
_symmetry_Int_Tables_number   1
_chemical_formula_structural   Sc5Nb3V12Si15P
_chemical_formula_sum   'Sc5 Nb3 V12 Si15 P1'
_cell_volume   523.64830249
_cell_formula_units_Z   1
loop_
 _symmetry_equiv_pos_site_id
 _symmetry_equiv_pos_as_xyz
  1  'x, y, z'
loop_
 _atom_site_type_symbol
 _atom_site_label
 _atom_site_symmetry_multiplicity
 _atom_site_fract_x
 _atom_site_fract_y
 _atom_site_fract_z
 _atom_site_occupancy
  Sc  Sc0  1  0.500632  0.835168  0.721631  1
  Sc  Sc1  1  0.499174  0.162914  0.218593  1
  Sc  Sc2  1  0.998428  0.337186  0.529262  1
  Sc  Sc3  1  0.660287  0.999178  0.971307  1
  Sc  Sc4  1  0.337729  0.999000  0.469387  1
  Nb  Nb5  1  0.008238  0.660519  0.030894  1
  Nb  Nb6  1  0.840991  0.507215  0.281432  1
  Nb  Nb7  1  0.158179  0.491909  0.781782  1
  V  V8  1  0.329742  0.332178  0.000485  1
  V  V9  1  0.165554  0.831255  0.245924  1
  V  V10  1  0.836106  0.169243  0.749557  1
  V  V11  1  0.667686  0.666475  0.499741  1
  V  V12  1  0.006805  0.152870  0.124108  1
  V  V13  1  0.340139  0.503579  0.375506  1
  V  V14  1  0.658809  0.498034  0.877633  1
  V  V15  1  0.509594  0.345595  0.624175  1
  V  V16  1  0.485697  0.662146  0.121430  1
  V  V17  1  0.996098  0.844450  0.628086  1
  V  V18  1  0.159931  0.008258  0.877710  1
  V  V19  1  0.840718  0.990390  0.372025  1
  Si  Si20  1  0.538054  0.791640  0.313984  1
  Si  Si21  1  0.463133  0.208003  0.814795  1
  Si  Si22  1  0.796696  0.541802  0.685531  1
  Si  Si23  1  0.203980  0.457609  0.185502  1
  Si  Si24  1  0.706273  0.038607  0.564280  1
  Si  Si25  1  0.956328  0.295381  0.935227  1
  Si  Si26  1  0.040567  0.706542  0.435260  1
  Si  Si27  1  0.708637  0.376879  0.073891  1
  Si  Si28  1  0.124909  0.204808  0.320402  1
  Si  Si29  1  0.874964  0.793759  0.823634  1
  Si  Si30  1  0.207314  0.131500  0.679935  1
  Si  Si31  1  0.794063  0.866312  0.177696  1
  Si  Si32  1  0.293848  0.628756  0.572852  1
  Si  Si33  1  0.367461  0.702302  0.925457  1
  Si  Si34  1  0.630731  0.296351  0.426820  1
  P  P35  1  0.292501  0.962186  0.064065  1
