# generated using pymatgen
data_Sm8Tm12Si15Sn
_symmetry_space_group_name_H-M   'P 1'
_cell_length_a   7.41557210
_cell_length_b   7.73245510
_cell_length_c   14.65112198
_cell_angle_alpha   90.05803387
_cell_angle_beta   89.43444067
_cell_angle_gamma   90.07554603
_symmetry_Int_Tables_number   1
_chemical_formula_structural   Sm8Tm12Si15Sn
_chemical_formula_sum   'Sm8 Tm12 Si15 Sn1'
_cell_volume   840.06172979
_cell_formula_units_Z   1
loop_
 _symmetry_equiv_pos_site_id
 _symmetry_equiv_pos_as_xyz
  1  'x, y, z'
loop_
 _atom_site_type_symbol
 _atom_site_label
 _atom_site_symmetry_multiplicity
 _atom_site_fract_x
 _atom_site_fract_y
 _atom_site_fract_z
 _atom_site_occupancy
  Sm  Sm0  1  0.015785  0.178257  0.097844  1
  Sm  Sm1  1  0.983922  0.822125  0.902874  1
  Sm  Sm2  1  0.484529  0.678683  0.902668  1
  Sm  Sm3  1  0.985525  0.826782  0.599855  1
  Sm  Sm4  1  0.515600  0.321207  0.098334  1
  Sm  Sm5  1  0.010340  0.172065  0.398442  1
  Sm  Sm6  1  0.515563  0.319480  0.399291  1
  Sm  Sm7  1  0.496729  0.685296  0.601091  1
  Tm  Tm8  1  0.162570  0.508084  0.754057  1
  Tm  Tm9  1  0.836549  0.491001  0.249492  1
  Tm  Tm10  1  0.337752  0.009416  0.249026  1
  Tm  Tm11  1  0.664750  0.990723  0.752104  1
  Tm  Tm12  1  0.339535  0.163989  0.629088  1
  Tm  Tm13  1  0.665948  0.823564  0.374571  1
  Tm  Tm14  1  0.165148  0.685346  0.370741  1
  Tm  Tm15  1  0.671237  0.821443  0.122727  1
  Tm  Tm16  1  0.821563  0.323443  0.624675  1
  Tm  Tm17  1  0.327480  0.176952  0.877030  1
  Tm  Tm18  1  0.827535  0.322163  0.877092  1
  Tm  Tm19  1  0.171955  0.678001  0.123553  1
  Si  Si20  1  0.034648  0.115589  0.751141  1
  Si  Si21  1  0.962878  0.889344  0.247132  1
  Si  Si22  1  0.464729  0.612123  0.248535  1
  Si  Si23  1  0.533645  0.388704  0.752289  1
  Si  Si24  1  0.282378  0.871410  0.752444  1
  Si  Si25  1  0.717420  0.124995  0.247840  1
  Si  Si26  1  0.217181  0.374848  0.249000  1
  Si  Si27  1  0.784223  0.626311  0.751582  1
  Si  Si28  1  0.832676  0.536475  0.458864  1
  Si  Si29  1  0.340187  0.967100  0.460204  1
  Si  Si30  1  0.846428  0.532429  0.039193  1
  Si  Si31  1  0.660487  0.034524  0.537900  1
  Si  Si32  1  0.153112  0.466802  0.961866  1
  Si  Si33  1  0.653219  0.033058  0.961340  1
  Si  Si34  1  0.345567  0.967669  0.039435  1
  Sn  Sn35  1  0.171207  0.460600  0.536685  1
