# generated using pymatgen
data_KTaSe2O7
_symmetry_space_group_name_H-M   'P 1'
_cell_length_a   7.19245199
_cell_length_b   7.19245293
_cell_length_c   7.47021100
_cell_angle_alpha   90.00000000
_cell_angle_beta   90.00000000
_cell_angle_gamma   110.67871206
_symmetry_Int_Tables_number   1
_chemical_formula_structural   KTaSe2O7
_chemical_formula_sum   'K2 Ta2 Se4 O14'
_cell_volume   361.54771050
_cell_formula_units_Z   2
loop_
 _symmetry_equiv_pos_site_id
 _symmetry_equiv_pos_as_xyz
  1  'x, y, z'
loop_
 _atom_site_type_symbol
 _atom_site_label
 _atom_site_symmetry_multiplicity
 _atom_site_fract_x
 _atom_site_fract_y
 _atom_site_fract_z
 _atom_site_occupancy
  K  K0  1  0.979292  0.979292  0.360884  1
  K  K1  1  0.020708  0.020708  0.860884  1
  Ta  Ta2  1  0.507648  0.507648  0.889086  1
  Ta  Ta3  1  0.492352  0.492352  0.389086  1
  Se  Se4  1  0.542241  0.940563  0.627831  1
  Se  Se5  1  0.940563  0.542241  0.627831  1
  Se  Se6  1  0.457759  0.059437  0.127831  1
  Se  Se7  1  0.059437  0.457759  0.127831  1
  O  O8  1  0.550366  0.789291  0.816426  1
  O  O9  1  0.789291  0.550366  0.816426  1
  O  O10  1  0.449634  0.210709  0.316426  1
  O  O11  1  0.210709  0.449634  0.316426  1
  O  O12  1  0.542357  0.782170  0.443685  1
  O  O13  1  0.782170  0.542357  0.443685  1
  O  O14  1  0.457643  0.217830  0.943685  1
  O  O15  1  0.217830  0.457643  0.943685  1
  O  O16  1  0.776902  0.096829  0.621401  1
  O  O17  1  0.096829  0.776902  0.621401  1
  O  O18  1  0.223098  0.903171  0.121401  1
  O  O19  1  0.903171  0.223098  0.121401  1
  O  O20  1  0.424468  0.424468  0.634282  1
  O  O21  1  0.575532  0.575532  0.134282  1
