# generated using pymatgen
data_Nd4S3N2
_symmetry_space_group_name_H-M   'P 1'
_cell_length_a   7.02829267
_cell_length_b   7.02829336
_cell_length_c   10.30686177
_cell_angle_alpha   53.06117235
_cell_angle_beta   53.06116639
_cell_angle_gamma   33.04695602
_symmetry_Int_Tables_number   1
_chemical_formula_structural   Nd4S3N2
_chemical_formula_sum   'Nd4 S3 N2'
_cell_volume   216.32091139
_cell_formula_units_Z   1
loop_
 _symmetry_equiv_pos_site_id
 _symmetry_equiv_pos_as_xyz
  1  'x, y, z'
loop_
 _atom_site_type_symbol
 _atom_site_label
 _atom_site_symmetry_multiplicity
 _atom_site_fract_x
 _atom_site_fract_y
 _atom_site_fract_z
 _atom_site_occupancy
  Nd  Nd0  1  0.243835  0.243835  0.648444  1
  Nd  Nd1  1  0.756165  0.756165  0.351556  1
  Nd  Nd2  1  0.563973  0.563973  0.143674  1
  Nd  Nd3  1  0.436027  0.436027  0.856326  1
  S  S4  1  0.000000  0.000000  0.000000  1
  S  S5  1  0.829799  0.829799  0.781751  1
  S  S6  1  0.170201  0.170201  0.218249  1
  N  N7  1  0.354116  0.354116  0.360451  1
  N  N8  1  0.645884  0.645884  0.639549  1
