# generated using pymatgen
data_Dy3TiZn2Ir3
_symmetry_space_group_name_H-M   'P 1'
_cell_length_a   7.08997976
_cell_length_b   6.91301749
_cell_length_c   4.10235300
_cell_angle_alpha   90.00000000
_cell_angle_beta   90.00000000
_cell_angle_gamma   119.17772034
_symmetry_Int_Tables_number   1
_chemical_formula_structural   Dy3TiZn2Ir3
_chemical_formula_sum   'Dy3 Ti1 Zn2 Ir3'
_cell_volume   175.55592646
_cell_formula_units_Z   1
loop_
 _symmetry_equiv_pos_site_id
 _symmetry_equiv_pos_as_xyz
  1  'x, y, z'
loop_
 _atom_site_type_symbol
 _atom_site_label
 _atom_site_symmetry_multiplicity
 _atom_site_fract_x
 _atom_site_fract_y
 _atom_site_fract_z
 _atom_site_occupancy
  Dy  Dy0  1  0.574447  0.584293  0.000000  1
  Dy  Dy1  1  0.425553  0.009846  0.000000  1
  Dy  Dy2  1  0.000000  0.395053  0.000000  1
  Ti  Ti3  1  0.000000  0.762637  0.500000  1
  Zn  Zn4  1  0.242508  0.241207  0.500000  1
  Zn  Zn5  1  0.757492  0.998698  0.500000  1
  Ir  Ir6  1  0.000000  0.973621  0.000000  1
  Ir  Ir7  1  0.680682  0.357663  0.500000  1
  Ir  Ir8  1  0.319318  0.676981  0.500000  1
