# generated using pymatgen
data_Sc10TlIn2Bi3
_symmetry_space_group_name_H-M   'P 1'
_cell_length_a   8.48488600
_cell_length_b   8.47977625
_cell_length_c   6.12485800
_cell_angle_alpha   90.00000000
_cell_angle_beta   90.00000000
_cell_angle_gamma   120.01993522
_symmetry_Int_Tables_number   1
_chemical_formula_structural   Sc10TlIn2Bi3
_chemical_formula_sum   'Sc10 Tl1 In2 Bi3'
_cell_volume   381.56610109
_cell_formula_units_Z   1
loop_
 _symmetry_equiv_pos_site_id
 _symmetry_equiv_pos_as_xyz
  1  'x, y, z'
loop_
 _atom_site_type_symbol
 _atom_site_label
 _atom_site_symmetry_multiplicity
 _atom_site_fract_x
 _atom_site_fract_y
 _atom_site_fract_z
 _atom_site_occupancy
  Sc  Sc0  1  0.329199  0.667926  0.003126  1
  Sc  Sc1  1  0.661273  0.332074  0.496874  1
  Sc  Sc2  1  0.661273  0.332074  0.003126  1
  Sc  Sc3  1  0.329199  0.667926  0.496874  1
  Sc  Sc4  1  0.231814  0.000000  0.250000  1
  Sc  Sc5  1  0.236035  0.228397  0.750000  1
  Sc  Sc6  1  0.007637  0.771603  0.750000  1
  Sc  Sc7  1  0.008593  0.239539  0.250000  1
  Sc  Sc8  1  0.769054  0.760461  0.250000  1
  Sc  Sc9  1  0.761474  0.000000  0.750000  1
  Tl  Tl10  1  0.397165  0.000000  0.750000  1
  In  In11  1  0.996972  0.601790  0.250000  1
  In  In12  1  0.395182  0.398210  0.250000  1
  Bi  Bi13  1  0.611291  0.000000  0.250000  1
  Bi  Bi14  1  0.605748  0.607656  0.750000  1
  Bi  Bi15  1  0.998092  0.392344  0.750000  1
