# generated using pymatgen
data_YbB4(Ru2W)5
_symmetry_space_group_name_H-M   'P 1'
_cell_length_a   9.59097171
_cell_length_b   9.59097121
_cell_length_c   2.91560400
_cell_angle_alpha   90.00000000
_cell_angle_beta   90.00000000
_cell_angle_gamma   91.46519900
_symmetry_Int_Tables_number   1
_chemical_formula_structural   YbB4(Ru2W)5
_chemical_formula_sum   'Yb1 B4 Ru10 W5'
_cell_volume   268.10919869
_cell_formula_units_Z   1
loop_
 _symmetry_equiv_pos_site_id
 _symmetry_equiv_pos_as_xyz
  1  'x, y, z'
loop_
 _atom_site_type_symbol
 _atom_site_label
 _atom_site_symmetry_multiplicity
 _atom_site_fract_x
 _atom_site_fract_y
 _atom_site_fract_z
 _atom_site_occupancy
  Yb  Yb0  1  0.823713  0.676287  0.000000  1
  B  B1  1  0.615756  0.884244  0.000000  1
  B  B2  1  0.374138  0.125862  0.000000  1
  B  B3  1  0.125441  0.617006  0.000000  1
  B  B4  1  0.882994  0.374559  0.000000  1
  Ru  Ru5  1  0.548837  0.733242  0.500000  1
  Ru  Ru6  1  0.424609  0.285646  0.500000  1
  Ru  Ru7  1  0.091358  0.779012  0.500000  1
  Ru  Ru8  1  0.934615  0.212870  0.500000  1
  Ru  Ru9  1  0.287130  0.565385  0.500000  1
  Ru  Ru10  1  0.720988  0.408642  0.500000  1
  Ru  Ru11  1  0.214354  0.075391  0.500000  1
  Ru  Ru12  1  0.766758  0.951163  0.500000  1
  Ru  Ru13  1  0.490790  0.009210  0.500000  1
  Ru  Ru14  1  0.012057  0.487943  0.500000  1
  W  W15  1  0.177824  0.322176  0.000000  1
  W  W16  1  0.324093  0.822942  0.000000  1
  W  W17  1  0.677058  0.175907  0.000000  1
  W  W18  1  0.511707  0.504223  0.000000  1
  W  W19  1  0.995777  0.988293  0.000000  1
