# generated using pymatgen
data_Tm4Ir2Pb5
_symmetry_space_group_name_H-M   'P 1'
_cell_length_a   8.16687293
_cell_length_b   3.51622900
_cell_length_c   9.86423734
_cell_angle_alpha   90.00000000
_cell_angle_beta   93.71041237
_cell_angle_gamma   90.00000000
_symmetry_Int_Tables_number   1
_chemical_formula_structural   Tm4Ir2Pb5
_chemical_formula_sum   'Tm4 Ir2 Pb5'
_cell_volume   282.67354882
_cell_formula_units_Z   1
loop_
 _symmetry_equiv_pos_site_id
 _symmetry_equiv_pos_as_xyz
  1  'x, y, z'
loop_
 _atom_site_type_symbol
 _atom_site_label
 _atom_site_symmetry_multiplicity
 _atom_site_fract_x
 _atom_site_fract_y
 _atom_site_fract_z
 _atom_site_occupancy
  Tm  Tm0  1  0.306234  0.500000  0.159341  1
  Tm  Tm1  1  0.697584  0.500000  0.434720  1
  Tm  Tm2  1  0.302417  0.500000  0.565281  1
  Tm  Tm3  1  0.693765  0.500000  0.840659  1
  Ir  Ir4  1  0.419287  0.000000  0.363132  1
  Ir  Ir5  1  0.580713  0.000000  0.636868  1
  Pb  Pb6  1  0.000000  0.000000  0.000000  1
  Pb  Pb7  1  0.646526  0.000000  0.137352  1
  Pb  Pb8  1  0.040263  0.000000  0.335419  1
  Pb  Pb9  1  0.959738  0.000000  0.664581  1
  Pb  Pb10  1  0.353474  0.000000  0.862648  1
