# generated using pymatgen
data_Ca3ZnFe2(SbO6)2
_symmetry_space_group_name_H-M   'P 1'
_cell_length_a   11.06794522
_cell_length_b   11.06824807
_cell_length_c   11.06583876
_cell_angle_alpha   109.26201380
_cell_angle_beta   109.50895717
_cell_angle_gamma   109.63868996
_symmetry_Int_Tables_number   1
_chemical_formula_structural   Ca3ZnFe2(SbO6)2
_chemical_formula_sum   'Ca12 Zn4 Fe8 Sb8 O48'
_cell_volume   1043.58095161
_cell_formula_units_Z   4
loop_
 _symmetry_equiv_pos_site_id
 _symmetry_equiv_pos_as_xyz
  1  'x, y, z'
loop_
 _atom_site_type_symbol
 _atom_site_label
 _atom_site_symmetry_multiplicity
 _atom_site_fract_x
 _atom_site_fract_y
 _atom_site_fract_z
 _atom_site_occupancy
  Ca  Ca0  1  0.251303  0.379062  0.128850  1
  Ca  Ca1  1  0.745171  0.620852  0.873609  1
  Ca  Ca2  1  0.749785  0.124224  0.375583  1
  Ca  Ca3  1  0.128991  0.251364  0.378787  1
  Ca  Ca4  1  0.374841  0.749773  0.126174  1
  Ca  Ca5  1  0.252910  0.875604  0.620878  1
  Ca  Ca6  1  0.870840  0.744896  0.623869  1
  Ca  Ca7  1  0.625189  0.252905  0.870056  1
  Ca  Ca8  1  0.380281  0.129767  0.260196  1
  Ca  Ca9  1  0.623101  0.873019  0.746931  1
  Ca  Ca10  1  0.122184  0.372379  0.744374  1
  Ca  Ca11  1  0.875587  0.625870  0.250558  1
  Zn  Zn12  1  0.249771  0.624704  0.374695  1
  Zn  Zn13  1  0.749016  0.374783  0.624017  1
  Zn  Zn14  1  0.749826  0.875186  0.124897  1
  Zn  Zn15  1  0.375210  0.249218  0.624644  1
  Fe  Fe16  1  0.625274  0.749709  0.374567  1
  Fe  Fe17  1  0.249562  0.125123  0.874327  1
  Fe  Fe18  1  0.124653  0.749498  0.874240  1
  Fe  Fe19  1  0.874871  0.249284  0.124535  1
  Fe  Fe20  1  0.625396  0.375258  0.250800  1
  Fe  Fe21  1  0.375857  0.625746  0.751211  1
  Fe  Fe22  1  0.875554  0.125698  0.751130  1
  Fe  Fe23  1  0.125231  0.875602  0.250837  1
  Sb  Sb24  1  0.997022  0.997701  0.998516  1
  Sb  Sb25  1  0.499351  0.000031  0.502105  1
  Sb  Sb26  1  0.000317  0.500923  0.499673  1
  Sb  Sb27  1  0.500202  0.999426  0.001978  1
  Sb  Sb28  1  0.503715  0.501066  0.999726  1
  Sb  Sb29  1  0.497452  0.496887  0.498627  1
  Sb  Sb30  1  0.000886  0.003850  0.499490  1
  Sb  Sb31  1  0.000937  0.500306  0.999903  1
  O  O32  1  0.479907  0.381725  0.300736  1
  O  O33  1  0.518097  0.619313  0.695569  1
  O  O34  1  0.576454  0.176655  0.196524  1
  O  O35  1  0.919005  0.117102  0.598658  1
  O  O36  1  0.302426  0.472168  0.377328  1
  O  O37  1  0.321904  0.919261  0.302001  1
  O  O38  1  0.422182  0.824568  0.804579  1
  O  O39  1  0.077351  0.882199  0.401860  1
  O  O40  1  0.696499  0.528612  0.621004  1
  O  O41  1  0.679171  0.079653  0.699538  1
  O  O42  1  0.021561  0.323633  0.900475  1
  O  O43  1  0.197265  0.575964  0.168078  1
  O  O44  1  0.119322  0.019990  0.195091  1
  O  O45  1  0.981985  0.677541  0.100905  1
  O  O46  1  0.804828  0.424952  0.831453  1
  O  O47  1  0.881845  0.978137  0.800766  1
  O  O48  1  0.591931  0.923297  0.121557  1
  O  O49  1  0.178573  0.481899  0.598113  1
  O  O50  1  0.399757  0.075280  0.881885  1
  O  O51  1  0.822596  0.521749  0.403268  1
  O  O52  1  0.905194  0.028318  0.329592  1
  O  O53  1  0.379760  0.576514  0.901479  1
  O  O54  1  0.099320  0.980508  0.675248  1
  O  O55  1  0.619351  0.420077  0.099153  1
  O  O56  1  0.379368  0.298631  0.470466  1
  O  O57  1  0.575917  0.898660  0.381048  1
  O  O58  1  0.617541  0.696285  0.519098  1
  O  O59  1  0.423203  0.093137  0.622209  1
  O  O60  1  0.118919  0.597900  0.919659  1
  O  O61  1  0.019437  0.195082  0.117267  1
  O  O62  1  0.882441  0.401769  0.079510  1
  O  O63  1  0.981153  0.804137  0.880533  1
  O  O64  1  0.321760  0.902531  0.020840  1
  O  O65  1  0.923449  0.304688  0.322373  1
  O  O66  1  0.674507  0.099500  0.979003  1
  O  O67  1  0.076777  0.697196  0.676803  1
  O  O68  1  0.171677  0.201546  0.581579  1
  O  O69  1  0.480479  0.598097  0.175229  1
  O  O70  1  0.826097  0.805285  0.425764  1
  O  O71  1  0.526995  0.406046  0.829468  1
  O  O72  1  0.306189  0.325343  0.926022  1
  O  O73  1  0.700668  0.672004  0.081232  1
  O  O74  1  0.193594  0.119104  0.018751  1
  O  O75  1  0.800723  0.877199  0.969784  1
  O  O76  1  0.907087  0.378731  0.574526  1
  O  O77  1  0.092737  0.622499  0.424209  1
  O  O78  1  0.593689  0.167315  0.471769  1
  O  O79  1  0.409024  0.828480  0.528212  1
