# generated using pymatgen
data_Nd2Y4NiI10
_symmetry_space_group_name_H-M   'P 1'
_cell_length_a   7.78141712
_cell_length_b   9.77698334
_cell_length_c   9.89597153
_cell_angle_alpha   107.23056412
_cell_angle_beta   96.55145848
_cell_angle_gamma   105.03070274
_symmetry_Int_Tables_number   1
_chemical_formula_structural   Nd2Y4NiI10
_chemical_formula_sum   'Nd2 Y4 Ni1 I10'
_cell_volume   679.44579414
_cell_formula_units_Z   1
loop_
 _symmetry_equiv_pos_site_id
 _symmetry_equiv_pos_as_xyz
  1  'x, y, z'
loop_
 _atom_site_type_symbol
 _atom_site_label
 _atom_site_symmetry_multiplicity
 _atom_site_fract_x
 _atom_site_fract_y
 _atom_site_fract_z
 _atom_site_occupancy
  Nd  Nd0  1  0.884659  0.958251  0.239971  1
  Nd  Nd1  1  0.115341  0.041749  0.760029  1
  Y  Y2  1  0.028895  0.719810  0.915628  1
  Y  Y3  1  0.971105  0.280190  0.084372  1
  Y  Y4  1  0.658677  0.877794  0.840965  1
  Y  Y5  1  0.341323  0.122206  0.159035  1
  Ni  Ni6  1  0.000000  0.000000  0.000000  1
  I  I7  1  0.649927  0.550673  0.729603  1
  I  I8  1  0.350073  0.449327  0.270397  1
  I  I9  1  0.733010  0.911170  0.542889  1
  I  I10  1  0.266990  0.088830  0.457111  1
  I  I11  1  0.082854  0.376460  0.824579  1
  I  I12  1  0.917146  0.623540  0.175421  1
  I  I13  1  0.448890  0.815366  0.089387  1
  I  I14  1  0.551110  0.184634  0.910613  1
  I  I15  1  0.228157  0.739783  0.659678  1
  I  I16  1  0.771843  0.260217  0.340322  1
