# generated using pymatgen
data_LuNbC2
_symmetry_space_group_name_H-M   'P 1'
_cell_length_a   5.79808926
_cell_length_b   5.79808900
_cell_length_c   5.79808874
_cell_angle_alpha   32.88587860
_cell_angle_beta   32.88588442
_cell_angle_gamma   32.88587283
_symmetry_Int_Tables_number   1
_chemical_formula_structural   LuNbC2
_chemical_formula_sum   'Lu1 Nb1 C2'
_cell_volume   51.12932882
_cell_formula_units_Z   1
loop_
 _symmetry_equiv_pos_site_id
 _symmetry_equiv_pos_as_xyz
  1  'x, y, z'
loop_
 _atom_site_type_symbol
 _atom_site_label
 _atom_site_symmetry_multiplicity
 _atom_site_fract_x
 _atom_site_fract_y
 _atom_site_fract_z
 _atom_site_occupancy
  Lu  Lu0  1  0.000000  0.000000  0.000000  1
  Nb  Nb1  1  0.500000  0.500000  0.500000  1
  C  C2  1  0.242416  0.242416  0.242416  1
  C  C3  1  0.757584  0.757584  0.757584  1
