# generated using pymatgen
data_Li2YbSmPd2
_symmetry_space_group_name_H-M   'P 1'
_cell_length_a   4.15065100
_cell_length_b   7.10914079
_cell_length_c   8.49373674
_cell_angle_alpha   90.53866697
_cell_angle_beta   90.00000000
_cell_angle_gamma   90.00000000
_symmetry_Int_Tables_number   1
_chemical_formula_structural   Li2YbSmPd2
_chemical_formula_sum   'Li4 Yb2 Sm2 Pd4'
_cell_volume   250.61839005
_cell_formula_units_Z   2
loop_
 _symmetry_equiv_pos_site_id
 _symmetry_equiv_pos_as_xyz
  1  'x, y, z'
loop_
 _atom_site_type_symbol
 _atom_site_label
 _atom_site_symmetry_multiplicity
 _atom_site_fract_x
 _atom_site_fract_y
 _atom_site_fract_z
 _atom_site_occupancy
  Li  Li0  1  0.250000  0.369268  0.554471  1
  Li  Li1  1  0.750000  0.124301  0.057386  1
  Li  Li2  1  0.250000  0.875699  0.942614  1
  Li  Li3  1  0.750000  0.630732  0.445529  1
  Yb  Yb4  1  0.250000  0.956708  0.321680  1
  Yb  Yb5  1  0.750000  0.043292  0.678320  1
  Sm  Sm6  1  0.250000  0.456584  0.181863  1
  Sm  Sm7  1  0.750000  0.543416  0.818137  1
  Pd  Pd8  1  0.750000  0.251708  0.371498  1
  Pd  Pd9  1  0.250000  0.253364  0.875640  1
  Pd  Pd10  1  0.750000  0.746636  0.124360  1
  Pd  Pd11  1  0.250000  0.748292  0.628502  1
