# generated using pymatgen
data_TbY3Hf3O12
_symmetry_space_group_name_H-M   'P 1'
_cell_length_a   6.34081732
_cell_length_b   6.39129191
_cell_length_c   6.60619801
_cell_angle_alpha   99.93566395
_cell_angle_beta   98.13112123
_cell_angle_gamma   99.79975371
_symmetry_Int_Tables_number   1
_chemical_formula_structural   TbY3Hf3O12
_chemical_formula_sum   'Tb1 Y3 Hf3 O12'
_cell_volume   255.80453797
_cell_formula_units_Z   1
loop_
 _symmetry_equiv_pos_site_id
 _symmetry_equiv_pos_as_xyz
  1  'x, y, z'
loop_
 _atom_site_type_symbol
 _atom_site_label
 _atom_site_symmetry_multiplicity
 _atom_site_fract_x
 _atom_site_fract_y
 _atom_site_fract_z
 _atom_site_occupancy
  Tb  Tb0  1  0.697356  0.865498  0.389372  1
  Y  Y1  1  0.385018  0.699478  0.866969  1
  Y  Y2  1  0.302782  0.134533  0.610461  1
  Y  Y3  1  0.614841  0.300444  0.132887  1
  Hf  Hf4  1  0.000092  0.000072  0.999954  1
  Hf  Hf5  1  0.848104  0.398360  0.666878  1
  Hf  Hf6  1  0.151843  0.601514  0.333194  1
  O  O7  1  0.588300  0.416386  0.819244  1
  O  O8  1  0.831674  0.570620  0.426632  1
  O  O9  1  0.407135  0.809090  0.564120  1
  O  O10  1  0.411605  0.583616  0.180805  1
  O  O11  1  0.168798  0.428659  0.573462  1
  O  O12  1  0.592364  0.191525  0.436060  1
  O  O13  1  0.016843  0.680023  0.876044  1
  O  O14  1  0.920222  0.091287  0.701205  1
  O  O15  1  0.687204  0.933981  0.058131  1
  O  O16  1  0.983096  0.319962  0.123976  1
  O  O17  1  0.079952  0.908884  0.298914  1
  O  O18  1  0.312772  0.066068  0.941690  1
