# generated using pymatgen
data_Tb4Dy(TcO6)2
_symmetry_space_group_name_H-M   'P 1'
_cell_length_a   6.85777396
_cell_length_b   6.85777393
_cell_length_c   7.56327702
_cell_angle_alpha   73.76033319
_cell_angle_beta   73.76033211
_cell_angle_gamma   49.04701264
_symmetry_Int_Tables_number   1
_chemical_formula_structural   Tb4Dy(TcO6)2
_chemical_formula_sum   'Tb4 Dy1 Tc2 O12'
_cell_volume   255.63095985
_cell_formula_units_Z   1
loop_
 _symmetry_equiv_pos_site_id
 _symmetry_equiv_pos_as_xyz
  1  'x, y, z'
loop_
 _atom_site_type_symbol
 _atom_site_label
 _atom_site_symmetry_multiplicity
 _atom_site_fract_x
 _atom_site_fract_y
 _atom_site_fract_z
 _atom_site_occupancy
  Tb  Tb0  1  0.195191  0.195191  0.642824  1
  Tb  Tb1  1  0.184290  0.184290  0.175286  1
  Tb  Tb2  1  0.804809  0.804809  0.357176  1
  Tb  Tb3  1  0.815710  0.815710  0.824714  1
  Dy  Dy4  1  0.500000  0.500000  0.500000  1
  Tc  Tc5  1  0.713691  0.286309  0.000000  1
  Tc  Tc6  1  0.286309  0.713691  0.000000  1
  O  O7  1  0.413404  0.914885  0.915985  1
  O  O8  1  0.914885  0.413404  0.915985  1
  O  O9  1  0.904764  0.401965  0.426356  1
  O  O10  1  0.401965  0.904764  0.426356  1
  O  O11  1  0.501723  0.501723  0.203434  1
  O  O12  1  0.998935  0.998935  0.176348  1
  O  O13  1  0.001065  0.001065  0.823652  1
  O  O14  1  0.498277  0.498277  0.796566  1
  O  O15  1  0.085115  0.586596  0.084015  1
  O  O16  1  0.586596  0.085115  0.084015  1
  O  O17  1  0.095236  0.598035  0.573644  1
  O  O18  1  0.598035  0.095236  0.573644  1
