# generated using pymatgen
data_LiEu(CuO2)4
_symmetry_space_group_name_H-M   'P 1'
_cell_length_a   6.23309907
_cell_length_b   6.23309817
_cell_length_c   6.23309914
_cell_angle_alpha   125.34226705
_cell_angle_beta   125.34226472
_cell_angle_gamma   80.97188700
_symmetry_Int_Tables_number   1
_chemical_formula_structural   LiEu(CuO2)4
_chemical_formula_sum   'Li1 Eu1 Cu4 O8'
_cell_volume   155.28081793
_cell_formula_units_Z   1
loop_
 _symmetry_equiv_pos_site_id
 _symmetry_equiv_pos_as_xyz
  1  'x, y, z'
loop_
 _atom_site_type_symbol
 _atom_site_label
 _atom_site_symmetry_multiplicity
 _atom_site_fract_x
 _atom_site_fract_y
 _atom_site_fract_z
 _atom_site_occupancy
  Li  Li0  1  0.000000  0.000000  0.000000  1
  Eu  Eu1  1  0.750000  0.250000  0.500000  1
  Cu  Cu2  1  0.373548  0.628920  0.250611  1
  Cu  Cu3  1  0.378309  0.122937  0.749389  1
  Cu  Cu4  1  0.371080  0.621691  0.744628  1
  Cu  Cu5  1  0.877063  0.626452  0.255372  1
  O  O6  1  0.730919  0.304986  0.134060  1
  O  O7  1  0.170926  0.596859  0.865940  1
  O  O8  1  0.023008  0.943590  0.366861  1
  O  O9  1  0.576729  0.656147  0.633139  1
  O  O10  1  0.056410  0.423271  0.079419  1
  O  O11  1  0.343853  0.976992  0.920581  1
  O  O12  1  0.403141  0.269081  0.574067  1
  O  O13  1  0.695014  0.829074  0.425933  1
