# generated using pymatgen
data_Ta10Ga5As
_symmetry_space_group_name_H-M   'P 1'
_cell_length_a   6.72686530
_cell_length_b   7.64091265
_cell_length_c   6.72686530
_cell_angle_alpha   116.01758837
_cell_angle_beta   90.20048398
_cell_angle_gamma   116.01758837
_symmetry_Int_Tables_number   1
_chemical_formula_structural   Ta10Ga5As
_chemical_formula_sum   'Ta10 Ga5 As1'
_cell_volume   270.88863487
_cell_formula_units_Z   1
loop_
 _symmetry_equiv_pos_site_id
 _symmetry_equiv_pos_as_xyz
  1  'x, y, z'
loop_
 _atom_site_type_symbol
 _atom_site_label
 _atom_site_symmetry_multiplicity
 _atom_site_fract_x
 _atom_site_fract_y
 _atom_site_fract_z
 _atom_site_occupancy
  Ta  Ta0  1  0.998638  0.000000  0.998865  1
  Ta  Ta1  1  0.501135  0.000000  0.501362  1
  Ta  Ta2  1  0.506264  0.689807  0.683542  1
  Ta  Ta3  1  0.182572  0.689366  0.006792  1
  Ta  Ta4  1  0.684141  0.691550  0.184044  1
  Ta  Ta5  1  0.007506  0.691550  0.507408  1
  Ta  Ta6  1  0.493208  0.310634  0.317428  1
  Ta  Ta7  1  0.816458  0.310193  0.993736  1
  Ta  Ta8  1  0.315956  0.308450  0.815859  1
  Ta  Ta9  1  0.992592  0.308450  0.492494  1
  Ga  Ga10  1  0.749418  0.500000  0.750582  1
  Ga  Ga11  1  0.249418  0.500000  0.250582  1
  Ga  Ga12  1  0.138890  0.000000  0.361110  1
  Ga  Ga13  1  0.632681  0.000000  0.134135  1
  Ga  Ga14  1  0.365865  0.000000  0.867319  1
  As  As15  1  0.865260  0.000000  0.634740  1
