# generated using pymatgen
data_Dy15Y5(Ag3Ru)2
_symmetry_space_group_name_H-M   'P 1'
_cell_length_a   9.51530805
_cell_length_b   9.51530841
_cell_length_c   9.66620200
_cell_angle_alpha   90.00000000
_cell_angle_beta   90.00000000
_cell_angle_gamma   119.98792412
_symmetry_Int_Tables_number   1
_chemical_formula_structural   Dy15Y5(Ag3Ru)2
_chemical_formula_sum   'Dy15 Y5 Ag6 Ru2'
_cell_volume   758.02766206
_cell_formula_units_Z   1
loop_
 _symmetry_equiv_pos_site_id
 _symmetry_equiv_pos_as_xyz
  1  'x, y, z'
loop_
 _atom_site_type_symbol
 _atom_site_label
 _atom_site_symmetry_multiplicity
 _atom_site_fract_x
 _atom_site_fract_y
 _atom_site_fract_z
 _atom_site_occupancy
  Dy  Dy0  1  0.999999  0.000001  0.499972  1
  Dy  Dy1  1  0.999999  0.000001  0.000028  1
  Dy  Dy2  1  0.208795  0.791205  0.440781  1
  Dy  Dy3  1  0.208835  0.417609  0.440759  1
  Dy  Dy4  1  0.582391  0.791165  0.440759  1
  Dy  Dy5  1  0.791212  0.208788  0.559196  1
  Dy  Dy6  1  0.791153  0.582372  0.559159  1
  Dy  Dy7  1  0.417628  0.208847  0.559159  1
  Dy  Dy8  1  0.791212  0.208788  0.940804  1
  Dy  Dy9  1  0.791153  0.582372  0.940841  1
  Dy  Dy10  1  0.417628  0.208847  0.940841  1
  Dy  Dy11  1  0.208795  0.791205  0.059219  1
  Dy  Dy12  1  0.208835  0.417609  0.059241  1
  Dy  Dy13  1  0.582391  0.791165  0.059241  1
  Dy  Dy14  1  0.541051  0.458949  0.250000  1
  Y  Y15  1  0.541094  0.082197  0.250000  1
  Y  Y16  1  0.917803  0.458906  0.250000  1
  Y  Y17  1  0.458964  0.541036  0.750000  1
  Y  Y18  1  0.458967  0.917952  0.750000  1
  Y  Y19  1  0.082048  0.541033  0.750000  1
  Ag  Ag20  1  0.884013  0.115987  0.250000  1
  Ag  Ag21  1  0.883930  0.767939  0.250000  1
  Ag  Ag22  1  0.232061  0.116070  0.250000  1
  Ag  Ag23  1  0.116021  0.883979  0.750000  1
  Ag  Ag24  1  0.116025  0.232039  0.750000  1
  Ag  Ag25  1  0.767961  0.883975  0.750000  1
  Ru  Ru26  1  0.333370  0.666630  0.250000  1
  Ru  Ru27  1  0.666667  0.333333  0.750000  1
