# generated using pymatgen
data_SrYbCuNi7B2
_symmetry_space_group_name_H-M   'P 1'
_cell_length_a   5.06844600
_cell_length_b   5.06844601
_cell_length_c   6.85405800
_cell_angle_alpha   90.00000000
_cell_angle_beta   90.00000000
_cell_angle_gamma   119.99999996
_symmetry_Int_Tables_number   1
_chemical_formula_structural   SrYbCuNi7B2
_chemical_formula_sum   'Sr1 Yb1 Cu1 Ni7 B2'
_cell_volume   152.48532689
_cell_formula_units_Z   1
loop_
 _symmetry_equiv_pos_site_id
 _symmetry_equiv_pos_as_xyz
  1  'x, y, z'
loop_
 _atom_site_type_symbol
 _atom_site_label
 _atom_site_symmetry_multiplicity
 _atom_site_fract_x
 _atom_site_fract_y
 _atom_site_fract_z
 _atom_site_occupancy
  Sr  Sr0  1  0.000000  0.000000  0.500000  1
  Yb  Yb1  1  0.000000  0.000000  0.000000  1
  Cu  Cu2  1  0.666667  0.333333  0.500000  1
  Ni  Ni3  1  0.333333  0.666667  0.500000  1
  Ni  Ni4  1  0.499481  0.500519  0.800761  1
  Ni  Ni5  1  0.499481  0.998961  0.800761  1
  Ni  Ni6  1  0.001039  0.500519  0.800761  1
  Ni  Ni7  1  0.499481  0.500519  0.199239  1
  Ni  Ni8  1  0.499481  0.998961  0.199239  1
  Ni  Ni9  1  0.001039  0.500519  0.199239  1
  B  B10  1  0.666667  0.333333  0.000000  1
  B  B11  1  0.333333  0.666667  0.000000  1
