# generated using pymatgen
data_Tb11Y5Cd4(NiIr)2
_symmetry_space_group_name_H-M   'P 1'
_cell_length_a   9.62274655
_cell_length_b   9.62245220
_cell_length_c   9.67205601
_cell_angle_alpha   59.82981222
_cell_angle_beta   59.83574094
_cell_angle_gamma   59.63509968
_symmetry_Int_Tables_number   1
_chemical_formula_structural   Tb11Y5Cd4(NiIr)2
_chemical_formula_sum   'Tb11 Y5 Cd4 Ni2 Ir2'
_cell_volume   629.91262724
_cell_formula_units_Z   1
loop_
 _symmetry_equiv_pos_site_id
 _symmetry_equiv_pos_as_xyz
  1  'x, y, z'
loop_
 _atom_site_type_symbol
 _atom_site_label
 _atom_site_symmetry_multiplicity
 _atom_site_fract_x
 _atom_site_fract_y
 _atom_site_fract_z
 _atom_site_occupancy
  Tb  Tb0  1  0.600301  0.600255  0.594829  1
  Tb  Tb1  1  0.600241  0.600297  0.204591  1
  Tb  Tb2  1  0.602968  0.202470  0.597267  1
  Tb  Tb3  1  0.202481  0.602891  0.597222  1
  Tb  Tb4  1  0.059120  0.437762  0.440852  1
  Tb  Tb5  1  0.437794  0.059080  0.062295  1
  Tb  Tb6  1  0.437813  0.059137  0.440772  1
  Tb  Tb7  1  0.059090  0.437761  0.062321  1
  Tb  Tb8  1  0.439478  0.439401  0.060607  1
  Tb  Tb9  1  0.060869  0.060869  0.439121  1
  Tb  Tb10  1  0.187410  0.810976  0.815945  1
  Y  Y11  1  0.810937  0.187409  0.185746  1
  Y  Y12  1  0.810988  0.187392  0.815943  1
  Y  Y13  1  0.187309  0.811010  0.185760  1
  Y  Y14  1  0.815584  0.815622  0.184405  1
  Y  Y15  1  0.188791  0.188905  0.811146  1
  Cd  Cd16  1  0.829881  0.829957  0.832690  1
  Cd  Cd17  1  0.829958  0.829939  0.507436  1
  Cd  Cd18  1  0.830137  0.506043  0.831904  1
  Cd  Cd19  1  0.506070  0.830127  0.831930  1
  Ni  Ni20  1  0.392052  0.824858  0.391490  1
  Ni  Ni21  1  0.824833  0.392026  0.391563  1
  Ir  Ir22  1  0.392959  0.392917  0.391255  1
  Ir  Ir23  1  0.392936  0.392894  0.822910  1
