# generated using pymatgen
data_Yb5Er(Si3Os)8
_symmetry_space_group_name_H-M   'P 1'
_cell_length_a   10.15692832
_cell_length_b   10.15692795
_cell_length_c   8.16305914
_cell_angle_alpha   90.00859916
_cell_angle_beta   90.00859640
_cell_angle_gamma   132.61163801
_symmetry_Int_Tables_number   1
_chemical_formula_structural   Yb5Er(Si3Os)8
_chemical_formula_sum   'Yb5 Er1 Si24 Os8'
_cell_volume   619.77155053
_cell_formula_units_Z   1
loop_
 _symmetry_equiv_pos_site_id
 _symmetry_equiv_pos_as_xyz
  1  'x, y, z'
loop_
 _atom_site_type_symbol
 _atom_site_label
 _atom_site_symmetry_multiplicity
 _atom_site_fract_x
 _atom_site_fract_y
 _atom_site_fract_z
 _atom_site_occupancy
  Yb  Yb0  1  0.500569  0.000468  0.749923  1
  Yb  Yb1  1  0.999532  0.499431  0.250077  1
  Yb  Yb2  1  0.499431  0.999532  0.250077  1
  Yb  Yb3  1  0.000468  0.500569  0.749923  1
  Yb  Yb4  1  0.500000  0.500000  0.500000  1
  Er  Er5  1  0.000000  0.000000  0.000000  1
  Si  Si6  1  0.794242  0.205758  0.500000  1
  Si  Si7  1  0.705883  0.294117  0.000000  1
  Si  Si8  1  0.205758  0.794242  0.500000  1
  Si  Si9  1  0.294117  0.705883  0.000000  1
  Si  Si10  1  0.664944  0.664944  0.169254  1
  Si  Si11  1  0.167617  0.167617  0.333345  1
  Si  Si12  1  0.832383  0.832383  0.666655  1
  Si  Si13  1  0.335056  0.335056  0.830746  1
  Si  Si14  1  0.846068  0.610074  0.992668  1
  Si  Si15  1  0.113028  0.347439  0.507696  1
  Si  Si16  1  0.652561  0.886972  0.492304  1
  Si  Si17  1  0.389926  0.153932  0.007332  1
  Si  Si18  1  0.153932  0.389926  0.007332  1
  Si  Si19  1  0.886972  0.652561  0.492304  1
  Si  Si20  1  0.124860  0.890022  0.728792  1
  Si  Si21  1  0.390963  0.625209  0.769902  1
  Si  Si22  1  0.374791  0.609037  0.230098  1
  Si  Si23  1  0.109978  0.875140  0.271208  1
  Si  Si24  1  0.875140  0.109978  0.271208  1
  Si  Si25  1  0.609037  0.374791  0.230098  1
  Si  Si26  1  0.625209  0.390963  0.769902  1
  Si  Si27  1  0.890022  0.124860  0.728792  1
  Si  Si28  1  0.610074  0.846068  0.992668  1
  Si  Si29  1  0.347439  0.113028  0.507696  1
  Os  Os30  1  0.629528  0.629528  0.876451  1
  Os  Os31  1  0.125888  0.125888  0.627662  1
  Os  Os32  1  0.370472  0.370472  0.123549  1
  Os  Os33  1  0.874112  0.874112  0.372338  1
  Os  Os34  1  0.168792  0.831208  0.000000  1
  Os  Os35  1  0.330425  0.669575  0.500000  1
  Os  Os36  1  0.831208  0.168792  0.000000  1
  Os  Os37  1  0.669575  0.330425  0.500000  1
