# generated using pymatgen
data_Yb10SnBiPt4
_symmetry_space_group_name_H-M   'P 1'
_cell_length_a   9.08789418
_cell_length_b   9.08789508
_cell_length_c   9.08789510
_cell_angle_alpha   129.41833680
_cell_angle_beta   129.41833552
_cell_angle_gamma   74.33838048
_symmetry_Int_Tables_number   1
_chemical_formula_structural   Yb10SnBiPt4
_chemical_formula_sum   'Yb10 Sn1 Bi1 Pt4'
_cell_volume   436.63488384
_cell_formula_units_Z   1
loop_
 _symmetry_equiv_pos_site_id
 _symmetry_equiv_pos_as_xyz
  1  'x, y, z'
loop_
 _atom_site_type_symbol
 _atom_site_label
 _atom_site_symmetry_multiplicity
 _atom_site_fract_x
 _atom_site_fract_y
 _atom_site_fract_z
 _atom_site_occupancy
  Yb  Yb0  1  0.001186  0.001186  0.000000  1
  Yb  Yb1  1  0.498814  0.498814  0.000000  1
  Yb  Yb2  1  0.796999  0.293299  0.831487  1
  Yb  Yb3  1  0.206701  0.703001  0.168513  1
  Yb  Yb4  1  0.461812  0.965512  0.168513  1
  Yb  Yb5  1  0.293299  0.461812  0.496300  1
  Yb  Yb6  1  0.038188  0.206701  0.503700  1
  Yb  Yb7  1  0.534488  0.038188  0.831487  1
  Yb  Yb8  1  0.703001  0.534488  0.496300  1
  Yb  Yb9  1  0.965512  0.796999  0.503700  1
  Sn  Sn10  1  0.250000  0.250000  0.000000  1
  Bi  Bi11  1  0.750000  0.750000  0.000000  1
  Pt  Pt12  1  0.132462  0.632462  0.764924  1
  Pt  Pt13  1  0.867538  0.367538  0.235076  1
  Pt  Pt14  1  0.632462  0.867538  0.500000  1
  Pt  Pt15  1  0.367538  0.132462  0.500000  1
