# generated using pymatgen
data_Tb5Er3(CuP)12
_symmetry_space_group_name_H-M   'P 1'
_cell_length_a   3.85975800
_cell_length_b   10.69078906
_cell_length_c   12.98409500
_cell_angle_alpha   89.99393856
_cell_angle_beta   90.00000000
_cell_angle_gamma   90.00000000
_symmetry_Int_Tables_number   1
_chemical_formula_structural   Tb5Er3(CuP)12
_chemical_formula_sum   'Tb5 Er3 Cu12 P12'
_cell_volume   535.77385713
_cell_formula_units_Z   1
loop_
 _symmetry_equiv_pos_site_id
 _symmetry_equiv_pos_as_xyz
  1  'x, y, z'
loop_
 _atom_site_type_symbol
 _atom_site_label
 _atom_site_symmetry_multiplicity
 _atom_site_fract_x
 _atom_site_fract_y
 _atom_site_fract_z
 _atom_site_occupancy
  Tb  Tb0  1  0.250000  0.930594  0.793181  1
  Tb  Tb1  1  0.750000  0.430175  0.707323  1
  Tb  Tb2  1  0.250000  0.569560  0.292519  1
  Tb  Tb3  1  0.750000  0.069745  0.207134  1
  Tb  Tb4  1  0.250000  0.841386  0.502913  1
  Er  Er5  1  0.750000  0.341571  0.997106  1
  Er  Er6  1  0.250000  0.658384  0.002858  1
  Er  Er7  1  0.750000  0.158771  0.497123  1
  Cu  Cu8  1  0.250000  0.402623  0.513662  1
  Cu  Cu9  1  0.750000  0.902653  0.986327  1
  Cu  Cu10  1  0.250000  0.097367  0.013693  1
  Cu  Cu11  1  0.750000  0.597133  0.486303  1
  Cu  Cu12  1  0.250000  0.272803  0.332284  1
  Cu  Cu13  1  0.750000  0.772685  0.167533  1
  Cu  Cu14  1  0.250000  0.227323  0.832347  1
  Cu  Cu15  1  0.750000  0.727156  0.667911  1
  Cu  Cu16  1  0.250000  0.860510  0.279868  1
  Cu  Cu17  1  0.750000  0.360516  0.219598  1
  Cu  Cu18  1  0.250000  0.639516  0.780419  1
  Cu  Cu19  1  0.750000  0.139579  0.719715  1
  P  P20  1  0.250000  0.240128  0.642603  1
  P  P21  1  0.750000  0.740119  0.857453  1
  P  P22  1  0.250000  0.259926  0.142510  1
  P  P23  1  0.750000  0.759122  0.355985  1
  P  P24  1  0.250000  0.603796  0.601053  1
  P  P25  1  0.750000  0.105183  0.899603  1
  P  P26  1  0.250000  0.894960  0.100407  1
  P  P27  1  0.750000  0.394989  0.399449  1
  P  P28  1  0.250000  0.058202  0.370030  1
  P  P29  1  0.750000  0.557267  0.129356  1
  P  P30  1  0.250000  0.442656  0.870553  1
  P  P31  1  0.750000  0.943602  0.631181  1
