# generated using pymatgen
data_Ho3Er2Sn2Bi
_symmetry_space_group_name_H-M   'P 1'
_cell_length_a   8.98104006
_cell_length_b   8.97423752
_cell_length_c   6.44523200
_cell_angle_alpha   90.00000000
_cell_angle_beta   90.00000000
_cell_angle_gamma   119.97495438
_symmetry_Int_Tables_number   1
_chemical_formula_structural   Ho3Er2Sn2Bi
_chemical_formula_sum   'Ho6 Er4 Sn4 Bi2'
_cell_volume   449.99006976
_cell_formula_units_Z   2
loop_
 _symmetry_equiv_pos_site_id
 _symmetry_equiv_pos_as_xyz
  1  'x, y, z'
loop_
 _atom_site_type_symbol
 _atom_site_label
 _atom_site_symmetry_multiplicity
 _atom_site_fract_x
 _atom_site_fract_y
 _atom_site_fract_z
 _atom_site_occupancy
  Ho  Ho0  1  0.995036  0.757560  0.750000  1
  Ho  Ho1  1  0.995036  0.237476  0.250000  1
  Ho  Ho2  1  0.764866  0.764632  0.250000  1
  Ho  Ho3  1  0.764866  0.000234  0.750000  1
  Ho  Ho4  1  0.236313  0.241790  0.750000  1
  Ho  Ho5  1  0.236313  0.994522  0.250000  1
  Er  Er6  1  0.331243  0.665622  0.500000  1
  Er  Er7  1  0.672978  0.336488  0.000000  1
  Er  Er8  1  0.672978  0.336488  0.500000  1
  Er  Er9  1  0.331243  0.665622  0.000000  1
  Sn  Sn10  1  0.000738  0.604526  0.250000  1
  Sn  Sn11  1  0.000738  0.396212  0.750000  1
  Sn  Sn12  1  0.604361  0.604812  0.750000  1
  Sn  Sn13  1  0.604361  0.999549  0.250000  1
  Bi  Bi14  1  0.394465  0.001615  0.750000  1
  Bi  Bi15  1  0.394465  0.392849  0.250000  1
