# generated using pymatgen
data_Er4PaPt9
_symmetry_space_group_name_H-M   'P 1'
_cell_length_a   9.79844300
_cell_length_b   9.79844300
_cell_length_c   5.74942100
_cell_angle_alpha   90.00000000
_cell_angle_beta   90.00000000
_cell_angle_gamma   90.00000000
_symmetry_Int_Tables_number   1
_chemical_formula_structural   Er4PaPt9
_chemical_formula_sum   'Er8 Pa2 Pt18'
_cell_volume   551.99895055
_cell_formula_units_Z   2
loop_
 _symmetry_equiv_pos_site_id
 _symmetry_equiv_pos_as_xyz
  1  'x, y, z'
loop_
 _atom_site_type_symbol
 _atom_site_label
 _atom_site_symmetry_multiplicity
 _atom_site_fract_x
 _atom_site_fract_y
 _atom_site_fract_z
 _atom_site_occupancy
  Er  Er0  1  0.452940  0.807470  0.000000  1
  Er  Er1  1  0.547060  0.192530  0.000000  1
  Er  Er2  1  0.192530  0.547060  0.000000  1
  Er  Er3  1  0.807470  0.452940  0.000000  1
  Er  Er4  1  0.307470  0.047060  0.500000  1
  Er  Er5  1  0.692530  0.952940  0.500000  1
  Er  Er6  1  0.952940  0.692530  0.500000  1
  Er  Er7  1  0.047060  0.307470  0.500000  1
  Pa  Pa8  1  0.500000  0.500000  0.500000  1
  Pa  Pa9  1  0.000000  0.000000  0.000000  1
  Pt  Pt10  1  0.191994  0.808006  0.249923  1
  Pt  Pt11  1  0.808006  0.191994  0.750077  1
  Pt  Pt12  1  0.808006  0.191994  0.249923  1
  Pt  Pt13  1  0.191994  0.808006  0.750077  1
  Pt  Pt14  1  0.441233  0.778933  0.500000  1
  Pt  Pt15  1  0.558767  0.221067  0.500000  1
  Pt  Pt16  1  0.221067  0.558767  0.500000  1
  Pt  Pt17  1  0.778933  0.441233  0.500000  1
  Pt  Pt18  1  0.308006  0.308006  0.250077  1
  Pt  Pt19  1  0.691994  0.691994  0.749923  1
  Pt  Pt20  1  0.691994  0.691994  0.250077  1
  Pt  Pt21  1  0.308006  0.308006  0.749923  1
  Pt  Pt22  1  0.278933  0.058767  0.000000  1
  Pt  Pt23  1  0.721067  0.941233  0.000000  1
  Pt  Pt24  1  0.941233  0.721067  0.000000  1
  Pt  Pt25  1  0.058767  0.278933  0.000000  1
  Pt  Pt26  1  0.000000  0.000000  0.500000  1
  Pt  Pt27  1  0.500000  0.500000  0.000000  1
