# generated using pymatgen
data_LiNdP7Ru12
_symmetry_space_group_name_H-M   'P 1'
_cell_length_a   9.44113900
_cell_length_b   9.44113720
_cell_length_c   3.92420900
_cell_angle_alpha   90.00000000
_cell_angle_beta   90.00000000
_cell_angle_gamma   120.00000187
_symmetry_Int_Tables_number   1
_chemical_formula_structural   LiNdP7Ru12
_chemical_formula_sum   'Li1 Nd1 P7 Ru12'
_cell_volume   302.92244500
_cell_formula_units_Z   1
loop_
 _symmetry_equiv_pos_site_id
 _symmetry_equiv_pos_as_xyz
  1  'x, y, z'
loop_
 _atom_site_type_symbol
 _atom_site_label
 _atom_site_symmetry_multiplicity
 _atom_site_fract_x
 _atom_site_fract_y
 _atom_site_fract_z
 _atom_site_occupancy
  Li  Li0  1  0.666667  0.333333  0.500000  1
  Nd  Nd1  1  0.333333  0.666667  0.000000  1
  P  P2  1  0.604650  0.713241  0.500000  1
  P  P3  1  0.000000  0.000000  0.000000  1
  P  P4  1  0.286759  0.891410  0.500000  1
  P  P5  1  0.108590  0.395350  0.500000  1
  P  P6  1  0.892450  0.582424  0.000000  1
  P  P7  1  0.417576  0.310026  0.000000  1
  P  P8  1  0.689974  0.107550  0.000000  1
  Ru  Ru9  1  0.560005  0.953735  0.500000  1
  Ru  Ru10  1  0.393732  0.439995  0.500000  1
  Ru  Ru11  1  0.912331  0.117284  0.500000  1
  Ru  Ru12  1  0.204953  0.087669  0.500000  1
  Ru  Ru13  1  0.882716  0.795047  0.500000  1
  Ru  Ru14  1  0.726115  0.882704  0.000000  1
  Ru  Ru15  1  0.117296  0.843411  0.000000  1
  Ru  Ru16  1  0.156589  0.273885  0.000000  1
  Ru  Ru17  1  0.431566  0.076570  0.000000  1
  Ru  Ru18  1  0.923430  0.354998  0.000000  1
  Ru  Ru19  1  0.645002  0.568434  0.000000  1
  Ru  Ru20  1  0.046265  0.606268  0.500000  1
