# generated using pymatgen
data_Ac4Pr(RhO6)2
_symmetry_space_group_name_H-M   'P 1'
_cell_length_a   7.26984817
_cell_length_b   7.26984934
_cell_length_c   7.78645300
_cell_angle_alpha   74.51038456
_cell_angle_beta   74.51038199
_cell_angle_gamma   50.90574162
_symmetry_Int_Tables_number   1
_chemical_formula_structural   Ac4Pr(RhO6)2
_chemical_formula_sum   'Ac4 Pr1 Rh2 O12'
_cell_volume   305.09456523
_cell_formula_units_Z   1
loop_
 _symmetry_equiv_pos_site_id
 _symmetry_equiv_pos_as_xyz
  1  'x, y, z'
loop_
 _atom_site_type_symbol
 _atom_site_label
 _atom_site_symmetry_multiplicity
 _atom_site_fract_x
 _atom_site_fract_y
 _atom_site_fract_z
 _atom_site_occupancy
  Ac  Ac0  1  0.308943  0.308943  0.355231  1
  Ac  Ac1  1  0.691057  0.691057  0.644769  1
  Ac  Ac2  1  0.691887  0.691887  0.164362  1
  Ac  Ac3  1  0.308113  0.308113  0.835638  1
  Pr  Pr4  1  0.000000  0.000000  0.500000  1
  Rh  Rh5  1  0.756296  0.243704  0.000000  1
  Rh  Rh6  1  0.243704  0.756296  0.000000  1
  O  O7  1  0.094576  0.608442  0.574372  1
  O  O8  1  0.999397  0.999397  0.165278  1
  O  O9  1  0.391558  0.905424  0.425628  1
  O  O10  1  0.500836  0.500836  0.167080  1
  O  O11  1  0.103063  0.579848  0.078549  1
  O  O12  1  0.905424  0.391558  0.425628  1
  O  O13  1  0.000603  0.000603  0.834722  1
  O  O14  1  0.608442  0.094575  0.574372  1
  O  O15  1  0.499164  0.499164  0.832920  1
  O  O16  1  0.579848  0.103063  0.078549  1
  O  O17  1  0.420152  0.896937  0.921451  1
  O  O18  1  0.896937  0.420152  0.921451  1
