# generated using pymatgen
data_NaScPbF6
_symmetry_space_group_name_H-M   'P 1'
_cell_length_a   5.53853300
_cell_length_b   9.65873700
_cell_length_c   10.63097400
_cell_angle_alpha   90.00000000
_cell_angle_beta   90.00000000
_cell_angle_gamma   90.00000000
_symmetry_Int_Tables_number   1
_chemical_formula_structural   NaScPbF6
_chemical_formula_sum   'Na4 Sc4 Pb4 F24'
_cell_volume   568.70643766
_cell_formula_units_Z   4
loop_
 _symmetry_equiv_pos_site_id
 _symmetry_equiv_pos_as_xyz
  1  'x, y, z'
loop_
 _atom_site_type_symbol
 _atom_site_label
 _atom_site_symmetry_multiplicity
 _atom_site_fract_x
 _atom_site_fract_y
 _atom_site_fract_z
 _atom_site_occupancy
  Na  Na0  1  0.044115  0.648573  0.085020  1
  Na  Na1  1  0.455885  0.351427  0.585020  1
  Na  Na2  1  0.955885  0.148573  0.414980  1
  Na  Na3  1  0.544115  0.851427  0.914980  1
  Sc  Sc4  1  0.038226  0.000246  0.125494  1
  Sc  Sc5  1  0.461774  0.999754  0.625494  1
  Sc  Sc6  1  0.961774  0.500246  0.374506  1
  Sc  Sc7  1  0.538226  0.499754  0.874506  1
  Pb  Pb8  1  0.506694  0.316118  0.176210  1
  Pb  Pb9  1  0.993306  0.683882  0.676210  1
  Pb  Pb10  1  0.493306  0.816118  0.323790  1
  Pb  Pb11  1  0.006694  0.183882  0.823790  1
  F  F12  1  0.208823  0.147020  0.584428  1
  F  F13  1  0.291177  0.852980  0.084428  1
  F  F14  1  0.791177  0.647020  0.915572  1
  F  F15  1  0.708823  0.352980  0.415572  1
  F  F16  1  0.210065  0.623016  0.290921  1
  F  F17  1  0.289935  0.376984  0.790921  1
  F  F18  1  0.789935  0.123016  0.209079  1
  F  F19  1  0.710065  0.876984  0.709079  1
  F  F20  1  0.222659  0.161808  0.045314  1
  F  F21  1  0.277341  0.838192  0.545314  1
  F  F22  1  0.777341  0.661808  0.454686  1
  F  F23  1  0.722659  0.338192  0.954686  1
  F  F24  1  0.162572  0.333832  0.320304  1
  F  F25  1  0.337428  0.666168  0.820304  1
  F  F26  1  0.837428  0.833832  0.179696  1
  F  F27  1  0.662572  0.166168  0.679696  1
  F  F28  1  0.349342  0.501173  0.038069  1
  F  F29  1  0.150658  0.498827  0.538069  1
  F  F30  1  0.650658  0.001173  0.461931  1
  F  F31  1  0.849342  0.998827  0.961931  1
  F  F32  1  0.219701  0.017900  0.291501  1
  F  F33  1  0.280299  0.982100  0.791501  1
  F  F34  1  0.780299  0.517900  0.208499  1
  F  F35  1  0.719701  0.482100  0.708499  1
