# generated using pymatgen
data_Ho7Mg3(Pb3C)2
_symmetry_space_group_name_H-M   'P 1'
_cell_length_a   8.99921700
_cell_length_b   8.99921629
_cell_length_c   6.30740900
_cell_angle_alpha   90.00000000
_cell_angle_beta   90.00000000
_cell_angle_gamma   119.99999895
_symmetry_Int_Tables_number   1
_chemical_formula_structural   Ho7Mg3(Pb3C)2
_chemical_formula_sum   'Ho7 Mg3 Pb6 C2'
_cell_volume   442.37547669
_cell_formula_units_Z   1
loop_
 _symmetry_equiv_pos_site_id
 _symmetry_equiv_pos_as_xyz
  1  'x, y, z'
loop_
 _atom_site_type_symbol
 _atom_site_label
 _atom_site_symmetry_multiplicity
 _atom_site_fract_x
 _atom_site_fract_y
 _atom_site_fract_z
 _atom_site_occupancy
  Ho  Ho0  1  0.212619  0.000942  0.251701  1
  Ho  Ho1  1  0.788323  0.000942  0.748299  1
  Ho  Ho2  1  0.999058  0.211677  0.251701  1
  Ho  Ho3  1  0.999058  0.787381  0.748299  1
  Ho  Ho4  1  0.788323  0.787381  0.251701  1
  Ho  Ho5  1  0.212619  0.211677  0.748299  1
  Ho  Ho6  1  0.333333  0.666667  0.500000  1
  Mg  Mg7  1  0.333333  0.666667  0.000000  1
  Mg  Mg8  1  0.666667  0.333333  0.000000  1
  Mg  Mg9  1  0.666667  0.333333  0.500000  1
  Pb  Pb10  1  0.591542  0.002268  0.253225  1
  Pb  Pb11  1  0.410726  0.002268  0.746775  1
  Pb  Pb12  1  0.997732  0.589274  0.253225  1
  Pb  Pb13  1  0.997732  0.408458  0.746775  1
  Pb  Pb14  1  0.410726  0.408458  0.253225  1
  Pb  Pb15  1  0.591542  0.589274  0.746775  1
  C  C16  1  0.000000  0.000000  0.000000  1
  C  C17  1  0.000000  0.000000  0.500000  1
