# generated using pymatgen
data_Zr6Si13Ni20
_symmetry_space_group_name_H-M   'P 1'
_cell_length_a   12.70460200
_cell_length_b   12.70460193
_cell_length_c   3.65485100
_cell_angle_alpha   90.00000000
_cell_angle_beta   90.00000000
_cell_angle_gamma   120.00000017
_symmetry_Int_Tables_number   1
_chemical_formula_structural   Zr6Si13Ni20
_chemical_formula_sum   'Zr6 Si13 Ni20'
_cell_volume   510.88415560
_cell_formula_units_Z   1
loop_
 _symmetry_equiv_pos_site_id
 _symmetry_equiv_pos_as_xyz
  1  'x, y, z'
loop_
 _atom_site_type_symbol
 _atom_site_label
 _atom_site_symmetry_multiplicity
 _atom_site_fract_x
 _atom_site_fract_y
 _atom_site_fract_z
 _atom_site_occupancy
  Zr  Zr0  1  0.808025  0.282386  0.500000  1
  Zr  Zr1  1  0.717614  0.525640  0.500000  1
  Zr  Zr2  1  0.474360  0.191975  0.500000  1
  Zr  Zr3  1  0.191922  0.716297  0.000000  1
  Zr  Zr4  1  0.283703  0.475625  0.000000  1
  Zr  Zr5  1  0.524375  0.808078  0.000000  1
  Si  Si6  1  0.000000  0.000000  0.000000  1
  Si  Si7  1  0.232300  0.285175  0.500000  1
  Si  Si8  1  0.714825  0.947123  0.500000  1
  Si  Si9  1  0.052877  0.767700  0.500000  1
  Si  Si10  1  0.774547  0.717317  0.000000  1
  Si  Si11  1  0.282683  0.057230  0.000000  1
  Si  Si12  1  0.474871  0.615345  0.500000  1
  Si  Si13  1  0.384655  0.859525  0.500000  1
  Si  Si14  1  0.859296  0.473485  0.000000  1
  Si  Si15  1  0.526515  0.385811  0.000000  1
  Si  Si16  1  0.614189  0.140704  0.000000  1
  Si  Si17  1  0.942770  0.225453  0.000000  1
  Si  Si18  1  0.140475  0.525129  0.500000  1
  Ni  Ni19  1  0.416305  0.981143  0.000000  1
  Ni  Ni20  1  0.018857  0.435162  0.000000  1
  Ni  Ni21  1  0.580181  0.018798  0.500000  1
  Ni  Ni22  1  0.564838  0.583695  0.000000  1
  Ni  Ni23  1  0.981202  0.561383  0.500000  1
  Ni  Ni24  1  0.927595  0.079971  0.500000  1
  Ni  Ni25  1  0.152376  0.072405  0.500000  1
  Ni  Ni26  1  0.920029  0.847624  0.500000  1
  Ni  Ni27  1  0.094512  0.892864  0.000000  1
  Ni  Ni28  1  0.798352  0.905488  0.000000  1
  Ni  Ni29  1  0.107136  0.201648  0.000000  1
  Ni  Ni30  1  0.333333  0.666667  0.500000  1
  Ni  Ni31  1  0.666667  0.333333  0.000000  1
  Ni  Ni32  1  0.679492  0.747112  0.500000  1
  Ni  Ni33  1  0.252888  0.932380  0.500000  1
  Ni  Ni34  1  0.926439  0.675386  0.000000  1
  Ni  Ni35  1  0.324614  0.251053  0.000000  1
  Ni  Ni36  1  0.748947  0.073561  0.000000  1
  Ni  Ni37  1  0.438617  0.419819  0.500000  1
  Ni  Ni38  1  0.067620  0.320508  0.500000  1
