# generated using pymatgen
data_YLu4InSb2
_symmetry_space_group_name_H-M   'P 1'
_cell_length_a   6.34933500
_cell_length_b   8.78472688
_cell_length_c   8.81906400
_cell_angle_alpha   119.87129663
_cell_angle_beta   89.99972026
_cell_angle_gamma   90.00056979
_symmetry_Int_Tables_number   1
_chemical_formula_structural   YLu4InSb2
_chemical_formula_sum   'Y2 Lu8 In2 Sb4'
_cell_volume   426.55143625
_cell_formula_units_Z   2
loop_
 _symmetry_equiv_pos_site_id
 _symmetry_equiv_pos_as_xyz
  1  'x, y, z'
loop_
 _atom_site_type_symbol
 _atom_site_label
 _atom_site_symmetry_multiplicity
 _atom_site_fract_x
 _atom_site_fract_y
 _atom_site_fract_z
 _atom_site_occupancy
  Y  Y0  1  0.749929  0.239571  0.000000  1
  Y  Y1  1  0.249978  0.764519  0.000000  1
  Lu  Lu2  1  0.499412  0.332808  0.665616  1
  Lu  Lu3  1  0.499412  0.667192  0.334384  1
  Lu  Lu4  1  0.000321  0.667056  0.334300  1
  Lu  Lu5  1  0.000321  0.332756  0.665700  1
  Lu  Lu6  1  0.750146  0.762471  0.758167  1
  Lu  Lu7  1  0.750146  0.004305  0.241833  1
  Lu  Lu8  1  0.250134  0.237435  0.243922  1
  Lu  Lu9  1  0.250134  0.993512  0.756078  1
  In  In10  1  0.250118  0.602066  0.601914  1
  In  In11  1  0.250118  0.000152  0.398086  1
  Sb  Sb12  1  0.749952  0.610257  0.000000  1
  Sb  Sb13  1  0.749966  0.396801  0.397635  1
  Sb  Sb14  1  0.749966  0.999165  0.602365  1
  Sb  Sb15  1  0.249953  0.389936  0.000000  1
