# generated using pymatgen
data_Th6Ni19As13Pt
_symmetry_space_group_name_H-M   'P 1'
_cell_length_a   13.26036700
_cell_length_b   13.26036702
_cell_length_c   4.00219400
_cell_angle_alpha   90.00000000
_cell_angle_beta   90.00000000
_cell_angle_gamma   119.99999745
_symmetry_Int_Tables_number   1
_chemical_formula_structural   Th6Ni19As13Pt
_chemical_formula_sum   'Th6 Ni19 As13 Pt1'
_cell_volume   609.45250729
_cell_formula_units_Z   1
loop_
 _symmetry_equiv_pos_site_id
 _symmetry_equiv_pos_as_xyz
  1  'x, y, z'
loop_
 _atom_site_type_symbol
 _atom_site_label
 _atom_site_symmetry_multiplicity
 _atom_site_fract_x
 _atom_site_fract_y
 _atom_site_fract_z
 _atom_site_occupancy
  Th  Th0  1  0.535003  0.819256  0.000000  1
  Th  Th1  1  0.284253  0.464997  0.000000  1
  Th  Th2  1  0.180744  0.715747  0.000000  1
  Th  Th3  1  0.814663  0.279016  0.500000  1
  Th  Th4  1  0.464353  0.185337  0.500000  1
  Th  Th5  1  0.720984  0.535647  0.500000  1
  Ni  Ni6  1  0.802464  0.917251  0.000000  1
  Ni  Ni7  1  0.114787  0.197536  0.000000  1
  Ni  Ni8  1  0.082749  0.885213  0.000000  1
  Ni  Ni9  1  0.940450  0.080438  0.500000  1
  Ni  Ni10  1  0.139989  0.059550  0.500000  1
  Ni  Ni11  1  0.919562  0.860011  0.500000  1
  Ni  Ni12  1  0.666667  0.333333  0.000000  1
  Ni  Ni13  1  0.566934  0.588009  0.000000  1
  Ni  Ni14  1  0.021075  0.433066  0.000000  1
  Ni  Ni15  1  0.411991  0.978925  0.000000  1
  Ni  Ni16  1  0.691720  0.764065  0.500000  1
  Ni  Ni17  1  0.072345  0.308280  0.500000  1
  Ni  Ni18  1  0.235935  0.927655  0.500000  1
  Ni  Ni19  1  0.972346  0.563569  0.500000  1
  Ni  Ni20  1  0.591223  0.027654  0.500000  1
  Ni  Ni21  1  0.436431  0.408777  0.500000  1
  Ni  Ni22  1  0.757937  0.080960  0.000000  1
  Ni  Ni23  1  0.323024  0.242063  0.000000  1
  Ni  Ni24  1  0.919040  0.676976  0.000000  1
  As  As25  1  0.490354  0.613004  0.500000  1
  As  As26  1  0.122649  0.509646  0.500000  1
  As  As27  1  0.386996  0.877351  0.500000  1
  As  As28  1  0.731770  0.965071  0.500000  1
  As  As29  1  0.233302  0.268230  0.500000  1
  As  As30  1  0.034929  0.766698  0.500000  1
  As  As31  1  0.865159  0.476602  0.000000  1
  As  As32  1  0.611443  0.134841  0.000000  1
  As  As33  1  0.523398  0.388557  0.000000  1
  As  As34  1  0.957739  0.229299  0.000000  1
  As  As35  1  0.271561  0.042261  0.000000  1
  As  As36  1  0.770701  0.728439  0.000000  1
  As  As37  1  0.000000  0.000000  0.000000  1
  Pt  Pt38  1  0.333333  0.666667  0.500000  1
