# generated using pymatgen
data_TbYb6Ho(Si3Pd)4
_symmetry_space_group_name_H-M   'P 1'
_cell_length_a   8.24614600
_cell_length_b   8.24614520
_cell_length_c   8.12480000
_cell_angle_alpha   90.00000000
_cell_angle_beta   90.00000000
_cell_angle_gamma   120.00000319
_symmetry_Int_Tables_number   1
_chemical_formula_structural   TbYb6Ho(Si3Pd)4
_chemical_formula_sum   'Tb1 Yb6 Ho1 Si12 Pd4'
_cell_volume   478.45962398
_cell_formula_units_Z   1
loop_
 _symmetry_equiv_pos_site_id
 _symmetry_equiv_pos_as_xyz
  1  'x, y, z'
loop_
 _atom_site_type_symbol
 _atom_site_label
 _atom_site_symmetry_multiplicity
 _atom_site_fract_x
 _atom_site_fract_y
 _atom_site_fract_z
 _atom_site_occupancy
  Tb  Tb0  1  0.000000  0.000000  0.750000  1
  Yb  Yb1  1  0.501462  0.002923  0.250000  1
  Yb  Yb2  1  0.498421  0.996844  0.750000  1
  Yb  Yb3  1  0.997077  0.498538  0.250000  1
  Yb  Yb4  1  0.003156  0.501579  0.750000  1
  Yb  Yb5  1  0.501462  0.498538  0.250000  1
  Yb  Yb6  1  0.498421  0.501579  0.750000  1
  Ho  Ho7  1  0.000000  0.000000  0.250000  1
  Si  Si8  1  0.163852  0.327704  0.001866  1
  Si  Si9  1  0.836005  0.672010  0.998481  1
  Si  Si10  1  0.672296  0.836148  0.001866  1
  Si  Si11  1  0.836005  0.672010  0.501519  1
  Si  Si12  1  0.327990  0.163995  0.998481  1
  Si  Si13  1  0.163852  0.327704  0.498134  1
  Si  Si14  1  0.163852  0.836148  0.001866  1
  Si  Si15  1  0.327990  0.163995  0.501519  1
  Si  Si16  1  0.836005  0.163995  0.998481  1
  Si  Si17  1  0.672296  0.836148  0.498134  1
  Si  Si18  1  0.836005  0.163995  0.501519  1
  Si  Si19  1  0.163852  0.836148  0.498134  1
  Pd  Pd20  1  0.333333  0.666667  0.002697  1
  Pd  Pd21  1  0.666667  0.333333  0.997852  1
  Pd  Pd22  1  0.666667  0.333333  0.502148  1
  Pd  Pd23  1  0.333333  0.666667  0.497303  1
