# generated using pymatgen
data_Er10In8PdPt3
_symmetry_space_group_name_H-M   'P 1'
_cell_length_a   3.62106100
_cell_length_b   8.08716939
_cell_length_c   18.15453785
_cell_angle_alpha   90.03525848
_cell_angle_beta   90.00000000
_cell_angle_gamma   90.00000000
_symmetry_Int_Tables_number   1
_chemical_formula_structural   Er10In8PdPt3
_chemical_formula_sum   'Er10 In8 Pd1 Pt3'
_cell_volume   531.63981241
_cell_formula_units_Z   1
loop_
 _symmetry_equiv_pos_site_id
 _symmetry_equiv_pos_as_xyz
  1  'x, y, z'
loop_
 _atom_site_type_symbol
 _atom_site_label
 _atom_site_symmetry_multiplicity
 _atom_site_fract_x
 _atom_site_fract_y
 _atom_site_fract_z
 _atom_site_occupancy
  Er  Er0  1  0.000000  0.117170  0.415255  1
  Er  Er1  1  0.000000  0.883375  0.585605  1
  Er  Er2  1  0.000000  0.383383  0.914558  1
  Er  Er3  1  0.000000  0.616817  0.085268  1
  Er  Er4  1  0.000000  0.247278  0.219835  1
  Er  Er5  1  0.000000  0.756396  0.779057  1
  Er  Er6  1  0.000000  0.256303  0.720906  1
  Er  Er7  1  0.000000  0.739485  0.279132  1
  Er  Er8  1  0.000000  0.999908  0.999875  1
  Er  Er9  1  0.000000  0.500159  0.500335  1
  In  In10  1  0.500000  0.422255  0.351671  1
  In  In11  1  0.500000  0.576236  0.648692  1
  In  In12  1  0.500000  0.076224  0.851414  1
  In  In13  1  0.500000  0.924416  0.149116  1
  In  In14  1  0.500000  0.292053  0.066420  1
  In  In15  1  0.500000  0.707939  0.933450  1
  In  In16  1  0.500000  0.207903  0.566496  1
  In  In17  1  0.500000  0.792601  0.432978  1
  Pd  Pd18  1  0.500000  0.024967  0.303367  1
  Pt  Pt19  1  0.500000  0.974989  0.696419  1
  Pt  Pt20  1  0.500000  0.474994  0.803764  1
  Pt  Pt21  1  0.500000  0.525147  0.196385  1
