# generated using pymatgen
data_TmLuGaCo2Si
_symmetry_space_group_name_H-M   'P 1'
_cell_length_a   4.22861800
_cell_length_b   6.79209400
_cell_length_c   6.93091200
_cell_angle_alpha   90.00000000
_cell_angle_beta   90.00000000
_cell_angle_gamma   90.00000000
_symmetry_Int_Tables_number   1
_chemical_formula_structural   TmLuGaCo2Si
_chemical_formula_sum   'Tm2 Lu2 Ga2 Co4 Si2'
_cell_volume   199.06390836
_cell_formula_units_Z   2
loop_
 _symmetry_equiv_pos_site_id
 _symmetry_equiv_pos_as_xyz
  1  'x, y, z'
loop_
 _atom_site_type_symbol
 _atom_site_label
 _atom_site_symmetry_multiplicity
 _atom_site_fract_x
 _atom_site_fract_y
 _atom_site_fract_z
 _atom_site_occupancy
  Tm  Tm0  1  0.250000  0.488718  0.195061  1
  Tm  Tm1  1  0.250000  0.988718  0.304939  1
  Lu  Lu2  1  0.750000  0.517006  0.806101  1
  Lu  Lu3  1  0.750000  0.017006  0.693899  1
  Ga  Ga4  1  0.750000  0.201032  0.103656  1
  Ga  Ga5  1  0.750000  0.701032  0.396344  1
  Co  Co6  1  0.750000  0.339525  0.446956  1
  Co  Co7  1  0.750000  0.839525  0.053044  1
  Co  Co8  1  0.250000  0.649328  0.575224  1
  Co  Co9  1  0.250000  0.149328  0.924776  1
  Si  Si10  1  0.250000  0.804390  0.893222  1
  Si  Si11  1  0.250000  0.304390  0.606778  1
