# generated using pymatgen
data_Li2MgTa(B4Ru5)2
_symmetry_space_group_name_H-M   'P 1'
_cell_length_a   2.95636900
_cell_length_b   8.32001766
_cell_length_c   10.03555223
_cell_angle_alpha   90.30154456
_cell_angle_beta   90.00000000
_cell_angle_gamma   90.00000000
_symmetry_Int_Tables_number   1
_chemical_formula_structural   Li2MgTa(B4Ru5)2
_chemical_formula_sum   'Li2 Mg1 Ta1 B8 Ru10'
_cell_volume   246.84148394
_cell_formula_units_Z   1
loop_
 _symmetry_equiv_pos_site_id
 _symmetry_equiv_pos_as_xyz
  1  'x, y, z'
loop_
 _atom_site_type_symbol
 _atom_site_label
 _atom_site_symmetry_multiplicity
 _atom_site_fract_x
 _atom_site_fract_y
 _atom_site_fract_z
 _atom_site_occupancy
  Li  Li0  1  0.500000  0.354160  0.188324  1
  Li  Li1  1  0.500000  0.154979  0.677677  1
  Mg  Mg2  1  0.500000  0.852918  0.315031  1
  Ta  Ta3  1  0.500000  0.650330  0.819296  1
  B  B4  1  0.500000  0.853766  0.595838  1
  B  B5  1  0.500000  0.145894  0.391939  1
  B  B6  1  0.500000  0.344035  0.898524  1
  B  B7  1  0.500000  0.642947  0.107705  1
  B  B8  1  0.500000  0.964575  0.908952  1
  B  B9  1  0.500000  0.043634  0.089813  1
  B  B10  1  0.500000  0.452706  0.589574  1
  B  B11  1  0.500000  0.532982  0.409911  1
  Ru  Ru12  1  0.000000  0.395325  0.739891  1
  Ru  Ru13  1  0.000000  0.599826  0.263370  1
  Ru  Ru14  1  0.000000  0.903031  0.759178  1
  Ru  Ru15  1  0.000000  0.111711  0.236110  1
  Ru  Ru16  1  0.000000  0.006937  0.503305  1
  Ru  Ru17  1  0.000000  0.497469  0.000009  1
  Ru  Ru18  1  0.000000  0.656672  0.555051  1
  Ru  Ru19  1  0.000000  0.342972  0.455689  1
  Ru  Ru20  1  0.000000  0.154806  0.952190  1
  Ru  Ru21  1  0.000000  0.838321  0.042623  1
