# generated using pymatgen
data_Y14HoEr(InRh)4
_symmetry_space_group_name_H-M   'P 1'
_cell_length_a   9.69873194
_cell_length_b   9.70420875
_cell_length_c   9.69873313
_cell_angle_alpha   59.84890155
_cell_angle_beta   59.80371814
_cell_angle_gamma   59.84890508
_symmetry_Int_Tables_number   1
_chemical_formula_structural   Y14HoEr(InRh)4
_chemical_formula_sum   'Y14 Ho1 Er1 In4 Rh4'
_cell_volume   643.03414363
_cell_formula_units_Z   1
loop_
 _symmetry_equiv_pos_site_id
 _symmetry_equiv_pos_as_xyz
  1  'x, y, z'
loop_
 _atom_site_type_symbol
 _atom_site_label
 _atom_site_symmetry_multiplicity
 _atom_site_fract_x
 _atom_site_fract_y
 _atom_site_fract_z
 _atom_site_occupancy
  Y  Y0  1  0.189176  0.188311  0.811919  1
  Y  Y1  1  0.601129  0.600971  0.199561  1
  Y  Y2  1  0.440103  0.058957  0.440103  1
  Y  Y3  1  0.439789  0.439885  0.059021  1
  Y  Y4  1  0.811299  0.188761  0.811299  1
  Y  Y5  1  0.188490  0.812229  0.188490  1
  Y  Y6  1  0.439421  0.060333  0.059823  1
  Y  Y7  1  0.188888  0.811593  0.811516  1
  Y  Y8  1  0.060418  0.439130  0.060418  1
  Y  Y9  1  0.811516  0.811593  0.188888  1
  Y  Y10  1  0.199561  0.600971  0.601129  1
  Y  Y11  1  0.059021  0.439885  0.439789  1
  Y  Y12  1  0.059823  0.060333  0.439421  1
  Y  Y13  1  0.811919  0.188311  0.189176  1
  Ho  Ho14  1  0.598384  0.598324  0.598384  1
  Er  Er15  1  0.599983  0.202876  0.599983  1
  In  In16  1  0.833125  0.833804  0.833125  1
  In  In17  1  0.832600  0.833134  0.500912  1
  In  In18  1  0.500912  0.833134  0.832600  1
  In  In19  1  0.832884  0.500492  0.832884  1
  Rh  Rh20  1  0.393167  0.822062  0.393167  1
  Rh  Rh21  1  0.393431  0.390905  0.393431  1
  Rh  Rh22  1  0.820449  0.392002  0.394511  1
  Rh  Rh23  1  0.394511  0.392002  0.820449  1
