# generated using pymatgen
data_Yb5Er4TmSn8
_symmetry_space_group_name_H-M   'P 1'
_cell_length_a   7.81183500
_cell_length_b   8.40916000
_cell_length_c   15.83982700
_cell_angle_alpha   90.00000000
_cell_angle_beta   90.00000000
_cell_angle_gamma   90.00000000
_symmetry_Int_Tables_number   1
_chemical_formula_structural   Yb5Er4TmSn8
_chemical_formula_sum   'Yb10 Er8 Tm2 Sn16'
_cell_volume   1040.53360673
_cell_formula_units_Z   2
loop_
 _symmetry_equiv_pos_site_id
 _symmetry_equiv_pos_as_xyz
  1  'x, y, z'
loop_
 _atom_site_type_symbol
 _atom_site_label
 _atom_site_symmetry_multiplicity
 _atom_site_fract_x
 _atom_site_fract_y
 _atom_site_fract_z
 _atom_site_occupancy
  Yb  Yb0  1  0.502099  0.684308  0.593594  1
  Yb  Yb1  1  0.002099  0.815692  0.906406  1
  Yb  Yb2  1  0.496001  0.312108  0.091103  1
  Yb  Yb3  1  0.996001  0.187892  0.408897  1
  Yb  Yb4  1  0.496001  0.312108  0.408897  1
  Yb  Yb5  1  0.996001  0.187892  0.091103  1
  Yb  Yb6  1  0.502099  0.684308  0.906406  1
  Yb  Yb7  1  0.002099  0.815692  0.593594  1
  Yb  Yb8  1  0.164176  0.489097  0.250000  1
  Yb  Yb9  1  0.664176  0.010903  0.250000  1
  Er  Er10  1  0.675554  0.162034  0.623847  1
  Er  Er11  1  0.175554  0.337966  0.876153  1
  Er  Er12  1  0.326328  0.835117  0.121489  1
  Er  Er13  1  0.826328  0.664883  0.378511  1
  Er  Er14  1  0.326328  0.835117  0.378511  1
  Er  Er15  1  0.826328  0.664883  0.121489  1
  Er  Er16  1  0.675554  0.162034  0.876153  1
  Er  Er17  1  0.175554  0.337966  0.623847  1
  Tm  Tm18  1  0.838024  0.508939  0.750000  1
  Tm  Tm19  1  0.338024  0.991061  0.750000  1
  Sn  Sn20  1  0.672344  0.962342  0.460157  1
  Sn  Sn21  1  0.172344  0.537658  0.039843  1
  Sn  Sn22  1  0.328081  0.035633  0.955924  1
  Sn  Sn23  1  0.828081  0.464367  0.544076  1
  Sn  Sn24  1  0.328081  0.035633  0.544076  1
  Sn  Sn25  1  0.828081  0.464367  0.955924  1
  Sn  Sn26  1  0.672344  0.962342  0.039843  1
  Sn  Sn27  1  0.172344  0.537658  0.460157  1
  Sn  Sn28  1  0.476563  0.370540  0.750000  1
  Sn  Sn29  1  0.976563  0.129460  0.750000  1
  Sn  Sn30  1  0.527829  0.627821  0.250000  1
  Sn  Sn31  1  0.027829  0.872179  0.250000  1
  Sn  Sn32  1  0.711286  0.861276  0.750000  1
  Sn  Sn33  1  0.211286  0.638724  0.750000  1
  Sn  Sn34  1  0.281307  0.127580  0.250000  1
  Sn  Sn35  1  0.781307  0.372420  0.250000  1
