# generated using pymatgen
data_Li4Ho7Er(ScSi2)8
_symmetry_space_group_name_H-M   'P 1'
_cell_length_a   6.85883602
_cell_length_b   7.38758905
_cell_length_c   14.02905207
_cell_angle_alpha   89.98948150
_cell_angle_beta   90.00412542
_cell_angle_gamma   89.99184416
_symmetry_Int_Tables_number   1
_chemical_formula_structural   Li4Ho7Er(ScSi2)8
_chemical_formula_sum   'Li4 Ho7 Er1 Sc8 Si16'
_cell_volume   710.85572133
_cell_formula_units_Z   1
loop_
 _symmetry_equiv_pos_site_id
 _symmetry_equiv_pos_as_xyz
  1  'x, y, z'
loop_
 _atom_site_type_symbol
 _atom_site_label
 _atom_site_symmetry_multiplicity
 _atom_site_fract_x
 _atom_site_fract_y
 _atom_site_fract_z
 _atom_site_occupancy
  Li  Li0  1  0.158766  0.508385  0.749973  1
  Li  Li1  1  0.841270  0.491660  0.250004  1
  Li  Li2  1  0.341273  0.008345  0.250008  1
  Li  Li3  1  0.658712  0.991609  0.749976  1
  Ho  Ho4  1  0.013012  0.182645  0.098513  1
  Ho  Ho5  1  0.986988  0.817348  0.901450  1
  Ho  Ho6  1  0.486972  0.682643  0.901516  1
  Ho  Ho7  1  0.987011  0.817278  0.598527  1
  Ho  Ho8  1  0.512991  0.317377  0.098508  1
  Ho  Ho9  1  0.013041  0.182637  0.401516  1
  Ho  Ho10  1  0.513006  0.317365  0.401539  1
  Er  Er11  1  0.486972  0.682754  0.598559  1
  Sc  Sc12  1  0.329761  0.179015  0.626862  1
  Sc  Sc13  1  0.670218  0.820977  0.373164  1
  Sc  Sc14  1  0.170301  0.679007  0.373144  1
  Sc  Sc15  1  0.670266  0.821011  0.126883  1
  Sc  Sc16  1  0.829654  0.321076  0.626842  1
  Sc  Sc17  1  0.329748  0.178996  0.873106  1
  Sc  Sc18  1  0.829705  0.321030  0.873105  1
  Sc  Sc19  1  0.170262  0.678993  0.126879  1
  Si  Si20  1  0.029454  0.101184  0.749972  1
  Si  Si21  1  0.970556  0.898740  0.250011  1
  Si  Si22  1  0.470563  0.601229  0.250018  1
  Si  Si23  1  0.529344  0.398935  0.749899  1
  Si  Si24  1  0.281891  0.878968  0.749901  1
  Si  Si25  1  0.718260  0.120872  0.250015  1
  Si  Si26  1  0.218249  0.379147  0.250010  1
  Si  Si27  1  0.781543  0.621023  0.749876  1
  Si  Si28  1  0.159575  0.463571  0.535264  1
  Si  Si29  1  0.840606  0.536628  0.464822  1
  Si  Si30  1  0.340736  0.963198  0.464867  1
  Si  Si31  1  0.840692  0.536585  0.035197  1
  Si  Si32  1  0.659271  0.036361  0.535257  1
  Si  Si33  1  0.159322  0.463409  0.964812  1
  Si  Si34  1  0.659323  0.036581  0.964805  1
  Si  Si35  1  0.340688  0.963416  0.035199  1
