# generated using pymatgen
data_La8Dy11PaRh16
_symmetry_space_group_name_H-M   'P 1'
_cell_length_a   7.54875870
_cell_length_b   7.61103979
_cell_length_c   14.66525243
_cell_angle_alpha   89.78692936
_cell_angle_beta   90.21778295
_cell_angle_gamma   89.92563596
_symmetry_Int_Tables_number   1
_chemical_formula_structural   La8Dy11PaRh16
_chemical_formula_sum   'La8 Dy11 Pa1 Rh16'
_cell_volume   842.56335067
_cell_formula_units_Z   1
loop_
 _symmetry_equiv_pos_site_id
 _symmetry_equiv_pos_as_xyz
  1  'x, y, z'
loop_
 _atom_site_type_symbol
 _atom_site_label
 _atom_site_symmetry_multiplicity
 _atom_site_fract_x
 _atom_site_fract_y
 _atom_site_fract_z
 _atom_site_occupancy
  La  La0  1  0.491314  0.317470  0.906379  1
  La  La1  1  0.994085  0.180748  0.591995  1
  La  La2  1  0.506990  0.679080  0.406257  1
  La  La3  1  0.007325  0.824179  0.095790  1
  La  La4  1  0.503676  0.679680  0.095849  1
  La  La5  1  0.007110  0.819609  0.406576  1
  La  La6  1  0.491176  0.318447  0.590711  1
  La  La7  1  0.997036  0.176585  0.905577  1
  Dy  Dy8  1  0.340892  0.839453  0.877141  1
  Dy  Dy9  1  0.840042  0.661783  0.623384  1
  Dy  Dy10  1  0.660327  0.162906  0.375563  1
  Dy  Dy11  1  0.159236  0.338261  0.123349  1
  Dy  Dy12  1  0.658168  0.162451  0.123147  1
  Dy  Dy13  1  0.159584  0.337170  0.375992  1
  Dy  Dy14  1  0.340363  0.838360  0.623817  1
  Dy  Dy15  1  0.186144  0.494411  0.748531  1
  Dy  Dy16  1  0.679141  0.006050  0.747826  1
  Dy  Dy17  1  0.819659  0.503218  0.250371  1
  Dy  Dy18  1  0.320314  0.997404  0.250485  1
  Pa  Pa19  1  0.840049  0.656565  0.876250  1
  Rh  Rh20  1  0.325269  0.038712  0.043369  1
  Rh  Rh21  1  0.818929  0.463592  0.456547  1
  Rh  Rh22  1  0.680732  0.965664  0.543900  1
  Rh  Rh23  1  0.159508  0.546165  0.951603  1
  Rh  Rh24  1  0.693322  0.939082  0.954411  1
  Rh  Rh25  1  0.181506  0.536658  0.544250  1
  Rh  Rh26  1  0.318875  0.036968  0.457250  1
  Rh  Rh27  1  0.809818  0.470539  0.031847  1
  Rh  Rh28  1  0.554787  0.630882  0.757767  1
  Rh  Rh29  1  0.035714  0.867362  0.758165  1
  Rh  Rh30  1  0.456548  0.379521  0.249380  1
  Rh  Rh31  1  0.956170  0.123967  0.248568  1
  Rh  Rh32  1  0.309745  0.135600  0.749536  1
  Rh  Rh33  1  0.821381  0.370772  0.758413  1
  Rh  Rh34  1  0.688154  0.861394  0.250138  1
  Rh  Rh35  1  0.186911  0.639292  0.249865  1
