# generated using pymatgen
data_Ho5Lu7Tc4
_symmetry_space_group_name_H-M   'P 1'
_cell_length_a   6.16629154
_cell_length_b   7.41412774
_cell_length_c   8.94912200
_cell_angle_alpha   90.06787433
_cell_angle_beta   90.14424563
_cell_angle_gamma   89.97809828
_symmetry_Int_Tables_number   1
_chemical_formula_structural   Ho5Lu7Tc4
_chemical_formula_sum   'Ho5 Lu7 Tc4'
_cell_volume   409.13142144
_cell_formula_units_Z   1
loop_
 _symmetry_equiv_pos_site_id
 _symmetry_equiv_pos_as_xyz
  1  'x, y, z'
loop_
 _atom_site_type_symbol
 _atom_site_label
 _atom_site_symmetry_multiplicity
 _atom_site_fract_x
 _atom_site_fract_y
 _atom_site_fract_z
 _atom_site_occupancy
  Ho  Ho0  1  0.652466  0.176839  0.437665  1
  Ho  Ho1  1  0.875341  0.958728  0.750724  1
  Ho  Ho2  1  0.373947  0.542048  0.249657  1
  Ho  Ho3  1  0.624511  0.459732  0.750606  1
  Ho  Ho4  1  0.124948  0.039760  0.249016  1
  Lu  Lu5  1  0.651514  0.175276  0.061894  1
  Lu  Lu6  1  0.150944  0.324528  0.937302  1
  Lu  Lu7  1  0.848081  0.674382  0.437840  1
  Lu  Lu8  1  0.347495  0.824104  0.562827  1
  Lu  Lu9  1  0.348774  0.824667  0.937498  1
  Lu  Lu10  1  0.848813  0.675341  0.062683  1
  Lu  Lu11  1  0.153775  0.325271  0.562490  1
  Tc  Tc12  1  0.045413  0.616408  0.749818  1
  Tc  Tc13  1  0.545759  0.882647  0.249393  1
  Tc  Tc14  1  0.452567  0.116349  0.752079  1
  Tc  Tc15  1  0.955654  0.383921  0.248509  1
