# generated using pymatgen
data_Na20Sn4As5P7
_symmetry_space_group_name_H-M   'P 1'
_cell_length_a   7.57242677
_cell_length_b   8.48258888
_cell_length_c   15.94725764
_cell_angle_alpha   58.20765124
_cell_angle_beta   89.85972428
_cell_angle_gamma   89.90864366
_symmetry_Int_Tables_number   1
_chemical_formula_structural   Na20Sn4As5P7
_chemical_formula_sum   'Na20 Sn4 As5 P7'
_cell_volume   870.65927557
_cell_formula_units_Z   1
loop_
 _symmetry_equiv_pos_site_id
 _symmetry_equiv_pos_as_xyz
  1  'x, y, z'
loop_
 _atom_site_type_symbol
 _atom_site_label
 _atom_site_symmetry_multiplicity
 _atom_site_fract_x
 _atom_site_fract_y
 _atom_site_fract_z
 _atom_site_occupancy
  Na  Na0  1  0.157664  0.999454  0.582117  1
  Na  Na1  1  0.496906  0.909680  0.759117  1
  Na  Na2  1  0.997499  0.090079  0.741242  1
  Na  Na3  1  0.505395  0.094884  0.240288  1
  Na  Na4  1  0.003156  0.908292  0.259431  1
  Na  Na5  1  0.041658  0.587350  0.588520  1
  Na  Na6  1  0.542143  0.412912  0.911707  1
  Na  Na7  1  0.957293  0.409680  0.412118  1
  Na  Na8  1  0.459993  0.587728  0.088766  1
  Na  Na9  1  0.526654  0.748573  0.586539  1
  Na  Na10  1  0.026003  0.251518  0.914139  1
  Na  Na11  1  0.477608  0.252091  0.413531  1
  Na  Na12  1  0.856260  0.691715  0.743102  1
  Na  Na13  1  0.356048  0.308130  0.757220  1
  Na  Na14  1  0.138515  0.314049  0.254945  1
  Na  Na15  1  0.645074  0.680809  0.244887  1
  Na  Na16  1  0.834833  0.007102  0.417554  1
  Na  Na17  1  0.336364  0.997993  0.079925  1
  Na  Na18  1  0.657559  0.000662  0.918025  1
  Na  Na19  1  0.975656  0.748074  0.085409  1
  Sn  Sn20  1  0.854741  0.345096  0.089682  1
  Sn  Sn21  1  0.357393  0.655347  0.412630  1
  Sn  Sn22  1  0.145825  0.661334  0.913013  1
  Sn  Sn23  1  0.646266  0.338116  0.587564  1
  As  As24  1  0.232011  0.941259  0.417389  1
  As  As25  1  0.731498  0.060326  0.082948  1
  As  As26  1  0.747888  0.362495  0.738266  1
  As  As27  1  0.247800  0.637605  0.761887  1
  As  As28  1  0.252343  0.635261  0.261324  1
  P  P29  1  0.753930  0.362332  0.236051  1
  P  P30  1  0.700947  0.662877  0.430177  1
  P  P31  1  0.199547  0.337354  0.070150  1
  P  P32  1  0.300943  0.333357  0.570392  1
  P  P33  1  0.800014  0.666166  0.930587  1
  P  P34  1  0.768399  0.064514  0.582021  1
  P  P35  1  0.268176  0.935785  0.917338  1
