# generated using pymatgen
data_Ba3Fe3P2WO14
_symmetry_space_group_name_H-M   'P 1'
_cell_length_a   8.64771967
_cell_length_b   10.21574859
_cell_length_c   10.21596995
_cell_angle_alpha   85.69674665
_cell_angle_beta   115.04167245
_cell_angle_gamma   64.96411783
_symmetry_Int_Tables_number   1
_chemical_formula_structural   Ba3Fe3P2WO14
_chemical_formula_sum   'Ba6 Fe6 P4 W2 O28'
_cell_volume   704.44167645
_cell_formula_units_Z   2
loop_
 _symmetry_equiv_pos_site_id
 _symmetry_equiv_pos_as_xyz
  1  'x, y, z'
loop_
 _atom_site_type_symbol
 _atom_site_label
 _atom_site_symmetry_multiplicity
 _atom_site_fract_x
 _atom_site_fract_y
 _atom_site_fract_z
 _atom_site_occupancy
  Ba  Ba0  1  0.432035  0.999985  0.000008  1
  Ba  Ba1  1  0.932042  0.499989  0.500007  1
  Ba  Ba2  1  0.784027  0.215989  0.216013  1
  Ba  Ba3  1  0.284013  0.715998  0.716029  1
  Ba  Ba4  1  0.283995  0.283985  0.283985  1
  Ba  Ba5  1  0.783984  0.783983  0.783986  1
  Fe  Fe6  1  0.516473  0.250080  0.749965  1
  Fe  Fe7  1  0.866883  0.133251  0.633396  1
  Fe  Fe8  1  0.866599  0.366780  0.866564  1
  Fe  Fe9  1  0.016578  0.750005  0.250112  1
  Fe  Fe10  1  0.366756  0.633218  0.133354  1
  Fe  Fe11  1  0.366596  0.866738  0.366645  1
  P  P12  1  0.272212  0.061135  0.605466  1
  P  P13  1  0.772205  0.561132  0.105478  1
  P  P14  1  0.727847  0.938859  0.394537  1
  P  P15  1  0.227860  0.438854  0.894542  1
  W  W16  1  0.999959  0.999999  0.999973  1
  W  W17  1  0.499986  0.499997  0.500001  1
  O  O18  1  0.130030  0.203320  0.463343  1
  O  O19  1  0.630019  0.703331  0.963359  1
  O  O20  1  0.870040  0.796665  0.536664  1
  O  O21  1  0.370047  0.296671  0.036677  1
  O  O22  1  0.564049  0.650153  0.444469  1
  O  O23  1  0.064019  0.150158  0.944428  1
  O  O24  1  0.242761  0.662656  0.456922  1
  O  O25  1  0.742730  0.162645  0.956906  1
  O  O26  1  0.884616  0.995774  0.790030  1
  O  O27  1  0.384669  0.495768  0.290064  1
  O  O28  1  0.090393  0.004213  0.209914  1
  O  O29  1  0.590369  0.504220  0.709942  1
  O  O30  1  0.448287  0.337462  0.543055  1
  O  O31  1  0.948287  0.837455  0.043066  1
  O  O32  1  0.769712  0.349817  0.555554  1
  O  O33  1  0.269651  0.849812  0.055477  1
  O  O34  1  0.509632  0.972876  0.319954  1
  O  O35  1  0.009659  0.472874  0.819956  1
  O  O36  1  0.785866  0.921416  0.268399  1
  O  O37  1  0.285902  0.421420  0.768415  1
  O  O38  1  0.725050  0.085244  0.432329  1
  O  O39  1  0.225043  0.585258  0.932312  1
  O  O40  1  0.377974  0.914738  0.567668  1
  O  O41  1  0.877971  0.414763  0.067656  1
  O  O42  1  0.438965  0.078558  0.731590  1
  O  O43  1  0.938937  0.578574  0.231612  1
  O  O44  1  0.162639  0.027099  0.680083  1
  O  O45  1  0.662630  0.527083  0.180091  1
