# generated using pymatgen
data_RbNaTcF6
_symmetry_space_group_name_H-M   'P 1'
_cell_length_a   6.31246600
_cell_length_b   8.35376200
_cell_length_c   11.81318500
_cell_angle_alpha   90.00000000
_cell_angle_beta   90.00000000
_cell_angle_gamma   90.00000000
_symmetry_Int_Tables_number   1
_chemical_formula_structural   RbNaTcF6
_chemical_formula_sum   'Rb4 Na4 Tc4 F24'
_cell_volume   622.94277792
_cell_formula_units_Z   4
loop_
 _symmetry_equiv_pos_site_id
 _symmetry_equiv_pos_as_xyz
  1  'x, y, z'
loop_
 _atom_site_type_symbol
 _atom_site_label
 _atom_site_symmetry_multiplicity
 _atom_site_fract_x
 _atom_site_fract_y
 _atom_site_fract_z
 _atom_site_occupancy
  Rb  Rb0  1  0.034618  0.752774  0.456657  1
  Rb  Rb1  1  0.534618  0.252774  0.043343  1
  Rb  Rb2  1  0.465382  0.752774  0.956657  1
  Rb  Rb3  1  0.965382  0.252774  0.543343  1
  Na  Na4  1  0.445863  0.501722  0.648350  1
  Na  Na5  1  0.554137  0.001722  0.351650  1
  Na  Na6  1  0.945863  0.001722  0.851650  1
  Na  Na7  1  0.054137  0.501722  0.148350  1
  Tc  Tc8  1  0.453534  0.001082  0.637554  1
  Tc  Tc9  1  0.046466  0.001082  0.137554  1
  Tc  Tc10  1  0.546466  0.501082  0.362446  1
  Tc  Tc11  1  0.953534  0.501082  0.862446  1
  F  F12  1  0.628420  0.274257  0.368011  1
  F  F13  1  0.188488  0.051246  0.716549  1
  F  F14  1  0.789018  0.960518  0.045577  1
  F  F15  1  0.469717  0.729155  0.359001  1
  F  F16  1  0.371580  0.774257  0.631989  1
  F  F17  1  0.530283  0.229155  0.640999  1
  F  F18  1  0.107788  0.466842  0.719616  1
  F  F19  1  0.289018  0.460518  0.454423  1
  F  F20  1  0.700523  0.532506  0.506923  1
  F  F21  1  0.688488  0.551246  0.783451  1
  F  F22  1  0.392212  0.466842  0.219616  1
  F  F23  1  0.892212  0.966842  0.280384  1
  F  F24  1  0.210982  0.460518  0.954423  1
  F  F25  1  0.710982  0.960518  0.545577  1
  F  F26  1  0.200523  0.032506  0.993077  1
  F  F27  1  0.969717  0.229155  0.140999  1
  F  F28  1  0.799477  0.532506  0.006923  1
  F  F29  1  0.811512  0.551246  0.283451  1
  F  F30  1  0.030283  0.729155  0.859001  1
  F  F31  1  0.311512  0.051246  0.216549  1
  F  F32  1  0.299477  0.032506  0.493077  1
  F  F33  1  0.871580  0.274257  0.868011  1
  F  F34  1  0.607788  0.966842  0.780384  1
  F  F35  1  0.128420  0.774257  0.131989  1
