# generated using pymatgen
data_Li3La2PrPt3
_symmetry_space_group_name_H-M   'P 1'
_cell_length_a   7.41127115
_cell_length_b   7.39837989
_cell_length_c   4.19370600
_cell_angle_alpha   90.00000000
_cell_angle_beta   90.00000000
_cell_angle_gamma   119.94245209
_symmetry_Int_Tables_number   1
_chemical_formula_structural   Li3La2PrPt3
_chemical_formula_sum   'Li3 La2 Pr1 Pt3'
_cell_volume   199.25512198
_cell_formula_units_Z   1
loop_
 _symmetry_equiv_pos_site_id
 _symmetry_equiv_pos_as_xyz
  1  'x, y, z'
loop_
 _atom_site_type_symbol
 _atom_site_label
 _atom_site_symmetry_multiplicity
 _atom_site_fract_x
 _atom_site_fract_y
 _atom_site_fract_z
 _atom_site_occupancy
  Li  Li0  1  0.775906  0.772982  0.500000  1
  Li  Li1  1  0.224094  0.997076  0.500000  1
  Li  Li2  1  0.000000  0.227688  0.500000  1
  La  La3  1  0.410321  0.411542  0.000000  1
  La  La4  1  0.589679  0.001222  0.000000  1
  Pr  Pr5  1  0.000000  0.590515  0.000000  1
  Pt  Pt6  1  0.000000  0.000022  0.000000  1
  Pt  Pt7  1  0.666074  0.332512  0.500000  1
  Pt  Pt8  1  0.333926  0.666439  0.500000  1
