# generated using pymatgen
data_HoEr9Si16Hg
_symmetry_space_group_name_H-M   'P 1'
_cell_length_a   11.05621126
_cell_length_b   11.05459395
_cell_length_c   11.05590300
_cell_angle_alpha   144.73153337
_cell_angle_beta   136.52221876
_cell_angle_gamma   57.18334081
_symmetry_Int_Tables_number   1
_chemical_formula_structural   HoEr9Si16Hg
_chemical_formula_sum   'Ho1 Er9 Si16 Hg1'
_cell_volume   532.50528010
_cell_formula_units_Z   1
loop_
 _symmetry_equiv_pos_site_id
 _symmetry_equiv_pos_as_xyz
  1  'x, y, z'
loop_
 _atom_site_type_symbol
 _atom_site_label
 _atom_site_symmetry_multiplicity
 _atom_site_fract_x
 _atom_site_fract_y
 _atom_site_fract_z
 _atom_site_occupancy
  Ho  Ho0  1  0.751701  0.765701  0.510435  1
  Er  Er1  1  0.055128  0.568572  0.027766  1
  Er  Er2  1  0.354066  0.370103  0.521325  1
  Er  Er3  1  0.157127  0.165135  0.523366  1
  Er  Er4  1  0.450042  0.963426  0.014084  1
  Er  Er5  1  0.641722  0.165246  0.008060  1
  Er  Er6  1  0.949237  0.963353  0.513312  1
  Er  Er7  1  0.848682  0.370112  0.016055  1
  Er  Er8  1  0.540917  0.568655  0.513321  1
  Er  Er9  1  0.255590  0.765743  0.014207  1
  Si  Si10  1  0.117986  0.080594  0.962551  1
  Si  Si11  1  0.797249  0.152529  0.355254  1
  Si  Si12  1  0.300152  0.900503  0.600280  1
  Si  Si13  1  0.399344  0.500740  0.100900  1
  Si  Si14  1  0.873563  0.860671  0.986862  1
  Si  Si15  1  0.105670  0.712991  0.608079  1
  Si  Si16  1  0.199558  0.580507  0.381107  1
  Si  Si17  1  0.700795  0.296156  0.595197  1
  Si  Si18  1  0.004719  0.429906  0.425654  1
  Si  Si19  1  0.715767  0.671024  0.955020  1
  Si  Si20  1  0.601632  0.703666  0.101609  1
  Si  Si21  1  0.998103  0.075691  0.078891  1
  Si  Si22  1  0.501084  0.392546  0.890845  1
  Si  Si23  1  0.283972  0.242309  0.958124  1
  Si  Si24  1  0.584549  0.043328  0.457987  1
  Si  Si25  1  0.415844  0.872081  0.455517  1
  Hg  Hg26  1  0.895800  0.507632  0.613107  1
