# generated using pymatgen
data_Lu4ThCoSb2
_symmetry_space_group_name_H-M   'P 1'
_cell_length_a   7.85328200
_cell_length_b   8.82799100
_cell_length_c   11.90481000
_cell_angle_alpha   90.00000000
_cell_angle_beta   90.00000000
_cell_angle_gamma   90.00000000
_symmetry_Int_Tables_number   1
_chemical_formula_structural   Lu4ThCoSb2
_chemical_formula_sum   'Lu16 Th4 Co4 Sb8'
_cell_volume   825.34503458
_cell_formula_units_Z   4
loop_
 _symmetry_equiv_pos_site_id
 _symmetry_equiv_pos_as_xyz
  1  'x, y, z'
loop_
 _atom_site_type_symbol
 _atom_site_label
 _atom_site_symmetry_multiplicity
 _atom_site_fract_x
 _atom_site_fract_y
 _atom_site_fract_z
 _atom_site_occupancy
  Lu  Lu0  1  0.155695  0.750000  0.203843  1
  Lu  Lu1  1  0.655695  0.250000  0.296157  1
  Lu  Lu2  1  0.844305  0.250000  0.796157  1
  Lu  Lu3  1  0.344305  0.750000  0.703843  1
  Lu  Lu4  1  0.442689  0.750000  0.997380  1
  Lu  Lu5  1  0.942689  0.250000  0.502620  1
  Lu  Lu6  1  0.557311  0.250000  0.002620  1
  Lu  Lu7  1  0.057311  0.750000  0.497380  1
  Lu  Lu8  1  0.822269  0.954282  0.069614  1
  Lu  Lu9  1  0.322269  0.045718  0.430386  1
  Lu  Lu10  1  0.177731  0.454282  0.930386  1
  Lu  Lu11  1  0.677731  0.545718  0.569614  1
  Lu  Lu12  1  0.177731  0.045718  0.930386  1
  Lu  Lu13  1  0.677731  0.954282  0.569614  1
  Lu  Lu14  1  0.822269  0.545718  0.069614  1
  Lu  Lu15  1  0.322269  0.454282  0.430386  1
  Th  Th16  1  0.613936  0.750000  0.312322  1
  Th  Th17  1  0.113936  0.250000  0.187678  1
  Th  Th18  1  0.386064  0.250000  0.687678  1
  Th  Th19  1  0.886064  0.750000  0.812322  1
  Co  Co20  1  0.429937  0.750000  0.485886  1
  Co  Co21  1  0.929937  0.250000  0.014114  1
  Co  Co22  1  0.570063  0.250000  0.514114  1
  Co  Co23  1  0.070063  0.750000  0.985886  1
  Sb  Sb24  1  0.929294  0.989581  0.332186  1
  Sb  Sb25  1  0.429294  0.010419  0.167814  1
  Sb  Sb26  1  0.070706  0.489581  0.667814  1
  Sb  Sb27  1  0.570706  0.510419  0.832186  1
  Sb  Sb28  1  0.070706  0.010419  0.667814  1
  Sb  Sb29  1  0.570706  0.989581  0.832186  1
  Sb  Sb30  1  0.929294  0.510419  0.332186  1
  Sb  Sb31  1  0.429294  0.489581  0.167814  1
