# generated using pymatgen
data_Ti4Fe3Co7(GeB2)2
_symmetry_space_group_name_H-M   'P 1'
_cell_length_a   8.45654015
_cell_length_b   8.42923818
_cell_length_c   2.97717800
_cell_angle_alpha   90.00000000
_cell_angle_beta   90.00000000
_cell_angle_gamma   90.13844730
_symmetry_Int_Tables_number   1
_chemical_formula_structural   Ti4Fe3Co7(GeB2)2
_chemical_formula_sum   'Ti4 Fe3 Co7 Ge2 B4'
_cell_volume   212.21915144
_cell_formula_units_Z   1
loop_
 _symmetry_equiv_pos_site_id
 _symmetry_equiv_pos_as_xyz
  1  'x, y, z'
loop_
 _atom_site_type_symbol
 _atom_site_label
 _atom_site_symmetry_multiplicity
 _atom_site_fract_x
 _atom_site_fract_y
 _atom_site_fract_z
 _atom_site_occupancy
  Ti  Ti0  1  0.827642  0.319669  0.000000  1
  Ti  Ti1  1  0.320207  0.172934  0.000000  1
  Ti  Ti2  1  0.676677  0.827761  0.000000  1
  Ti  Ti3  1  0.175857  0.678294  0.000000  1
  Fe  Fe4  1  0.071222  0.219791  0.500000  1
  Fe  Fe5  1  0.218342  0.926913  0.500000  1
  Fe  Fe6  1  0.780490  0.069594  0.500000  1
  Co  Co7  1  0.499168  0.000143  0.500000  1
  Co  Co8  1  0.000614  0.501628  0.500000  1
  Co  Co9  1  0.928132  0.780742  0.500000  1
  Co  Co10  1  0.433053  0.718558  0.500000  1
  Co  Co11  1  0.568582  0.281413  0.500000  1
  Co  Co12  1  0.719617  0.569734  0.500000  1
  Co  Co13  1  0.281009  0.432666  0.500000  1
  Ge  Ge14  1  0.999498  0.999484  0.000000  1
  Ge  Ge15  1  0.500321  0.499694  0.000000  1
  B  B16  1  0.619215  0.121138  0.000000  1
  B  B17  1  0.121319  0.380724  0.000000  1
  B  B18  1  0.878689  0.620312  0.000000  1
  B  B19  1  0.380346  0.878809  0.000000  1
