# generated using pymatgen
data_Y8In3Ir
_symmetry_space_group_name_H-M   'P 1'
_cell_length_a   10.44688300
_cell_length_b   10.44688319
_cell_length_c   7.13088100
_cell_angle_alpha   90.00000000
_cell_angle_beta   90.00000000
_cell_angle_gamma   120.00000256
_symmetry_Int_Tables_number   1
_chemical_formula_structural   Y8In3Ir
_chemical_formula_sum   'Y16 In6 Ir2'
_cell_volume   673.98041878
_cell_formula_units_Z   2
loop_
 _symmetry_equiv_pos_site_id
 _symmetry_equiv_pos_as_xyz
  1  'x, y, z'
loop_
 _atom_site_type_symbol
 _atom_site_label
 _atom_site_symmetry_multiplicity
 _atom_site_fract_x
 _atom_site_fract_y
 _atom_site_fract_z
 _atom_site_occupancy
  Y  Y0  1  0.465599  0.534401  0.480633  1
  Y  Y1  1  0.068802  0.534401  0.480633  1
  Y  Y2  1  0.465599  0.931198  0.480633  1
  Y  Y3  1  0.534401  0.465599  0.980633  1
  Y  Y4  1  0.931198  0.465599  0.980633  1
  Y  Y5  1  0.534401  0.068802  0.980633  1
  Y  Y6  1  0.823966  0.176034  0.275535  1
  Y  Y7  1  0.352067  0.176034  0.275535  1
  Y  Y8  1  0.823966  0.647933  0.275535  1
  Y  Y9  1  0.176034  0.823966  0.775535  1
  Y  Y10  1  0.647933  0.823966  0.775535  1
  Y  Y11  1  0.176034  0.352067  0.775535  1
  Y  Y12  1  0.333333  0.666667  0.098975  1
  Y  Y13  1  0.666667  0.333333  0.598975  1
  Y  Y14  1  0.000000  0.000000  0.497517  1
  Y  Y15  1  0.000000  0.000000  0.997517  1
  In  In16  1  0.163048  0.836952  0.233616  1
  In  In17  1  0.673905  0.836952  0.233616  1
  In  In18  1  0.163048  0.326095  0.233616  1
  In  In19  1  0.836952  0.163048  0.733616  1
  In  In20  1  0.326095  0.163048  0.733616  1
  In  In21  1  0.836952  0.673905  0.733616  1
  Ir  Ir22  1  0.333333  0.666667  0.706437  1
  Ir  Ir23  1  0.666667  0.333333  0.206437  1
