# generated using pymatgen
data_Er6As(P3Rh5)4
_symmetry_space_group_name_H-M   'P 1'
_cell_length_a   13.38015700
_cell_length_b   13.38015550
_cell_length_c   3.90868000
_cell_angle_alpha   90.00000000
_cell_angle_beta   90.00000000
_cell_angle_gamma   119.99999630
_symmetry_Int_Tables_number   1
_chemical_formula_structural   Er6As(P3Rh5)4
_chemical_formula_sum   'Er6 As1 P12 Rh20'
_cell_volume   606.01466596
_cell_formula_units_Z   1
loop_
 _symmetry_equiv_pos_site_id
 _symmetry_equiv_pos_as_xyz
  1  'x, y, z'
loop_
 _atom_site_type_symbol
 _atom_site_label
 _atom_site_symmetry_multiplicity
 _atom_site_fract_x
 _atom_site_fract_y
 _atom_site_fract_z
 _atom_site_occupancy
  Er  Er0  1  0.529350  0.716880  0.249819  1
  Er  Er1  1  0.283120  0.812468  0.249819  1
  Er  Er2  1  0.187532  0.470650  0.249819  1
  Er  Er3  1  0.470650  0.283120  0.750181  1
  Er  Er4  1  0.716880  0.187532  0.750181  1
  Er  Er5  1  0.812468  0.529350  0.750181  1
  As  As6  1  0.000000  0.000000  0.000000  1
  P  P7  1  0.527956  0.140045  0.249812  1
  P  P8  1  0.859955  0.387913  0.249812  1
  P  P9  1  0.612087  0.472044  0.249812  1
  P  P10  1  0.946211  0.714219  0.251864  1
  P  P11  1  0.285781  0.231992  0.251864  1
  P  P12  1  0.768008  0.053789  0.251864  1
  P  P13  1  0.387913  0.527956  0.750188  1
  P  P14  1  0.472044  0.859955  0.750188  1
  P  P15  1  0.140045  0.612087  0.750188  1
  P  P16  1  0.714219  0.768008  0.748136  1
  P  P17  1  0.231992  0.946211  0.748136  1
  P  P18  1  0.053789  0.285781  0.748136  1
  Rh  Rh19  1  0.333333  0.666667  0.753072  1
  Rh  Rh20  1  0.917750  0.250908  0.249893  1
  Rh  Rh21  1  0.749092  0.666842  0.249893  1
  Rh  Rh22  1  0.333158  0.082250  0.249893  1
  Rh  Rh23  1  0.439024  0.022590  0.750409  1
  Rh  Rh24  1  0.977410  0.416435  0.750409  1
  Rh  Rh25  1  0.583565  0.560976  0.750409  1
  Rh  Rh26  1  0.666667  0.333333  0.246928  1
  Rh  Rh27  1  0.096117  0.195580  0.255311  1
  Rh  Rh28  1  0.804420  0.900536  0.255311  1
  Rh  Rh29  1  0.099464  0.903883  0.255311  1
  Rh  Rh30  1  0.022590  0.583565  0.249591  1
  Rh  Rh31  1  0.416435  0.439024  0.249591  1
  Rh  Rh32  1  0.560976  0.977410  0.249591  1
  Rh  Rh33  1  0.666842  0.917750  0.750107  1
  Rh  Rh34  1  0.082250  0.749092  0.750107  1
  Rh  Rh35  1  0.250908  0.333158  0.750107  1
  Rh  Rh36  1  0.903883  0.804420  0.744689  1
  Rh  Rh37  1  0.195580  0.099464  0.744689  1
  Rh  Rh38  1  0.900536  0.096117  0.744689  1
