# generated using pymatgen
data_SmY19(BiPb3)4
_symmetry_space_group_name_H-M   'P 1'
_cell_length_a   8.31752671
_cell_length_b   8.31408704
_cell_length_c   15.65936300
_cell_angle_alpha   90.00540976
_cell_angle_beta   89.89598269
_cell_angle_gamma   89.99976862
_symmetry_Int_Tables_number   1
_chemical_formula_structural   SmY19(BiPb3)4
_chemical_formula_sum   'Sm1 Y19 Bi4 Pb12'
_cell_volume   1082.88451805
_cell_formula_units_Z   1
loop_
 _symmetry_equiv_pos_site_id
 _symmetry_equiv_pos_as_xyz
  1  'x, y, z'
loop_
 _atom_site_type_symbol
 _atom_site_label
 _atom_site_symmetry_multiplicity
 _atom_site_fract_x
 _atom_site_fract_y
 _atom_site_fract_z
 _atom_site_occupancy
  Sm  Sm0  1  0.044588  0.170242  0.895161  1
  Y  Y1  1  0.388441  0.841630  0.878998  1
  Y  Y2  1  0.889324  0.658770  0.620739  1
  Y  Y3  1  0.610748  0.158388  0.379064  1
  Y  Y4  1  0.111620  0.341649  0.121361  1
  Y  Y5  1  0.616288  0.159510  0.120253  1
  Y  Y6  1  0.115557  0.339947  0.379825  1
  Y  Y7  1  0.384475  0.840020  0.619989  1
  Y  Y8  1  0.883839  0.659862  0.879642  1
  Y  Y9  1  0.561001  0.332430  0.891828  1
  Y  Y10  1  0.062173  0.167260  0.608405  1
  Y  Y11  1  0.437986  0.667257  0.391636  1
  Y  Y12  1  0.938982  0.832161  0.108133  1
  Y  Y13  1  0.454480  0.668617  0.105901  1
  Y  Y14  1  0.953257  0.831908  0.393772  1
  Y  Y15  1  0.546691  0.332032  0.605991  1
  Y  Y16  1  0.220647  0.501127  0.747872  1
  Y  Y17  1  0.720294  0.998952  0.751735  1
  Y  Y18  1  0.779396  0.498929  0.248080  1
  Y  Y19  1  0.279473  0.000948  0.252049  1
  Bi  Bi20  1  0.269624  0.019036  0.046721  1
  Bi  Bi21  1  0.767933  0.480825  0.453981  1
  Bi  Bi22  1  0.732209  0.980947  0.545917  1
  Bi  Bi23  1  0.232194  0.520977  0.954304  1
  Pb  Pb24  1  0.723612  0.972807  0.956258  1
  Pb  Pb25  1  0.225423  0.524982  0.543912  1
  Pb  Pb26  1  0.274693  0.024972  0.455986  1
  Pb  Pb27  1  0.775412  0.473675  0.043834  1
  Pb  Pb28  1  0.582097  0.631030  0.748678  1
  Pb  Pb29  1  0.082157  0.868542  0.751034  1
  Pb  Pb30  1  0.418047  0.368922  0.248809  1
  Pb  Pb31  1  0.917922  0.130930  0.251361  1
  Pb  Pb32  1  0.362372  0.149186  0.751196  1
  Pb  Pb33  1  0.860848  0.351648  0.747559  1
  Pb  Pb34  1  0.638158  0.850569  0.251425  1
  Pb  Pb35  1  0.138037  0.649316  0.248591  1
