# generated using pymatgen
data_Tb2PaFe2Co7P6
_symmetry_space_group_name_H-M   'P 1'
_cell_length_a   3.71421700
_cell_length_b   10.58189300
_cell_length_c   12.11714500
_cell_angle_alpha   90.00000000
_cell_angle_beta   90.00000000
_cell_angle_gamma   90.00000000
_symmetry_Int_Tables_number   1
_chemical_formula_structural   Tb2PaFe2Co7P6
_chemical_formula_sum   'Tb4 Pa2 Fe4 Co14 P12'
_cell_volume   476.24556476
_cell_formula_units_Z   2
loop_
 _symmetry_equiv_pos_site_id
 _symmetry_equiv_pos_as_xyz
  1  'x, y, z'
loop_
 _atom_site_type_symbol
 _atom_site_label
 _atom_site_symmetry_multiplicity
 _atom_site_fract_x
 _atom_site_fract_y
 _atom_site_fract_z
 _atom_site_occupancy
  Tb  Tb0  1  0.500000  0.816392  0.204105  1
  Tb  Tb1  1  0.500000  0.183608  0.204105  1
  Tb  Tb2  1  0.000000  0.683608  0.795895  1
  Tb  Tb3  1  0.000000  0.316392  0.795895  1
  Pa  Pa4  1  0.000000  0.500000  0.527938  1
  Pa  Pa5  1  0.500000  0.000000  0.472062  1
  Fe  Fe6  1  0.500000  0.500000  0.154418  1
  Fe  Fe7  1  0.000000  0.000000  0.845582  1
  Fe  Fe8  1  0.000000  0.500000  0.986845  1
  Fe  Fe9  1  0.500000  0.000000  0.013155  1
  Co  Co10  1  0.500000  0.500000  0.694816  1
  Co  Co11  1  0.000000  0.000000  0.305184  1
  Co  Co12  1  0.500000  0.332469  0.994333  1
  Co  Co13  1  0.500000  0.667531  0.994333  1
  Co  Co14  1  0.000000  0.167531  0.005667  1
  Co  Co15  1  0.000000  0.832469  0.005667  1
  Co  Co16  1  0.500000  0.301689  0.431724  1
  Co  Co17  1  0.500000  0.698311  0.431724  1
  Co  Co18  1  0.000000  0.198311  0.568276  1
  Co  Co19  1  0.000000  0.801689  0.568276  1
  Co  Co20  1  0.500000  0.880406  0.709897  1
  Co  Co21  1  0.500000  0.119594  0.709897  1
  Co  Co22  1  0.000000  0.619594  0.290103  1
  Co  Co23  1  0.000000  0.380406  0.290103  1
  P  P24  1  0.500000  0.500000  0.882629  1
  P  P25  1  0.000000  0.000000  0.117371  1
  P  P26  1  0.500000  0.500000  0.340857  1
  P  P27  1  0.000000  0.000000  0.659143  1
  P  P28  1  0.500000  0.305545  0.616696  1
  P  P29  1  0.500000  0.694455  0.616696  1
  P  P30  1  0.000000  0.194455  0.383304  1
  P  P31  1  0.000000  0.805545  0.383304  1
  P  P32  1  0.500000  0.847890  0.894831  1
  P  P33  1  0.500000  0.152110  0.894831  1
  P  P34  1  0.000000  0.652110  0.105169  1
  P  P35  1  0.000000  0.347890  0.105169  1
