# generated using pymatgen
data_Pr2Si2Ag2Sn
_symmetry_space_group_name_H-M   'P 1'
_cell_length_a   9.88522738
_cell_length_b   9.88522763
_cell_length_c   7.08583700
_cell_angle_alpha   90.00000000
_cell_angle_beta   90.00000000
_cell_angle_gamma   153.00985906
_symmetry_Int_Tables_number   1
_chemical_formula_structural   Pr2Si2Ag2Sn
_chemical_formula_sum   'Pr4 Si4 Ag4 Sn2'
_cell_volume   314.24224043
_cell_formula_units_Z   2
loop_
 _symmetry_equiv_pos_site_id
 _symmetry_equiv_pos_as_xyz
  1  'x, y, z'
loop_
 _atom_site_type_symbol
 _atom_site_label
 _atom_site_symmetry_multiplicity
 _atom_site_fract_x
 _atom_site_fract_y
 _atom_site_fract_z
 _atom_site_occupancy
  Pr  Pr0  1  0.548135  0.451865  0.250000  1
  Pr  Pr1  1  0.451865  0.548135  0.750000  1
  Pr  Pr2  1  0.351150  0.648850  0.250000  1
  Pr  Pr3  1  0.648850  0.351150  0.750000  1
  Si  Si4  1  0.945636  0.054364  0.080285  1
  Si  Si5  1  0.054364  0.945636  0.919715  1
  Si  Si6  1  0.054364  0.945636  0.580285  1
  Si  Si7  1  0.945636  0.054364  0.419715  1
  Ag  Ag8  1  0.823410  0.176590  0.552110  1
  Ag  Ag9  1  0.176590  0.823410  0.447890  1
  Ag  Ag10  1  0.176590  0.823410  0.052110  1
  Ag  Ag11  1  0.823410  0.176590  0.947890  1
  Sn  Sn12  1  0.721773  0.278227  0.250000  1
  Sn  Sn13  1  0.278227  0.721773  0.750000  1
