# generated using pymatgen
data_La17Yb3(Ir5Os)2
_symmetry_space_group_name_H-M   'P 1'
_cell_length_a   11.36766630
_cell_length_b   11.38928430
_cell_length_c   6.58268600
_cell_angle_alpha   90.00000000
_cell_angle_beta   90.00000000
_cell_angle_gamma   89.97361420
_symmetry_Int_Tables_number   1
_chemical_formula_structural   La17Yb3(Ir5Os)2
_chemical_formula_sum   'La17 Yb3 Ir10 Os2'
_cell_volume   852.25752341
_cell_formula_units_Z   1
loop_
 _symmetry_equiv_pos_site_id
 _symmetry_equiv_pos_as_xyz
  1  'x, y, z'
loop_
 _atom_site_type_symbol
 _atom_site_label
 _atom_site_symmetry_multiplicity
 _atom_site_fract_x
 _atom_site_fract_y
 _atom_site_fract_z
 _atom_site_occupancy
  La  La0  1  0.290256  0.088634  0.393401  1
  La  La1  1  0.291533  0.913542  0.891341  1
  La  La2  1  0.708467  0.086458  0.891341  1
  La  La3  1  0.709744  0.911366  0.393401  1
  La  La4  1  0.588390  0.791492  0.892516  1
  La  La5  1  0.588658  0.203622  0.391332  1
  La  La6  1  0.411342  0.796378  0.391332  1
  La  La7  1  0.411610  0.208508  0.892516  1
  La  La8  1  0.207069  0.408666  0.608362  1
  La  La9  1  0.212785  0.591038  0.107242  1
  La  La10  1  0.787215  0.408962  0.107242  1
  La  La11  1  0.792931  0.591334  0.608362  1
  La  La12  1  0.911260  0.713137  0.108598  1
  La  La13  1  0.908846  0.285865  0.606310  1
  La  La14  1  0.091154  0.714135  0.606310  1
  La  La15  1  0.088740  0.286863  0.108598  1
  La  La16  1  0.500000  0.500000  0.498999  1
  Yb  Yb17  1  0.000000  0.000000  0.498741  1
  Yb  Yb18  1  0.000000  0.000000  0.998611  1
  Yb  Yb19  1  0.500000  0.500000  0.998572  1
  Ir  Ir20  1  0.846749  0.156248  0.247954  1
  Ir  Ir21  1  0.846940  0.843327  0.751614  1
  Ir  Ir22  1  0.153060  0.156673  0.751614  1
  Ir  Ir23  1  0.153251  0.843752  0.247954  1
  Ir  Ir24  1  0.656648  0.349113  0.744918  1
  Ir  Ir25  1  0.654163  0.653315  0.254643  1
  Ir  Ir26  1  0.345837  0.346685  0.254643  1
  Ir  Ir27  1  0.343352  0.650887  0.744918  1
  Ir  Ir28  1  0.000000  0.500000  0.881203  1
  Ir  Ir29  1  0.000000  0.500000  0.375183  1
  Os  Os30  1  0.500000  0.000000  0.124429  1
  Os  Os31  1  0.500000  0.000000  0.627800  1
