# generated using pymatgen
data_Zr18BeNi3P8
_symmetry_space_group_name_H-M   'P 1'
_cell_length_a   12.08213914
_cell_length_b   12.08213914
_cell_length_c   3.69393300
_cell_angle_alpha   90.00000000
_cell_angle_beta   90.00000000
_cell_angle_gamma   90.15562919
_symmetry_Int_Tables_number   1
_chemical_formula_structural   Zr18BeNi3P8
_chemical_formula_sum   'Zr18 Be1 Ni3 P8'
_cell_volume   539.23128090
_cell_formula_units_Z   1
loop_
 _symmetry_equiv_pos_site_id
 _symmetry_equiv_pos_as_xyz
  1  'x, y, z'
loop_
 _atom_site_type_symbol
 _atom_site_label
 _atom_site_symmetry_multiplicity
 _atom_site_fract_x
 _atom_site_fract_y
 _atom_site_fract_z
 _atom_site_occupancy
  Zr  Zr0  1  0.002346  0.001766  0.000000  1
  Zr  Zr1  1  0.498234  0.497654  0.000000  1
  Zr  Zr2  1  0.104357  0.185187  0.500000  1
  Zr  Zr3  1  0.180092  0.897024  0.500000  1
  Zr  Zr4  1  0.819884  0.102619  0.500000  1
  Zr  Zr5  1  0.897599  0.819173  0.500000  1
  Zr  Zr6  1  0.397381  0.680116  0.500000  1
  Zr  Zr7  1  0.602976  0.319908  0.500000  1
  Zr  Zr8  1  0.680827  0.602401  0.500000  1
  Zr  Zr9  1  0.314813  0.395643  0.500000  1
  Zr  Zr10  1  0.097101  0.402899  0.000000  1
  Zr  Zr11  1  0.403913  0.903353  0.000000  1
  Zr  Zr12  1  0.596647  0.096087  0.000000  1
  Zr  Zr13  1  0.903576  0.596424  0.000000  1
  Zr  Zr14  1  0.380412  0.119588  0.500000  1
  Zr  Zr15  1  0.119320  0.619089  0.500000  1
  Zr  Zr16  1  0.880911  0.380680  0.500000  1
  Zr  Zr17  1  0.619034  0.880966  0.500000  1
  Be  Be18  1  0.259253  0.240747  0.000000  1
  Ni  Ni19  1  0.245394  0.746208  0.000000  1
  Ni  Ni20  1  0.753792  0.254606  0.000000  1
  Ni  Ni21  1  0.745389  0.754611  0.000000  1
  P  P22  1  0.224782  0.060086  0.000000  1
  P  P23  1  0.055858  0.775280  0.000000  1
  P  P24  1  0.944737  0.225111  0.000000  1
  P  P25  1  0.776009  0.944158  0.000000  1
  P  P26  1  0.274889  0.555263  0.000000  1
  P  P27  1  0.724720  0.444142  0.000000  1
  P  P28  1  0.555842  0.723991  0.000000  1
  P  P29  1  0.439914  0.275218  0.000000  1
