# generated using pymatgen
data_PaTe5
_symmetry_space_group_name_H-M   'P 1'
_cell_length_a   4.29800100
_cell_length_b   10.83296500
_cell_length_c   17.92897500
_cell_angle_alpha   90.00000000
_cell_angle_beta   90.00000000
_cell_angle_gamma   90.00000000
_symmetry_Int_Tables_number   1
_chemical_formula_structural   PaTe5
_chemical_formula_sum   'Pa4 Te20'
_cell_volume   834.77476855
_cell_formula_units_Z   4
loop_
 _symmetry_equiv_pos_site_id
 _symmetry_equiv_pos_as_xyz
  1  'x, y, z'
loop_
 _atom_site_type_symbol
 _atom_site_label
 _atom_site_symmetry_multiplicity
 _atom_site_fract_x
 _atom_site_fract_y
 _atom_site_fract_z
 _atom_site_occupancy
  Pa  Pa0  1  0.392007  0.250000  0.584221  1
  Pa  Pa1  1  0.607993  0.750000  0.415779  1
  Pa  Pa2  1  0.892007  0.750000  0.915779  1
  Pa  Pa3  1  0.107993  0.250000  0.084221  1
  Te  Te4  1  0.888729  0.427080  0.658594  1
  Te  Te5  1  0.873158  0.250000  0.460220  1
  Te  Te6  1  0.000000  0.500000  0.000000  1
  Te  Te7  1  0.126842  0.750000  0.539780  1
  Te  Te8  1  0.826911  0.750000  0.245321  1
  Te  Te9  1  0.673089  0.750000  0.745321  1
  Te  Te10  1  0.626842  0.250000  0.960220  1
  Te  Te11  1  0.173089  0.250000  0.754679  1
  Te  Te12  1  0.888729  0.072920  0.658594  1
  Te  Te13  1  0.326911  0.250000  0.254679  1
  Te  Te14  1  0.500000  0.000000  0.500000  1
  Te  Te15  1  0.611271  0.427080  0.158594  1
  Te  Te16  1  0.500000  0.500000  0.500000  1
  Te  Te17  1  0.111271  0.572920  0.341406  1
  Te  Te18  1  0.373158  0.750000  0.039780  1
  Te  Te19  1  0.000000  0.000000  0.000000  1
  Te  Te20  1  0.611271  0.072920  0.158594  1
  Te  Te21  1  0.388729  0.572920  0.841406  1
  Te  Te22  1  0.111271  0.927080  0.341406  1
  Te  Te23  1  0.388729  0.927080  0.841406  1
