# generated using pymatgen
data_K2Ca2HoSc3(CuSe5)2
_symmetry_space_group_name_H-M   'P 1'
_cell_length_a   4.01910000
_cell_length_b   7.35161744
_cell_length_c   17.47990508
_cell_angle_alpha   90.20849859
_cell_angle_beta   90.00000000
_cell_angle_gamma   74.13640137
_symmetry_Int_Tables_number   1
_chemical_formula_structural   K2Ca2HoSc3(CuSe5)2
_chemical_formula_sum   'K2 Ca2 Ho1 Sc3 Cu2 Se10'
_cell_volume   496.80327126
_cell_formula_units_Z   1
loop_
 _symmetry_equiv_pos_site_id
 _symmetry_equiv_pos_as_xyz
  1  'x, y, z'
loop_
 _atom_site_type_symbol
 _atom_site_label
 _atom_site_symmetry_multiplicity
 _atom_site_fract_x
 _atom_site_fract_y
 _atom_site_fract_z
 _atom_site_occupancy
  K  K0  1  0.521120  0.957764  0.249893  1
  K  K1  1  0.478617  0.042766  0.748662  1
  Ca  Ca2  1  0.002182  0.995636  0.001651  1
  Ca  Ca3  1  0.999887  0.000226  0.499881  1
  Ho  Ho4  1  0.730123  0.539757  0.897077  1
  Sc  Sc5  1  0.271249  0.457501  0.105538  1
  Sc  Sc6  1  0.271161  0.457679  0.396834  1
  Sc  Sc7  1  0.728639  0.542725  0.602169  1
  Cu  Cu8  1  0.795483  0.409037  0.250074  1
  Cu  Cu9  1  0.204460  0.591078  0.750206  1
  Se  Se10  1  0.647491  0.705021  0.052815  1
  Se  Se11  1  0.892676  0.214650  0.137416  1
  Se  Se12  1  0.197946  0.604107  0.250729  1
  Se  Se13  1  0.892937  0.214129  0.363033  1
  Se  Se14  1  0.649092  0.701819  0.451422  1
  Se  Se15  1  0.350730  0.298540  0.546850  1
  Se  Se16  1  0.107330  0.785339  0.636446  1
  Se  Se17  1  0.802901  0.394202  0.744477  1
  Se  Se18  1  0.099008  0.801983  0.860038  1
  Se  Se19  1  0.356979  0.286041  0.954791  1
