# generated using pymatgen
data_Dy2Ni10Mo2P7
_symmetry_space_group_name_H-M   'P 1'
_cell_length_a   9.16324450
_cell_length_b   9.18095071
_cell_length_c   3.71183700
_cell_angle_alpha   90.00000000
_cell_angle_beta   90.00000000
_cell_angle_gamma   119.90597168
_symmetry_Int_Tables_number   1
_chemical_formula_structural   Dy2Ni10Mo2P7
_chemical_formula_sum   'Dy2 Ni10 Mo2 P7'
_cell_volume   270.68685732
_cell_formula_units_Z   1
loop_
 _symmetry_equiv_pos_site_id
 _symmetry_equiv_pos_as_xyz
  1  'x, y, z'
loop_
 _atom_site_type_symbol
 _atom_site_label
 _atom_site_symmetry_multiplicity
 _atom_site_fract_x
 _atom_site_fract_y
 _atom_site_fract_z
 _atom_site_occupancy
  Dy  Dy0  1  0.667148  0.333504  0.500000  1
  Dy  Dy1  1  0.337196  0.668219  0.000000  1
  Ni  Ni2  1  0.720250  0.873689  0.000000  1
  Ni  Ni3  1  0.938987  0.371655  0.000000  1
  Ni  Ni4  1  0.160011  0.286919  0.000000  1
  Ni  Ni5  1  0.387374  0.440573  0.500000  1
  Ni  Ni6  1  0.120860  0.839992  0.000000  1
  Ni  Ni7  1  0.432801  0.062189  0.000000  1
  Ni  Ni8  1  0.049069  0.616204  0.500000  1
  Ni  Ni9  1  0.558473  0.944189  0.500000  1
  Ni  Ni10  1  0.629032  0.564898  0.000000  1
  Ni  Ni11  1  0.877541  0.779585  0.500000  1
  Mo  Mo12  1  0.215551  0.098596  0.500000  1
  Mo  Mo13  1  0.902846  0.118815  0.500000  1
  P  P14  1  0.411556  0.299573  0.000000  1
  P  P15  1  0.290060  0.882604  0.500000  1
  P  P16  1  0.701267  0.111550  0.000000  1
  P  P17  1  0.598578  0.711557  0.500000  1
  P  P18  1  0.886650  0.590348  0.000000  1
  P  P19  1  0.116306  0.409269  0.500000  1
  P  P20  1  0.998446  0.996069  0.000000  1
