# generated using pymatgen
data_CsBa(B2Pt3)3
_symmetry_space_group_name_H-M   'P 1'
_cell_length_a   8.24590323
_cell_length_b   8.24590294
_cell_length_c   8.24590311
_cell_angle_alpha   82.96909370
_cell_angle_beta   82.96909659
_cell_angle_gamma   82.96909264
_symmetry_Int_Tables_number   1
_chemical_formula_structural   CsBa(B2Pt3)3
_chemical_formula_sum   'Cs2 Ba2 B12 Pt18'
_cell_volume   548.98489598
_cell_formula_units_Z   2
loop_
 _symmetry_equiv_pos_site_id
 _symmetry_equiv_pos_as_xyz
  1  'x, y, z'
loop_
 _atom_site_type_symbol
 _atom_site_label
 _atom_site_symmetry_multiplicity
 _atom_site_fract_x
 _atom_site_fract_y
 _atom_site_fract_z
 _atom_site_occupancy
  Cs  Cs0  1  0.632242  0.632242  0.632242  1
  Cs  Cs1  1  0.867758  0.867758  0.867758  1
  Ba  Ba2  1  0.372201  0.372201  0.372201  1
  Ba  Ba3  1  0.127799  0.127799  0.127799  1
  B  B4  1  0.538521  0.189552  0.843779  1
  B  B5  1  0.843779  0.538521  0.189552  1
  B  B6  1  0.189552  0.843779  0.538521  1
  B  B7  1  0.961479  0.656221  0.310448  1
  B  B8  1  0.464710  0.809113  0.151532  1
  B  B9  1  0.151532  0.464710  0.809113  1
  B  B10  1  0.809113  0.151532  0.464710  1
  B  B11  1  0.035290  0.348468  0.690887  1
  B  B12  1  0.690887  0.035290  0.348468  1
  B  B13  1  0.348468  0.690887  0.035290  1
  B  B14  1  0.310448  0.961479  0.656221  1
  B  B15  1  0.656221  0.310448  0.961479  1
  Pt  Pt16  1  0.415042  0.935471  0.398473  1
  Pt  Pt17  1  0.084958  0.101527  0.564529  1
  Pt  Pt18  1  0.935471  0.398473  0.415042  1
  Pt  Pt19  1  0.564529  0.084958  0.101527  1
  Pt  Pt20  1  0.600254  0.573659  0.077928  1
  Pt  Pt21  1  0.573659  0.077928  0.600254  1
  Pt  Pt22  1  0.077928  0.600254  0.573659  1
  Pt  Pt23  1  0.926341  0.899746  0.422072  1
  Pt  Pt24  1  0.899746  0.422072  0.926341  1
  Pt  Pt25  1  0.422072  0.926341  0.899746  1
  Pt  Pt26  1  0.750000  0.276397  0.223603  1
  Pt  Pt27  1  0.223603  0.750000  0.276397  1
  Pt  Pt28  1  0.276397  0.223603  0.750000  1
  Pt  Pt29  1  0.250000  0.716548  0.783452  1
  Pt  Pt30  1  0.783452  0.250000  0.716548  1
  Pt  Pt31  1  0.716548  0.783452  0.250000  1
  Pt  Pt32  1  0.101527  0.564529  0.084958  1
  Pt  Pt33  1  0.398473  0.415042  0.935471  1
