# generated using pymatgen
data_Ho2TiWO8
_symmetry_space_group_name_H-M   'P 1'
_cell_length_a   5.47340000
_cell_length_b   5.08535080
_cell_length_c   5.30676111
_cell_angle_alpha   82.55765323
_cell_angle_beta   90.00000000
_cell_angle_gamma   90.00000000
_symmetry_Int_Tables_number   1
_chemical_formula_structural   Ho2TiWO8
_chemical_formula_sum   'Ho2 Ti1 W1 O8'
_cell_volume   146.46488610
_cell_formula_units_Z   1
loop_
 _symmetry_equiv_pos_site_id
 _symmetry_equiv_pos_as_xyz
  1  'x, y, z'
loop_
 _atom_site_type_symbol
 _atom_site_label
 _atom_site_symmetry_multiplicity
 _atom_site_fract_x
 _atom_site_fract_y
 _atom_site_fract_z
 _atom_site_occupancy
  Ho  Ho0  1  0.272004  0.500000  0.750000  1
  Ho  Ho1  1  0.737075  0.500000  0.250000  1
  Ti  Ti2  1  0.796579  0.000000  0.750000  1
  W  W3  1  0.175011  0.000000  0.250000  1
  O  O4  1  0.072932  0.238954  0.489358  1
  O  O5  1  0.935156  0.221573  0.005240  1
  O  O6  1  0.591811  0.256032  0.607078  1
  O  O7  1  0.409767  0.242312  0.107787  1
  O  O8  1  0.591811  0.743968  0.892922  1
  O  O9  1  0.409767  0.757688  0.392213  1
  O  O10  1  0.072932  0.761046  0.010642  1
  O  O11  1  0.935156  0.778427  0.494760  1
