# generated using pymatgen
data_Pr2SmHo3Ta2O14
_symmetry_space_group_name_H-M   'P 1'
_cell_length_a   6.53476429
_cell_length_b   6.54260861
_cell_length_c   7.62888223
_cell_angle_alpha   90.00358558
_cell_angle_beta   90.02516951
_cell_angle_gamma   109.14301989
_symmetry_Int_Tables_number   1
_chemical_formula_structural   Pr2SmHo3Ta2O14
_chemical_formula_sum   'Pr2 Sm1 Ho3 Ta2 O14'
_cell_volume   308.13214088
_cell_formula_units_Z   1
loop_
 _symmetry_equiv_pos_site_id
 _symmetry_equiv_pos_as_xyz
  1  'x, y, z'
loop_
 _atom_site_type_symbol
 _atom_site_label
 _atom_site_symmetry_multiplicity
 _atom_site_fract_x
 _atom_site_fract_y
 _atom_site_fract_z
 _atom_site_occupancy
  Pr  Pr0  1  0.506018  0.508213  0.501018  1
  Pr  Pr1  1  0.485794  0.484583  0.998396  1
  Sm  Sm2  1  0.999248  0.534685  0.246954  1
  Ho  Ho3  1  0.998998  0.466476  0.746749  1
  Ho  Ho4  1  0.533245  0.000654  0.753040  1
  Ho  Ho5  1  0.467917  0.998324  0.253228  1
  Ta  Ta6  1  0.001380  0.000628  0.501232  1
  Ta  Ta7  1  0.998226  0.998376  0.998185  1
  O  O8  1  0.932522  0.061922  0.749804  1
  O  O9  1  0.063422  0.940192  0.249915  1
  O  O10  1  0.362627  0.645183  0.249010  1
  O  O11  1  0.644588  0.353644  0.749611  1
  O  O12  1  0.362589  0.639008  0.750432  1
  O  O13  1  0.628605  0.357337  0.251022  1
  O  O14  1  0.321657  0.068502  0.970185  1
  O  O15  1  0.680160  0.932175  0.469126  1
  O  O16  1  0.315404  0.058566  0.536883  1
  O  O17  1  0.686917  0.943023  0.037937  1
  O  O18  1  0.071263  0.318964  0.471696  1
  O  O19  1  0.935287  0.685816  0.960077  1
  O  O20  1  0.927531  0.680127  0.533323  1
  O  O21  1  0.076602  0.323602  0.022177  1
