# generated using pymatgen
data_Pa8Ti9Si16Mo3
_symmetry_space_group_name_H-M   'P 1'
_cell_length_a   6.77248300
_cell_length_b   6.93868710
_cell_length_c   13.33292500
_cell_angle_alpha   90.00000000
_cell_angle_beta   90.00000000
_cell_angle_gamma   89.99023971
_symmetry_Int_Tables_number   1
_chemical_formula_structural   Pa8Ti9Si16Mo3
_chemical_formula_sum   'Pa8 Ti9 Si16 Mo3'
_cell_volume   626.54267487
_cell_formula_units_Z   1
loop_
 _symmetry_equiv_pos_site_id
 _symmetry_equiv_pos_as_xyz
  1  'x, y, z'
loop_
 _atom_site_type_symbol
 _atom_site_label
 _atom_site_symmetry_multiplicity
 _atom_site_fract_x
 _atom_site_fract_y
 _atom_site_fract_z
 _atom_site_occupancy
  Pa  Pa0  1  0.998367  0.165635  0.094670  1
  Pa  Pa1  1  0.001776  0.834130  0.905532  1
  Pa  Pa2  1  0.501881  0.667132  0.905988  1
  Pa  Pa3  1  0.001776  0.834130  0.594468  1
  Pa  Pa4  1  0.498629  0.334117  0.094474  1
  Pa  Pa5  1  0.998367  0.165635  0.405330  1
  Pa  Pa6  1  0.498629  0.334117  0.405526  1
  Pa  Pa7  1  0.501881  0.667132  0.594012  1
  Ti  Ti8  1  0.168569  0.503797  0.750000  1
  Ti  Ti9  1  0.337701  0.169483  0.623873  1
  Ti  Ti10  1  0.662911  0.829303  0.375478  1
  Ti  Ti11  1  0.164092  0.670745  0.375084  1
  Ti  Ti12  1  0.662911  0.829303  0.124522  1
  Ti  Ti13  1  0.835074  0.329288  0.623951  1
  Ti  Ti14  1  0.337701  0.169483  0.876127  1
  Ti  Ti15  1  0.835074  0.329288  0.876049  1
  Ti  Ti16  1  0.164092  0.670745  0.124916  1
  Si  Si17  1  0.040066  0.131667  0.750000  1
  Si  Si18  1  0.959440  0.867234  0.250000  1
  Si  Si19  1  0.460088  0.631941  0.250000  1
  Si  Si20  1  0.539776  0.368780  0.750000  1
  Si  Si21  1  0.300992  0.874388  0.750000  1
  Si  Si22  1  0.696987  0.124095  0.250000  1
  Si  Si23  1  0.197342  0.375231  0.250000  1
  Si  Si24  1  0.803101  0.623575  0.750000  1
  Si  Si25  1  0.162189  0.455959  0.542075  1
  Si  Si26  1  0.838393  0.544262  0.457381  1
  Si  Si27  1  0.337529  0.955985  0.457758  1
  Si  Si28  1  0.838393  0.544262  0.042619  1
  Si  Si29  1  0.662997  0.044915  0.541796  1
  Si  Si30  1  0.162189  0.455959  0.957925  1
  Si  Si31  1  0.662997  0.044915  0.958204  1
  Si  Si32  1  0.337529  0.955985  0.042242  1
  Mo  Mo33  1  0.831429  0.496548  0.250000  1
  Mo  Mo34  1  0.331267  0.002877  0.250000  1
  Mo  Mo35  1  0.667866  0.997955  0.750000  1
