# generated using pymatgen
data_DyZr(PaRh2)2
_symmetry_space_group_name_H-M   'P 1'
_cell_length_a   4.49850100
_cell_length_b   5.40261274
_cell_length_c   6.74958301
_cell_angle_alpha   89.71923452
_cell_angle_beta   90.00000000
_cell_angle_gamma   90.00000000
_symmetry_Int_Tables_number   1
_chemical_formula_structural   DyZr(PaRh2)2
_chemical_formula_sum   'Dy1 Zr1 Pa2 Rh4'
_cell_volume   164.03759313
_cell_formula_units_Z   1
loop_
 _symmetry_equiv_pos_site_id
 _symmetry_equiv_pos_as_xyz
  1  'x, y, z'
loop_
 _atom_site_type_symbol
 _atom_site_label
 _atom_site_symmetry_multiplicity
 _atom_site_fract_x
 _atom_site_fract_y
 _atom_site_fract_z
 _atom_site_occupancy
  Dy  Dy0  1  0.250000  0.349685  0.682026  1
  Zr  Zr1  1  0.250000  0.143164  0.180714  1
  Pa  Pa2  1  0.750000  0.866232  0.823333  1
  Pa  Pa3  1  0.750000  0.647482  0.317757  1
  Rh  Rh4  1  0.750000  0.158128  0.422932  1
  Rh  Rh5  1  0.250000  0.837389  0.543907  1
  Rh  Rh6  1  0.250000  0.670598  0.051567  1
  Rh  Rh7  1  0.750000  0.327322  0.977763  1
