# generated using pymatgen
data_Tm6Si6OsRh3
_symmetry_space_group_name_H-M   'P 1'
_cell_length_a   5.67089351
_cell_length_b   5.67089316
_cell_length_c   13.57208537
_cell_angle_alpha   90.10429116
_cell_angle_beta   89.89571962
_cell_angle_gamma   136.89776962
_symmetry_Int_Tables_number   1
_chemical_formula_structural   Tm6Si6OsRh3
_chemical_formula_sum   'Tm6 Si6 Os1 Rh3'
_cell_volume   298.23700232
_cell_formula_units_Z   1
loop_
 _symmetry_equiv_pos_site_id
 _symmetry_equiv_pos_as_xyz
  1  'x, y, z'
loop_
 _atom_site_type_symbol
 _atom_site_label
 _atom_site_symmetry_multiplicity
 _atom_site_fract_x
 _atom_site_fract_y
 _atom_site_fract_z
 _atom_site_occupancy
  Tm  Tm0  1  0.644098  0.355902  0.250549  1
  Tm  Tm1  1  0.355657  0.644343  0.749253  1
  Tm  Tm2  1  0.923963  0.076037  0.114749  1
  Tm  Tm3  1  0.076178  0.923822  0.885537  1
  Tm  Tm4  1  0.079450  0.920550  0.614907  1
  Tm  Tm5  1  0.921042  0.078958  0.385340  1
  Si  Si6  1  0.337688  0.662312  0.249084  1
  Si  Si7  1  0.666281  0.333719  0.752341  1
  Si  Si8  1  0.611567  0.388433  0.037864  1
  Si  Si9  1  0.385624  0.614376  0.960095  1
  Si  Si10  1  0.391830  0.608170  0.538238  1
  Si  Si11  1  0.608316  0.391684  0.461813  1
  Os  Os12  1  0.787084  0.212916  0.918576  1
  Rh  Rh13  1  0.787262  0.212738  0.583456  1
  Rh  Rh14  1  0.211876  0.788124  0.416746  1
  Rh  Rh15  1  0.212083  0.787917  0.081451  1
