# generated using pymatgen
data_Ta4Mo2OsW
_symmetry_space_group_name_H-M   'P 1'
_cell_length_a   6.41495200
_cell_length_b   4.57854600
_cell_length_c   9.13984100
_cell_angle_alpha   90.00000000
_cell_angle_beta   90.00000000
_cell_angle_gamma   90.00000000
_symmetry_Int_Tables_number   1
_chemical_formula_structural   Ta4Mo2OsW
_chemical_formula_sum   'Ta8 Mo4 Os2 W2'
_cell_volume   268.44766676
_cell_formula_units_Z   2
loop_
 _symmetry_equiv_pos_site_id
 _symmetry_equiv_pos_as_xyz
  1  'x, y, z'
loop_
 _atom_site_type_symbol
 _atom_site_label
 _atom_site_symmetry_multiplicity
 _atom_site_fract_x
 _atom_site_fract_y
 _atom_site_fract_z
 _atom_site_occupancy
  Ta  Ta0  1  0.000350  0.750000  0.123821  1
  Ta  Ta1  1  0.499609  0.750000  0.123825  1
  Ta  Ta2  1  0.999615  0.250000  0.376173  1
  Ta  Ta3  1  0.500357  0.250000  0.376174  1
  Ta  Ta4  1  0.499996  0.750000  0.626348  1
  Ta  Ta5  1  0.000026  0.750000  0.626351  1
  Ta  Ta6  1  0.500037  0.250000  0.873654  1
  Ta  Ta7  1  0.000004  0.250000  0.873654  1
  Mo  Mo8  1  0.749980  0.250000  0.124699  1
  Mo  Mo9  1  0.249981  0.750000  0.375302  1
  Mo  Mo10  1  0.750020  0.250000  0.625893  1
  Mo  Mo11  1  0.250021  0.750000  0.874104  1
  Os  Os12  1  0.250016  0.250000  0.626434  1
  Os  Os13  1  0.750017  0.750000  0.873570  1
  W  W14  1  0.249983  0.250000  0.123670  1
  W  W15  1  0.749984  0.750000  0.376325  1
