# generated using pymatgen
data_HgP6WO18
_symmetry_space_group_name_H-M   'P 1'
_cell_length_a   6.86498700
_cell_length_b   6.86498713
_cell_length_c   10.28019200
_cell_angle_alpha   90.00000000
_cell_angle_beta   90.00000000
_cell_angle_gamma   120.00000419
_symmetry_Int_Tables_number   1
_chemical_formula_structural   HgP6WO18
_chemical_formula_sum   'Hg1 P6 W1 O18'
_cell_volume   419.57662555
_cell_formula_units_Z   1
loop_
 _symmetry_equiv_pos_site_id
 _symmetry_equiv_pos_as_xyz
  1  'x, y, z'
loop_
 _atom_site_type_symbol
 _atom_site_label
 _atom_site_symmetry_multiplicity
 _atom_site_fract_x
 _atom_site_fract_y
 _atom_site_fract_z
 _atom_site_occupancy
  Hg  Hg0  1  0.000000  0.000000  0.500000  1
  P  P1  1  0.726348  0.120260  0.765653  1
  P  P2  1  0.879740  0.273652  0.234347  1
  P  P3  1  0.726348  0.606088  0.234347  1
  P  P4  1  0.879740  0.606088  0.765653  1
  P  P5  1  0.393912  0.273652  0.765653  1
  P  P6  1  0.393912  0.120260  0.234347  1
  W  W7  1  0.000000  0.000000  0.000000  1
  O  O8  1  0.899608  0.514302  0.211187  1
  O  O9  1  0.899608  0.385307  0.788813  1
  O  O10  1  0.485698  0.100392  0.788813  1
  O  O11  1  0.614693  0.100392  0.211187  1
  O  O12  1  0.741314  0.041439  0.633987  1
  O  O13  1  0.757204  0.999755  0.881508  1
  O  O14  1  0.485698  0.385307  0.211187  1
  O  O15  1  0.741314  0.699874  0.366013  1
  O  O16  1  0.757204  0.757451  0.118492  1
  O  O17  1  0.614693  0.514302  0.788813  1
  O  O18  1  0.958561  0.258686  0.366013  1
  O  O19  1  0.000245  0.242796  0.118492  1
  O  O20  1  0.242549  0.242796  0.881508  1
  O  O21  1  0.300126  0.258686  0.633987  1
  O  O22  1  0.000245  0.757451  0.881508  1
  O  O23  1  0.958561  0.699874  0.633987  1
  O  O24  1  0.242549  0.999755  0.118492  1
  O  O25  1  0.300126  0.041439  0.366013  1
