# generated using pymatgen
data_Y5Zr2Sn23Os6
_symmetry_space_group_name_H-M   'P 1'
_cell_length_a   9.86629505
_cell_length_b   9.86747021
_cell_length_c   10.13046300
_cell_angle_alpha   90.00000000
_cell_angle_beta   89.99397210
_cell_angle_gamma   120.00393492
_symmetry_Int_Tables_number   1
_chemical_formula_structural   Y5Zr2Sn23Os6
_chemical_formula_sum   'Y5 Zr2 Sn23 Os6'
_cell_volume   854.08800889
_cell_formula_units_Z   1
loop_
 _symmetry_equiv_pos_site_id
 _symmetry_equiv_pos_as_xyz
  1  'x, y, z'
loop_
 _atom_site_type_symbol
 _atom_site_label
 _atom_site_symmetry_multiplicity
 _atom_site_fract_x
 _atom_site_fract_y
 _atom_site_fract_z
 _atom_site_occupancy
  Y  Y0  1  0.998442  0.999221  0.999938  1
  Y  Y1  1  0.516238  0.484416  0.696167  1
  Y  Y2  1  0.516238  0.031820  0.696167  1
  Y  Y3  1  0.967715  0.483857  0.694376  1
  Y  Y4  1  0.031756  0.515878  0.304905  1
  Zr  Zr5  1  0.489331  0.977496  0.302376  1
  Zr  Zr6  1  0.489331  0.511836  0.302376  1
  Sn  Sn7  1  0.666856  0.333428  0.174139  1
  Sn  Sn8  1  0.667224  0.333611  0.872704  1
  Sn  Sn9  1  0.344460  0.672231  0.139037  1
  Sn  Sn10  1  0.350683  0.349680  0.000560  1
  Sn  Sn11  1  0.998048  0.649720  0.000270  1
  Sn  Sn12  1  0.648589  0.999864  0.999388  1
  Sn  Sn13  1  0.648589  0.648725  0.999388  1
  Sn  Sn14  1  0.332210  0.666105  0.825243  1
  Sn  Sn15  1  0.440651  0.220325  0.459193  1
  Sn  Sn16  1  0.221138  0.781488  0.537005  1
  Sn  Sn17  1  0.221138  0.439649  0.537005  1
  Sn  Sn18  1  0.557530  0.778765  0.533863  1
  Sn  Sn19  1  0.118620  0.882698  0.277012  1
  Sn  Sn20  1  0.777569  0.561065  0.460163  1
  Sn  Sn21  1  0.777569  0.216505  0.460163  1
  Sn  Sn22  1  0.350683  0.001002  0.000560  1
  Sn  Sn23  1  0.118620  0.235922  0.277012  1
  Sn  Sn24  1  0.758990  0.879495  0.277811  1
  Sn  Sn25  1  0.234074  0.117036  0.723251  1
  Sn  Sn26  1  0.883239  0.766839  0.723203  1
  Sn  Sn27  1  0.883239  0.116399  0.723203  1
  Sn  Sn28  1  0.998988  0.999495  0.498296  1
  Sn  Sn29  1  0.998048  0.348329  0.000270  1
  Os  Os30  1  0.170258  0.830263  0.799974  1
  Os  Os31  1  0.170258  0.339994  0.799974  1
  Os  Os32  1  0.658551  0.829275  0.798061  1
  Os  Os33  1  0.344214  0.172108  0.202660  1
  Os  Os34  1  0.825456  0.658633  0.202143  1
  Os  Os35  1  0.825456  0.166825  0.202143  1
