# generated using pymatgen
data_HoTh3(InGa2)2
_symmetry_space_group_name_H-M   'P 1'
_cell_length_a   7.42681710
_cell_length_b   7.42681710
_cell_length_c   4.46037700
_cell_angle_alpha   90.00000000
_cell_angle_beta   90.00000000
_cell_angle_gamma   90.76638553
_symmetry_Int_Tables_number   1
_chemical_formula_structural   HoTh3(InGa2)2
_chemical_formula_sum   'Ho1 Th3 In2 Ga4'
_cell_volume   246.00173629
_cell_formula_units_Z   1
loop_
 _symmetry_equiv_pos_site_id
 _symmetry_equiv_pos_as_xyz
  1  'x, y, z'
loop_
 _atom_site_type_symbol
 _atom_site_label
 _atom_site_symmetry_multiplicity
 _atom_site_fract_x
 _atom_site_fract_y
 _atom_site_fract_z
 _atom_site_occupancy
  Ho  Ho0  1  0.674684  0.174684  0.500000  1
  Th  Th1  1  0.327581  0.827581  0.500000  1
  Th  Th2  1  0.824634  0.673855  0.500000  1
  Th  Th3  1  0.173855  0.324634  0.500000  1
  In  In4  1  0.997224  0.001772  0.000000  1
  In  In5  1  0.501772  0.497224  0.000000  1
  Ga  Ga6  1  0.122153  0.622153  0.000000  1
  Ga  Ga7  1  0.624345  0.881447  0.000000  1
  Ga  Ga8  1  0.381447  0.124345  0.000000  1
  Ga  Ga9  1  0.872305  0.372305  0.000000  1
