# generated using pymatgen
data_Mn4Al10Ga
_symmetry_space_group_name_H-M   'P 1'
_cell_length_a   5.03647933
_cell_length_b   5.05563004
_cell_length_c   8.78497470
_cell_angle_alpha   105.40872597
_cell_angle_beta   90.17481432
_cell_angle_gamma   100.62641128
_symmetry_Int_Tables_number   1
_chemical_formula_structural   Mn4Al10Ga
_chemical_formula_sum   'Mn4 Al10 Ga1'
_cell_volume   211.62934287
_cell_formula_units_Z   1
loop_
 _symmetry_equiv_pos_site_id
 _symmetry_equiv_pos_as_xyz
  1  'x, y, z'
loop_
 _atom_site_type_symbol
 _atom_site_label
 _atom_site_symmetry_multiplicity
 _atom_site_fract_x
 _atom_site_fract_y
 _atom_site_fract_z
 _atom_site_occupancy
  Mn  Mn0  1  0.285694  0.150164  0.598383  1
  Mn  Mn1  1  0.714306  0.849836  0.401617  1
  Mn  Mn2  1  0.665432  0.610459  0.866032  1
  Mn  Mn3  1  0.334568  0.389541  0.133968  1
  Al  Al4  1  0.799851  0.268137  0.632940  1
  Al  Al5  1  0.200149  0.731863  0.367060  1
  Al  Al6  1  0.156093  0.470194  0.872880  1
  Al  Al7  1  0.843907  0.529806  0.127120  1
  Al  Al8  1  0.504070  0.108259  0.874324  1
  Al  Al9  1  0.495930  0.891741  0.125676  1
  Al  Al10  1  0.565854  0.327700  0.374162  1
  Al  Al11  1  0.434146  0.672300  0.625838  1
  Al  Al12  1  0.950116  0.818867  0.674460  1
  Al  Al13  1  0.049884  0.181133  0.325540  1
  Ga  Ga14  1  0.000000  0.000000  0.000000  1
