# generated using pymatgen
data_CsTb2BiS5
_symmetry_space_group_name_H-M   'P 1'
_cell_length_a   4.05328700
_cell_length_b   12.24682300
_cell_length_c   21.65938300
_cell_angle_alpha   90.00000000
_cell_angle_beta   90.00000000
_cell_angle_gamma   90.00000000
_symmetry_Int_Tables_number   1
_chemical_formula_structural   CsTb2BiS5
_chemical_formula_sum   'Cs4 Tb8 Bi4 S20'
_cell_volume   1075.16935617
_cell_formula_units_Z   4
loop_
 _symmetry_equiv_pos_site_id
 _symmetry_equiv_pos_as_xyz
  1  'x, y, z'
loop_
 _atom_site_type_symbol
 _atom_site_label
 _atom_site_symmetry_multiplicity
 _atom_site_fract_x
 _atom_site_fract_y
 _atom_site_fract_z
 _atom_site_occupancy
  Cs  Cs0  1  0.250000  0.852152  0.093295  1
  Cs  Cs1  1  0.750000  0.147848  0.906705  1
  Cs  Cs2  1  0.750000  0.352152  0.406705  1
  Cs  Cs3  1  0.250000  0.647848  0.593295  1
  Tb  Tb4  1  0.250000  0.958401  0.695440  1
  Tb  Tb5  1  0.750000  0.041599  0.304560  1
  Tb  Tb6  1  0.750000  0.458401  0.804560  1
  Tb  Tb7  1  0.250000  0.541599  0.195440  1
  Tb  Tb8  1  0.750000  0.391378  0.052919  1
  Tb  Tb9  1  0.250000  0.608622  0.947081  1
  Tb  Tb10  1  0.250000  0.891378  0.447081  1
  Tb  Tb11  1  0.750000  0.108622  0.552919  1
  Bi  Bi12  1  0.750000  0.799213  0.824943  1
  Bi  Bi13  1  0.250000  0.200787  0.175057  1
  Bi  Bi14  1  0.250000  0.299213  0.675057  1
  Bi  Bi15  1  0.750000  0.700787  0.324943  1
  S  S16  1  0.250000  0.952461  0.568024  1
  S  S17  1  0.750000  0.047539  0.431976  1
  S  S18  1  0.750000  0.452461  0.931976  1
  S  S19  1  0.250000  0.547539  0.068024  1
  S  S20  1  0.750000  0.759994  0.954975  1
  S  S21  1  0.250000  0.240006  0.045025  1
  S  S22  1  0.250000  0.259994  0.545025  1
  S  S23  1  0.750000  0.740006  0.454975  1
  S  S24  1  0.250000  0.951322  0.824071  1
  S  S25  1  0.750000  0.048678  0.175929  1
  S  S26  1  0.750000  0.451322  0.675929  1
  S  S27  1  0.250000  0.548678  0.324071  1
  S  S28  1  0.750000  0.118229  0.681673  1
  S  S29  1  0.250000  0.881771  0.318327  1
  S  S30  1  0.250000  0.618229  0.818327  1
  S  S31  1  0.750000  0.381771  0.181673  1
  S  S32  1  0.750000  0.687432  0.196133  1
  S  S33  1  0.250000  0.312568  0.803867  1
  S  S34  1  0.250000  0.187432  0.303867  1
  S  S35  1  0.750000  0.812568  0.696133  1
