# generated using pymatgen
data_Tm4IrPb2Au3
_symmetry_space_group_name_H-M   'P 1'
_cell_length_a   8.07829212
_cell_length_b   8.07829345
_cell_length_c   3.57718000
_cell_angle_alpha   90.00000000
_cell_angle_beta   90.00000000
_cell_angle_gamma   90.14478770
_symmetry_Int_Tables_number   1
_chemical_formula_structural   Tm4IrPb2Au3
_chemical_formula_sum   'Tm4 Ir1 Pb2 Au3'
_cell_volume   233.44178007
_cell_formula_units_Z   1
loop_
 _symmetry_equiv_pos_site_id
 _symmetry_equiv_pos_as_xyz
  1  'x, y, z'
loop_
 _atom_site_type_symbol
 _atom_site_label
 _atom_site_symmetry_multiplicity
 _atom_site_fract_x
 _atom_site_fract_y
 _atom_site_fract_z
 _atom_site_occupancy
  Tm  Tm0  1  0.316965  0.816965  0.500000  1
  Tm  Tm1  1  0.666107  0.166107  0.500000  1
  Tm  Tm2  1  0.171802  0.352688  0.500000  1
  Tm  Tm3  1  0.852688  0.671802  0.500000  1
  Ir  Ir4  1  0.124984  0.624984  0.000000  1
  Pb  Pb5  1  0.497383  0.503205  0.000000  1
  Pb  Pb6  1  0.003205  0.997383  0.000000  1
  Au  Au7  1  0.871474  0.371474  0.000000  1
  Au  Au8  1  0.624047  0.871345  0.000000  1
  Au  Au9  1  0.371345  0.124047  0.000000  1
