# generated using pymatgen
data_KNb8VTe16
_symmetry_space_group_name_H-M   'P 1'
_cell_length_a   7.52949000
_cell_length_b   7.52949220
_cell_length_c   16.01656200
_cell_angle_alpha   90.00000000
_cell_angle_beta   90.00000000
_cell_angle_gamma   120.00000792
_symmetry_Int_Tables_number   1
_chemical_formula_structural   KNb8VTe16
_chemical_formula_sum   'K1 Nb8 V1 Te16'
_cell_volume   786.37761913
_cell_formula_units_Z   1
loop_
 _symmetry_equiv_pos_site_id
 _symmetry_equiv_pos_as_xyz
  1  'x, y, z'
loop_
 _atom_site_type_symbol
 _atom_site_label
 _atom_site_symmetry_multiplicity
 _atom_site_fract_x
 _atom_site_fract_y
 _atom_site_fract_z
 _atom_site_occupancy
  K  K0  1  0.000000  0.000000  0.000000  1
  Nb  Nb1  1  0.000000  0.000000  0.285533  1
  Nb  Nb2  1  0.000000  0.000000  0.714467  1
  Nb  Nb3  1  0.509914  0.019827  0.285875  1
  Nb  Nb4  1  0.490086  0.980173  0.714125  1
  Nb  Nb5  1  0.980173  0.490086  0.285875  1
  Nb  Nb6  1  0.019827  0.509914  0.714125  1
  Nb  Nb7  1  0.509914  0.490086  0.285875  1
  Nb  Nb8  1  0.490086  0.509914  0.714125  1
  V  V9  1  0.000000  0.000000  0.500000  1
  Te  Te10  1  0.333333  0.666667  0.596041  1
  Te  Te11  1  0.666667  0.333333  0.403959  1
  Te  Te12  1  0.666667  0.333333  0.166067  1
  Te  Te13  1  0.333333  0.666667  0.833933  1
  Te  Te14  1  0.168247  0.336495  0.174160  1
  Te  Te15  1  0.831753  0.663505  0.825840  1
  Te  Te16  1  0.663505  0.831753  0.174160  1
  Te  Te17  1  0.832502  0.665004  0.604634  1
  Te  Te18  1  0.336495  0.168247  0.825840  1
  Te  Te19  1  0.167498  0.334996  0.395366  1
  Te  Te20  1  0.168247  0.831753  0.174160  1
  Te  Te21  1  0.334996  0.167498  0.604634  1
  Te  Te22  1  0.831753  0.168247  0.825840  1
  Te  Te23  1  0.665004  0.832502  0.395366  1
  Te  Te24  1  0.832502  0.167498  0.604634  1
  Te  Te25  1  0.167498  0.832502  0.395366  1
