# generated using pymatgen
data_Er3(PaH6)5
_symmetry_space_group_name_H-M   'P 1'
_cell_length_a   7.55067489
_cell_length_b   7.54567676
_cell_length_c   7.53787487
_cell_angle_alpha   109.59067145
_cell_angle_beta   109.39596832
_cell_angle_gamma   109.49215334
_symmetry_Int_Tables_number   1
_chemical_formula_structural   Er3(PaH6)5
_chemical_formula_sum   'Er3 Pa5 H30'
_cell_volume   330.33948002
_cell_formula_units_Z   1
loop_
 _symmetry_equiv_pos_site_id
 _symmetry_equiv_pos_as_xyz
  1  'x, y, z'
loop_
 _atom_site_type_symbol
 _atom_site_label
 _atom_site_symmetry_multiplicity
 _atom_site_fract_x
 _atom_site_fract_y
 _atom_site_fract_z
 _atom_site_occupancy
  Er  Er0  1  0.581355  0.493408  0.994637  1
  Er  Er1  1  0.500937  0.005571  0.587167  1
  Er  Er2  1  0.418887  0.418362  0.418599  1
  Pa  Pa3  1  0.915120  0.916896  0.916378  1
  Pa  Pa4  1  0.499220  0.001490  0.083498  1
  Pa  Pa5  1  0.002154  0.082052  0.499767  1
  Pa  Pa6  1  0.084510  0.500722  0.003170  1
  Pa  Pa7  1  0.999528  0.582152  0.497686  1
  H  H8  1  0.654392  0.970703  0.370536  1
  H  H9  1  0.218660  0.317897  0.848114  1
  H  H10  1  0.181955  0.402156  0.530693  1
  H  H11  1  0.093269  0.277992  0.124144  1
  H  H12  1  0.278244  0.124507  0.093833  1
  H  H13  1  0.123975  0.093469  0.278146  1
  H  H14  1  0.466218  0.153617  0.877211  1
  H  H15  1  0.723869  0.345701  0.814220  1
  H  H16  1  0.631163  0.372212  0.251442  1
  H  H17  1  0.241393  0.621280  0.371103  1
  H  H18  1  0.753009  0.882823  0.129225  1
  H  H19  1  0.124512  0.749720  0.875362  1
  H  H20  1  0.364199  0.245342  0.620104  1
  H  H21  1  0.883144  0.128984  0.753460  1
  H  H22  1  0.782607  0.597494  0.630086  1
  H  H23  1  0.317576  0.849474  0.219636  1
  H  H24  1  0.370280  0.653579  0.969925  1
  H  H25  1  0.968913  0.370678  0.652003  1
  H  H26  1  0.530949  0.184120  0.400556  1
  H  H27  1  0.399436  0.528853  0.183149  1
  H  H28  1  0.850481  0.219542  0.317931  1
  H  H29  1  0.907647  0.687384  0.032476  1
  H  H30  1  0.815247  0.717429  0.345594  1
  H  H31  1  0.150839  0.869633  0.465340  1
  H  H32  1  0.685616  0.034009  0.906372  1
  H  H33  1  0.344544  0.812772  0.719597  1
  H  H34  1  0.873516  0.466676  0.152241  1
  H  H35  1  0.631157  0.786757  0.598757  1
  H  H36  1  0.597917  0.631472  0.784337  1
  H  H37  1  0.033561  0.903071  0.683505  1
