# generated using pymatgen
data_LaCe3(Cu5Au)4
_symmetry_space_group_name_H-M   'P 1'
_cell_length_a   5.16057100
_cell_length_b   8.25569572
_cell_length_c   10.37326700
_cell_angle_alpha   89.97604954
_cell_angle_beta   90.00000000
_cell_angle_gamma   90.00000000
_symmetry_Int_Tables_number   1
_chemical_formula_structural   LaCe3(Cu5Au)4
_chemical_formula_sum   'La1 Ce3 Cu20 Au4'
_cell_volume   441.94370669
_cell_formula_units_Z   1
loop_
 _symmetry_equiv_pos_site_id
 _symmetry_equiv_pos_as_xyz
  1  'x, y, z'
loop_
 _atom_site_type_symbol
 _atom_site_label
 _atom_site_symmetry_multiplicity
 _atom_site_fract_x
 _atom_site_fract_y
 _atom_site_fract_z
 _atom_site_occupancy
  La  La0  1  0.250000  0.260360  0.563294  1
  Ce  Ce1  1  0.750000  0.739604  0.435899  1
  Ce  Ce2  1  0.250000  0.760021  0.937316  1
  Ce  Ce3  1  0.750000  0.240028  0.063096  1
  Cu  Cu4  1  0.501264  0.565438  0.185648  1
  Cu  Cu5  1  0.000526  0.435473  0.814758  1
  Cu  Cu6  1  0.998344  0.064956  0.311892  1
  Cu  Cu7  1  0.498704  0.933488  0.687887  1
  Cu  Cu8  1  0.499474  0.435473  0.814758  1
  Cu  Cu9  1  0.998736  0.565438  0.185648  1
  Cu  Cu10  1  0.001296  0.933488  0.687887  1
  Cu  Cu11  1  0.501656  0.064956  0.311892  1
  Cu  Cu12  1  0.750000  0.940684  0.893451  1
  Cu  Cu13  1  0.250000  0.056879  0.106928  1
  Cu  Cu14  1  0.750000  0.444319  0.608288  1
  Cu  Cu15  1  0.250000  0.560383  0.391696  1
  Cu  Cu16  1  0.750000  0.685015  0.752627  1
  Cu  Cu17  1  0.250000  0.315139  0.246526  1
  Cu  Cu18  1  0.750000  0.184258  0.749585  1
  Cu  Cu19  1  0.250000  0.815158  0.250321  1
  Cu  Cu20  1  0.750000  0.592888  0.983292  1
  Cu  Cu21  1  0.250000  0.411077  0.016313  1
  Cu  Cu22  1  0.750000  0.087442  0.516197  1
  Cu  Cu23  1  0.250000  0.906665  0.482697  1
  Au  Au24  1  0.250000  0.139565  0.863222  1
  Au  Au25  1  0.750000  0.859651  0.138671  1
  Au  Au26  1  0.250000  0.642513  0.640092  1
  Au  Au27  1  0.750000  0.359633  0.360123  1
