# generated using pymatgen
data_Tb4Dy3Lu(CdPt)2
_symmetry_space_group_name_H-M   'P 1'
_cell_length_a   9.68559856
_cell_length_b   9.67021978
_cell_length_c   9.69470615
_cell_angle_alpha   60.02126642
_cell_angle_beta   59.86394081
_cell_angle_gamma   60.11478411
_symmetry_Int_Tables_number   1
_chemical_formula_structural   Tb4Dy3Lu(CdPt)2
_chemical_formula_sum   'Tb8 Dy6 Lu2 Cd4 Pt4'
_cell_volume   642.06379895
_cell_formula_units_Z   2
loop_
 _symmetry_equiv_pos_site_id
 _symmetry_equiv_pos_as_xyz
  1  'x, y, z'
loop_
 _atom_site_type_symbol
 _atom_site_label
 _atom_site_symmetry_multiplicity
 _atom_site_fract_x
 _atom_site_fract_y
 _atom_site_fract_z
 _atom_site_occupancy
  Tb  Tb0  1  0.188317  0.188317  0.811683  1
  Tb  Tb1  1  0.811683  0.811683  0.188317  1
  Tb  Tb2  1  0.936035  0.563965  0.563965  1
  Tb  Tb3  1  0.563965  0.936035  0.936035  1
  Tb  Tb4  1  0.564063  0.935937  0.564063  1
  Tb  Tb5  1  0.935937  0.564063  0.935937  1
  Tb  Tb6  1  0.563760  0.563760  0.936240  1
  Tb  Tb7  1  0.936240  0.936240  0.563760  1
  Dy  Dy8  1  0.351469  0.352696  0.351634  1
  Dy  Dy9  1  0.352696  0.351469  0.944200  1
  Dy  Dy10  1  0.351634  0.944200  0.351469  1
  Dy  Dy11  1  0.944200  0.351634  0.352696  1
  Dy  Dy12  1  0.810726  0.189274  0.189274  1
  Dy  Dy13  1  0.189274  0.810726  0.810726  1
  Lu  Lu14  1  0.189925  0.810075  0.189925  1
  Lu  Lu15  1  0.810075  0.189925  0.810075  1
  Cd  Cd16  1  0.581121  0.580853  0.581965  1
  Cd  Cd17  1  0.580853  0.581121  0.256060  1
  Cd  Cd18  1  0.581965  0.256060  0.581121  1
  Cd  Cd19  1  0.256060  0.581965  0.580853  1
  Pt  Pt20  1  0.142952  0.140375  0.145392  1
  Pt  Pt21  1  0.140375  0.142952  0.571282  1
  Pt  Pt22  1  0.145392  0.571282  0.142952  1
  Pt  Pt23  1  0.571282  0.145392  0.140375  1
