# generated using pymatgen
data_Y3Mg3Hg2Ir
_symmetry_space_group_name_H-M   'P 1'
_cell_length_a   7.98839200
_cell_length_b   7.98839078
_cell_length_c   3.86478000
_cell_angle_alpha   90.00000000
_cell_angle_beta   90.00000000
_cell_angle_gamma   120.00000505
_symmetry_Int_Tables_number   1
_chemical_formula_structural   Y3Mg3Hg2Ir
_chemical_formula_sum   'Y3 Mg3 Hg2 Ir1'
_cell_volume   213.58662660
_cell_formula_units_Z   1
loop_
 _symmetry_equiv_pos_site_id
 _symmetry_equiv_pos_as_xyz
  1  'x, y, z'
loop_
 _atom_site_type_symbol
 _atom_site_label
 _atom_site_symmetry_multiplicity
 _atom_site_fract_x
 _atom_site_fract_y
 _atom_site_fract_z
 _atom_site_occupancy
  Y  Y0  1  0.430308  0.394488  0.500000  1
  Y  Y1  1  0.964180  0.569692  0.500000  1
  Y  Y2  1  0.605512  0.035820  0.500000  1
  Mg  Mg3  1  0.735463  0.735105  0.000000  1
  Mg  Mg4  1  0.264895  0.000359  0.000000  1
  Mg  Mg5  1  0.999641  0.264537  0.000000  1
  Hg  Hg6  1  0.333333  0.666667  0.000000  1
  Hg  Hg7  1  0.000000  0.000000  0.500000  1
  Ir  Ir8  1  0.666667  0.333333  0.000000  1
