# generated using pymatgen
data_Ce5Er11(CdRu)4
_symmetry_space_group_name_H-M   'P 1'
_cell_length_a   9.50429842
_cell_length_b   9.58900318
_cell_length_c   9.58900419
_cell_angle_alpha   59.96251967
_cell_angle_beta   60.29179110
_cell_angle_gamma   60.29178035
_symmetry_Int_Tables_number   1
_chemical_formula_structural   Ce5Er11(CdRu)4
_chemical_formula_sum   'Ce5 Er11 Cd4 Ru4'
_cell_volume   620.48197597
_cell_formula_units_Z   1
loop_
 _symmetry_equiv_pos_site_id
 _symmetry_equiv_pos_as_xyz
  1  'x, y, z'
loop_
 _atom_site_type_symbol
 _atom_site_label
 _atom_site_symmetry_multiplicity
 _atom_site_fract_x
 _atom_site_fract_y
 _atom_site_fract_z
 _atom_site_occupancy
  Ce  Ce0  1  0.592958  0.599215  0.599215  1
  Ce  Ce1  1  0.597326  0.597870  0.207480  1
  Ce  Ce2  1  0.597326  0.207480  0.597870  1
  Ce  Ce3  1  0.208614  0.599215  0.599215  1
  Ce  Ce4  1  0.064528  0.435472  0.435472  1
  Er  Er5  1  0.437221  0.062779  0.062779  1
  Er  Er6  1  0.442302  0.058288  0.437527  1
  Er  Er7  1  0.061883  0.437527  0.058288  1
  Er  Er8  1  0.442302  0.437527  0.058288  1
  Er  Er9  1  0.061883  0.058288  0.437527  1
  Er  Er10  1  0.184918  0.815082  0.815082  1
  Er  Er11  1  0.814186  0.185814  0.185814  1
  Er  Er12  1  0.811768  0.186568  0.813015  1
  Er  Er13  1  0.188649  0.813015  0.186568  1
  Er  Er14  1  0.811768  0.813015  0.186568  1
  Er  Er15  1  0.188649  0.186568  0.813015  1
  Cd  Cd16  1  0.831677  0.831484  0.831484  1
  Cd  Cd17  1  0.831171  0.832575  0.505083  1
  Cd  Cd18  1  0.831171  0.505083  0.832575  1
  Cd  Cd19  1  0.505354  0.831484  0.831484  1
  Ru  Ru20  1  0.370430  0.399221  0.399221  1
  Ru  Ru21  1  0.396394  0.392512  0.814699  1
  Ru  Ru22  1  0.396394  0.814699  0.392512  1
  Ru  Ru23  1  0.831128  0.399221  0.399221  1
