# generated using pymatgen
data_Nd7Ho9(ErSn4)4
_symmetry_space_group_name_H-M   'P 1'
_cell_length_a   8.30238699
_cell_length_b   8.30767703
_cell_length_c   15.36022400
_cell_angle_alpha   90.00571049
_cell_angle_beta   89.87114906
_cell_angle_gamma   90.07433180
_symmetry_Int_Tables_number   1
_chemical_formula_structural   Nd7Ho9(ErSn4)4
_chemical_formula_sum   'Nd7 Ho9 Er4 Sn16'
_cell_volume   1059.44559833
_cell_formula_units_Z   1
loop_
 _symmetry_equiv_pos_site_id
 _symmetry_equiv_pos_as_xyz
  1  'x, y, z'
loop_
 _atom_site_type_symbol
 _atom_site_label
 _atom_site_symmetry_multiplicity
 _atom_site_fract_x
 _atom_site_fract_y
 _atom_site_fract_z
 _atom_site_occupancy
  Nd  Nd0  1  0.350181  0.998461  0.965848  1
  Nd  Nd1  1  0.001273  0.651546  0.533271  1
  Nd  Nd2  1  0.500693  0.850591  0.216533  1
  Nd  Nd3  1  0.500452  0.148671  0.715270  1
  Nd  Nd4  1  0.851467  0.500016  0.784109  1
  Nd  Nd5  1  0.148108  0.499477  0.285005  1
  Nd  Nd6  1  0.998602  0.349714  0.034401  1
  Ho  Ho7  1  0.496509  0.340740  0.121866  1
  Ho  Ho8  1  0.998243  0.156889  0.627587  1
  Ho  Ho9  1  0.842091  0.002766  0.871381  1
  Ho  Ho10  1  0.158017  0.998446  0.371812  1
  Ho  Ho11  1  0.505508  0.658445  0.619844  1
  Ho  Ho12  1  0.341614  0.496501  0.878190  1
  Ho  Ho13  1  0.658892  0.504068  0.378608  1
  Ho  Ho14  1  0.000900  0.841236  0.129858  1
  Ho  Ho15  1  0.645423  0.004197  0.465298  1
  Er  Er16  1  0.326624  0.325877  0.499688  1
  Er  Er17  1  0.175353  0.825494  0.749526  1
  Er  Er18  1  0.824934  0.173894  0.250550  1
  Er  Er19  1  0.673657  0.673514  0.000314  1
  Sn  Sn20  1  0.295146  0.961751  0.567575  1
  Sn  Sn21  1  0.707629  0.038170  0.068533  1
  Sn  Sn22  1  0.959963  0.291874  0.431743  1
  Sn  Sn23  1  0.463005  0.207154  0.319868  1
  Sn  Sn24  1  0.539308  0.790951  0.818232  1
  Sn  Sn25  1  0.209609  0.461373  0.680677  1
  Sn  Sn26  1  0.790393  0.538624  0.181823  1
  Sn  Sn27  1  0.039239  0.707892  0.931729  1
  Sn  Sn28  1  0.804406  0.859501  0.675138  1
  Sn  Sn29  1  0.195141  0.139876  0.175419  1
  Sn  Sn30  1  0.855821  0.808617  0.328266  1
  Sn  Sn31  1  0.361267  0.698423  0.424596  1
  Sn  Sn32  1  0.640130  0.303140  0.925259  1
  Sn  Sn33  1  0.696521  0.356768  0.573232  1
  Sn  Sn34  1  0.302827  0.639949  0.074984  1
  Sn  Sn35  1  0.141052  0.195392  0.823965  1
