# generated using pymatgen
data_CaFe3As12Ir
_symmetry_space_group_name_H-M   'P 1'
_cell_length_a   7.29329426
_cell_length_b   7.29329254
_cell_length_c   7.29329433
_cell_angle_alpha   109.52560499
_cell_angle_beta   109.52560301
_cell_angle_gamma   109.52560816
_symmetry_Int_Tables_number   1
_chemical_formula_structural   CaFe3As12Ir
_chemical_formula_sum   'Ca1 Fe3 As12 Ir1'
_cell_volume   298.03801235
_cell_formula_units_Z   1
loop_
 _symmetry_equiv_pos_site_id
 _symmetry_equiv_pos_as_xyz
  1  'x, y, z'
loop_
 _atom_site_type_symbol
 _atom_site_label
 _atom_site_symmetry_multiplicity
 _atom_site_fract_x
 _atom_site_fract_y
 _atom_site_fract_z
 _atom_site_occupancy
  Ca  Ca0  1  0.000000  0.000000  0.000000  1
  Fe  Fe1  1  0.500000  0.000000  0.000000  1
  Fe  Fe2  1  0.000000  0.500000  0.000000  1
  Fe  Fe3  1  0.000000  0.000000  0.500000  1
  As  As4  1  0.858348  0.662014  0.502426  1
  As  As5  1  0.141652  0.337986  0.497574  1
  As  As6  1  0.155970  0.659444  0.814387  1
  As  As7  1  0.844030  0.340556  0.185613  1
  As  As8  1  0.662014  0.502426  0.858348  1
  As  As9  1  0.337986  0.497574  0.141652  1
  As  As10  1  0.659444  0.814387  0.155970  1
  As  As11  1  0.340556  0.185613  0.844030  1
  As  As12  1  0.502426  0.858348  0.662014  1
  As  As13  1  0.497574  0.141652  0.337986  1
  As  As14  1  0.185613  0.844030  0.340556  1
  As  As15  1  0.814387  0.155970  0.659444  1
  Ir  Ir16  1  0.500000  0.500000  0.500000  1
