# generated using pymatgen
data_ThNp2(InPt)3
_symmetry_space_group_name_H-M   'P 1'
_cell_length_a   7.64037906
_cell_length_b   7.60737117
_cell_length_c   4.08255700
_cell_angle_alpha   90.00000000
_cell_angle_beta   90.00000000
_cell_angle_gamma   119.85719407
_symmetry_Int_Tables_number   1
_chemical_formula_structural   ThNp2(InPt)3
_chemical_formula_sum   'Th1 Np2 In3 Pt3'
_cell_volume   205.79534939
_cell_formula_units_Z   1
loop_
 _symmetry_equiv_pos_site_id
 _symmetry_equiv_pos_as_xyz
  1  'x, y, z'
loop_
 _atom_site_type_symbol
 _atom_site_label
 _atom_site_symmetry_multiplicity
 _atom_site_fract_x
 _atom_site_fract_y
 _atom_site_fract_z
 _atom_site_occupancy
  Th  Th0  1  0.000000  0.588148  0.500000  1
  Np  Np1  1  0.581693  0.997014  0.500000  1
  Np  Np2  1  0.418307  0.415321  0.500000  1
  In  In3  1  0.000000  0.246382  0.000000  1
  In  In4  1  0.256323  0.006794  0.000000  1
  In  In5  1  0.743677  0.750472  0.000000  1
  Pt  Pt6  1  0.000000  0.995197  0.500000  1
  Pt  Pt7  1  0.668253  0.334463  0.000000  1
  Pt  Pt8  1  0.331747  0.666211  0.000000  1
