# generated using pymatgen
data_Er3Pa(ReN3)4
_symmetry_space_group_name_H-M   'P 1'
_cell_length_a   5.34258682
_cell_length_b   5.66842169
_cell_length_c   7.72915100
_cell_angle_alpha   90.00000000
_cell_angle_beta   90.00000000
_cell_angle_gamma   89.77318980
_symmetry_Int_Tables_number   1
_chemical_formula_structural   Er3Pa(ReN3)4
_chemical_formula_sum   'Er3 Pa1 Re4 N12'
_cell_volume   234.06804521
_cell_formula_units_Z   1
loop_
 _symmetry_equiv_pos_site_id
 _symmetry_equiv_pos_as_xyz
  1  'x, y, z'
loop_
 _atom_site_type_symbol
 _atom_site_label
 _atom_site_symmetry_multiplicity
 _atom_site_fract_x
 _atom_site_fract_y
 _atom_site_fract_z
 _atom_site_occupancy
  Er  Er0  1  0.017012  0.929705  0.250000  1
  Er  Er1  1  0.514553  0.568220  0.750000  1
  Er  Er2  1  0.985210  0.068276  0.750000  1
  Pa  Pa3  1  0.479189  0.427515  0.250000  1
  Re  Re4  1  0.499866  0.001075  0.506593  1
  Re  Re5  1  0.991562  0.501446  0.994540  1
  Re  Re6  1  0.991562  0.501446  0.505460  1
  Re  Re7  1  0.499866  0.001075  0.993407  1
  N  N8  1  0.695860  0.296001  0.547291  1
  N  N9  1  0.313945  0.693325  0.054954  1
  N  N10  1  0.196155  0.201319  0.051302  1
  N  N11  1  0.413155  0.979915  0.750000  1
  N  N12  1  0.898431  0.528594  0.250000  1
  N  N13  1  0.313945  0.693325  0.445046  1
  N  N14  1  0.804441  0.795782  0.951404  1
  N  N15  1  0.695860  0.296001  0.952709  1
  N  N16  1  0.804441  0.795782  0.548596  1
  N  N17  1  0.087221  0.481761  0.750000  1
  N  N18  1  0.196155  0.201319  0.448698  1
  N  N19  1  0.601569  0.038121  0.250000  1
