# generated using pymatgen
data_U4NbTc2WC8
_symmetry_space_group_name_H-M   'P 1'
_cell_length_a   3.21559800
_cell_length_b   5.64714907
_cell_length_c   11.08860803
_cell_angle_alpha   89.88056445
_cell_angle_beta   90.00000000
_cell_angle_gamma   90.00000000
_symmetry_Int_Tables_number   1
_chemical_formula_structural   U4NbTc2WC8
_chemical_formula_sum   'U4 Nb1 Tc2 W1 C8'
_cell_volume   201.35716589
_cell_formula_units_Z   1
loop_
 _symmetry_equiv_pos_site_id
 _symmetry_equiv_pos_as_xyz
  1  'x, y, z'
loop_
 _atom_site_type_symbol
 _atom_site_label
 _atom_site_symmetry_multiplicity
 _atom_site_fract_x
 _atom_site_fract_y
 _atom_site_fract_z
 _atom_site_occupancy
  U  U0  1  0.250000  0.079809  0.856242  1
  U  U1  1  0.250000  0.579061  0.645023  1
  U  U2  1  0.750000  0.917858  0.139905  1
  U  U3  1  0.750000  0.419165  0.359079  1
  Nb  Nb4  1  0.250000  0.921157  0.399554  1
  Tc  Tc5  1  0.750000  0.579412  0.898051  1
  Tc  Tc6  1  0.750000  0.078160  0.603006  1
  W  W7  1  0.250000  0.419659  0.099102  1
  C  C8  1  0.250000  0.166574  0.239552  1
  C  C9  1  0.250000  0.658378  0.253697  1
  C  C10  1  0.750000  0.841770  0.755497  1
  C  C11  1  0.750000  0.341663  0.746292  1
  C  C12  1  0.250000  0.748298  0.991932  1
  C  C13  1  0.250000  0.252691  0.509705  1
  C  C14  1  0.750000  0.251539  0.005252  1
  C  C15  1  0.750000  0.744803  0.498113  1
