# generated using pymatgen
data_La10Si3AsC4
_symmetry_space_group_name_H-M   'P 1'
_cell_length_a   8.17006120
_cell_length_b   12.94137658
_cell_length_c   4.29554100
_cell_angle_alpha   90.00000000
_cell_angle_beta   90.00000000
_cell_angle_gamma   90.15272265
_symmetry_Int_Tables_number   1
_chemical_formula_structural   La10Si3AsC4
_chemical_formula_sum   'La10 Si3 As1 C4'
_cell_volume   454.17383465
_cell_formula_units_Z   1
loop_
 _symmetry_equiv_pos_site_id
 _symmetry_equiv_pos_as_xyz
  1  'x, y, z'
loop_
 _atom_site_type_symbol
 _atom_site_label
 _atom_site_symmetry_multiplicity
 _atom_site_fract_x
 _atom_site_fract_y
 _atom_site_fract_z
 _atom_site_occupancy
  La  La0  1  0.500103  0.997376  0.000000  1
  La  La1  1  0.173753  0.212582  0.000000  1
  La  La2  1  0.678625  0.287805  0.000000  1
  La  La3  1  0.000913  0.500082  0.000000  1
  La  La4  1  0.323247  0.713500  0.000000  1
  La  La5  1  0.823066  0.787525  0.000000  1
  La  La6  1  0.832444  0.061166  0.499998  1
  La  La7  1  0.332539  0.440042  0.499998  1
  La  La8  1  0.667302  0.560850  0.499998  1
  La  La9  1  0.167527  0.938482  0.499998  1
  Si  Si10  1  0.955652  0.328661  0.499998  1
  Si  Si11  1  0.044040  0.670786  0.499998  1
  Si  Si12  1  0.544382  0.830024  0.499998  1
  As  As13  1  0.455391  0.171616  0.499998  1
  C  C14  1  0.042340  0.046351  0.000000  1
  C  C15  1  0.541916  0.453534  0.000000  1
  C  C16  1  0.457934  0.545915  0.000000  1
  C  C17  1  0.958830  0.953702  0.000000  1
