# generated using pymatgen
data_Pa2Al2OsPt
_symmetry_space_group_name_H-M   'P 1'
_cell_length_a   7.13123800
_cell_length_b   7.13123690
_cell_length_c   8.04825100
_cell_angle_alpha   90.00000000
_cell_angle_beta   90.00000000
_cell_angle_gamma   120.00000510
_symmetry_Int_Tables_number   1
_chemical_formula_structural   Pa2Al2OsPt
_chemical_formula_sum   'Pa6 Al6 Os3 Pt3'
_cell_volume   354.45566083
_cell_formula_units_Z   3
loop_
 _symmetry_equiv_pos_site_id
 _symmetry_equiv_pos_as_xyz
  1  'x, y, z'
loop_
 _atom_site_type_symbol
 _atom_site_label
 _atom_site_symmetry_multiplicity
 _atom_site_fract_x
 _atom_site_fract_y
 _atom_site_fract_z
 _atom_site_occupancy
  Pa  Pa0  1  0.996582  0.577308  0.745799  1
  Pa  Pa1  1  0.996334  0.577193  0.254192  1
  Pa  Pa2  1  0.580860  0.003666  0.254192  1
  Pa  Pa3  1  0.580726  0.003418  0.745799  1
  Pa  Pa4  1  0.422807  0.419140  0.254192  1
  Pa  Pa5  1  0.422692  0.419274  0.745799  1
  Al  Al6  1  0.001801  0.242058  0.499996  1
  Al  Al7  1  0.761133  0.755670  0.999974  1
  Al  Al8  1  0.994537  0.238867  0.999974  1
  Al  Al9  1  0.240258  0.998199  0.499996  1
  Al  Al10  1  0.244330  0.005463  0.999974  1
  Al  Al11  1  0.757942  0.759742  0.499996  1
  Os  Os12  1  0.333333  0.666667  0.499988  1
  Os  Os13  1  0.666667  0.333333  0.500132  1
  Os  Os14  1  0.666667  0.333333  0.999852  1
  Pt  Pt15  1  0.000000  0.000000  0.249525  1
  Pt  Pt16  1  0.000000  0.000000  0.750433  1
  Pt  Pt17  1  0.333333  0.666667  0.000191  1
