# generated using pymatgen
data_Er3TiFe5(CoP2)3
_symmetry_space_group_name_H-M   'P 1'
_cell_length_a   3.72380500
_cell_length_b   10.59115500
_cell_length_c   12.23512400
_cell_angle_alpha   90.00000000
_cell_angle_beta   90.00000000
_cell_angle_gamma   90.00000000
_symmetry_Int_Tables_number   1
_chemical_formula_structural   Er3TiFe5(CoP2)3
_chemical_formula_sum   'Er6 Ti2 Fe10 Co6 P12'
_cell_volume   482.54589987
_cell_formula_units_Z   2
loop_
 _symmetry_equiv_pos_site_id
 _symmetry_equiv_pos_as_xyz
  1  'x, y, z'
loop_
 _atom_site_type_symbol
 _atom_site_label
 _atom_site_symmetry_multiplicity
 _atom_site_fract_x
 _atom_site_fract_y
 _atom_site_fract_z
 _atom_site_occupancy
  Er  Er0  1  0.750000  0.250000  0.473287  1
  Er  Er1  1  0.250000  0.750000  0.526713  1
  Er  Er2  1  0.250000  0.926511  0.792101  1
  Er  Er3  1  0.250000  0.573489  0.792101  1
  Er  Er4  1  0.750000  0.073489  0.207899  1
  Er  Er5  1  0.750000  0.426511  0.207899  1
  Ti  Ti6  1  0.250000  0.250000  0.847670  1
  Ti  Ti7  1  0.750000  0.750000  0.152330  1
  Fe  Fe8  1  0.750000  0.250000  0.011149  1
  Fe  Fe9  1  0.250000  0.750000  0.988851  1
  Fe  Fe10  1  0.250000  0.422768  0.002205  1
  Fe  Fe11  1  0.250000  0.077232  0.002205  1
  Fe  Fe12  1  0.750000  0.577232  0.997795  1
  Fe  Fe13  1  0.750000  0.922768  0.997795  1
  Fe  Fe14  1  0.250000  0.452558  0.569179  1
  Fe  Fe15  1  0.250000  0.047442  0.569179  1
  Fe  Fe16  1  0.750000  0.547442  0.430821  1
  Fe  Fe17  1  0.750000  0.952558  0.430821  1
  Co  Co18  1  0.250000  0.250000  0.297435  1
  Co  Co19  1  0.750000  0.750000  0.702565  1
  Co  Co20  1  0.250000  0.870270  0.294560  1
  Co  Co21  1  0.250000  0.629730  0.294560  1
  Co  Co22  1  0.750000  0.129730  0.705440  1
  Co  Co23  1  0.750000  0.370270  0.705440  1
  P  P24  1  0.250000  0.250000  0.112681  1
  P  P25  1  0.750000  0.750000  0.887319  1
  P  P26  1  0.250000  0.250000  0.646653  1
  P  P27  1  0.750000  0.750000  0.353347  1
  P  P28  1  0.250000  0.442378  0.386064  1
  P  P29  1  0.250000  0.057622  0.386064  1
  P  P30  1  0.750000  0.557622  0.613936  1
  P  P31  1  0.750000  0.942378  0.613936  1
  P  P32  1  0.250000  0.906760  0.110324  1
  P  P33  1  0.250000  0.593240  0.110324  1
  P  P34  1  0.750000  0.093240  0.889676  1
  P  P35  1  0.750000  0.406760  0.889676  1
