# generated using pymatgen
data_Sc7Pa(CoAg)2
_symmetry_space_group_name_H-M   'P 1'
_cell_length_a   8.78195204
_cell_length_b   8.78195248
_cell_length_c   8.68506700
_cell_angle_alpha   60.44305346
_cell_angle_beta   60.44305183
_cell_angle_gamma   59.47873189
_symmetry_Int_Tables_number   1
_chemical_formula_structural   Sc7Pa(CoAg)2
_chemical_formula_sum   'Sc14 Pa2 Co4 Ag4'
_cell_volume   474.84734643
_cell_formula_units_Z   2
loop_
 _symmetry_equiv_pos_site_id
 _symmetry_equiv_pos_as_xyz
  1  'x, y, z'
loop_
 _atom_site_type_symbol
 _atom_site_label
 _atom_site_symmetry_multiplicity
 _atom_site_fract_x
 _atom_site_fract_y
 _atom_site_fract_z
 _atom_site_occupancy
  Sc  Sc0  1  0.182743  0.813698  0.813123  1
  Sc  Sc1  1  0.062188  0.062188  0.437205  1
  Sc  Sc2  1  0.437914  0.058183  0.061294  1
  Sc  Sc3  1  0.813698  0.182743  0.813123  1
  Sc  Sc4  1  0.433890  0.060273  0.446319  1
  Sc  Sc5  1  0.598713  0.196189  0.602602  1
  Sc  Sc6  1  0.817824  0.817824  0.181677  1
  Sc  Sc7  1  0.196189  0.598713  0.602602  1
  Sc  Sc8  1  0.811276  0.186696  0.192357  1
  Sc  Sc9  1  0.060273  0.433890  0.446319  1
  Sc  Sc10  1  0.186696  0.811276  0.192357  1
  Sc  Sc11  1  0.607111  0.607111  0.189692  1
  Sc  Sc12  1  0.180290  0.180290  0.823156  1
  Sc  Sc13  1  0.058183  0.437914  0.061294  1
  Pa  Pa14  1  0.433888  0.433888  0.070843  1
  Pa  Pa15  1  0.597328  0.597328  0.578417  1
  Co  Co16  1  0.403486  0.403486  0.362383  1
  Co  Co17  1  0.820788  0.394117  0.397877  1
  Co  Co18  1  0.394117  0.820788  0.397877  1
  Co  Co19  1  0.401380  0.401380  0.835638  1
  Ag  Ag20  1  0.834383  0.834383  0.500581  1
  Ag  Ag21  1  0.832409  0.832409  0.831420  1
  Ag  Ag22  1  0.497036  0.838195  0.830923  1
  Ag  Ag23  1  0.838195  0.497036  0.830923  1
