# generated using pymatgen
data_Y3In3Ni2Pd
_symmetry_space_group_name_H-M   'P 1'
_cell_length_a   7.60701900
_cell_length_b   7.60701901
_cell_length_c   3.77565000
_cell_angle_alpha   90.00000000
_cell_angle_beta   90.00000000
_cell_angle_gamma   119.99999561
_symmetry_Int_Tables_number   1
_chemical_formula_structural   Y3In3Ni2Pd
_chemical_formula_sum   'Y3 In3 Ni2 Pd1'
_cell_volume   189.21317886
_cell_formula_units_Z   1
loop_
 _symmetry_equiv_pos_site_id
 _symmetry_equiv_pos_as_xyz
  1  'x, y, z'
loop_
 _atom_site_type_symbol
 _atom_site_label
 _atom_site_symmetry_multiplicity
 _atom_site_fract_x
 _atom_site_fract_y
 _atom_site_fract_z
 _atom_site_occupancy
  Y  Y0  1  0.010552  0.596115  0.500000  1
  Y  Y1  1  0.585563  0.989448  0.500000  1
  Y  Y2  1  0.403885  0.414437  0.500000  1
  In  In3  1  0.002177  0.253534  0.000000  1
  In  In4  1  0.251357  0.997823  0.000000  1
  In  In5  1  0.746466  0.748643  0.000000  1
  Ni  Ni6  1  0.000000  0.000000  0.500000  1
  Ni  Ni7  1  0.333333  0.666667  0.000000  1
  Pd  Pd8  1  0.666667  0.333333  0.000000  1
