# generated using pymatgen
data_NdEr15(In3Ir)2
_symmetry_space_group_name_H-M   'P 1'
_cell_length_a   10.34798700
_cell_length_b   10.35918194
_cell_length_c   7.02622130
_cell_angle_alpha   90.02919096
_cell_angle_beta   90.00000000
_cell_angle_gamma   119.96425469
_symmetry_Int_Tables_number   1
_chemical_formula_structural   NdEr15(In3Ir)2
_chemical_formula_sum   'Nd1 Er15 In6 Ir2'
_cell_volume   652.51430010
_cell_formula_units_Z   1
loop_
 _symmetry_equiv_pos_site_id
 _symmetry_equiv_pos_as_xyz
  1  'x, y, z'
loop_
 _atom_site_type_symbol
 _atom_site_label
 _atom_site_symmetry_multiplicity
 _atom_site_fract_x
 _atom_site_fract_y
 _atom_site_fract_z
 _atom_site_occupancy
  Nd  Nd0  1  0.531464  0.062927  0.792304  1
  Er  Er1  1  0.934506  0.467553  0.793048  1
  Er  Er2  1  0.533046  0.467553  0.793048  1
  Er  Er3  1  0.466000  0.931999  0.292778  1
  Er  Er4  1  0.066348  0.533207  0.292975  1
  Er  Er5  1  0.466859  0.533207  0.292975  1
  Er  Er6  1  0.823299  0.646598  0.499374  1
  Er  Er7  1  0.352628  0.177058  0.498716  1
  Er  Er8  1  0.824430  0.177058  0.498716  1
  Er  Er9  1  0.176827  0.353654  0.999678  1
  Er  Er10  1  0.647356  0.822345  0.000907  1
  Er  Er11  1  0.174989  0.822345  0.000907  1
  Er  Er12  1  0.667432  0.334863  0.174315  1
  Er  Er13  1  0.332569  0.665139  0.673740  1
  Er  Er14  1  0.999955  0.999909  0.778390  1
  Er  Er15  1  0.000120  0.000240  0.278705  1
  In  In16  1  0.836922  0.673847  0.039712  1
  In  In17  1  0.324391  0.163348  0.041141  1
  In  In18  1  0.838954  0.163348  0.041141  1
  In  In19  1  0.162971  0.325939  0.539926  1
  In  In20  1  0.674220  0.836729  0.539263  1
  In  In21  1  0.162510  0.836729  0.539263  1
  Ir  Ir22  1  0.668896  0.337791  0.566289  1
  Ir  Ir23  1  0.333308  0.666616  0.068591  1
