# generated using pymatgen
data_Dy20IrRh5Au6
_symmetry_space_group_name_H-M   'P 1'
_cell_length_a   11.25067342
_cell_length_b   11.25067374
_cell_length_c   6.32367163
_cell_angle_alpha   89.61249219
_cell_angle_beta   89.61248498
_cell_angle_gamma   90.41876601
_symmetry_Int_Tables_number   1
_chemical_formula_structural   Dy20IrRh5Au6
_chemical_formula_sum   'Dy20 Ir1 Rh5 Au6'
_cell_volume   800.37726970
_cell_formula_units_Z   1
loop_
 _symmetry_equiv_pos_site_id
 _symmetry_equiv_pos_as_xyz
  1  'x, y, z'
loop_
 _atom_site_type_symbol
 _atom_site_label
 _atom_site_symmetry_multiplicity
 _atom_site_fract_x
 _atom_site_fract_y
 _atom_site_fract_z
 _atom_site_occupancy
  Dy  Dy0  1  0.294000  0.075840  0.358606  1
  Dy  Dy1  1  0.292551  0.902101  0.872952  1
  Dy  Dy2  1  0.702590  0.083108  0.860543  1
  Dy  Dy3  1  0.699272  0.913737  0.360107  1
  Dy  Dy4  1  0.573961  0.792664  0.859048  1
  Dy  Dy5  1  0.583468  0.202952  0.360639  1
  Dy  Dy6  1  0.403393  0.791480  0.374538  1
  Dy  Dy7  1  0.413781  0.199716  0.859675  1
  Dy  Dy8  1  0.207336  0.426039  0.640952  1
  Dy  Dy9  1  0.208520  0.596607  0.125462  1
  Dy  Dy10  1  0.797048  0.416532  0.139361  1
  Dy  Dy11  1  0.800284  0.586219  0.640325  1
  Dy  Dy12  1  0.924160  0.706000  0.141394  1
  Dy  Dy13  1  0.916892  0.297410  0.639457  1
  Dy  Dy14  1  0.097899  0.707449  0.627048  1
  Dy  Dy15  1  0.086263  0.300728  0.139893  1
  Dy  Dy16  1  0.002717  0.993692  0.499331  1
  Dy  Dy17  1  0.006308  0.997283  0.000669  1
  Dy  Dy18  1  0.493671  0.502520  0.999301  1
  Dy  Dy19  1  0.497480  0.506329  0.500699  1
  Ir  Ir20  1  0.347398  0.652602  0.750000  1
  Rh  Rh21  1  0.151619  0.848381  0.250000  1
  Rh  Rh22  1  0.499899  0.999042  0.110023  1
  Rh  Rh23  1  0.498848  0.000532  0.609586  1
  Rh  Rh24  1  0.999468  0.501152  0.890414  1
  Rh  Rh25  1  0.000958  0.500101  0.389977  1
  Au  Au26  1  0.846083  0.153917  0.250000  1
  Au  Au27  1  0.840812  0.844122  0.753458  1
  Au  Au28  1  0.155878  0.159188  0.746542  1
  Au  Au29  1  0.654129  0.345871  0.750000  1
  Au  Au30  1  0.659346  0.656031  0.246995  1
  Au  Au31  1  0.343969  0.340654  0.253005  1
