# generated using pymatgen
data_Li2CeAu4
_symmetry_space_group_name_H-M   'P 1'
_cell_length_a   5.74233240
_cell_length_b   5.74233205
_cell_length_c   5.74233196
_cell_angle_alpha   102.37912785
_cell_angle_beta   102.37911965
_cell_angle_gamma   124.83681083
_symmetry_Int_Tables_number   1
_chemical_formula_structural   Li2CeAu4
_chemical_formula_sum   'Li2 Ce1 Au4'
_cell_volume   137.75246337
_cell_formula_units_Z   1
loop_
 _symmetry_equiv_pos_site_id
 _symmetry_equiv_pos_as_xyz
  1  'x, y, z'
loop_
 _atom_site_type_symbol
 _atom_site_label
 _atom_site_symmetry_multiplicity
 _atom_site_fract_x
 _atom_site_fract_y
 _atom_site_fract_z
 _atom_site_occupancy
  Li  Li0  1  0.250000  0.750000  0.500000  1
  Li  Li1  1  0.750000  0.250000  0.500000  1
  Ce  Ce2  1  0.000000  0.000000  0.000000  1
  Au  Au3  1  0.299547  0.299547  0.599094  1
  Au  Au4  1  0.700453  0.700453  0.400906  1
  Au  Au5  1  0.700453  0.299547  0.000000  1
  Au  Au6  1  0.299547  0.700453  0.000000  1
