# generated using pymatgen
data_Tm8Al(ReB8)3
_symmetry_space_group_name_H-M   'P 1'
_cell_length_a   3.64007700
_cell_length_b   9.11280077
_cell_length_c   11.46150219
_cell_angle_alpha   90.22009640
_cell_angle_beta   90.00000000
_cell_angle_gamma   90.00000000
_symmetry_Int_Tables_number   1
_chemical_formula_structural   Tm8Al(ReB8)3
_chemical_formula_sum   'Tm8 Al1 Re3 B24'
_cell_volume   380.19008223
_cell_formula_units_Z   1
loop_
 _symmetry_equiv_pos_site_id
 _symmetry_equiv_pos_as_xyz
  1  'x, y, z'
loop_
 _atom_site_type_symbol
 _atom_site_label
 _atom_site_symmetry_multiplicity
 _atom_site_fract_x
 _atom_site_fract_y
 _atom_site_fract_z
 _atom_site_occupancy
  Tm  Tm0  1  0.000000  0.317094  0.416086  1
  Tm  Tm1  1  0.000000  0.677658  0.591833  1
  Tm  Tm2  1  0.000000  0.828408  0.081368  1
  Tm  Tm3  1  0.000000  0.178140  0.912282  1
  Tm  Tm4  1  0.000000  0.944968  0.369217  1
  Tm  Tm5  1  0.000000  0.056236  0.629210  1
  Tm  Tm6  1  0.000000  0.439851  0.128613  1
  Tm  Tm7  1  0.000000  0.556443  0.871429  1
  Al  Al8  1  0.000000  0.637693  0.322867  1
  Re  Re9  1  0.000000  0.360789  0.679448  1
  Re  Re10  1  0.000000  0.139262  0.179077  1
  Re  Re11  1  0.000000  0.861385  0.820481  1
  B  B12  1  0.500000  0.553047  0.435202  1
  B  B13  1  0.500000  0.447256  0.565327  1
  B  B14  1  0.500000  0.053686  0.066304  1
  B  B15  1  0.500000  0.947585  0.932574  1
  B  B16  1  0.500000  0.750125  0.421246  1
  B  B17  1  0.500000  0.250221  0.580078  1
  B  B18  1  0.500000  0.250446  0.081357  1
  B  B19  1  0.500000  0.751163  0.919297  1
  B  B20  1  0.500000  0.793814  0.262540  1
  B  B21  1  0.500000  0.207909  0.734398  1
  B  B22  1  0.500000  0.293427  0.236715  1
  B  B23  1  0.500000  0.707062  0.765607  1
  B  B24  1  0.500000  0.631908  0.182099  1
  B  B25  1  0.500000  0.369806  0.814920  1
  B  B26  1  0.500000  0.130108  0.315059  1
  B  B27  1  0.500000  0.868523  0.684479  1
  B  B28  1  0.500000  0.980752  0.211357  1
  B  B29  1  0.500000  0.018413  0.787055  1
  B  B30  1  0.500000  0.480963  0.288566  1
  B  B31  1  0.500000  0.518390  0.712275  1
  B  B32  1  0.500000  0.603223  0.030206  1
  B  B33  1  0.500000  0.399785  0.972668  1
  B  B34  1  0.500000  0.099060  0.471540  1
  B  B35  1  0.500000  0.895402  0.527219  1
