# generated using pymatgen
data_Yb10ZnCu4Ag
_symmetry_space_group_name_H-M   'P 1'
_cell_length_a   8.94029123
_cell_length_b   8.94029150
_cell_length_c   8.94029132
_cell_angle_alpha   128.93517117
_cell_angle_beta   128.93517028
_cell_angle_gamma   75.11490922
_symmetry_Int_Tables_number   1
_chemical_formula_structural   Yb10ZnCu4Ag
_chemical_formula_sum   'Yb10 Zn1 Cu4 Ag1'
_cell_volume   420.96436350
_cell_formula_units_Z   1
loop_
 _symmetry_equiv_pos_site_id
 _symmetry_equiv_pos_as_xyz
  1  'x, y, z'
loop_
 _atom_site_type_symbol
 _atom_site_label
 _atom_site_symmetry_multiplicity
 _atom_site_fract_x
 _atom_site_fract_y
 _atom_site_fract_z
 _atom_site_occupancy
  Yb  Yb0  1  0.503163  0.503163  0.000000  1
  Yb  Yb1  1  0.996837  0.996837  0.000000  1
  Yb  Yb2  1  0.527884  0.029755  0.836924  1
  Yb  Yb3  1  0.192831  0.690961  0.163076  1
  Yb  Yb4  1  0.029755  0.192831  0.501871  1
  Yb  Yb5  1  0.690961  0.527884  0.498129  1
  Yb  Yb6  1  0.470245  0.972116  0.163076  1
  Yb  Yb7  1  0.809039  0.307169  0.836924  1
  Yb  Yb8  1  0.972116  0.809039  0.501871  1
  Yb  Yb9  1  0.307169  0.470245  0.498129  1
  Zn  Zn10  1  0.750000  0.750000  0.000000  1
  Cu  Cu11  1  0.117091  0.617091  0.734181  1
  Cu  Cu12  1  0.882909  0.382909  0.265819  1
  Cu  Cu13  1  0.617091  0.882909  0.500000  1
  Cu  Cu14  1  0.382909  0.117091  0.500000  1
  Ag  Ag15  1  0.250000  0.250000  0.000000  1
