# generated using pymatgen
data_LiMn5(AsRu)6
_symmetry_space_group_name_H-M   'P 1'
_cell_length_a   7.40151977
_cell_length_b   7.45154422
_cell_length_c   7.40152040
_cell_angle_alpha   127.41172788
_cell_angle_beta   121.92408064
_cell_angle_gamma   81.98127257
_symmetry_Int_Tables_number   1
_chemical_formula_structural   LiMn5(AsRu)6
_chemical_formula_sum   'Li1 Mn5 As6 Ru6'
_cell_volume   265.00738901
_cell_formula_units_Z   1
loop_
 _symmetry_equiv_pos_site_id
 _symmetry_equiv_pos_as_xyz
  1  'x, y, z'
loop_
 _atom_site_type_symbol
 _atom_site_label
 _atom_site_symmetry_multiplicity
 _atom_site_fract_x
 _atom_site_fract_y
 _atom_site_fract_z
 _atom_site_occupancy
  Li  Li0  1  0.471998  0.239874  0.267875  1
  Mn  Mn1  1  0.534794  0.809232  0.774437  1
  Mn  Mn2  1  0.740140  0.647696  0.407555  1
  Mn  Mn3  1  0.259471  0.662983  0.903512  1
  Mn  Mn4  1  0.056726  0.849340  0.292614  1
  Mn  Mn5  1  0.940943  0.233701  0.792757  1
  As  As6  1  0.840375  0.579787  0.754515  1
  As  As7  1  0.159581  0.914818  0.741312  1
  As  As8  1  0.673506  0.914818  0.255239  1
  As  As9  1  0.325273  0.579787  0.239413  1
  As  As10  1  0.283863  0.283559  0.499697  1
  As  As11  1  0.720324  0.222200  0.001877  1
  Ru  Ru12  1  0.664270  0.508974  0.919279  1
  Ru  Ru13  1  0.331618  0.251240  0.838370  1
  Ru  Ru14  1  0.912872  0.251240  0.419623  1
  Ru  Ru15  1  0.089695  0.508974  0.344705  1
  Ru  Ru16  1  0.999603  0.991086  0.996138  1
  Ru  Ru17  1  0.494947  0.991086  0.491482  1
