# generated using pymatgen
data_Nd3In3SnPtRh
_symmetry_space_group_name_H-M   'P 1'
_cell_length_a   7.74580700
_cell_length_b   7.74580620
_cell_length_c   4.27529800
_cell_angle_alpha   90.00000000
_cell_angle_beta   90.00000000
_cell_angle_gamma   119.99999914
_symmetry_Int_Tables_number   1
_chemical_formula_structural   Nd3In3SnPtRh
_chemical_formula_sum   'Nd3 In3 Sn1 Pt1 Rh1'
_cell_volume   222.14181986
_cell_formula_units_Z   1
loop_
 _symmetry_equiv_pos_site_id
 _symmetry_equiv_pos_as_xyz
  1  'x, y, z'
loop_
 _atom_site_type_symbol
 _atom_site_label
 _atom_site_symmetry_multiplicity
 _atom_site_fract_x
 _atom_site_fract_y
 _atom_site_fract_z
 _atom_site_occupancy
  Nd  Nd0  1  0.017325  0.603936  0.500000  1
  Nd  Nd1  1  0.586611  0.982675  0.500000  1
  Nd  Nd2  1  0.396064  0.413389  0.500000  1
  In  In3  1  0.011496  0.248583  0.000000  1
  In  In4  1  0.237088  0.988504  0.000000  1
  In  In5  1  0.751417  0.762912  0.000000  1
  Sn  Sn6  1  0.666667  0.333333  0.000000  1
  Pt  Pt7  1  0.333333  0.666667  0.000000  1
  Rh  Rh8  1  0.000000  0.000000  0.500000  1
