# generated using pymatgen
data_Th4Cd2CoNi3
_symmetry_space_group_name_H-M   'P 1'
_cell_length_a   7.63350629
_cell_length_b   7.63350629
_cell_length_c   3.67219700
_cell_angle_alpha   90.00000000
_cell_angle_beta   90.00000000
_cell_angle_gamma   89.80295693
_symmetry_Int_Tables_number   1
_chemical_formula_structural   Th4Cd2CoNi3
_chemical_formula_sum   'Th4 Cd2 Co1 Ni3'
_cell_volume   213.97918955
_cell_formula_units_Z   1
loop_
 _symmetry_equiv_pos_site_id
 _symmetry_equiv_pos_as_xyz
  1  'x, y, z'
loop_
 _atom_site_type_symbol
 _atom_site_label
 _atom_site_symmetry_multiplicity
 _atom_site_fract_x
 _atom_site_fract_y
 _atom_site_fract_z
 _atom_site_occupancy
  Th  Th0  1  0.326797  0.836991  0.500000  1
  Th  Th1  1  0.831321  0.668679  0.500000  1
  Th  Th2  1  0.177610  0.322390  0.500000  1
  Th  Th3  1  0.663009  0.173203  0.500000  1
  Cd  Cd4  1  0.994544  0.000757  0.000000  1
  Cd  Cd5  1  0.499243  0.505456  0.000000  1
  Co  Co6  1  0.376578  0.123422  0.000000  1
  Ni  Ni7  1  0.876860  0.374195  0.000000  1
  Ni  Ni8  1  0.125805  0.623140  0.000000  1
  Ni  Ni9  1  0.628232  0.871768  0.000000  1
