# generated using pymatgen
data_Y2HoCdSn3Ir2
_symmetry_space_group_name_H-M   'P 1'
_cell_length_a   7.69408480
_cell_length_b   7.70213029
_cell_length_c   3.94259900
_cell_angle_alpha   90.00000000
_cell_angle_beta   90.00000000
_cell_angle_gamma   119.91319371
_symmetry_Int_Tables_number   1
_chemical_formula_structural   Y2HoCdSn3Ir2
_chemical_formula_sum   'Y2 Ho1 Cd1 Sn3 Ir2'
_cell_volume   202.51644248
_cell_formula_units_Z   1
loop_
 _symmetry_equiv_pos_site_id
 _symmetry_equiv_pos_as_xyz
  1  'x, y, z'
loop_
 _atom_site_type_symbol
 _atom_site_label
 _atom_site_symmetry_multiplicity
 _atom_site_fract_x
 _atom_site_fract_y
 _atom_site_fract_z
 _atom_site_occupancy
  Y  Y0  1  0.383678  0.409468  0.500000  1
  Y  Y1  1  0.590429  0.974249  0.500000  1
  Ho  Ho2  1  0.026990  0.617080  0.500000  1
  Cd  Cd3  1  0.667026  0.333693  0.000000  1
  Sn  Sn4  1  0.745119  0.746150  0.000000  1
  Sn  Sn5  1  0.253658  0.998513  0.000000  1
  Sn  Sn6  1  0.001422  0.255274  0.000000  1
  Ir  Ir7  1  0.331763  0.666295  0.000000  1
  Ir  Ir8  1  0.999913  0.999280  0.500000  1
