# generated using pymatgen
data_DyB9N
_symmetry_space_group_name_H-M   'P 1'
_cell_length_a   5.51225317
_cell_length_b   5.51225858
_cell_length_c   7.59408440
_cell_angle_alpha   111.25625776
_cell_angle_beta   68.74371387
_cell_angle_gamma   119.98357253
_symmetry_Int_Tables_number   1
_chemical_formula_structural   DyB9N
_chemical_formula_sum   'Dy2 B18 N2'
_cell_volume   181.50598570
_cell_formula_units_Z   2
loop_
 _symmetry_equiv_pos_site_id
 _symmetry_equiv_pos_as_xyz
  1  'x, y, z'
loop_
 _atom_site_type_symbol
 _atom_site_label
 _atom_site_symmetry_multiplicity
 _atom_site_fract_x
 _atom_site_fract_y
 _atom_site_fract_z
 _atom_site_occupancy
  Dy  Dy0  1  0.298464  0.701535  0.105190  1
  Dy  Dy1  1  0.701535  0.298465  0.894811  1
  B  B2  1  0.179691  0.142930  0.105880  1
  B  B3  1  0.857226  0.142774  0.105960  1
  B  B4  1  0.857071  0.820310  0.105879  1
  B  B5  1  0.351948  0.323809  0.295468  1
  B  B6  1  0.676192  0.323808  0.295493  1
  B  B7  1  0.676192  0.648053  0.295468  1
  B  B8  1  0.337141  0.133931  0.459497  1
  B  B9  1  0.337192  0.662809  0.459591  1
  B  B10  1  0.866070  0.662859  0.459496  1
  B  B11  1  0.133930  0.337141  0.540504  1
  B  B12  1  0.662808  0.337191  0.540409  1
  B  B13  1  0.662858  0.866069  0.540504  1
  B  B14  1  0.323808  0.351947  0.704532  1
  B  B15  1  0.323808  0.676193  0.704507  1
  B  B16  1  0.648052  0.676192  0.704533  1
  B  B17  1  0.142930  0.179691  0.894121  1
  B  B18  1  0.142775  0.857226  0.894040  1
  B  B19  1  0.820309  0.857070  0.894120  1
  N  N20  1  0.188859  0.811140  0.433399  1
  N  N21  1  0.811141  0.188860  0.566601  1
