# generated using pymatgen
data_Lu12ZnCuNi3Sn
_symmetry_space_group_name_H-M   'P 1'
_cell_length_a   8.18264640
_cell_length_b   8.18264772
_cell_length_c   8.18264749
_cell_angle_alpha   112.02137589
_cell_angle_beta   110.27549304
_cell_angle_gamma   106.17147946
_symmetry_Int_Tables_number   1
_chemical_formula_structural   Lu12ZnCuNi3Sn
_chemical_formula_sum   'Lu12 Zn1 Cu1 Ni3 Sn1'
_cell_volume   420.60901670
_cell_formula_units_Z   1
loop_
 _symmetry_equiv_pos_site_id
 _symmetry_equiv_pos_as_xyz
  1  'x, y, z'
loop_
 _atom_site_type_symbol
 _atom_site_label
 _atom_site_symmetry_multiplicity
 _atom_site_fract_x
 _atom_site_fract_y
 _atom_site_fract_z
 _atom_site_occupancy
  Lu  Lu0  1  0.681133  0.875633  0.198347  1
  Lu  Lu1  1  0.322714  0.517214  0.198347  1
  Lu  Lu2  1  0.818517  0.785487  0.604006  1
  Lu  Lu3  1  0.179161  0.791450  0.970611  1
  Lu  Lu4  1  0.818517  0.214513  0.033030  1
  Lu  Lu5  1  0.179161  0.208550  0.387710  1
  Lu  Lu6  1  0.681133  0.482786  0.805500  1
  Lu  Lu7  1  0.322714  0.124367  0.805500  1
  Lu  Lu8  1  0.573655  0.273953  0.299700  1
  Lu  Lu9  1  0.434150  0.733409  0.700742  1
  Lu  Lu10  1  0.025748  0.726047  0.299700  1
  Lu  Lu11  1  0.967332  0.266591  0.700742  1
  Zn  Zn12  1  0.003547  0.500000  0.503547  1
  Cu  Cu13  1  0.356900  0.500000  0.856900  1
  Ni  Ni14  1  0.644852  0.500000  0.144852  1
  Ni  Ni15  1  0.872563  0.875857  0.996706  1
  Ni  Ni16  1  0.120849  0.124143  0.996706  1
  Sn  Sn17  1  0.497353  0.000000  0.497353  1
