# generated using pymatgen
data_Ca11HoPd12
_symmetry_space_group_name_H-M   'P 1'
_cell_length_a   5.75690701
_cell_length_b   4.49335400
_cell_length_c   22.03893097
_cell_angle_alpha   90.00000000
_cell_angle_beta   96.66984895
_cell_angle_gamma   90.00000000
_symmetry_Int_Tables_number   1
_chemical_formula_structural   Ca11HoPd12
_chemical_formula_sum   'Ca11 Ho1 Pd12'
_cell_volume   566.24064112
_cell_formula_units_Z   1
loop_
 _symmetry_equiv_pos_site_id
 _symmetry_equiv_pos_as_xyz
  1  'x, y, z'
loop_
 _atom_site_type_symbol
 _atom_site_label
 _atom_site_symmetry_multiplicity
 _atom_site_fract_x
 _atom_site_fract_y
 _atom_site_fract_z
 _atom_site_occupancy
  Ca  Ca0  1  0.182439  0.750000  0.106864  1
  Ca  Ca1  1  0.504460  0.250001  0.226583  1
  Ca  Ca2  1  0.024324  0.750000  0.273211  1
  Ca  Ca3  1  0.809946  0.250001  0.393785  1
  Ca  Ca4  1  0.332102  0.750000  0.439590  1
  Ca  Ca5  1  0.666732  0.250001  0.560328  1
  Ca  Ca6  1  0.190132  0.750000  0.606139  1
  Ca  Ca7  1  0.973380  0.250001  0.726689  1
  Ca  Ca8  1  0.496659  0.750000  0.773432  1
  Ca  Ca9  1  0.823835  0.250001  0.893639  1
  Ca  Ca10  1  0.335256  0.750000  0.939876  1
  Ho  Ho11  1  0.669895  0.250001  0.061021  1
  Pd  Pd12  1  0.152850  0.250001  0.015740  1
  Pd  Pd13  1  0.694443  0.750000  0.148497  1
  Pd  Pd14  1  0.979774  0.250001  0.177633  1
  Pd  Pd15  1  0.550388  0.750000  0.321107  1
  Pd  Pd16  1  0.282845  0.250001  0.345177  1
  Pd  Pd17  1  0.853779  0.750000  0.487831  1
  Pd  Pd18  1  0.145638  0.250001  0.512150  1
  Pd  Pd19  1  0.716546  0.750000  0.654216  1
  Pd  Pd20  1  0.449287  0.250001  0.678828  1
  Pd  Pd21  1  0.014400  0.750000  0.819853  1
  Pd  Pd22  1  0.304184  0.250001  0.845403  1
  Pd  Pd23  1  0.846705  0.750000  0.992408  1
