# generated using pymatgen
data_Na5Ge3P9Ir19
_symmetry_space_group_name_H-M   'P 1'
_cell_length_a   12.73453500
_cell_length_b   12.73453541
_cell_length_c   3.98132200
_cell_angle_alpha   90.00000000
_cell_angle_beta   90.00000000
_cell_angle_gamma   120.00000153
_symmetry_Int_Tables_number   1
_chemical_formula_structural   Na5Ge3P9Ir19
_chemical_formula_sum   'Na5 Ge3 P9 Ir19'
_cell_volume   559.14458769
_cell_formula_units_Z   1
loop_
 _symmetry_equiv_pos_site_id
 _symmetry_equiv_pos_as_xyz
  1  'x, y, z'
loop_
 _atom_site_type_symbol
 _atom_site_label
 _atom_site_symmetry_multiplicity
 _atom_site_fract_x
 _atom_site_fract_y
 _atom_site_fract_z
 _atom_site_occupancy
  Na  Na0  1  0.666667  0.333333  0.000000  1
  Na  Na1  1  0.333333  0.666667  0.000000  1
  Na  Na2  1  0.823736  0.821412  0.500000  1
  Na  Na3  1  0.178588  0.002324  0.500000  1
  Na  Na4  1  0.997676  0.176264  0.500000  1
  Ge  Ge5  1  0.679434  0.165984  0.500000  1
  Ge  Ge6  1  0.834016  0.513450  0.500000  1
  Ge  Ge7  1  0.486550  0.320566  0.500000  1
  P  P8  1  0.179649  0.693537  0.500000  1
  P  P9  1  0.513888  0.820351  0.500000  1
  P  P10  1  0.306463  0.486112  0.500000  1
  P  P11  1  0.639966  0.636172  0.000000  1
  P  P12  1  0.363828  0.003793  0.000000  1
  P  P13  1  0.996207  0.360034  0.000000  1
  P  P14  1  0.175268  0.182117  0.000000  1
  P  P15  1  0.817883  0.993152  0.000000  1
  P  P16  1  0.006848  0.824732  0.000000  1
  Ir  Ir17  1  0.809755  0.173537  0.000000  1
  Ir  Ir18  1  0.826463  0.636218  0.000000  1
  Ir  Ir19  1  0.363782  0.190245  0.000000  1
  Ir  Ir20  1  0.190186  0.807424  0.000000  1
  Ir  Ir21  1  0.617238  0.809814  0.000000  1
  Ir  Ir22  1  0.192576  0.382762  0.000000  1
  Ir  Ir23  1  0.454928  0.456084  0.000000  1
  Ir  Ir24  1  0.543916  0.998844  0.000000  1
  Ir  Ir25  1  0.001156  0.545072  0.000000  1
  Ir  Ir26  1  0.279403  0.292097  0.500000  1
  Ir  Ir27  1  0.707903  0.987306  0.500000  1
  Ir  Ir28  1  0.012694  0.720597  0.500000  1
  Ir  Ir29  1  0.882401  0.351668  0.500000  1
  Ir  Ir30  1  0.648332  0.530734  0.500000  1
  Ir  Ir31  1  0.469266  0.117599  0.500000  1
  Ir  Ir32  1  0.365530  0.868439  0.500000  1
  Ir  Ir33  1  0.502911  0.634470  0.500000  1
  Ir  Ir34  1  0.131561  0.497089  0.500000  1
  Ir  Ir35  1  0.000000  0.000000  0.000000  1
