# generated using pymatgen
data_TaMn5(ZnRh2)6
_symmetry_space_group_name_H-M   'P 1'
_cell_length_a   4.29806639
_cell_length_b   6.12724557
_cell_length_c   12.81499407
_cell_angle_alpha   89.99283452
_cell_angle_beta   89.99032877
_cell_angle_gamma   90.04831947
_symmetry_Int_Tables_number   1
_chemical_formula_structural   TaMn5(ZnRh2)6
_chemical_formula_sum   'Ta1 Mn5 Zn6 Rh12'
_cell_volume   337.48669144
_cell_formula_units_Z   1
loop_
 _symmetry_equiv_pos_site_id
 _symmetry_equiv_pos_as_xyz
  1  'x, y, z'
loop_
 _atom_site_type_symbol
 _atom_site_label
 _atom_site_symmetry_multiplicity
 _atom_site_fract_x
 _atom_site_fract_y
 _atom_site_fract_z
 _atom_site_occupancy
  Ta  Ta0  1  0.500004  0.500058  0.833321  1
  Mn  Mn1  1  0.999873  0.999981  0.003443  1
  Mn  Mn2  1  0.499947  0.500034  0.167458  1
  Mn  Mn3  1  0.000121  0.000011  0.333343  1
  Mn  Mn4  1  0.499901  0.500000  0.499240  1
  Mn  Mn5  1  0.000140  0.000060  0.663226  1
  Zn  Zn6  1  0.999913  0.500011  0.002372  1
  Zn  Zn7  1  0.499976  0.999929  0.169539  1
  Zn  Zn8  1  0.000059  0.500010  0.333361  1
  Zn  Zn9  1  0.499957  0.999957  0.497094  1
  Zn  Zn10  1  0.000102  0.500035  0.664256  1
  Zn  Zn11  1  0.500009  0.999980  0.833338  1
  Rh  Rh12  1  0.499845  0.247880  0.001199  1
  Rh  Rh13  1  0.499880  0.752086  0.001191  1
  Rh  Rh14  1  0.999960  0.251127  0.167598  1
  Rh  Rh15  1  0.999920  0.748824  0.167603  1
  Rh  Rh16  1  0.500098  0.252394  0.333316  1
  Rh  Rh17  1  0.500139  0.747575  0.333359  1
  Rh  Rh18  1  0.999920  0.251149  0.499146  1
  Rh  Rh19  1  0.999867  0.748836  0.499140  1
  Rh  Rh20  1  0.500156  0.247894  0.665435  1
  Rh  Rh21  1  0.500187  0.752108  0.665411  1
  Rh  Rh22  1  0.000048  0.246445  0.833312  1
  Rh  Rh23  1  0.999976  0.753616  0.833299  1
