# generated using pymatgen
data_Nd3TmCoSi12Ni19
_symmetry_space_group_name_H-M   'P 1'
_cell_length_a   3.83083600
_cell_length_b   18.90531414
_cell_length_c   6.63779713
_cell_angle_alpha   90.02641060
_cell_angle_beta   90.00000000
_cell_angle_gamma   90.00000000
_symmetry_Int_Tables_number   1
_chemical_formula_structural   Nd3TmCoSi12Ni19
_chemical_formula_sum   'Nd3 Tm1 Co1 Si12 Ni19'
_cell_volume   480.73017951
_cell_formula_units_Z   1
loop_
 _symmetry_equiv_pos_site_id
 _symmetry_equiv_pos_as_xyz
  1  'x, y, z'
loop_
 _atom_site_type_symbol
 _atom_site_label
 _atom_site_symmetry_multiplicity
 _atom_site_fract_x
 _atom_site_fract_y
 _atom_site_fract_z
 _atom_site_occupancy
  Nd  Nd0  1  0.750000  0.643098  0.123683  1
  Nd  Nd1  1  0.250000  0.355568  0.875061  1
  Nd  Nd2  1  0.250000  0.857993  0.624738  1
  Tm  Tm3  1  0.750000  0.144193  0.380565  1
  Co  Co4  1  0.250000  0.197052  0.688028  1
  Si  Si5  1  0.750000  0.736202  0.617747  1
  Si  Si6  1  0.250000  0.259981  0.386762  1
  Si  Si7  1  0.250000  0.765094  0.116904  1
  Si  Si8  1  0.750000  0.233707  0.879087  1
  Si  Si9  1  0.750000  0.928381  0.339506  1
  Si  Si10  1  0.250000  0.075052  0.654035  1
  Si  Si11  1  0.250000  0.570764  0.838853  1
  Si  Si12  1  0.750000  0.427123  0.160741  1
  Si  Si13  1  0.750000  0.916652  0.928073  1
  Si  Si14  1  0.250000  0.088513  0.081022  1
  Si  Si15  1  0.250000  0.586781  0.431223  1
  Si  Si16  1  0.750000  0.411509  0.567453  1
  Ni  Ni17  1  0.750000  0.801759  0.309720  1
  Ni  Ni18  1  0.250000  0.698781  0.809748  1
  Ni  Ni19  1  0.750000  0.299122  0.190051  1
  Ni  Ni20  1  0.750000  0.996114  0.633639  1
  Ni  Ni21  1  0.250000  0.007144  0.364013  1
  Ni  Ni22  1  0.250000  0.504424  0.138554  1
  Ni  Ni23  1  0.750000  0.493615  0.861248  1
  Ni  Ni24  1  0.750000  0.516366  0.390757  1
  Ni  Ni25  1  0.250000  0.481902  0.607507  1
  Ni  Ni26  1  0.250000  0.987530  0.889926  1
  Ni  Ni27  1  0.750000  0.019324  0.117717  1
  Ni  Ni28  1  0.750000  0.793890  0.927311  1
  Ni  Ni29  1  0.250000  0.207194  0.074672  1
  Ni  Ni30  1  0.250000  0.708511  0.426805  1
  Ni  Ni31  1  0.750000  0.289473  0.569877  1
  Ni  Ni32  1  0.750000  0.615349  0.646738  1
  Ni  Ni33  1  0.250000  0.381829  0.353603  1
  Ni  Ni34  1  0.250000  0.886244  0.144136  1
  Ni  Ni35  1  0.750000  0.113770  0.850499  1
