# generated using pymatgen
data_Er3TmV3TcB16
_symmetry_space_group_name_H-M   'P 1'
_cell_length_a   3.47423500
_cell_length_b   5.96188200
_cell_length_c   11.53602820
_cell_angle_alpha   90.00868180
_cell_angle_beta   90.00000000
_cell_angle_gamma   90.00000000
_symmetry_Int_Tables_number   1
_chemical_formula_structural   Er3TmV3TcB16
_chemical_formula_sum   'Er3 Tm1 V3 Tc1 B16'
_cell_volume   238.94550846
_cell_formula_units_Z   1
loop_
 _symmetry_equiv_pos_site_id
 _symmetry_equiv_pos_as_xyz
  1  'x, y, z'
loop_
 _atom_site_type_symbol
 _atom_site_label
 _atom_site_symmetry_multiplicity
 _atom_site_fract_x
 _atom_site_fract_y
 _atom_site_fract_z
 _atom_site_occupancy
  Er  Er0  1  0.500000  0.875403  0.151035  1
  Er  Er1  1  0.500000  0.626546  0.651657  1
  Er  Er2  1  0.500000  0.374657  0.349035  1
  Tm  Tm3  1  0.500000  0.123792  0.849769  1
  V  V4  1  0.500000  0.871770  0.417845  1
  V  V5  1  0.500000  0.627656  0.915801  1
  V  V6  1  0.500000  0.372469  0.082631  1
  Tc  Tc7  1  0.500000  0.128260  0.583318  1
  B  B8  1  0.000000  0.285555  0.685367  1
  B  B9  1  0.000000  0.714199  0.314590  1
  B  B10  1  0.000000  0.787301  0.813990  1
  B  B11  1  0.000000  0.213018  0.185940  1
  B  B12  1  0.000000  0.365546  0.531828  1
  B  B13  1  0.000000  0.634360  0.467806  1
  B  B14  1  0.000000  0.865419  0.967325  1
  B  B15  1  0.000000  0.134761  0.032338  1
  B  B16  1  0.000000  0.022665  0.307224  1
  B  B17  1  0.000000  0.977178  0.693090  1
  B  B18  1  0.000000  0.523328  0.193017  1
  B  B19  1  0.000000  0.476087  0.806932  1
  B  B20  1  0.000000  0.114370  0.452262  1
  B  B21  1  0.000000  0.885696  0.547459  1
  B  B22  1  0.000000  0.615382  0.047738  1
  B  B23  1  0.000000  0.384582  0.952003  1
