# generated using pymatgen
data_TbYb2Ho(B4Os)4
_symmetry_space_group_name_H-M   'P 1'
_cell_length_a   3.55359500
_cell_length_b   5.96612718
_cell_length_c   11.53078703
_cell_angle_alpha   89.89807085
_cell_angle_beta   90.00000000
_cell_angle_gamma   90.00000000
_symmetry_Int_Tables_number   1
_chemical_formula_structural   TbYb2Ho(B4Os)4
_chemical_formula_sum   'Tb1 Yb2 Ho1 B16 Os4'
_cell_volume   244.46613192
_cell_formula_units_Z   1
loop_
 _symmetry_equiv_pos_site_id
 _symmetry_equiv_pos_as_xyz
  1  'x, y, z'
loop_
 _atom_site_type_symbol
 _atom_site_label
 _atom_site_symmetry_multiplicity
 _atom_site_fract_x
 _atom_site_fract_y
 _atom_site_fract_z
 _atom_site_occupancy
  Tb  Tb0  1  0.000000  0.128562  0.650836  1
  Yb  Yb1  1  0.000000  0.628732  0.851121  1
  Yb  Yb2  1  0.000000  0.371272  0.148948  1
  Ho  Ho3  1  0.000000  0.871295  0.349172  1
  B  B4  1  0.500000  0.475230  0.692068  1
  B  B5  1  0.500000  0.525305  0.307855  1
  B  B6  1  0.500000  0.975033  0.809458  1
  B  B7  1  0.500000  0.024754  0.190954  1
  B  B8  1  0.500000  0.288767  0.815913  1
  B  B9  1  0.500000  0.711311  0.184398  1
  B  B10  1  0.500000  0.786654  0.686204  1
  B  B11  1  0.500000  0.212644  0.313760  1
  B  B12  1  0.500000  0.363819  0.969582  1
  B  B13  1  0.500000  0.636257  0.030475  1
  B  B14  1  0.500000  0.863028  0.530228  1
  B  B15  1  0.500000  0.136774  0.469264  1
  B  B16  1  0.500000  0.388527  0.547115  1
  B  B17  1  0.500000  0.612240  0.452444  1
  B  B18  1  0.500000  0.886015  0.953399  1
  B  B19  1  0.500000  0.113899  0.046730  1
  Os  Os20  1  0.000000  0.137046  0.909744  1
  Os  Os21  1  0.000000  0.862943  0.090791  1
  Os  Os22  1  0.000000  0.640995  0.591551  1
  Os  Os23  1  0.000000  0.358897  0.407992  1
