# generated using pymatgen
data_Er2SiPd14
_symmetry_space_group_name_H-M   'P 1'
_cell_length_a   8.91476900
_cell_length_b   8.91476900
_cell_length_c   7.06830000
_cell_angle_alpha   90.00000000
_cell_angle_beta   90.00000000
_cell_angle_gamma   90.00000000
_symmetry_Int_Tables_number   1
_chemical_formula_structural   Er2SiPd14
_chemical_formula_sum   'Er4 Si2 Pd28'
_cell_volume   561.73975743
_cell_formula_units_Z   2
loop_
 _symmetry_equiv_pos_site_id
 _symmetry_equiv_pos_as_xyz
  1  'x, y, z'
loop_
 _atom_site_type_symbol
 _atom_site_label
 _atom_site_symmetry_multiplicity
 _atom_site_fract_x
 _atom_site_fract_y
 _atom_site_fract_z
 _atom_site_occupancy
  Er  Er0  1  0.500000  0.000000  0.934426  1
  Er  Er1  1  0.000000  0.500000  0.065574  1
  Er  Er2  1  0.000000  0.000000  0.500000  1
  Er  Er3  1  0.500000  0.500000  0.500000  1
  Si  Si4  1  0.500000  0.000000  0.448037  1
  Si  Si5  1  0.000000  0.500000  0.551963  1
  Pd  Pd6  1  0.334590  0.834590  0.616271  1
  Pd  Pd7  1  0.334590  0.165410  0.616271  1
  Pd  Pd8  1  0.665410  0.834590  0.616271  1
  Pd  Pd9  1  0.665410  0.165410  0.616271  1
  Pd  Pd10  1  0.165410  0.665410  0.383729  1
  Pd  Pd11  1  0.165410  0.334590  0.383729  1
  Pd  Pd12  1  0.834590  0.665410  0.383729  1
  Pd  Pd13  1  0.834590  0.334590  0.383729  1
  Pd  Pd14  1  0.500000  0.769939  0.256561  1
  Pd  Pd15  1  0.500000  0.230061  0.256561  1
  Pd  Pd16  1  0.269939  0.000000  0.256561  1
  Pd  Pd17  1  0.730061  0.000000  0.256561  1
  Pd  Pd18  1  0.000000  0.730061  0.743439  1
  Pd  Pd19  1  0.000000  0.269939  0.743439  1
  Pd  Pd20  1  0.230061  0.500000  0.743439  1
  Pd  Pd21  1  0.769939  0.500000  0.743439  1
  Pd  Pd22  1  0.500000  0.349143  0.851942  1
  Pd  Pd23  1  0.500000  0.650857  0.851942  1
  Pd  Pd24  1  0.849143  0.000000  0.851942  1
  Pd  Pd25  1  0.150857  0.000000  0.851942  1
  Pd  Pd26  1  0.000000  0.150857  0.148058  1
  Pd  Pd27  1  0.000000  0.849143  0.148058  1
  Pd  Pd28  1  0.650857  0.500000  0.148058  1
  Pd  Pd29  1  0.349143  0.500000  0.148058  1
  Pd  Pd30  1  0.250000  0.750000  0.000000  1
  Pd  Pd31  1  0.250000  0.250000  0.000000  1
  Pd  Pd32  1  0.750000  0.750000  0.000000  1
  Pd  Pd33  1  0.750000  0.250000  0.000000  1
