# generated using pymatgen
data_Er12Th4MgCd3Ir4
_symmetry_space_group_name_H-M   'P 1'
_cell_length_a   9.70756434
_cell_length_b   9.70756481
_cell_length_c   9.70756514
_cell_angle_alpha   59.85821930
_cell_angle_beta   59.85821408
_cell_angle_gamma   59.85822391
_symmetry_Int_Tables_number   1
_chemical_formula_structural   Er12Th4MgCd3Ir4
_chemical_formula_sum   'Er12 Th4 Mg1 Cd3 Ir4'
_cell_volume   644.78711108
_cell_formula_units_Z   1
loop_
 _symmetry_equiv_pos_site_id
 _symmetry_equiv_pos_as_xyz
  1  'x, y, z'
loop_
 _atom_site_type_symbol
 _atom_site_label
 _atom_site_symmetry_multiplicity
 _atom_site_fract_x
 _atom_site_fract_y
 _atom_site_fract_z
 _atom_site_occupancy
  Er  Er0  1  0.062037  0.438421  0.438421  1
  Er  Er1  1  0.437236  0.063974  0.063974  1
  Er  Er2  1  0.438421  0.062037  0.438421  1
  Er  Er3  1  0.063974  0.437236  0.063974  1
  Er  Er4  1  0.438421  0.438421  0.062037  1
  Er  Er5  1  0.063974  0.063974  0.437236  1
  Er  Er6  1  0.187313  0.816162  0.816162  1
  Er  Er7  1  0.815279  0.186072  0.186072  1
  Er  Er8  1  0.816162  0.187313  0.816162  1
  Er  Er9  1  0.186072  0.815279  0.186072  1
  Er  Er10  1  0.816162  0.816162  0.187313  1
  Er  Er11  1  0.186072  0.186072  0.815279  1
  Th  Th12  1  0.598872  0.598872  0.598872  1
  Th  Th13  1  0.600871  0.600871  0.198849  1
  Th  Th14  1  0.600871  0.198849  0.600871  1
  Th  Th15  1  0.198849  0.600871  0.600871  1
  Mg  Mg16  1  0.828029  0.828029  0.828029  1
  Cd  Cd17  1  0.831444  0.831444  0.499931  1
  Cd  Cd18  1  0.831444  0.499931  0.831444  1
  Cd  Cd19  1  0.499931  0.831444  0.831444  1
  Ir  Ir20  1  0.393165  0.393165  0.393165  1
  Ir  Ir21  1  0.391681  0.391681  0.822037  1
  Ir  Ir22  1  0.391681  0.822037  0.391681  1
  Ir  Ir23  1  0.822037  0.391681  0.391681  1
