# generated using pymatgen
data_Pr6Ho(TmPb2)3
_symmetry_space_group_name_H-M   'P 1'
_cell_length_a   9.28046900
_cell_length_b   9.28046846
_cell_length_c   6.77270400
_cell_angle_alpha   90.00000000
_cell_angle_beta   90.00000000
_cell_angle_gamma   120.00000549
_symmetry_Int_Tables_number   1
_chemical_formula_structural   Pr6Ho(TmPb2)3
_chemical_formula_sum   'Pr6 Ho1 Tm3 Pb6'
_cell_volume   505.16415464
_cell_formula_units_Z   1
loop_
 _symmetry_equiv_pos_site_id
 _symmetry_equiv_pos_as_xyz
  1  'x, y, z'
loop_
 _atom_site_type_symbol
 _atom_site_label
 _atom_site_symmetry_multiplicity
 _atom_site_fract_x
 _atom_site_fract_y
 _atom_site_fract_z
 _atom_site_occupancy
  Pr  Pr0  1  0.239942  0.000052  0.249953  1
  Pr  Pr1  1  0.239942  0.239890  0.750047  1
  Pr  Pr2  1  0.999948  0.760058  0.750047  1
  Pr  Pr3  1  0.999948  0.239890  0.249953  1
  Pr  Pr4  1  0.760110  0.760058  0.249953  1
  Pr  Pr5  1  0.760110  0.000052  0.750047  1
  Ho  Ho6  1  0.333333  0.666667  0.500000  1
  Tm  Tm7  1  0.333333  0.666667  0.000000  1
  Tm  Tm8  1  0.666667  0.333333  0.500000  1
  Tm  Tm9  1  0.666667  0.333333  0.000000  1
  Pb  Pb10  1  0.600792  0.000154  0.249892  1
  Pb  Pb11  1  0.600792  0.600638  0.750108  1
  Pb  Pb12  1  0.999846  0.399208  0.750108  1
  Pb  Pb13  1  0.999846  0.600638  0.249892  1
  Pb  Pb14  1  0.399362  0.399208  0.249892  1
  Pb  Pb15  1  0.399362  0.000154  0.750108  1
