# generated using pymatgen
data_TmMgB6Ru
_symmetry_space_group_name_H-M   'P 1'
_cell_length_a   3.54264600
_cell_length_b   8.87361100
_cell_length_c   11.21196600
_cell_angle_alpha   90.00000000
_cell_angle_beta   90.00000000
_cell_angle_gamma   90.00000000
_symmetry_Int_Tables_number   1
_chemical_formula_structural   TmMgB6Ru
_chemical_formula_sum   'Tm4 Mg4 B24 Ru4'
_cell_volume   352.46006409
_cell_formula_units_Z   4
loop_
 _symmetry_equiv_pos_site_id
 _symmetry_equiv_pos_as_xyz
  1  'x, y, z'
loop_
 _atom_site_type_symbol
 _atom_site_label
 _atom_site_symmetry_multiplicity
 _atom_site_fract_x
 _atom_site_fract_y
 _atom_site_fract_z
 _atom_site_occupancy
  Tm  Tm0  1  0.000000  0.323942  0.413744  1
  Tm  Tm1  1  0.000000  0.676058  0.586256  1
  Tm  Tm2  1  0.000000  0.823942  0.086256  1
  Tm  Tm3  1  0.000000  0.176058  0.913744  1
  Mg  Mg4  1  0.000000  0.943601  0.371342  1
  Mg  Mg5  1  0.000000  0.056399  0.628658  1
  Mg  Mg6  1  0.000000  0.443601  0.128658  1
  Mg  Mg7  1  0.000000  0.556399  0.871342  1
  B  B8  1  0.500000  0.555644  0.432804  1
  B  B9  1  0.500000  0.444356  0.567196  1
  B  B10  1  0.500000  0.055644  0.067196  1
  B  B11  1  0.500000  0.944356  0.932804  1
  B  B12  1  0.500000  0.755184  0.418855  1
  B  B13  1  0.500000  0.244816  0.581145  1
  B  B14  1  0.500000  0.255184  0.081145  1
  B  B15  1  0.500000  0.744816  0.918855  1
  B  B16  1  0.500000  0.793838  0.262796  1
  B  B17  1  0.500000  0.206162  0.737204  1
  B  B18  1  0.500000  0.293838  0.237204  1
  B  B19  1  0.500000  0.706162  0.762796  1
  B  B20  1  0.500000  0.628100  0.181856  1
  B  B21  1  0.500000  0.371900  0.818144  1
  B  B22  1  0.500000  0.128100  0.318144  1
  B  B23  1  0.500000  0.871900  0.681856  1
  B  B24  1  0.500000  0.980822  0.212854  1
  B  B25  1  0.500000  0.019178  0.787146  1
  B  B26  1  0.500000  0.480822  0.287146  1
  B  B27  1  0.500000  0.519178  0.712854  1
  B  B28  1  0.500000  0.593132  0.025531  1
  B  B29  1  0.500000  0.406868  0.974469  1
  B  B30  1  0.500000  0.093132  0.474469  1
  B  B31  1  0.500000  0.906868  0.525531  1
  Ru  Ru32  1  0.000000  0.641024  0.318213  1
  Ru  Ru33  1  0.000000  0.358976  0.681787  1
  Ru  Ru34  1  0.000000  0.141024  0.181787  1
  Ru  Ru35  1  0.000000  0.858976  0.818213  1
