# generated using pymatgen
data_Hf7Ti12NbSi16
_symmetry_space_group_name_H-M   'P 1'
_cell_length_a   6.79339461
_cell_length_b   6.79600016
_cell_length_c   12.43717855
_cell_angle_alpha   90.01755435
_cell_angle_beta   89.98617798
_cell_angle_gamma   90.04117802
_symmetry_Int_Tables_number   1
_chemical_formula_structural   Hf7Ti12NbSi16
_chemical_formula_sum   'Hf7 Ti12 Nb1 Si16'
_cell_volume   574.19835873
_cell_formula_units_Z   1
loop_
 _symmetry_equiv_pos_site_id
 _symmetry_equiv_pos_as_xyz
  1  'x, y, z'
loop_
 _atom_site_type_symbol
 _atom_site_label
 _atom_site_symmetry_multiplicity
 _atom_site_fract_x
 _atom_site_fract_y
 _atom_site_fract_z
 _atom_site_occupancy
  Hf  Hf0  1  0.343865  0.999466  0.467519  1
  Hf  Hf1  1  0.500432  0.843184  0.718275  1
  Hf  Hf2  1  0.499385  0.156136  0.217173  1
  Hf  Hf3  1  0.843425  0.500837  0.281722  1
  Hf  Hf4  1  0.155990  0.499130  0.781633  1
  Hf  Hf5  1  0.657982  0.999923  0.968515  1
  Hf  Hf6  1  0.999000  0.343442  0.532113  1
  Ti  Ti7  1  0.328101  0.330805  0.000214  1
  Ti  Ti8  1  0.170048  0.828541  0.249380  1
  Ti  Ti9  1  0.829992  0.171170  0.750783  1
  Ti  Ti10  1  0.670509  0.670787  0.500231  1
  Ti  Ti11  1  0.150756  0.003781  0.873616  1
  Ti  Ti12  1  0.495770  0.653171  0.122059  1
  Ti  Ti13  1  0.503546  0.347768  0.622730  1
  Ti  Ti14  1  0.652710  0.497622  0.878068  1
  Ti  Ti15  1  0.347207  0.504032  0.376926  1
  Ti  Ti16  1  0.847874  0.995649  0.372003  1
  Ti  Ti17  1  0.002742  0.153298  0.126871  1
  Ti  Ti18  1  0.996251  0.847440  0.627670  1
  Nb  Nb19  1  0.003989  0.654047  0.031992  1
  Si  Si20  1  0.205488  0.136035  0.677169  1
  Si  Si21  1  0.361923  0.705156  0.927595  1
  Si  Si22  1  0.635783  0.294163  0.427025  1
  Si  Si23  1  0.707394  0.366289  0.073381  1
  Si  Si24  1  0.293845  0.635820  0.572836  1
  Si  Si25  1  0.796387  0.861447  0.174834  1
  Si  Si26  1  0.135886  0.206205  0.322693  1
  Si  Si27  1  0.865608  0.792186  0.824823  1
  Si  Si28  1  0.292751  0.954255  0.063833  1
  Si  Si29  1  0.545442  0.794130  0.313341  1
  Si  Si30  1  0.455073  0.206257  0.814266  1
  Si  Si31  1  0.794081  0.544761  0.686284  1
  Si  Si32  1  0.204864  0.455868  0.185691  1
  Si  Si33  1  0.706065  0.044836  0.564146  1
  Si  Si34  1  0.955347  0.296566  0.936604  1
  Si  Si35  1  0.044490  0.705802  0.435990  1
