# generated using pymatgen
data_Ba7La(ZrSe6)2
_symmetry_space_group_name_H-M   'P 1'
_cell_length_a   8.92080787
_cell_length_b   8.92080734
_cell_length_c   8.92080794
_cell_angle_alpha   91.09203221
_cell_angle_beta   91.09204828
_cell_angle_gamma   91.09203736
_symmetry_Int_Tables_number   1
_chemical_formula_structural   Ba7La(ZrSe6)2
_chemical_formula_sum   'Ba7 La1 Zr2 Se12'
_cell_volume   709.53328748
_cell_formula_units_Z   1
loop_
 _symmetry_equiv_pos_site_id
 _symmetry_equiv_pos_as_xyz
  1  'x, y, z'
loop_
 _atom_site_type_symbol
 _atom_site_label
 _atom_site_symmetry_multiplicity
 _atom_site_fract_x
 _atom_site_fract_y
 _atom_site_fract_z
 _atom_site_occupancy
  Ba  Ba0  1  0.874028  0.625972  0.250000  1
  Ba  Ba1  1  0.250000  0.874028  0.625972  1
  Ba  Ba2  1  0.625972  0.250000  0.874028  1
  Ba  Ba3  1  0.750000  0.123899  0.376101  1
  Ba  Ba4  1  0.376101  0.750000  0.123899  1
  Ba  Ba5  1  0.123899  0.376101  0.750000  1
  Ba  Ba6  1  0.750000  0.750000  0.750000  1
  La  La7  1  0.250000  0.250000  0.250000  1
  Zr  Zr8  1  0.497660  0.497660  0.497660  1
  Zr  Zr9  1  0.002340  0.002340  0.002340  1
  Se  Se10  1  0.202219  0.547575  0.412829  1
  Se  Se11  1  0.412829  0.202219  0.547575  1
  Se  Se12  1  0.547575  0.412829  0.202219  1
  Se  Se13  1  0.927597  0.061605  0.710705  1
  Se  Se14  1  0.710705  0.927597  0.061605  1
  Se  Se15  1  0.061605  0.710705  0.927597  1
  Se  Se16  1  0.789295  0.438395  0.572403  1
  Se  Se17  1  0.572403  0.789295  0.438395  1
  Se  Se18  1  0.438395  0.572403  0.789295  1
  Se  Se19  1  0.087171  0.952425  0.297781  1
  Se  Se20  1  0.297781  0.087171  0.952425  1
  Se  Se21  1  0.952425  0.297781  0.087171  1
