# generated using pymatgen
data_CePr3Al18(PtRh)3
_symmetry_space_group_name_H-M   'P 1'
_cell_length_a   7.68725857
_cell_length_b   7.67414098
_cell_length_c   9.57757415
_cell_angle_alpha   89.93425946
_cell_angle_beta   89.98618339
_cell_angle_gamma   119.49261335
_symmetry_Int_Tables_number   1
_chemical_formula_structural   CePr3Al18(PtRh)3
_chemical_formula_sum   'Ce1 Pr3 Al18 Pt3 Rh3'
_cell_volume   491.79574015
_cell_formula_units_Z   1
loop_
 _symmetry_equiv_pos_site_id
 _symmetry_equiv_pos_as_xyz
  1  'x, y, z'
loop_
 _atom_site_type_symbol
 _atom_site_label
 _atom_site_symmetry_multiplicity
 _atom_site_fract_x
 _atom_site_fract_y
 _atom_site_fract_z
 _atom_site_occupancy
  Ce  Ce0  1  0.995131  0.670366  0.751039  1
  Pr  Pr1  1  0.003366  0.327713  0.250092  1
  Pr  Pr2  1  0.673045  0.996410  0.749824  1
  Pr  Pr3  1  0.328503  0.005034  0.249867  1
  Al  Al4  1  0.136816  0.135003  0.750331  1
  Al  Al5  1  0.864995  0.864132  0.249442  1
  Al  Al6  1  0.006647  0.339390  0.575466  1
  Al  Al7  1  0.000875  0.665202  0.427947  1
  Al  Al8  1  0.998592  0.661514  0.071224  1
  Al  Al9  1  0.338972  0.001354  0.926421  1
  Al  Al10  1  0.002243  0.338710  0.925973  1
  Al  Al11  1  0.661474  0.997737  0.073056  1
  Al  Al12  1  0.660703  0.993078  0.425329  1
  Al  Al13  1  0.334841  0.998493  0.575262  1
  Al  Al14  1  0.337156  0.337323  0.048342  1
  Al  Al15  1  0.662782  0.662924  0.951354  1
  Al  Al16  1  0.661473  0.664567  0.552374  1
  Al  Al17  1  0.335147  0.338682  0.448161  1
  Al  Al18  1  0.340391  0.549225  0.750521  1
  Al  Al19  1  0.660108  0.453934  0.246163  1
  Al  Al20  1  0.546144  0.341018  0.753481  1
  Al  Al21  1  0.450508  0.659509  0.249248  1
  Pt  Pt22  1  0.671258  0.328688  0.500497  1
  Pt  Pt23  1  0.999459  0.999670  0.500889  1
  Pt  Pt24  1  0.000095  0.999251  0.998941  1
  Rh  Rh25  1  0.328823  0.670850  0.500811  1
  Rh  Rh26  1  0.328787  0.670646  0.998951  1
  Rh  Rh27  1  0.671661  0.329579  0.998994  1
