# generated using pymatgen
data_Pr11NdOs3Au
_symmetry_space_group_name_H-M   'P 1'
_cell_length_a   6.60859354
_cell_length_b   7.55963421
_cell_length_c   9.90933300
_cell_angle_alpha   90.00000000
_cell_angle_beta   90.00000000
_cell_angle_gamma   90.28484126
_symmetry_Int_Tables_number   1
_chemical_formula_structural   Pr11NdOs3Au
_chemical_formula_sum   'Pr11 Nd1 Os3 Au1'
_cell_volume   495.04978867
_cell_formula_units_Z   1
loop_
 _symmetry_equiv_pos_site_id
 _symmetry_equiv_pos_as_xyz
  1  'x, y, z'
loop_
 _atom_site_type_symbol
 _atom_site_label
 _atom_site_symmetry_multiplicity
 _atom_site_fract_x
 _atom_site_fract_y
 _atom_site_fract_z
 _atom_site_occupancy
  Pr  Pr0  1  0.343123  0.666706  0.060957  1
  Pr  Pr1  1  0.169887  0.186979  0.443699  1
  Pr  Pr2  1  0.673433  0.321878  0.569366  1
  Pr  Pr3  1  0.824923  0.828536  0.929332  1
  Pr  Pr4  1  0.673433  0.321878  0.930634  1
  Pr  Pr5  1  0.824923  0.828536  0.570668  1
  Pr  Pr6  1  0.343123  0.666706  0.439043  1
  Pr  Pr7  1  0.169887  0.186979  0.056301  1
  Pr  Pr8  1  0.853754  0.520143  0.250000  1
  Pr  Pr9  1  0.622735  0.046413  0.250000  1
  Pr  Pr10  1  0.140093  0.466195  0.750000  1
  Nd  Nd11  1  0.354132  0.956758  0.750000  1
  Os  Os12  1  0.432771  0.383498  0.250000  1
  Os  Os13  1  0.952261  0.114927  0.750000  1
  Os  Os14  1  0.557809  0.615949  0.750000  1
  Au  Au15  1  0.063714  0.887921  0.250000  1
