# generated using pymatgen
data_Er2Tm2ReB12Os
_symmetry_space_group_name_H-M   'P 1'
_cell_length_a   3.63591100
_cell_length_b   9.09702877
_cell_length_c   11.47484507
_cell_angle_alpha   90.12716929
_cell_angle_beta   90.00000000
_cell_angle_gamma   90.00000000
_symmetry_Int_Tables_number   1
_chemical_formula_structural   Er2Tm2ReB12Os
_chemical_formula_sum   'Er4 Tm4 Re2 B24 Os2'
_cell_volume   379.54089124
_cell_formula_units_Z   2
loop_
 _symmetry_equiv_pos_site_id
 _symmetry_equiv_pos_as_xyz
  1  'x, y, z'
loop_
 _atom_site_type_symbol
 _atom_site_label
 _atom_site_symmetry_multiplicity
 _atom_site_fract_x
 _atom_site_fract_y
 _atom_site_fract_z
 _atom_site_occupancy
  Er  Er0  1  0.000000  0.320340  0.412436  1
  Er  Er1  1  0.000000  0.679660  0.587564  1
  Er  Er2  1  0.000000  0.824238  0.084668  1
  Er  Er3  1  0.000000  0.175762  0.915332  1
  Tm  Tm4  1  0.000000  0.943424  0.370922  1
  Tm  Tm5  1  0.000000  0.056576  0.629078  1
  Tm  Tm6  1  0.000000  0.442766  0.128598  1
  Tm  Tm7  1  0.000000  0.557234  0.871402  1
  Re  Re8  1  0.000000  0.138388  0.179804  1
  Re  Re9  1  0.000000  0.861612  0.820196  1
  B  B10  1  0.500000  0.553577  0.433413  1
  B  B11  1  0.500000  0.446423  0.566587  1
  B  B12  1  0.500000  0.052989  0.066714  1
  B  B13  1  0.500000  0.947011  0.933286  1
  B  B14  1  0.500000  0.749266  0.419093  1
  B  B15  1  0.500000  0.250734  0.580907  1
  B  B16  1  0.500000  0.249348  0.080769  1
  B  B17  1  0.500000  0.750652  0.919231  1
  B  B18  1  0.500000  0.791231  0.265653  1
  B  B19  1  0.500000  0.208769  0.734347  1
  B  B20  1  0.500000  0.292318  0.234857  1
  B  B21  1  0.500000  0.707682  0.765143  1
  B  B22  1  0.500000  0.630604  0.185568  1
  B  B23  1  0.500000  0.369396  0.814432  1
  B  B24  1  0.500000  0.131025  0.315345  1
  B  B25  1  0.500000  0.868975  0.684655  1
  B  B26  1  0.500000  0.981801  0.212759  1
  B  B27  1  0.500000  0.018199  0.787241  1
  B  B28  1  0.500000  0.482267  0.287824  1
  B  B29  1  0.500000  0.517733  0.712176  1
  B  B30  1  0.500000  0.602633  0.028677  1
  B  B31  1  0.500000  0.397367  0.971323  1
  B  B32  1  0.500000  0.102818  0.471742  1
  B  B33  1  0.500000  0.897182  0.528258  1
  Os  Os34  1  0.000000  0.637493  0.321749  1
  Os  Os35  1  0.000000  0.362507  0.678251  1
