# generated using pymatgen
data_CoTc6SbO24
_symmetry_space_group_name_H-M   'P 1'
_cell_length_a   10.14146100
_cell_length_b   10.14146050
_cell_length_c   10.14146100
_cell_angle_alpha   49.08374911
_cell_angle_beta   49.08375903
_cell_angle_gamma   49.08375557
_symmetry_Int_Tables_number   1
_chemical_formula_structural   CoTc6SbO24
_chemical_formula_sum   'Co1 Tc6 Sb1 O24'
_cell_volume   546.98411614
_cell_formula_units_Z   1
loop_
 _symmetry_equiv_pos_site_id
 _symmetry_equiv_pos_as_xyz
  1  'x, y, z'
loop_
 _atom_site_type_symbol
 _atom_site_label
 _atom_site_symmetry_multiplicity
 _atom_site_fract_x
 _atom_site_fract_y
 _atom_site_fract_z
 _atom_site_occupancy
  Co  Co0  1  0.000000  0.000000  0.000000  1
  Tc  Tc1  1  0.555274  0.929941  0.259618  1
  Tc  Tc2  1  0.259618  0.555274  0.929941  1
  Tc  Tc3  1  0.929941  0.259618  0.555274  1
  Tc  Tc4  1  0.740382  0.444726  0.070059  1
  Tc  Tc5  1  0.070059  0.740382  0.444726  1
  Tc  Tc6  1  0.444726  0.070059  0.740382  1
  Sb  Sb7  1  0.500000  0.500000  0.500000  1
  O  O8  1  0.755776  0.971327  0.142491  1
  O  O9  1  0.142491  0.755776  0.971327  1
  O  O10  1  0.971327  0.142491  0.755776  1
  O  O11  1  0.685015  0.368017  0.316017  1
  O  O12  1  0.316017  0.685015  0.368017  1
  O  O13  1  0.368017  0.316017  0.685015  1
  O  O14  1  0.244224  0.028673  0.857509  1
  O  O15  1  0.857509  0.244224  0.028673  1
  O  O16  1  0.028673  0.857509  0.244224  1
  O  O17  1  0.314985  0.631983  0.683983  1
  O  O18  1  0.683983  0.314985  0.631983  1
  O  O19  1  0.631983  0.683983  0.314985  1
  O  O20  1  0.411677  0.967086  0.464670  1
  O  O21  1  0.464670  0.411677  0.967086  1
  O  O22  1  0.967086  0.464670  0.411677  1
  O  O23  1  0.882521  0.565213  0.923551  1
  O  O24  1  0.923551  0.882521  0.565213  1
  O  O25  1  0.565213  0.923551  0.882521  1
  O  O26  1  0.588323  0.032914  0.535330  1
  O  O27  1  0.535330  0.588323  0.032914  1
  O  O28  1  0.032914  0.535330  0.588323  1
  O  O29  1  0.117479  0.434787  0.076449  1
  O  O30  1  0.076449  0.117479  0.434787  1
  O  O31  1  0.434787  0.076449  0.117479  1
