# generated using pymatgen
data_Al2H8Os
_symmetry_space_group_name_H-M   'P 1'
_cell_length_a   5.44103561
_cell_length_b   4.19586516
_cell_length_c   5.50934527
_cell_angle_alpha   89.88186693
_cell_angle_beta   101.37377595
_cell_angle_gamma   112.25109717
_symmetry_Int_Tables_number   1
_chemical_formula_structural   Al2H8Os
_chemical_formula_sum   'Al2 H8 Os1'
_cell_volume   113.75910512
_cell_formula_units_Z   1
loop_
 _symmetry_equiv_pos_site_id
 _symmetry_equiv_pos_as_xyz
  1  'x, y, z'
loop_
 _atom_site_type_symbol
 _atom_site_label
 _atom_site_symmetry_multiplicity
 _atom_site_fract_x
 _atom_site_fract_y
 _atom_site_fract_z
 _atom_site_occupancy
  Al  Al0  1  0.993406  0.492623  0.266048  1
  Al  Al1  1  0.991688  0.493088  0.742942  1
  H  H2  1  0.255989  0.384431  0.056679  1
  H  H3  1  0.774714  0.033902  0.175877  1
  H  H4  1  0.216641  0.949994  0.255399  1
  H  H5  1  0.217036  0.530763  0.548448  1
  H  H6  1  0.767542  0.454150  0.460311  1
  H  H7  1  0.768721  0.035424  0.754038  1
  H  H8  1  0.210928  0.952262  0.833061  1
  H  H9  1  0.730497  0.600499  0.952678  1
  Os  Os10  1  0.992841  0.992869  0.004515  1
