# generated using pymatgen
data_Y5Mo3(P3Ir4)4
_symmetry_space_group_name_H-M   'P 1'
_cell_length_a   12.68826800
_cell_length_b   12.68826764
_cell_length_c   3.99416800
_cell_angle_alpha   90.00000000
_cell_angle_beta   90.00000000
_cell_angle_gamma   120.00000094
_symmetry_Int_Tables_number   1
_chemical_formula_structural   Y5Mo3(P3Ir4)4
_chemical_formula_sum   'Y5 Mo3 P12 Ir16'
_cell_volume   556.88001117
_cell_formula_units_Z   1
loop_
 _symmetry_equiv_pos_site_id
 _symmetry_equiv_pos_as_xyz
  1  'x, y, z'
loop_
 _atom_site_type_symbol
 _atom_site_label
 _atom_site_symmetry_multiplicity
 _atom_site_fract_x
 _atom_site_fract_y
 _atom_site_fract_z
 _atom_site_occupancy
  Y  Y0  1  0.333333  0.666667  0.500000  1
  Y  Y1  1  0.666667  0.333333  0.500000  1
  Y  Y2  1  0.000000  0.813002  0.000000  1
  Y  Y3  1  0.186998  0.186998  0.000000  1
  Y  Y4  1  0.813002  0.000000  0.000000  1
  Mo  Mo5  1  0.000000  0.453442  0.500000  1
  Mo  Mo6  1  0.546558  0.546558  0.500000  1
  Mo  Mo7  1  0.453442  0.000000  0.500000  1
  P  P8  1  0.000000  0.638680  0.500000  1
  P  P9  1  0.361320  0.361320  0.500000  1
  P  P10  1  0.638680  0.000000  0.500000  1
  P  P11  1  0.516237  0.684336  0.000000  1
  P  P12  1  0.315664  0.831901  0.000000  1
  P  P13  1  0.168099  0.483763  0.000000  1
  P  P14  1  0.483763  0.168099  0.000000  1
  P  P15  1  0.684336  0.516237  0.000000  1
  P  P16  1  0.831901  0.315664  0.000000  1
  P  P17  1  0.000000  0.176908  0.500000  1
  P  P18  1  0.823092  0.823092  0.500000  1
  P  P19  1  0.176908  0.000000  0.500000  1
  Ir  Ir20  1  0.509121  0.866634  0.000000  1
  Ir  Ir21  1  0.133366  0.642487  0.000000  1
  Ir  Ir22  1  0.357513  0.490879  0.000000  1
  Ir  Ir23  1  0.490879  0.357513  0.000000  1
  Ir  Ir24  1  0.866634  0.509121  0.000000  1
  Ir  Ir25  1  0.642487  0.133366  0.000000  1
  Ir  Ir26  1  0.000000  0.286540  0.000000  1
  Ir  Ir27  1  0.713460  0.713460  0.000000  1
  Ir  Ir28  1  0.286540  0.000000  0.000000  1
  Ir  Ir29  1  0.625794  0.804514  0.500000  1
  Ir  Ir30  1  0.195486  0.821280  0.500000  1
  Ir  Ir31  1  0.178720  0.374206  0.500000  1
  Ir  Ir32  1  0.374206  0.178720  0.500000  1
  Ir  Ir33  1  0.804514  0.625794  0.500000  1
  Ir  Ir34  1  0.821280  0.195486  0.500000  1
  Ir  Ir35  1  0.000000  0.000000  0.500000  1
