# generated using pymatgen
data_Y8Ho4Co4SnRh
_symmetry_space_group_name_H-M   'P 1'
_cell_length_a   8.30648175
_cell_length_b   8.30648166
_cell_length_c   8.30648185
_cell_angle_alpha   110.75696984
_cell_angle_beta   110.72560709
_cell_angle_gamma   106.95990274
_symmetry_Int_Tables_number   1
_chemical_formula_structural   Y8Ho4Co4SnRh
_chemical_formula_sum   'Y8 Ho4 Co4 Sn1 Rh1'
_cell_volume   440.56160479
_cell_formula_units_Z   1
loop_
 _symmetry_equiv_pos_site_id
 _symmetry_equiv_pos_as_xyz
  1  'x, y, z'
loop_
 _atom_site_type_symbol
 _atom_site_label
 _atom_site_symmetry_multiplicity
 _atom_site_fract_x
 _atom_site_fract_y
 _atom_site_fract_z
 _atom_site_occupancy
  Y  Y0  1  0.187387  0.291874  0.479260  1
  Y  Y1  1  0.812613  0.708126  0.520740  1
  Y  Y2  1  0.187387  0.708126  0.895513  1
  Y  Y3  1  0.812613  0.291874  0.104487  1
  Y  Y4  1  0.312716  0.617217  0.304501  1
  Y  Y5  1  0.687284  0.382783  0.695499  1
  Y  Y6  1  0.312716  0.008215  0.695499  1
  Y  Y7  1  0.687284  0.991785  0.304501  1
  Ho  Ho8  1  0.405657  0.210050  0.195607  1
  Ho  Ho9  1  0.594343  0.789950  0.804393  1
  Ho  Ho10  1  0.014444  0.210050  0.804393  1
  Ho  Ho11  1  0.985556  0.789950  0.195607  1
  Co  Co12  1  0.378810  0.000000  0.378810  1
  Co  Co13  1  0.621190  0.000000  0.621190  1
  Co  Co14  1  0.111198  0.611198  0.500000  1
  Co  Co15  1  0.888802  0.388802  0.500000  1
  Sn  Sn16  1  0.500000  0.500000  0.000000  1
  Rh  Rh17  1  0.000000  0.000000  0.000000  1
