# generated using pymatgen
data_HfThReB6
_symmetry_space_group_name_H-M   'P 1'
_cell_length_a   3.68854200
_cell_length_b   9.10293800
_cell_length_c   11.55215900
_cell_angle_alpha   90.00000000
_cell_angle_beta   90.00000000
_cell_angle_gamma   90.00000000
_symmetry_Int_Tables_number   1
_chemical_formula_structural   HfThReB6
_chemical_formula_sum   'Hf4 Th4 Re4 B24'
_cell_volume   387.88186534
_cell_formula_units_Z   4
loop_
 _symmetry_equiv_pos_site_id
 _symmetry_equiv_pos_as_xyz
  1  'x, y, z'
loop_
 _atom_site_type_symbol
 _atom_site_label
 _atom_site_symmetry_multiplicity
 _atom_site_fract_x
 _atom_site_fract_y
 _atom_site_fract_z
 _atom_site_occupancy
  Hf  Hf0  1  0.000000  0.945286  0.375508  1
  Hf  Hf1  1  0.000000  0.054714  0.624492  1
  Hf  Hf2  1  0.000000  0.445286  0.124492  1
  Hf  Hf3  1  0.000000  0.554714  0.875508  1
  Th  Th4  1  0.000000  0.321905  0.414394  1
  Th  Th5  1  0.000000  0.678095  0.585606  1
  Th  Th6  1  0.000000  0.821905  0.085606  1
  Th  Th7  1  0.000000  0.178095  0.914394  1
  Re  Re8  1  0.000000  0.642682  0.315878  1
  Re  Re9  1  0.000000  0.357318  0.684122  1
  Re  Re10  1  0.000000  0.142682  0.184122  1
  Re  Re11  1  0.000000  0.857318  0.815878  1
  B  B12  1  0.500000  0.556579  0.430071  1
  B  B13  1  0.500000  0.443421  0.569929  1
  B  B14  1  0.500000  0.056579  0.069929  1
  B  B15  1  0.500000  0.943421  0.930071  1
  B  B16  1  0.500000  0.754214  0.416202  1
  B  B17  1  0.500000  0.245786  0.583798  1
  B  B18  1  0.500000  0.254214  0.083798  1
  B  B19  1  0.500000  0.745786  0.916202  1
  B  B20  1  0.500000  0.794964  0.265221  1
  B  B21  1  0.500000  0.205036  0.734779  1
  B  B22  1  0.500000  0.294964  0.234779  1
  B  B23  1  0.500000  0.705036  0.765221  1
  B  B24  1  0.500000  0.628949  0.183304  1
  B  B25  1  0.500000  0.371051  0.816696  1
  B  B26  1  0.500000  0.128949  0.316696  1
  B  B27  1  0.500000  0.871051  0.683304  1
  B  B28  1  0.500000  0.983555  0.215446  1
  B  B29  1  0.500000  0.016445  0.784554  1
  B  B30  1  0.500000  0.483555  0.284554  1
  B  B31  1  0.500000  0.516445  0.715446  1
  B  B32  1  0.500000  0.598711  0.026220  1
  B  B33  1  0.500000  0.401289  0.973780  1
  B  B34  1  0.500000  0.098711  0.473780  1
  B  B35  1  0.500000  0.901289  0.526220  1
