# generated using pymatgen
data_Nd6Al7ZnCl2
_symmetry_space_group_name_H-M   'P 1'
_cell_length_a   8.06971994
_cell_length_b   8.06971999
_cell_length_c   8.09189189
_cell_angle_alpha   119.03840716
_cell_angle_beta   119.03840276
_cell_angle_gamma   91.61649301
_symmetry_Int_Tables_number   1
_chemical_formula_structural   Nd6Al7ZnCl2
_chemical_formula_sum   'Nd6 Al7 Zn1 Cl2'
_cell_volume   378.04307360
_cell_formula_units_Z   1
loop_
 _symmetry_equiv_pos_site_id
 _symmetry_equiv_pos_as_xyz
  1  'x, y, z'
loop_
 _atom_site_type_symbol
 _atom_site_label
 _atom_site_symmetry_multiplicity
 _atom_site_fract_x
 _atom_site_fract_y
 _atom_site_fract_z
 _atom_site_occupancy
  Nd  Nd0  1  0.658633  0.158633  0.818137  1
  Nd  Nd1  1  0.158678  0.340994  0.500154  1
  Nd  Nd2  1  0.840994  0.658678  0.500154  1
  Nd  Nd3  1  0.750873  0.749854  0.000616  1
  Nd  Nd4  1  0.339568  0.839568  0.180477  1
  Nd  Nd5  1  0.249854  0.250873  0.000616  1
  Al  Al6  1  0.843903  0.060683  0.503992  1
  Al  Al7  1  0.341702  0.841702  0.787696  1
  Al  Al8  1  0.444791  0.656034  0.499270  1
  Al  Al9  1  0.560683  0.343903  0.503992  1
  Al  Al10  1  0.052850  0.552850  0.205936  1
  Al  Al11  1  0.156034  0.944791  0.499270  1
  Al  Al12  1  0.655367  0.155367  0.209123  1
  Zn  Zn13  1  0.946507  0.446507  0.790695  1
  Cl  Cl14  1  0.499352  0.500212  0.999935  1
  Cl  Cl15  1  0.000212  0.999352  0.999935  1
