# generated using pymatgen
data_K2ZnCd(SiAs2)2
_symmetry_space_group_name_H-M   'P 1'
_cell_length_a   8.62501824
_cell_length_b   8.36226463
_cell_length_c   8.53487600
_cell_angle_alpha   70.94177183
_cell_angle_beta   76.27217879
_cell_angle_gamma   73.71670071
_symmetry_Int_Tables_number   1
_chemical_formula_structural   K2ZnCd(SiAs2)2
_chemical_formula_sum   'K4 Zn2 Cd2 Si4 As8'
_cell_volume   551.24053858
_cell_formula_units_Z   2
loop_
 _symmetry_equiv_pos_site_id
 _symmetry_equiv_pos_as_xyz
  1  'x, y, z'
loop_
 _atom_site_type_symbol
 _atom_site_label
 _atom_site_symmetry_multiplicity
 _atom_site_fract_x
 _atom_site_fract_y
 _atom_site_fract_z
 _atom_site_occupancy
  K  K0  1  0.451322  0.758774  0.319659  1
  K  K1  1  0.548678  0.241226  0.680341  1
  K  K2  1  0.431974  0.799146  0.816954  1
  K  K3  1  0.568026  0.200854  0.183046  1
  Zn  Zn4  1  0.994658  0.892695  0.682430  1
  Zn  Zn5  1  0.005342  0.107305  0.317570  1
  Cd  Cd6  1  0.973807  0.829660  0.165517  1
  Cd  Cd7  1  0.026193  0.170340  0.834483  1
  Si  Si8  1  0.959999  0.590395  0.593236  1
  Si  Si9  1  0.040001  0.409605  0.406764  1
  Si  Si10  1  0.141883  0.447985  0.979065  1
  Si  Si11  1  0.858117  0.552015  0.020935  1
  As  As12  1  0.819193  0.883032  0.466916  1
  As  As13  1  0.180807  0.116968  0.533084  1
  As  As14  1  0.795539  0.400609  0.314550  1
  As  As15  1  0.204461  0.599391  0.685450  1
  As  As16  1  0.780224  0.865258  0.947269  1
  As  As17  1  0.219776  0.134742  0.052731  1
  As  As18  1  0.771870  0.455266  0.824237  1
  As  As19  1  0.228130  0.544734  0.175763  1
