# generated using pymatgen
data_Nd5Er9Th2(CdRu)4
_symmetry_space_group_name_H-M   'P 1'
_cell_length_a   9.71382325
_cell_length_b   9.71245940
_cell_length_c   9.71190300
_cell_angle_alpha   60.01268074
_cell_angle_beta   59.98462414
_cell_angle_gamma   60.24449216
_symmetry_Int_Tables_number   1
_chemical_formula_structural   Nd5Er9Th2(CdRu)4
_chemical_formula_sum   'Nd5 Er9 Th2 Cd4 Ru4'
_cell_volume   649.07647269
_cell_formula_units_Z   1
loop_
 _symmetry_equiv_pos_site_id
 _symmetry_equiv_pos_as_xyz
  1  'x, y, z'
loop_
 _atom_site_type_symbol
 _atom_site_label
 _atom_site_symmetry_multiplicity
 _atom_site_fract_x
 _atom_site_fract_y
 _atom_site_fract_z
 _atom_site_occupancy
  Nd  Nd0  1  0.557340  0.942023  0.940992  1
  Nd  Nd1  1  0.563944  0.936177  0.560872  1
  Nd  Nd2  1  0.941886  0.558976  0.936117  1
  Nd  Nd3  1  0.564529  0.561597  0.934480  1
  Nd  Nd4  1  0.945233  0.942211  0.554591  1
  Er  Er5  1  0.349340  0.955886  0.349058  1
  Er  Er6  1  0.953850  0.351057  0.348364  1
  Er  Er7  1  0.814083  0.187120  0.185613  1
  Er  Er8  1  0.186138  0.815318  0.813355  1
  Er  Er9  1  0.185585  0.813013  0.187992  1
  Er  Er10  1  0.814382  0.187608  0.812010  1
  Er  Er11  1  0.182905  0.186225  0.814403  1
  Er  Er12  1  0.813089  0.811871  0.188220  1
  Er  Er13  1  0.941907  0.558134  0.557192  1
  Th  Th14  1  0.343624  0.342241  0.348153  1
  Th  Th15  1  0.342127  0.344913  0.967632  1
  Cd  Cd16  1  0.583057  0.579651  0.576626  1
  Cd  Cd17  1  0.579692  0.580645  0.261914  1
  Cd  Cd18  1  0.580136  0.261015  0.579649  1
  Cd  Cd19  1  0.258780  0.579670  0.578632  1
  Ru  Ru20  1  0.140940  0.140608  0.141648  1
  Ru  Ru21  1  0.139845  0.144567  0.576075  1
  Ru  Ru22  1  0.142670  0.574670  0.146018  1
  Ru  Ru23  1  0.574917  0.144804  0.140393  1
