# generated using pymatgen
data_EuAs2IrPd
_symmetry_space_group_name_H-M   'P 1'
_cell_length_a   4.44927600
_cell_length_b   4.44927600
_cell_length_c   9.89386400
_cell_angle_alpha   90.00000000
_cell_angle_beta   90.00000000
_cell_angle_gamma   90.00000000
_symmetry_Int_Tables_number   1
_chemical_formula_structural   EuAs2IrPd
_chemical_formula_sum   'Eu2 As4 Ir2 Pd2'
_cell_volume   195.85949494
_cell_formula_units_Z   2
loop_
 _symmetry_equiv_pos_site_id
 _symmetry_equiv_pos_as_xyz
  1  'x, y, z'
loop_
 _atom_site_type_symbol
 _atom_site_label
 _atom_site_symmetry_multiplicity
 _atom_site_fract_x
 _atom_site_fract_y
 _atom_site_fract_z
 _atom_site_occupancy
  Eu  Eu0  1  0.000000  0.500000  0.246758  1
  Eu  Eu1  1  0.500000  0.000000  0.753242  1
  As  As2  1  0.000000  0.000000  0.000000  1
  As  As3  1  0.500000  0.500000  0.000000  1
  As  As4  1  0.000000  0.500000  0.640378  1
  As  As5  1  0.500000  0.000000  0.359622  1
  Ir  Ir6  1  0.000000  0.500000  0.888490  1
  Ir  Ir7  1  0.500000  0.000000  0.111510  1
  Pd  Pd8  1  0.000000  0.000000  0.500000  1
  Pd  Pd9  1  0.500000  0.500000  0.500000  1
