# generated using pymatgen
data_Nd7SmSc12Si15Tc
_symmetry_space_group_name_H-M   'P 1'
_cell_length_a   7.21670006
_cell_length_b   7.56586244
_cell_length_c   14.14991927
_cell_angle_alpha   89.93980000
_cell_angle_beta   90.02416767
_cell_angle_gamma   90.09709847
_symmetry_Int_Tables_number   1
_chemical_formula_structural   Nd7SmSc12Si15Tc
_chemical_formula_sum   'Nd7 Sm1 Sc12 Si15 Tc1'
_cell_volume   772.59191137
_cell_formula_units_Z   1
loop_
 _symmetry_equiv_pos_site_id
 _symmetry_equiv_pos_as_xyz
  1  'x, y, z'
loop_
 _atom_site_type_symbol
 _atom_site_label
 _atom_site_symmetry_multiplicity
 _atom_site_fract_x
 _atom_site_fract_y
 _atom_site_fract_z
 _atom_site_occupancy
  Nd  Nd0  1  0.011279  0.176775  0.096589  1
  Nd  Nd1  1  0.990342  0.828982  0.902058  1
  Nd  Nd2  1  0.488534  0.672532  0.903639  1
  Nd  Nd3  1  0.990390  0.828715  0.597790  1
  Nd  Nd4  1  0.510954  0.326141  0.096292  1
  Nd  Nd5  1  0.011426  0.176709  0.403500  1
  Nd  Nd6  1  0.510930  0.326119  0.403906  1
  Sm  Sm7  1  0.488346  0.673610  0.597068  1
  Sc  Sc8  1  0.154492  0.491990  0.749806  1
  Sc  Sc9  1  0.840376  0.498527  0.249966  1
  Sc  Sc10  1  0.339165  0.002599  0.250044  1
  Sc  Sc11  1  0.665891  0.002343  0.749811  1
  Sc  Sc12  1  0.316982  0.171898  0.628032  1
  Sc  Sc13  1  0.671590  0.826618  0.373709  1
  Sc  Sc14  1  0.172114  0.677454  0.373865  1
  Sc  Sc15  1  0.671883  0.826963  0.126498  1
  Sc  Sc16  1  0.837077  0.318741  0.627795  1
  Sc  Sc17  1  0.317013  0.171722  0.871786  1
  Sc  Sc18  1  0.837095  0.318785  0.872089  1
  Sc  Sc19  1  0.171856  0.677389  0.126329  1
  Si  Si20  1  0.967801  0.877149  0.250011  1
  Si  Si21  1  0.469411  0.620731  0.250020  1
  Si  Si22  1  0.530108  0.383171  0.749515  1
  Si  Si23  1  0.289654  0.876118  0.749450  1
  Si  Si24  1  0.711255  0.122021  0.250008  1
  Si  Si25  1  0.212569  0.376985  0.250006  1
  Si  Si26  1  0.780095  0.621176  0.749370  1
  Si  Si27  1  0.156120  0.468370  0.537538  1
  Si  Si28  1  0.849205  0.538258  0.461412  1
  Si  Si29  1  0.349150  0.962897  0.459957  1
  Si  Si30  1  0.849778  0.538155  0.038794  1
  Si  Si31  1  0.650572  0.033498  0.539213  1
  Si  Si32  1  0.154623  0.467664  0.962801  1
  Si  Si33  1  0.651003  0.034727  0.961020  1
  Si  Si34  1  0.348859  0.963839  0.040374  1
  Tc  Tc35  1  0.032063  0.120625  0.749940  1
