# generated using pymatgen
data_Sr5Er3(Si3Pt)4
_symmetry_space_group_name_H-M   'P 1'
_cell_length_a   8.25777000
_cell_length_b   8.25776998
_cell_length_c   8.83084700
_cell_angle_alpha   90.00000000
_cell_angle_beta   90.00000000
_cell_angle_gamma   120.00000809
_symmetry_Int_Tables_number   1
_chemical_formula_structural   Sr5Er3(Si3Pt)4
_chemical_formula_sum   'Sr5 Er3 Si12 Pt4'
_cell_volume   521.50505296
_cell_formula_units_Z   1
loop_
 _symmetry_equiv_pos_site_id
 _symmetry_equiv_pos_as_xyz
  1  'x, y, z'
loop_
 _atom_site_type_symbol
 _atom_site_label
 _atom_site_symmetry_multiplicity
 _atom_site_fract_x
 _atom_site_fract_y
 _atom_site_fract_z
 _atom_site_occupancy
  Sr  Sr0  1  0.000000  0.000000  0.250000  1
  Sr  Sr1  1  0.000000  0.000000  0.750000  1
  Sr  Sr2  1  0.499502  0.500498  0.250000  1
  Sr  Sr3  1  0.499502  0.999003  0.250000  1
  Sr  Sr4  1  0.000997  0.500498  0.250000  1
  Er  Er5  1  0.499919  0.500081  0.750000  1
  Er  Er6  1  0.499919  0.999839  0.750000  1
  Er  Er7  1  0.000161  0.500081  0.750000  1
  Si  Si8  1  0.167046  0.832954  0.515139  1
  Si  Si9  1  0.167046  0.334091  0.515139  1
  Si  Si10  1  0.665909  0.832954  0.515139  1
  Si  Si11  1  0.832925  0.167075  0.514636  1
  Si  Si12  1  0.832925  0.665853  0.514636  1
  Si  Si13  1  0.334147  0.167075  0.514636  1
  Si  Si14  1  0.832925  0.167075  0.985364  1
  Si  Si15  1  0.832925  0.665853  0.985364  1
  Si  Si16  1  0.334147  0.167075  0.985364  1
  Si  Si17  1  0.167046  0.832954  0.984861  1
  Si  Si18  1  0.167046  0.334091  0.984861  1
  Si  Si19  1  0.665909  0.832954  0.984861  1
  Pt  Pt20  1  0.333333  0.666667  0.523485  1
  Pt  Pt21  1  0.666667  0.333333  0.525417  1
  Pt  Pt22  1  0.666667  0.333333  0.974583  1
  Pt  Pt23  1  0.333333  0.666667  0.976515  1
