# generated using pymatgen
data_Er20Cd3Ag3Ru2
_symmetry_space_group_name_H-M   'P 1'
_cell_length_a   9.50118400
_cell_length_b   9.50118339
_cell_length_c   9.62940800
_cell_angle_alpha   90.00000000
_cell_angle_beta   90.00000000
_cell_angle_gamma   120.00000214
_symmetry_Int_Tables_number   1
_chemical_formula_structural   Er20Cd3Ag3Ru2
_chemical_formula_sum   'Er20 Cd3 Ag3 Ru2'
_cell_volume   752.81045151
_cell_formula_units_Z   1
loop_
 _symmetry_equiv_pos_site_id
 _symmetry_equiv_pos_as_xyz
  1  'x, y, z'
loop_
 _atom_site_type_symbol
 _atom_site_label
 _atom_site_symmetry_multiplicity
 _atom_site_fract_x
 _atom_site_fract_y
 _atom_site_fract_z
 _atom_site_occupancy
  Er  Er0  1  0.000000  0.000000  0.476464  1
  Er  Er1  1  0.000000  0.000000  0.023536  1
  Er  Er2  1  0.210273  0.789727  0.441701  1
  Er  Er3  1  0.210273  0.420548  0.441701  1
  Er  Er4  1  0.579452  0.789727  0.441701  1
  Er  Er5  1  0.790954  0.209046  0.558929  1
  Er  Er6  1  0.790954  0.581907  0.558929  1
  Er  Er7  1  0.418093  0.209046  0.558929  1
  Er  Er8  1  0.790954  0.209046  0.941071  1
  Er  Er9  1  0.790954  0.581907  0.941071  1
  Er  Er10  1  0.418093  0.209046  0.941071  1
  Er  Er11  1  0.210273  0.789727  0.058299  1
  Er  Er12  1  0.210273  0.420548  0.058299  1
  Er  Er13  1  0.579452  0.789727  0.058299  1
  Er  Er14  1  0.540617  0.459383  0.250000  1
  Er  Er15  1  0.540617  0.081233  0.250000  1
  Er  Er16  1  0.918767  0.459383  0.250000  1
  Er  Er17  1  0.459302  0.540698  0.750000  1
  Er  Er18  1  0.459302  0.918604  0.750000  1
  Er  Er19  1  0.081396  0.540698  0.750000  1
  Cd  Cd20  1  0.111448  0.888552  0.750000  1
  Cd  Cd21  1  0.111448  0.222895  0.750000  1
  Cd  Cd22  1  0.777105  0.888552  0.750000  1
  Ag  Ag23  1  0.876332  0.123668  0.250000  1
  Ag  Ag24  1  0.876332  0.752666  0.250000  1
  Ag  Ag25  1  0.247334  0.123668  0.250000  1
  Ru  Ru26  1  0.333333  0.666667  0.250000  1
  Ru  Ru27  1  0.666667  0.333333  0.750000  1
