# generated using pymatgen
data_Tb18Dy2Ir7Pt5
_symmetry_space_group_name_H-M   'P 1'
_cell_length_a   11.05594512
_cell_length_b   11.05594575
_cell_length_c   6.34976400
_cell_angle_alpha   90.00802731
_cell_angle_beta   90.00802411
_cell_angle_gamma   89.79362717
_symmetry_Int_Tables_number   1
_chemical_formula_structural   Tb18Dy2Ir7Pt5
_chemical_formula_sum   'Tb18 Dy2 Ir7 Pt5'
_cell_volume   776.15155487
_cell_formula_units_Z   1
loop_
 _symmetry_equiv_pos_site_id
 _symmetry_equiv_pos_as_xyz
  1  'x, y, z'
loop_
 _atom_site_type_symbol
 _atom_site_label
 _atom_site_symmetry_multiplicity
 _atom_site_fract_x
 _atom_site_fract_y
 _atom_site_fract_z
 _atom_site_occupancy
  Tb  Tb0  1  0.295379  0.090712  0.373952  1
  Tb  Tb1  1  0.295563  0.909217  0.872954  1
  Tb  Tb2  1  0.704514  0.086696  0.873154  1
  Tb  Tb3  1  0.704412  0.908555  0.373312  1
  Tb  Tb4  1  0.586414  0.789864  0.878462  1
  Tb  Tb5  1  0.584581  0.206919  0.374416  1
  Tb  Tb6  1  0.413723  0.791284  0.377961  1
  Tb  Tb7  1  0.410455  0.207759  0.879930  1
  Tb  Tb8  1  0.210136  0.413586  0.621538  1
  Tb  Tb9  1  0.208716  0.586277  0.122039  1
  Tb  Tb10  1  0.793081  0.415419  0.125584  1
  Tb  Tb11  1  0.792241  0.589545  0.620070  1
  Tb  Tb12  1  0.909288  0.704621  0.126048  1
  Tb  Tb13  1  0.913304  0.295486  0.626846  1
  Tb  Tb14  1  0.090783  0.704437  0.627046  1
  Tb  Tb15  1  0.091445  0.295588  0.126688  1
  Tb  Tb16  1  0.999726  0.999847  0.499487  1
  Tb  Tb17  1  0.000153  0.000274  0.000513  1
  Dy  Dy18  1  0.498345  0.501001  0.000327  1
  Dy  Dy19  1  0.498999  0.501655  0.499673  1
  Ir  Ir20  1  0.653683  0.653102  0.250123  1
  Ir  Ir21  1  0.346898  0.346317  0.249877  1
  Ir  Ir22  1  0.345226  0.654774  0.750000  1
  Ir  Ir23  1  0.500228  0.000209  0.122186  1
  Ir  Ir24  1  0.500149  0.000499  0.623504  1
  Ir  Ir25  1  0.999501  0.499851  0.876496  1
  Ir  Ir26  1  0.999791  0.499772  0.377814  1
  Pt  Pt27  1  0.845452  0.154548  0.250000  1
  Pt  Pt28  1  0.846242  0.847152  0.750475  1
  Pt  Pt29  1  0.152848  0.153758  0.749525  1
  Pt  Pt30  1  0.153900  0.846100  0.250000  1
  Pt  Pt31  1  0.654825  0.345175  0.750000  1
