# generated using pymatgen
data_Zr3Tc3GeBAs
_symmetry_space_group_name_H-M   'P 1'
_cell_length_a   6.93446900
_cell_length_b   6.93446898
_cell_length_c   3.41084400
_cell_angle_alpha   90.00000000
_cell_angle_beta   90.00000000
_cell_angle_gamma   120.00000488
_symmetry_Int_Tables_number   1
_chemical_formula_structural   Zr3Tc3GeBAs
_chemical_formula_sum   'Zr3 Tc3 Ge1 B1 As1'
_cell_volume   142.04268977
_cell_formula_units_Z   1
loop_
 _symmetry_equiv_pos_site_id
 _symmetry_equiv_pos_as_xyz
  1  'x, y, z'
loop_
 _atom_site_type_symbol
 _atom_site_label
 _atom_site_symmetry_multiplicity
 _atom_site_fract_x
 _atom_site_fract_y
 _atom_site_fract_z
 _atom_site_occupancy
  Zr  Zr0  1  0.000449  0.383434  0.500000  1
  Zr  Zr1  1  0.616566  0.617015  0.500000  1
  Zr  Zr2  1  0.382985  0.999551  0.500000  1
  Tc  Tc3  1  0.000051  0.764458  0.000000  1
  Tc  Tc4  1  0.235542  0.235594  0.000000  1
  Tc  Tc5  1  0.764406  0.999949  0.000000  1
  Ge  Ge6  1  0.666667  0.333333  0.000000  1
  B  B7  1  0.000000  0.000000  0.500000  1
  As  As8  1  0.333333  0.666667  0.000000  1
