# generated using pymatgen
data_Ho5Er11In4(PtRh)2
_symmetry_space_group_name_H-M   'P 1'
_cell_length_a   9.59572550
_cell_length_b   9.61057331
_cell_length_c   9.61141219
_cell_angle_alpha   60.08638688
_cell_angle_beta   60.05226781
_cell_angle_gamma   60.07174019
_symmetry_Int_Tables_number   1
_chemical_formula_structural   Ho5Er11In4(PtRh)2
_chemical_formula_sum   'Ho5 Er11 In4 Pt2 Rh2'
_cell_volume   627.75320582
_cell_formula_units_Z   1
loop_
 _symmetry_equiv_pos_site_id
 _symmetry_equiv_pos_as_xyz
  1  'x, y, z'
loop_
 _atom_site_type_symbol
 _atom_site_label
 _atom_site_symmetry_multiplicity
 _atom_site_fract_x
 _atom_site_fract_y
 _atom_site_fract_z
 _atom_site_occupancy
  Ho  Ho0  1  0.192135  0.187090  0.810087  1
  Ho  Ho1  1  0.438086  0.061895  0.062215  1
  Ho  Ho2  1  0.437176  0.062661  0.437958  1
  Ho  Ho3  1  0.061888  0.438332  0.062795  1
  Ho  Ho4  1  0.649268  0.050309  0.651590  1
  Er  Er5  1  0.188919  0.810873  0.811050  1
  Er  Er6  1  0.061842  0.062421  0.438376  1
  Er  Er7  1  0.809426  0.190417  0.190508  1
  Er  Er8  1  0.810590  0.810109  0.187081  1
  Er  Er9  1  0.649031  0.651551  0.050310  1
  Er  Er10  1  0.646951  0.650709  0.650717  1
  Er  Er11  1  0.062310  0.437779  0.437577  1
  Er  Er12  1  0.051466  0.650954  0.650650  1
  Er  Er13  1  0.810466  0.187143  0.810120  1
  Er  Er14  1  0.437480  0.438513  0.062378  1
  Er  Er15  1  0.192231  0.809912  0.187334  1
  In  In16  1  0.417095  0.748700  0.416920  1
  In  In17  1  0.417306  0.417139  0.748637  1
  In  In18  1  0.750279  0.416648  0.416564  1
  In  In19  1  0.416543  0.416813  0.416366  1
  Pt  Pt20  1  0.856807  0.428100  0.857581  1
  Pt  Pt21  1  0.857781  0.857298  0.427388  1
  Rh  Rh22  1  0.426910  0.857041  0.858019  1
  Rh  Rh23  1  0.858015  0.857590  0.857777  1
