# generated using pymatgen
data_Lu8Co3Si12Pt
_symmetry_space_group_name_H-M   'P 1'
_cell_length_a   7.97658700
_cell_length_b   7.97658677
_cell_length_c   7.71313200
_cell_angle_alpha   90.00000000
_cell_angle_beta   90.00000000
_cell_angle_gamma   119.99999681
_symmetry_Int_Tables_number   1
_chemical_formula_structural   Lu8Co3Si12Pt
_chemical_formula_sum   'Lu8 Co3 Si12 Pt1'
_cell_volume   425.00653670
_cell_formula_units_Z   1
loop_
 _symmetry_equiv_pos_site_id
 _symmetry_equiv_pos_as_xyz
  1  'x, y, z'
loop_
 _atom_site_type_symbol
 _atom_site_label
 _atom_site_symmetry_multiplicity
 _atom_site_fract_x
 _atom_site_fract_y
 _atom_site_fract_z
 _atom_site_occupancy
  Lu  Lu0  1  0.980698  0.490349  0.246233  1
  Lu  Lu1  1  0.509651  0.490349  0.246233  1
  Lu  Lu2  1  0.495018  0.990034  0.751941  1
  Lu  Lu3  1  0.009966  0.504982  0.751941  1
  Lu  Lu4  1  0.495018  0.504982  0.751941  1
  Lu  Lu5  1  0.509651  0.019302  0.246233  1
  Lu  Lu6  1  0.000000  0.000000  0.753122  1
  Lu  Lu7  1  0.000000  0.000000  0.248066  1
  Co  Co8  1  0.333333  0.666667  0.035232  1
  Co  Co9  1  0.666667  0.333333  0.964274  1
  Co  Co10  1  0.666667  0.333333  0.535941  1
  Si  Si11  1  0.163168  0.836832  0.500930  1
  Si  Si12  1  0.163168  0.326336  0.500930  1
  Si  Si13  1  0.673664  0.836832  0.500930  1
  Si  Si14  1  0.341881  0.170941  0.998149  1
  Si  Si15  1  0.826826  0.653652  0.500613  1
  Si  Si16  1  0.829059  0.170941  0.998149  1
  Si  Si17  1  0.829059  0.658119  0.998149  1
  Si  Si18  1  0.171912  0.343823  0.001198  1
  Si  Si19  1  0.656177  0.828088  0.001198  1
  Si  Si20  1  0.346348  0.173174  0.500613  1
  Si  Si21  1  0.826826  0.173174  0.500613  1
  Si  Si22  1  0.171912  0.828088  0.001198  1
  Pt  Pt23  1  0.333333  0.666667  0.466171  1
