# generated using pymatgen
data_K7Pu(SO4)6
_symmetry_space_group_name_H-M   'P 1'
_cell_length_a   9.49564518
_cell_length_b   9.49564540
_cell_length_c   9.49564550
_cell_angle_alpha   109.20099300
_cell_angle_beta   109.20099277
_cell_angle_gamma   109.20100398
_symmetry_Int_Tables_number   1
_chemical_formula_structural   K7Pu(SO4)6
_chemical_formula_sum   'K7 Pu1 S6 O24'
_cell_volume   665.61287264
_cell_formula_units_Z   1
loop_
 _symmetry_equiv_pos_site_id
 _symmetry_equiv_pos_as_xyz
  1  'x, y, z'
loop_
 _atom_site_type_symbol
 _atom_site_label
 _atom_site_symmetry_multiplicity
 _atom_site_fract_x
 _atom_site_fract_y
 _atom_site_fract_z
 _atom_site_occupancy
  K  K0  1  0.500000  0.500000  0.500000  1
  K  K1  1  0.839856  0.337827  0.683303  1
  K  K2  1  0.337827  0.683303  0.839856  1
  K  K3  1  0.683303  0.839856  0.337827  1
  K  K4  1  0.160144  0.662173  0.316697  1
  K  K5  1  0.662173  0.316697  0.160144  1
  K  K6  1  0.316697  0.160144  0.662173  1
  Pu  Pu7  1  0.000000  0.000000  0.000000  1
  S  S8  1  0.965340  0.738089  0.606726  1
  S  S9  1  0.738089  0.606726  0.965340  1
  S  S10  1  0.606726  0.965340  0.738089  1
  S  S11  1  0.034660  0.261911  0.393274  1
  S  S12  1  0.261911  0.393274  0.034660  1
  S  S13  1  0.393274  0.034660  0.261911  1
  O  O14  1  0.442800  0.914429  0.178185  1
  O  O15  1  0.914429  0.178185  0.442800  1
  O  O16  1  0.178185  0.442800  0.914429  1
  O  O17  1  0.557200  0.085571  0.821815  1
  O  O18  1  0.085571  0.821815  0.557200  1
  O  O19  1  0.821815  0.557200  0.085571  1
  O  O20  1  0.315740  0.984476  0.360130  1
  O  O21  1  0.984476  0.360130  0.315740  1
  O  O22  1  0.360130  0.315740  0.984476  1
  O  O23  1  0.684260  0.015524  0.639870  1
  O  O24  1  0.015524  0.639870  0.684260  1
  O  O25  1  0.639870  0.684260  0.015524  1
  O  O26  1  0.746613  0.970572  0.889178  1
  O  O27  1  0.970572  0.889178  0.746613  1
  O  O28  1  0.637124  0.465890  0.786444  1
  O  O29  1  0.786444  0.637124  0.465890  1
  O  O30  1  0.465890  0.786444  0.637124  1
  O  O31  1  0.362876  0.534110  0.213556  1
  O  O32  1  0.213556  0.362876  0.534110  1
  O  O33  1  0.534110  0.213556  0.362876  1
  O  O34  1  0.110822  0.253387  0.029428  1
  O  O35  1  0.029428  0.110822  0.253387  1
  O  O36  1  0.253387  0.029428  0.110822  1
  O  O37  1  0.889178  0.746613  0.970572  1
