# generated using pymatgen
data_AcTb(ZnIn)2
_symmetry_space_group_name_H-M   'P 1'
_cell_length_a   4.75512200
_cell_length_b   4.75512248
_cell_length_c   7.92497100
_cell_angle_alpha   90.00000000
_cell_angle_beta   90.00000000
_cell_angle_gamma   119.99999669
_symmetry_Int_Tables_number   1
_chemical_formula_structural   AcTb(ZnIn)2
_chemical_formula_sum   'Ac1 Tb1 Zn2 In2'
_cell_volume   155.18569987
_cell_formula_units_Z   1
loop_
 _symmetry_equiv_pos_site_id
 _symmetry_equiv_pos_as_xyz
  1  'x, y, z'
loop_
 _atom_site_type_symbol
 _atom_site_label
 _atom_site_symmetry_multiplicity
 _atom_site_fract_x
 _atom_site_fract_y
 _atom_site_fract_z
 _atom_site_occupancy
  Ac  Ac0  1  0.000000  0.000000  0.500000  1
  Tb  Tb1  1  0.000000  0.000000  0.000000  1
  Zn  Zn2  1  0.333333  0.666667  0.801190  1
  Zn  Zn3  1  0.666667  0.333333  0.198810  1
  In  In4  1  0.333333  0.666667  0.217116  1
  In  In5  1  0.666667  0.333333  0.782884  1
