# generated using pymatgen
data_Lu5Os2C7
_symmetry_space_group_name_H-M   'P 1'
_cell_length_a   8.00306908
_cell_length_b   8.00306970
_cell_length_c   3.43757000
_cell_angle_alpha   90.00000000
_cell_angle_beta   90.00000000
_cell_angle_gamma   121.19332909
_symmetry_Int_Tables_number   1
_chemical_formula_structural   Lu5Os2C7
_chemical_formula_sum   'Lu5 Os2 C7'
_cell_volume   188.34167749
_cell_formula_units_Z   1
loop_
 _symmetry_equiv_pos_site_id
 _symmetry_equiv_pos_as_xyz
  1  'x, y, z'
loop_
 _atom_site_type_symbol
 _atom_site_label
 _atom_site_symmetry_multiplicity
 _atom_site_fract_x
 _atom_site_fract_y
 _atom_site_fract_z
 _atom_site_occupancy
  Lu  Lu0  1  0.339119  0.079316  0.500000  1
  Lu  Lu1  1  0.660881  0.920684  0.500000  1
  Lu  Lu2  1  0.079316  0.339119  0.500000  1
  Lu  Lu3  1  0.920684  0.660881  0.500000  1
  Lu  Lu4  1  0.500000  0.500000  0.000000  1
  Os  Os5  1  0.285720  0.714280  0.000000  1
  Os  Os6  1  0.714280  0.285720  0.000000  1
  C  C7  1  0.173164  0.173164  0.000000  1
  C  C8  1  0.826836  0.826836  0.000000  1
  C  C9  1  0.000000  0.000000  0.000000  1
  C  C10  1  0.372403  0.627597  0.500000  1
  C  C11  1  0.627597  0.372403  0.500000  1
  C  C12  1  0.500000  0.000000  0.000000  1
  C  C13  1  0.000000  0.500000  0.000000  1
