# generated using pymatgen
data_TbPa3(Pt2Pb)2
_symmetry_space_group_name_H-M   'P 1'
_cell_length_a   7.93513333
_cell_length_b   7.93513238
_cell_length_c   3.65492700
_cell_angle_alpha   90.00000000
_cell_angle_beta   90.00000000
_cell_angle_gamma   89.26152114
_symmetry_Int_Tables_number   1
_chemical_formula_structural   TbPa3(Pt2Pb)2
_chemical_formula_sum   'Tb1 Pa3 Pt4 Pb2'
_cell_volume   230.11823682
_cell_formula_units_Z   1
loop_
 _symmetry_equiv_pos_site_id
 _symmetry_equiv_pos_as_xyz
  1  'x, y, z'
loop_
 _atom_site_type_symbol
 _atom_site_label
 _atom_site_symmetry_multiplicity
 _atom_site_fract_x
 _atom_site_fract_y
 _atom_site_fract_z
 _atom_site_occupancy
  Tb  Tb0  1  0.326510  0.826510  0.500000  1
  Pa  Pa1  1  0.670213  0.170213  0.500000  1
  Pa  Pa2  1  0.173061  0.327175  0.500000  1
  Pa  Pa3  1  0.827175  0.673061  0.500000  1
  Pt  Pt4  1  0.378355  0.136774  0.000000  1
  Pt  Pt5  1  0.115647  0.615647  0.000000  1
  Pt  Pt6  1  0.636774  0.878355  0.000000  1
  Pt  Pt7  1  0.866682  0.366682  0.000000  1
  Pb  Pb8  1  0.008977  0.996603  0.000000  1
  Pb  Pb9  1  0.496603  0.508977  0.000000  1
