# generated using pymatgen
data_La5Sn3(BRh6)2
_symmetry_space_group_name_H-M   'P 1'
_cell_length_a   5.94297600
_cell_length_b   5.94297447
_cell_length_c   13.82733900
_cell_angle_alpha   90.00000000
_cell_angle_beta   90.00000000
_cell_angle_gamma   119.99999739
_symmetry_Int_Tables_number   1
_chemical_formula_structural   La5Sn3(BRh6)2
_chemical_formula_sum   'La5 Sn3 B2 Rh12'
_cell_volume   422.93837714
_cell_formula_units_Z   1
loop_
 _symmetry_equiv_pos_site_id
 _symmetry_equiv_pos_as_xyz
  1  'x, y, z'
loop_
 _atom_site_type_symbol
 _atom_site_label
 _atom_site_symmetry_multiplicity
 _atom_site_fract_x
 _atom_site_fract_y
 _atom_site_fract_z
 _atom_site_occupancy
  La  La0  1  0.000000  0.000000  0.750000  1
  La  La1  1  0.333333  0.666667  0.402409  1
  La  La2  1  0.666667  0.333333  0.909825  1
  La  La3  1  0.666667  0.333333  0.590175  1
  La  La4  1  0.333333  0.666667  0.097591  1
  Sn  Sn5  1  0.000000  0.000000  0.250000  1
  Sn  Sn6  1  0.333333  0.666667  0.750000  1
  Sn  Sn7  1  0.666667  0.333333  0.250000  1
  B  B8  1  0.000000  0.000000  0.497488  1
  B  B9  1  0.000000  0.000000  0.002512  1
  Rh  Rh10  1  0.335453  0.167727  0.405263  1
  Rh  Rh11  1  0.832273  0.167727  0.405263  1
  Rh  Rh12  1  0.832273  0.664547  0.405263  1
  Rh  Rh13  1  0.171012  0.342023  0.915844  1
  Rh  Rh14  1  0.657977  0.828988  0.584156  1
  Rh  Rh15  1  0.657977  0.828988  0.915844  1
  Rh  Rh16  1  0.335453  0.167727  0.094737  1
  Rh  Rh17  1  0.171012  0.342023  0.584156  1
  Rh  Rh18  1  0.171012  0.828988  0.584156  1
  Rh  Rh19  1  0.832273  0.167727  0.094737  1
  Rh  Rh20  1  0.832273  0.664547  0.094737  1
  Rh  Rh21  1  0.171012  0.828988  0.915844  1
