# generated using pymatgen
data_TmAl5GaFe6
_symmetry_space_group_name_H-M   'P 1'
_cell_length_a   4.95792276
_cell_length_b   6.53292655
_cell_length_c   6.53292623
_cell_angle_alpha   80.79393247
_cell_angle_beta   67.69997833
_cell_angle_gamma   67.69998233
_symmetry_Int_Tables_number   1
_chemical_formula_structural   TmAl5GaFe6
_chemical_formula_sum   'Tm1 Al5 Ga1 Fe6'
_cell_volume   181.10050957
_cell_formula_units_Z   1
loop_
 _symmetry_equiv_pos_site_id
 _symmetry_equiv_pos_as_xyz
  1  'x, y, z'
loop_
 _atom_site_type_symbol
 _atom_site_label
 _atom_site_symmetry_multiplicity
 _atom_site_fract_x
 _atom_site_fract_y
 _atom_site_fract_z
 _atom_site_occupancy
  Tm  Tm0  1  0.000857  0.999143  0.999143  1
  Al  Al1  1  0.001214  0.662008  0.335564  1
  Al  Al2  1  0.001214  0.335564  0.662008  1
  Al  Al3  1  0.347433  0.652567  0.652567  1
  Al  Al4  1  0.655074  0.344926  0.344926  1
  Al  Al5  1  0.308835  0.191165  0.191165  1
  Ga  Ga6  1  0.684043  0.815957  0.815957  1
  Fe  Fe7  1  0.499180  0.242071  0.759569  1
  Fe  Fe8  1  0.499180  0.759569  0.242071  1
  Fe  Fe9  1  0.000773  0.499397  0.999118  1
  Fe  Fe10  1  0.500712  0.499397  0.999118  1
  Fe  Fe11  1  0.000773  0.999118  0.499397  1
  Fe  Fe12  1  0.500712  0.999118  0.499397  1
