# generated using pymatgen
data_Ac8LaDyIn6
_symmetry_space_group_name_H-M   'P 1'
_cell_length_a   6.65776162
_cell_length_b   9.87473301
_cell_length_c   9.87473400
_cell_angle_alpha   83.30107133
_cell_angle_beta   70.09357403
_cell_angle_gamma   70.09357261
_symmetry_Int_Tables_number   1
_chemical_formula_structural   Ac8LaDyIn6
_chemical_formula_sum   'Ac8 La1 Dy1 In6'
_cell_volume   573.93867980
_cell_formula_units_Z   1
loop_
 _symmetry_equiv_pos_site_id
 _symmetry_equiv_pos_as_xyz
  1  'x, y, z'
loop_
 _atom_site_type_symbol
 _atom_site_label
 _atom_site_symmetry_multiplicity
 _atom_site_fract_x
 _atom_site_fract_y
 _atom_site_fract_z
 _atom_site_occupancy
  Ac  Ac0  1  0.721868  0.868567  0.695530  1
  Ac  Ac1  1  0.282952  0.132595  0.305120  1
  Ac  Ac2  1  0.778132  0.304470  0.131433  1
  Ac  Ac3  1  0.217048  0.694880  0.867405  1
  Ac  Ac4  1  0.583052  0.696411  0.133795  1
  Ac  Ac5  1  0.410542  0.303820  0.866354  1
  Ac  Ac6  1  0.089458  0.133646  0.696180  1
  Ac  Ac7  1  0.916948  0.866205  0.303589  1
  La  La8  1  0.750000  0.500053  0.499947  1
  Dy  Dy9  1  0.250000  0.499580  0.500420  1
  In  In10  1  0.162633  0.499336  0.189603  1
  In  In11  1  0.849345  0.500630  0.810425  1
  In  In12  1  0.337367  0.810397  0.500664  1
  In  In13  1  0.650655  0.189575  0.499370  1
  In  In14  1  0.250000  0.999215  0.000785  1
  In  In15  1  0.750000  0.000616  0.999384  1
