# generated using pymatgen
data_Er3Tm(B6Ir)2
_symmetry_space_group_name_H-M   'P 1'
_cell_length_a   3.61811500
_cell_length_b   9.13663340
_cell_length_c   11.47893800
_cell_angle_alpha   90.01781119
_cell_angle_beta   90.00000000
_cell_angle_gamma   90.00000000
_symmetry_Int_Tables_number   1
_chemical_formula_structural   Er3Tm(B6Ir)2
_chemical_formula_sum   'Er6 Tm2 B24 Ir4'
_cell_volume   379.46371590
_cell_formula_units_Z   2
loop_
 _symmetry_equiv_pos_site_id
 _symmetry_equiv_pos_as_xyz
  1  'x, y, z'
loop_
 _atom_site_type_symbol
 _atom_site_label
 _atom_site_symmetry_multiplicity
 _atom_site_fract_x
 _atom_site_fract_y
 _atom_site_fract_z
 _atom_site_occupancy
  Er  Er0  1  0.000000  0.321499  0.413086  1
  Er  Er1  1  0.000000  0.678501  0.586914  1
  Er  Er2  1  0.000000  0.821037  0.086819  1
  Er  Er3  1  0.000000  0.178963  0.913181  1
  Er  Er4  1  0.000000  0.943921  0.374394  1
  Er  Er5  1  0.000000  0.056079  0.625607  1
  Tm  Tm6  1  0.000000  0.443967  0.125414  1
  Tm  Tm7  1  0.000000  0.556033  0.874585  1
  B  B8  1  0.500000  0.552957  0.433943  1
  B  B9  1  0.500000  0.447043  0.566057  1
  B  B10  1  0.500000  0.053258  0.065889  1
  B  B11  1  0.500000  0.946742  0.934111  1
  B  B12  1  0.500000  0.749363  0.420859  1
  B  B13  1  0.500000  0.250637  0.579141  1
  B  B14  1  0.500000  0.250137  0.078961  1
  B  B15  1  0.500000  0.749863  0.921039  1
  B  B16  1  0.500000  0.792834  0.265019  1
  B  B17  1  0.500000  0.207166  0.734981  1
  B  B18  1  0.500000  0.293385  0.234503  1
  B  B19  1  0.500000  0.706614  0.765497  1
  B  B20  1  0.500000  0.631221  0.183877  1
  B  B21  1  0.500000  0.368779  0.816123  1
  B  B22  1  0.500000  0.131826  0.315709  1
  B  B23  1  0.500000  0.868174  0.684291  1
  B  B24  1  0.500000  0.981188  0.212817  1
  B  B25  1  0.500000  0.018812  0.787183  1
  B  B26  1  0.500000  0.480880  0.286727  1
  B  B27  1  0.500000  0.519120  0.713273  1
  B  B28  1  0.500000  0.608368  0.029756  1
  B  B29  1  0.500000  0.391632  0.970244  1
  B  B30  1  0.500000  0.109912  0.469857  1
  B  B31  1  0.500000  0.890088  0.530143  1
  Ir  Ir32  1  0.000000  0.637676  0.321097  1
  Ir  Ir33  1  0.000000  0.362324  0.678903  1
  Ir  Ir34  1  0.000000  0.138532  0.178510  1
  Ir  Ir35  1  0.000000  0.861468  0.821490  1
