# generated using pymatgen
data_ZnCo(IrO3)4
_symmetry_space_group_name_H-M   'P 1'
_cell_length_a   4.52536562
_cell_length_b   4.52536562
_cell_length_c   9.38875200
_cell_angle_alpha   90.00000000
_cell_angle_beta   90.00000000
_cell_angle_gamma   90.12341972
_symmetry_Int_Tables_number   1
_chemical_formula_structural   ZnCo(IrO3)4
_chemical_formula_sum   'Zn1 Co1 Ir4 O12'
_cell_volume   192.27118683
_cell_formula_units_Z   1
loop_
 _symmetry_equiv_pos_site_id
 _symmetry_equiv_pos_as_xyz
  1  'x, y, z'
loop_
 _atom_site_type_symbol
 _atom_site_label
 _atom_site_symmetry_multiplicity
 _atom_site_fract_x
 _atom_site_fract_y
 _atom_site_fract_z
 _atom_site_occupancy
  Zn  Zn0  1  0.500000  0.500000  0.500000  1
  Co  Co1  1  0.000000  0.000000  0.000000  1
  Ir  Ir2  1  0.500000  0.500000  0.835568  1
  Ir  Ir3  1  0.000000  0.000000  0.329000  1
  Ir  Ir4  1  0.500000  0.500000  0.164432  1
  Ir  Ir5  1  0.000000  0.000000  0.671000  1
  O  O6  1  0.697696  0.697696  0.673836  1
  O  O7  1  0.302304  0.302304  0.673836  1
  O  O8  1  0.697696  0.697696  0.326164  1
  O  O9  1  0.192074  0.807926  0.160486  1
  O  O10  1  0.807926  0.192074  0.160486  1
  O  O11  1  0.807926  0.192074  0.839514  1
  O  O12  1  0.303019  0.303019  0.000000  1
  O  O13  1  0.184288  0.815712  0.500000  1
  O  O14  1  0.815712  0.184288  0.500000  1
  O  O15  1  0.696981  0.696981  0.000000  1
  O  O16  1  0.302304  0.302304  0.326164  1
  O  O17  1  0.192074  0.807926  0.839514  1
