# generated using pymatgen
data_CaPa2As4Pd7
_symmetry_space_group_name_H-M   'P 1'
_cell_length_a   8.06928766
_cell_length_b   8.06928935
_cell_length_c   9.65772800
_cell_angle_alpha   55.85766635
_cell_angle_beta   55.85765824
_cell_angle_gamma   29.89965449
_symmetry_Int_Tables_number   1
_chemical_formula_structural   CaPa2As4Pd7
_chemical_formula_sum   'Ca1 Pa2 As4 Pd7'
_cell_volume   255.15336633
_cell_formula_units_Z   1
loop_
 _symmetry_equiv_pos_site_id
 _symmetry_equiv_pos_as_xyz
  1  'x, y, z'
loop_
 _atom_site_type_symbol
 _atom_site_label
 _atom_site_symmetry_multiplicity
 _atom_site_fract_x
 _atom_site_fract_y
 _atom_site_fract_z
 _atom_site_occupancy
  Ca  Ca0  1  0.183056  0.183056  0.818927  1
  Pa  Pa1  1  0.497238  0.497238  0.504252  1
  Pa  Pa2  1  0.822191  0.822191  0.171328  1
  As  As3  1  0.394731  0.394731  0.324810  1
  As  As4  1  0.605285  0.605285  0.673494  1
  As  As5  1  0.847823  0.847823  0.741056  1
  As  As6  1  0.152399  0.152399  0.258923  1
  Pd  Pd7  1  0.670291  0.670291  0.068854  1
  Pd  Pd8  1  0.011640  0.011640  0.197933  1
  Pd  Pd9  1  0.984815  0.984815  0.807550  1
  Pd  Pd10  1  0.497392  0.497392  0.998758  1
  Pd  Pd11  1  0.190248  0.190248  0.478353  1
  Pd  Pd12  1  0.809458  0.809458  0.516039  1
  Pd  Pd13  1  0.333433  0.333433  0.939723  1
