# generated using pymatgen
data_Cs6TbErI12
_symmetry_space_group_name_H-M   'P 1'
_cell_length_a   10.64345257
_cell_length_b   10.65150957
_cell_length_c   8.81215600
_cell_angle_alpha   90.00000000
_cell_angle_beta   90.00000000
_cell_angle_gamma   89.93771308
_symmetry_Int_Tables_number   1
_chemical_formula_structural   Cs6TbErI12
_chemical_formula_sum   'Cs6 Tb1 Er1 I12'
_cell_volume   999.02328658
_cell_formula_units_Z   1
loop_
 _symmetry_equiv_pos_site_id
 _symmetry_equiv_pos_as_xyz
  1  'x, y, z'
loop_
 _atom_site_type_symbol
 _atom_site_label
 _atom_site_symmetry_multiplicity
 _atom_site_fract_x
 _atom_site_fract_y
 _atom_site_fract_z
 _atom_site_occupancy
  Cs  Cs0  1  0.000000  0.000000  0.500000  1
  Cs  Cs1  1  0.000000  0.000000  0.000000  1
  Cs  Cs2  1  0.233318  0.586930  0.500000  1
  Cs  Cs3  1  0.766682  0.413070  0.500000  1
  Cs  Cs4  1  0.413017  0.233317  0.000000  1
  Cs  Cs5  1  0.586983  0.766683  0.000000  1
  Tb  Tb6  1  0.500000  0.000000  0.500000  1
  Er  Er7  1  0.000000  0.500000  0.000000  1
  I  I8  1  0.695310  0.059581  0.744915  1
  I  I9  1  0.304690  0.940419  0.744915  1
  I  I10  1  0.940963  0.693359  0.242536  1
  I  I11  1  0.059037  0.306641  0.242536  1
  I  I12  1  0.304690  0.940419  0.255085  1
  I  I13  1  0.695310  0.059581  0.255085  1
  I  I14  1  0.059037  0.306641  0.757464  1
  I  I15  1  0.940963  0.693359  0.757464  1
  I  I16  1  0.571391  0.723675  0.500000  1
  I  I17  1  0.428609  0.276325  0.500000  1
  I  I18  1  0.273343  0.570661  0.000000  1
  I  I19  1  0.726657  0.429339  0.000000  1
