# generated using pymatgen
data_PrTmZn5Sn
_symmetry_space_group_name_H-M   'P 1'
_cell_length_a   8.44470936
_cell_length_b   8.44471003
_cell_length_c   9.02658900
_cell_angle_alpha   90.00000000
_cell_angle_beta   90.00000000
_cell_angle_gamma   149.79421488
_symmetry_Int_Tables_number   1
_chemical_formula_structural   PrTmZn5Sn
_chemical_formula_sum   'Pr2 Tm2 Zn10 Sn2'
_cell_volume   323.85727528
_cell_formula_units_Z   2
loop_
 _symmetry_equiv_pos_site_id
 _symmetry_equiv_pos_as_xyz
  1  'x, y, z'
loop_
 _atom_site_type_symbol
 _atom_site_label
 _atom_site_symmetry_multiplicity
 _atom_site_fract_x
 _atom_site_fract_y
 _atom_site_fract_z
 _atom_site_occupancy
  Pr  Pr0  1  0.000000  0.000000  0.500000  1
  Pr  Pr1  1  0.000000  0.000000  0.000000  1
  Tm  Tm2  1  0.205063  0.794937  0.250000  1
  Tm  Tm3  1  0.794937  0.205063  0.750000  1
  Zn  Zn4  1  0.811473  0.188527  0.389971  1
  Zn  Zn5  1  0.188527  0.811473  0.610029  1
  Zn  Zn6  1  0.811473  0.188527  0.110029  1
  Zn  Zn7  1  0.188527  0.811473  0.889971  1
  Zn  Zn8  1  0.658967  0.341033  0.482011  1
  Zn  Zn9  1  0.341033  0.658967  0.517989  1
  Zn  Zn10  1  0.658967  0.341033  0.017989  1
  Zn  Zn11  1  0.341033  0.658967  0.982011  1
  Zn  Zn12  1  0.393262  0.606738  0.250000  1
  Zn  Zn13  1  0.606738  0.393262  0.750000  1
  Sn  Sn14  1  0.557351  0.442649  0.250000  1
  Sn  Sn15  1  0.442649  0.557351  0.750000  1
