# generated using pymatgen
data_Rb3NaP2O7
_symmetry_space_group_name_H-M   'P 1'
_cell_length_a   5.77743600
_cell_length_b   5.77743666
_cell_length_c   14.08664600
_cell_angle_alpha   90.00000000
_cell_angle_beta   90.00000000
_cell_angle_gamma   113.01792475
_symmetry_Int_Tables_number   1
_chemical_formula_structural   Rb3NaP2O7
_chemical_formula_sum   'Rb6 Na2 P4 O14'
_cell_volume   432.75921302
_cell_formula_units_Z   2
loop_
 _symmetry_equiv_pos_site_id
 _symmetry_equiv_pos_as_xyz
  1  'x, y, z'
loop_
 _atom_site_type_symbol
 _atom_site_label
 _atom_site_symmetry_multiplicity
 _atom_site_fract_x
 _atom_site_fract_y
 _atom_site_fract_z
 _atom_site_occupancy
  Rb  Rb0  1  0.114448  0.114448  0.000000  1
  Rb  Rb1  1  0.885552  0.885552  0.500000  1
  Rb  Rb2  1  0.754879  0.442992  0.117596  1
  Rb  Rb3  1  0.442992  0.754879  0.882404  1
  Rb  Rb4  1  0.245121  0.557008  0.617596  1
  Rb  Rb5  1  0.557008  0.245121  0.382404  1
  Na  Na6  1  0.995157  0.004843  0.250000  1
  Na  Na7  1  0.004843  0.995157  0.750000  1
  P  P8  1  0.421397  0.804597  0.153814  1
  P  P9  1  0.804597  0.421397  0.846186  1
  P  P10  1  0.578603  0.195403  0.653814  1
  P  P11  1  0.195403  0.578603  0.346186  1
  O  O12  1  0.335585  0.017839  0.175715  1
  O  O13  1  0.017839  0.335585  0.824285  1
  O  O14  1  0.664415  0.982161  0.675715  1
  O  O15  1  0.982161  0.664415  0.324285  1
  O  O16  1  0.706868  0.906734  0.136879  1
  O  O17  1  0.906734  0.706868  0.863121  1
  O  O18  1  0.293132  0.093266  0.636879  1
  O  O19  1  0.093266  0.293132  0.363121  1
  O  O20  1  0.273110  0.627213  0.074674  1
  O  O21  1  0.627213  0.273110  0.925326  1
  O  O22  1  0.726890  0.372787  0.574674  1
  O  O23  1  0.372787  0.726890  0.425326  1
  O  O24  1  0.374966  0.625034  0.250000  1
  O  O25  1  0.625034  0.374966  0.750000  1
