# generated using pymatgen
data_TbPr19Si15Br
_symmetry_space_group_name_H-M   'P 1'
_cell_length_a   7.96199815
_cell_length_b   7.90944021
_cell_length_c   15.36685573
_cell_angle_alpha   89.66242924
_cell_angle_beta   89.15350621
_cell_angle_gamma   90.17457364
_symmetry_Int_Tables_number   1
_chemical_formula_structural   TbPr19Si15Br
_chemical_formula_sum   'Tb1 Pr19 Si15 Br1'
_cell_volume   967.59978526
_cell_formula_units_Z   1
loop_
 _symmetry_equiv_pos_site_id
 _symmetry_equiv_pos_as_xyz
  1  'x, y, z'
loop_
 _atom_site_type_symbol
 _atom_site_label
 _atom_site_symmetry_multiplicity
 _atom_site_fract_x
 _atom_site_fract_y
 _atom_site_fract_z
 _atom_site_occupancy
  Tb  Tb0  1  0.313103  0.311162  0.999403  1
  Pr  Pr1  1  0.186461  0.807543  0.249284  1
  Pr  Pr2  1  0.795150  0.189520  0.753217  1
  Pr  Pr3  1  0.688064  0.689507  0.497009  1
  Pr  Pr4  1  0.381199  0.005423  0.442929  1
  Pr  Pr5  1  0.496783  0.869362  0.699464  1
  Pr  Pr6  1  0.509684  0.121936  0.196158  1
  Pr  Pr7  1  0.876411  0.485647  0.300344  1
  Pr  Pr8  1  0.122506  0.517097  0.804934  1
  Pr  Pr9  1  0.631433  0.986730  0.952221  1
  Pr  Pr10  1  0.996233  0.383411  0.545530  1
  Pr  Pr11  1  0.992201  0.622529  0.052889  1
  Pr  Pr12  1  0.139585  0.987009  0.875139  1
  Pr  Pr13  1  0.517970  0.629801  0.125395  1
  Pr  Pr14  1  0.482039  0.371798  0.631206  1
  Pr  Pr15  1  0.635310  0.521514  0.876965  1
  Pr  Pr16  1  0.368869  0.477083  0.374292  1
  Pr  Pr17  1  0.870222  0.019759  0.376244  1
  Pr  Pr18  1  0.982838  0.127988  0.123825  1
  Pr  Pr19  1  0.012744  0.862842  0.621365  1
  Si  Si20  1  0.330598  0.694125  0.951770  1
  Si  Si21  1  0.661128  0.304018  0.453845  1
  Si  Si22  1  0.698433  0.334147  0.049449  1
  Si  Si23  1  0.304602  0.667310  0.549738  1
  Si  Si24  1  0.803282  0.831647  0.202214  1
  Si  Si25  1  0.167240  0.195112  0.296369  1
  Si  Si26  1  0.842206  0.805184  0.797504  1
  Si  Si27  1  0.289298  0.926556  0.057497  1
  Si  Si28  1  0.575876  0.785397  0.308013  1
  Si  Si29  1  0.448572  0.212342  0.828681  1
  Si  Si30  1  0.790311  0.576783  0.689028  1
  Si  Si31  1  0.213442  0.419631  0.187113  1
  Si  Si32  1  0.703781  0.075472  0.561260  1
  Si  Si33  1  0.931875  0.291525  0.941281  1
  Si  Si34  1  0.077790  0.711283  0.440601  1
  Br  Br35  1  0.162761  0.181804  0.687823  1
