# generated using pymatgen
data_Hf4MgZr3(Co4P3)4
_symmetry_space_group_name_H-M   'P 1'
_cell_length_a   12.06077450
_cell_length_b   12.06913106
_cell_length_c   3.64568300
_cell_angle_alpha   90.00000000
_cell_angle_beta   90.00000000
_cell_angle_gamma   120.19221012
_symmetry_Int_Tables_number   1
_chemical_formula_structural   Hf4MgZr3(Co4P3)4
_chemical_formula_sum   'Hf4 Mg1 Zr3 Co16 P12'
_cell_volume   458.68687742
_cell_formula_units_Z   1
loop_
 _symmetry_equiv_pos_site_id
 _symmetry_equiv_pos_as_xyz
  1  'x, y, z'
loop_
 _atom_site_type_symbol
 _atom_site_label
 _atom_site_symmetry_multiplicity
 _atom_site_fract_x
 _atom_site_fract_y
 _atom_site_fract_z
 _atom_site_occupancy
  Hf  Hf0  1  0.554546  0.998743  0.000000  1
  Hf  Hf1  1  0.998897  0.555235  0.000000  1
  Hf  Hf2  1  0.819668  0.819568  0.500000  1
  Hf  Hf3  1  0.175373  0.000366  0.500000  1
  Mg  Mg4  1  0.444018  0.443936  0.000000  1
  Zr  Zr5  1  0.665919  0.331879  0.000000  1
  Zr  Zr6  1  0.331990  0.665963  0.000000  1
  Zr  Zr7  1  0.000565  0.176530  0.500000  1
  Co  Co8  1  0.198304  0.375292  0.000000  1
  Co  Co9  1  0.177801  0.807483  0.000000  1
  Co  Co10  1  0.822041  0.630230  0.000000  1
  Co  Co11  1  0.806256  0.177626  0.000000  1
  Co  Co12  1  0.374480  0.197158  0.000000  1
  Co  Co13  1  0.125296  0.478476  0.500000  1
  Co  Co14  1  0.354562  0.873684  0.500000  1
  Co  Co15  1  0.518486  0.645338  0.500000  1
  Co  Co16  1  0.645343  0.518432  0.500000  1
  Co  Co17  1  0.873793  0.354760  0.500000  1
  Co  Co18  1  0.478154  0.125199  0.500000  1
  Co  Co19  1  0.000680  0.999522  0.000000  1
  Co  Co20  1  0.721295  0.000193  0.500000  1
  Co  Co21  1  0.000709  0.722048  0.500000  1
  Co  Co22  1  0.630004  0.821838  0.000000  1
  Co  Co23  1  0.281997  0.281369  0.500000  1
  P  P24  1  0.646978  0.646992  0.000000  1
  P  P25  1  0.345579  0.002860  0.000000  1
  P  P26  1  0.002893  0.346774  0.000000  1
  P  P27  1  0.483299  0.313215  0.500000  1
  P  P28  1  0.689987  0.172741  0.500000  1
  P  P29  1  0.826322  0.518118  0.500000  1
  P  P30  1  0.517943  0.826233  0.500000  1
  P  P31  1  0.172767  0.689958  0.500000  1
  P  P32  1  0.825052  0.998064  0.000000  1
  P  P33  1  0.998952  0.825034  0.000000  1
  P  P34  1  0.313025  0.483027  0.500000  1
  P  P35  1  0.177024  0.176114  0.000000  1
