# generated using pymatgen
data_Lu6NpFe22
_symmetry_space_group_name_H-M   'P 1'
_cell_length_a   8.42316702
_cell_length_b   8.42346538
_cell_length_c   8.42316700
_cell_angle_alpha   119.99825627
_cell_angle_beta   90.00508802
_cell_angle_gamma   119.99825620
_symmetry_Int_Tables_number   1
_chemical_formula_structural   Lu6NpFe22
_chemical_formula_sum   'Lu6 Np1 Fe22'
_cell_volume   422.60071696
_cell_formula_units_Z   1
loop_
 _symmetry_equiv_pos_site_id
 _symmetry_equiv_pos_as_xyz
  1  'x, y, z'
loop_
 _atom_site_type_symbol
 _atom_site_label
 _atom_site_symmetry_multiplicity
 _atom_site_fract_x
 _atom_site_fract_y
 _atom_site_fract_z
 _atom_site_occupancy
  Lu  Lu0  1  0.706457  0.000013  0.293558  1
  Lu  Lu1  1  0.293583  0.000053  0.293583  1
  Lu  Lu2  1  0.293572  0.587097  0.293572  1
  Lu  Lu3  1  0.706433  0.999971  0.706433  1
  Lu  Lu4  1  0.293558  0.000013  0.706457  1
  Lu  Lu5  1  0.706426  0.412888  0.706426  1
  Np  Np6  1  0.000046  0.000065  0.000046  1
  Fe  Fe7  1  0.499996  0.000001  0.999993  1
  Fe  Fe8  1  0.999988  0.499988  0.999988  1
  Fe  Fe9  1  0.499996  0.499991  0.000009  1
  Fe  Fe10  1  0.674166  0.348412  0.022649  1
  Fe  Fe11  1  0.366072  0.244039  0.122018  1
  Fe  Fe12  1  0.877972  0.244042  0.122036  1
  Fe  Fe13  1  0.877968  0.755952  0.122042  1
  Fe  Fe14  1  0.674226  0.348445  0.325760  1
  Fe  Fe15  1  0.674211  0.651546  0.325764  1
  Fe  Fe16  1  0.977360  0.651591  0.325828  1
  Fe  Fe17  1  0.122018  0.244039  0.366072  1
  Fe  Fe18  1  0.999993  0.000001  0.499996  1
  Fe  Fe19  1  0.000009  0.499991  0.499996  1
  Fe  Fe20  1  0.499992  0.499995  0.499992  1
  Fe  Fe21  1  0.877982  0.755933  0.633891  1
  Fe  Fe22  1  0.022649  0.348412  0.674166  1
  Fe  Fe23  1  0.325760  0.348445  0.674226  1
  Fe  Fe24  1  0.325764  0.651546  0.674211  1
  Fe  Fe25  1  0.122036  0.244042  0.877972  1
  Fe  Fe26  1  0.122042  0.755952  0.877968  1
  Fe  Fe27  1  0.633891  0.755933  0.877982  1
  Fe  Fe28  1  0.325828  0.651591  0.977360  1
