# generated using pymatgen
data_U2Al(Ni10B3)2
_symmetry_space_group_name_H-M   'P 1'
_cell_length_a   7.53816218
_cell_length_b   7.53816161
_cell_length_c   7.53816200
_cell_angle_alpha   59.99999830
_cell_angle_beta   60.00000080
_cell_angle_gamma   59.99999803
_symmetry_Int_Tables_number   1
_chemical_formula_structural   U2Al(Ni10B3)2
_chemical_formula_sum   'U2 Al1 Ni20 B6'
_cell_volume   302.88752075
_cell_formula_units_Z   1
loop_
 _symmetry_equiv_pos_site_id
 _symmetry_equiv_pos_as_xyz
  1  'x, y, z'
loop_
 _atom_site_type_symbol
 _atom_site_label
 _atom_site_symmetry_multiplicity
 _atom_site_fract_x
 _atom_site_fract_y
 _atom_site_fract_z
 _atom_site_occupancy
  U  U0  1  0.750000  0.750000  0.750000  1
  U  U1  1  0.250000  0.250000  0.250000  1
  Al  Al2  1  0.000000  0.000000  0.000000  1
  Ni  Ni3  1  0.341084  0.000000  0.658916  1
  Ni  Ni4  1  0.843040  0.385653  0.385653  1
  Ni  Ni5  1  0.614347  0.614347  0.614347  1
  Ni  Ni6  1  0.000000  0.341084  0.000000  1
  Ni  Ni7  1  0.341084  0.000000  0.000000  1
  Ni  Ni8  1  0.000000  0.341084  0.658916  1
  Ni  Ni9  1  0.658916  0.000000  0.341084  1
  Ni  Ni10  1  0.000000  0.000000  0.341084  1
  Ni  Ni11  1  0.341084  0.658916  0.000000  1
  Ni  Ni12  1  0.658916  0.341084  0.000000  1
  Ni  Ni13  1  0.000000  0.658916  0.341084  1
  Ni  Ni14  1  0.000000  0.000000  0.658916  1
  Ni  Ni15  1  0.156960  0.614347  0.614347  1
  Ni  Ni16  1  0.658916  0.000000  0.000000  1
  Ni  Ni17  1  0.000000  0.658916  0.000000  1
  Ni  Ni18  1  0.385653  0.385653  0.385653  1
  Ni  Ni19  1  0.385653  0.843040  0.385653  1
  Ni  Ni20  1  0.614347  0.614347  0.156960  1
  Ni  Ni21  1  0.614347  0.156960  0.614347  1
  Ni  Ni22  1  0.385653  0.385653  0.843040  1
  B  B23  1  0.733108  0.266892  0.733108  1
  B  B24  1  0.266892  0.266892  0.733108  1
  B  B25  1  0.733108  0.733108  0.266892  1
  B  B26  1  0.733108  0.266892  0.266892  1
  B  B27  1  0.266892  0.733108  0.733108  1
  B  B28  1  0.266892  0.733108  0.266892  1
