# generated using pymatgen
data_NdTmB6Ru
_symmetry_space_group_name_H-M   'P 1'
_cell_length_a   3.69429800
_cell_length_b   9.18541900
_cell_length_c   11.61165200
_cell_angle_alpha   90.00000000
_cell_angle_beta   90.00000000
_cell_angle_gamma   90.00000000
_symmetry_Int_Tables_number   1
_chemical_formula_structural   NdTmB6Ru
_chemical_formula_sum   'Nd4 Tm4 B24 Ru4'
_cell_volume   394.02602566
_cell_formula_units_Z   4
loop_
 _symmetry_equiv_pos_site_id
 _symmetry_equiv_pos_as_xyz
  1  'x, y, z'
loop_
 _atom_site_type_symbol
 _atom_site_label
 _atom_site_symmetry_multiplicity
 _atom_site_fract_x
 _atom_site_fract_y
 _atom_site_fract_z
 _atom_site_occupancy
  Nd  Nd0  1  0.000000  0.322666  0.414499  1
  Nd  Nd1  1  0.000000  0.677334  0.585501  1
  Nd  Nd2  1  0.000000  0.822666  0.085501  1
  Nd  Nd3  1  0.000000  0.177334  0.914499  1
  Tm  Tm4  1  0.000000  0.944204  0.371974  1
  Tm  Tm5  1  0.000000  0.055796  0.628026  1
  Tm  Tm6  1  0.000000  0.444204  0.128026  1
  Tm  Tm7  1  0.000000  0.555796  0.871974  1
  B  B8  1  0.500000  0.556509  0.430318  1
  B  B9  1  0.500000  0.443491  0.569682  1
  B  B10  1  0.500000  0.056509  0.069682  1
  B  B11  1  0.500000  0.943491  0.930318  1
  B  B12  1  0.500000  0.750428  0.417224  1
  B  B13  1  0.500000  0.249572  0.582776  1
  B  B14  1  0.500000  0.250428  0.082776  1
  B  B15  1  0.500000  0.749572  0.917224  1
  B  B16  1  0.500000  0.791190  0.266567  1
  B  B17  1  0.500000  0.208810  0.733433  1
  B  B18  1  0.500000  0.291190  0.233433  1
  B  B19  1  0.500000  0.708810  0.766567  1
  B  B20  1  0.500000  0.630474  0.184716  1
  B  B21  1  0.500000  0.369526  0.815284  1
  B  B22  1  0.500000  0.130474  0.315284  1
  B  B23  1  0.500000  0.869526  0.684716  1
  B  B24  1  0.500000  0.985575  0.214332  1
  B  B25  1  0.500000  0.014425  0.785668  1
  B  B26  1  0.500000  0.485575  0.285668  1
  B  B27  1  0.500000  0.514425  0.714332  1
  B  B28  1  0.500000  0.601556  0.027668  1
  B  B29  1  0.500000  0.398444  0.972332  1
  B  B30  1  0.500000  0.101556  0.472332  1
  B  B31  1  0.500000  0.898444  0.527668  1
  Ru  Ru32  1  0.000000  0.639802  0.319050  1
  Ru  Ru33  1  0.000000  0.360198  0.680950  1
  Ru  Ru34  1  0.000000  0.139802  0.180950  1
  Ru  Ru35  1  0.000000  0.860198  0.819050  1
