# generated using pymatgen
data_Lu6OsPt
_symmetry_space_group_name_H-M   'P 1'
_cell_length_a   7.15193800
_cell_length_b   8.92996200
_cell_length_c   6.33097300
_cell_angle_alpha   90.00000000
_cell_angle_beta   90.00000000
_cell_angle_gamma   90.00000000
_symmetry_Int_Tables_number   1
_chemical_formula_structural   Lu6OsPt
_chemical_formula_sum   'Lu12 Os2 Pt2'
_cell_volume   404.33730594
_cell_formula_units_Z   2
loop_
 _symmetry_equiv_pos_site_id
 _symmetry_equiv_pos_as_xyz
  1  'x, y, z'
loop_
 _atom_site_type_symbol
 _atom_site_label
 _atom_site_symmetry_multiplicity
 _atom_site_fract_x
 _atom_site_fract_y
 _atom_site_fract_z
 _atom_site_occupancy
  Lu  Lu0  1  0.679163  0.053704  0.330055  1
  Lu  Lu1  1  0.179163  0.446296  0.169945  1
  Lu  Lu2  1  0.320450  0.566176  0.679712  1
  Lu  Lu3  1  0.820450  0.933824  0.820288  1
  Lu  Lu4  1  0.320450  0.933824  0.679712  1
  Lu  Lu5  1  0.820450  0.566176  0.820288  1
  Lu  Lu6  1  0.679163  0.446296  0.330055  1
  Lu  Lu7  1  0.179163  0.053704  0.169945  1
  Lu  Lu8  1  0.531300  0.250000  0.876261  1
  Lu  Lu9  1  0.031300  0.250000  0.623739  1
  Lu  Lu10  1  0.467722  0.750000  0.118474  1
  Lu  Lu11  1  0.967722  0.750000  0.381526  1
  Os  Os12  1  0.112328  0.750000  0.970629  1
  Os  Os13  1  0.612328  0.750000  0.529371  1
  Pt  Pt14  1  0.889425  0.250000  0.042560  1
  Pt  Pt15  1  0.389425  0.250000  0.457440  1
