# generated using pymatgen
data_Rb4In(SnAu3)2
_symmetry_space_group_name_H-M   'P 1'
_cell_length_a   10.73712700
_cell_length_b   10.73712705
_cell_length_c   10.73712702
_cell_angle_alpha   38.69886193
_cell_angle_beta   38.69886081
_cell_angle_gamma   38.69885842
_symmetry_Int_Tables_number   1
_chemical_formula_structural   Rb4In(SnAu3)2
_chemical_formula_sum   'Rb4 In1 Sn2 Au6'
_cell_volume   434.91758432
_cell_formula_units_Z   1
loop_
 _symmetry_equiv_pos_site_id
 _symmetry_equiv_pos_as_xyz
  1  'x, y, z'
loop_
 _atom_site_type_symbol
 _atom_site_label
 _atom_site_symmetry_multiplicity
 _atom_site_fract_x
 _atom_site_fract_y
 _atom_site_fract_z
 _atom_site_occupancy
  Rb  Rb0  1  0.684102  0.684102  0.684102  1
  Rb  Rb1  1  0.315898  0.315898  0.315898  1
  Rb  Rb2  1  0.811239  0.811239  0.811239  1
  Rb  Rb3  1  0.188761  0.188761  0.188761  1
  In  In4  1  0.000000  0.000000  0.000000  1
  Sn  Sn5  1  0.446878  0.446878  0.446878  1
  Sn  Sn6  1  0.553122  0.553122  0.553122  1
  Au  Au7  1  0.185566  0.788002  0.788002  1
  Au  Au8  1  0.788002  0.788002  0.185566  1
  Au  Au9  1  0.788002  0.185566  0.788002  1
  Au  Au10  1  0.211998  0.814434  0.211998  1
  Au  Au11  1  0.814434  0.211998  0.211998  1
  Au  Au12  1  0.211998  0.211998  0.814434  1
