# generated using pymatgen
data_Ce12Nb7Ag(WN4)12
_symmetry_space_group_name_H-M   'P 1'
_cell_length_a   11.31223256
_cell_length_b   11.31223376
_cell_length_c   11.31223304
_cell_angle_alpha   109.47611762
_cell_angle_beta   109.47611949
_cell_angle_gamma   109.47611242
_symmetry_Int_Tables_number   1
_chemical_formula_structural   Ce12Nb7Ag(WN4)12
_chemical_formula_sum   'Ce12 Nb7 Ag1 W12 N48'
_cell_volume   1114.15188929
_cell_formula_units_Z   1
loop_
 _symmetry_equiv_pos_site_id
 _symmetry_equiv_pos_as_xyz
  1  'x, y, z'
loop_
 _atom_site_type_symbol
 _atom_site_label
 _atom_site_symmetry_multiplicity
 _atom_site_fract_x
 _atom_site_fract_y
 _atom_site_fract_z
 _atom_site_occupancy
  Ce  Ce0  1  0.372168  0.746970  0.123496  1
  Ce  Ce1  1  0.254395  0.378224  0.129747  1
  Ce  Ce2  1  0.378224  0.129747  0.254395  1
  Ce  Ce3  1  0.876505  0.627832  0.253030  1
  Ce  Ce4  1  0.746970  0.123496  0.372168  1
  Ce  Ce5  1  0.129747  0.254395  0.378224  1
  Ce  Ce6  1  0.870253  0.745605  0.621776  1
  Ce  Ce7  1  0.253030  0.876505  0.627832  1
  Ce  Ce8  1  0.123496  0.372168  0.746970  1
  Ce  Ce9  1  0.621776  0.870253  0.745605  1
  Ce  Ce10  1  0.627832  0.253030  0.876505  1
  Ce  Ce11  1  0.745605  0.621776  0.870253  1
  Nb  Nb12  1  0.000000  0.000000  0.000000  1
  Nb  Nb13  1  0.500001  0.000000  0.000000  1
  Nb  Nb14  1  0.000000  0.500001  0.000000  1
  Nb  Nb15  1  0.500000  0.500000  0.000000  1
  Nb  Nb16  1  0.000000  0.000000  0.500001  1
  Nb  Nb17  1  0.500000  0.000000  0.500000  1
  Nb  Nb18  1  0.000000  0.500000  0.500000  1
  Ag  Ag19  1  0.500001  0.500001  0.500001  1
  W  W20  1  0.875786  0.249062  0.125466  1
  W  W21  1  0.750938  0.874534  0.124214  1
  W  W22  1  0.626264  0.367865  0.243103  1
  W  W23  1  0.125466  0.875786  0.249062  1
  W  W24  1  0.243103  0.626264  0.367865  1
  W  W25  1  0.632135  0.756897  0.373736  1
  W  W26  1  0.367865  0.243103  0.626264  1
  W  W27  1  0.756897  0.373736  0.632135  1
  W  W28  1  0.874534  0.124214  0.750938  1
  W  W29  1  0.373736  0.632135  0.756897  1
  W  W30  1  0.249062  0.125466  0.875786  1
  W  W31  1  0.124214  0.750938  0.874534  1
  N  N32  1  0.316168  0.898315  0.018580  1
  N  N33  1  0.201045  0.119595  0.018356  1
  N  N34  1  0.883695  0.398676  0.084887  1
  N  N35  1  0.702679  0.683564  0.082101  1
  N  N36  1  0.623826  0.417168  0.097606  1
  N  N37  1  0.981420  0.683832  0.101684  1
  N  N38  1  0.601324  0.915113  0.116305  1
  N  N39  1  0.018356  0.201045  0.119595  1
  N  N40  1  0.206876  0.585615  0.178149  1
  N  N41  1  0.481173  0.600458  0.184792  1
  N  N42  1  0.585615  0.178149  0.206876  1
  N  N43  1  0.119595  0.018356  0.201045  1
  N  N44  1  0.475583  0.365237  0.271678  1
  N  N45  1  0.316436  0.917900  0.297321  1
  N  N46  1  0.898315  0.018580  0.316168  1
  N  N47  1  0.917900  0.297321  0.316436  1
  N  N48  1  0.271678  0.475583  0.365237  1
  N  N49  1  0.582832  0.902394  0.376175  1
  N  N50  1  0.815208  0.518827  0.399543  1
  N  N51  1  0.084887  0.883695  0.398676  1
  N  N52  1  0.097606  0.623826  0.417168  1
  N  N53  1  0.821851  0.793124  0.414385  1
  N  N54  1  0.600458  0.184792  0.481173  1
  N  N55  1  0.365237  0.271678  0.475583  1
  N  N56  1  0.634763  0.728322  0.524416  1
  N  N57  1  0.399543  0.815208  0.518827  1
  N  N58  1  0.178149  0.206876  0.585615  1
  N  N59  1  0.902394  0.376175  0.582832  1
  N  N60  1  0.915113  0.116305  0.601324  1
  N  N61  1  0.184792  0.481173  0.600458  1
  N  N62  1  0.417168  0.097606  0.623826  1
  N  N63  1  0.728322  0.524416  0.634763  1
  N  N64  1  0.082101  0.702679  0.683564  1
  N  N65  1  0.101684  0.981420  0.683832  1
  N  N66  1  0.683564  0.082101  0.702679  1
  N  N67  1  0.524416  0.634763  0.728322  1
  N  N68  1  0.414385  0.821851  0.793124  1
  N  N69  1  0.880407  0.981645  0.798956  1
  N  N70  1  0.518827  0.399543  0.815208  1
  N  N71  1  0.793124  0.414385  0.821851  1
  N  N72  1  0.398676  0.084887  0.883695  1
  N  N73  1  0.981645  0.798956  0.880407  1
  N  N74  1  0.018580  0.316168  0.898315  1
  N  N75  1  0.376175  0.582832  0.902394  1
  N  N76  1  0.297321  0.316436  0.917900  1
  N  N77  1  0.116305  0.601324  0.915113  1
  N  N78  1  0.683832  0.101684  0.981420  1
  N  N79  1  0.798956  0.880407  0.981645  1
