# generated using pymatgen
data_Ho3Er2Tm3In3Ru
_symmetry_space_group_name_H-M   'P 1'
_cell_length_a   10.30566200
_cell_length_b   10.30566055
_cell_length_c   7.04044000
_cell_angle_alpha   90.00000000
_cell_angle_beta   90.00000000
_cell_angle_gamma   119.99999823
_symmetry_Int_Tables_number   1
_chemical_formula_structural   Ho3Er2Tm3In3Ru
_chemical_formula_sum   'Ho6 Er4 Tm6 In6 Ru2'
_cell_volume   647.56321309
_cell_formula_units_Z   2
loop_
 _symmetry_equiv_pos_site_id
 _symmetry_equiv_pos_as_xyz
  1  'x, y, z'
loop_
 _atom_site_type_symbol
 _atom_site_label
 _atom_site_symmetry_multiplicity
 _atom_site_fract_x
 _atom_site_fract_y
 _atom_site_fract_z
 _atom_site_occupancy
  Ho  Ho0  1  0.532855  0.065710  0.794552  1
  Ho  Ho1  1  0.934290  0.467145  0.794552  1
  Ho  Ho2  1  0.532855  0.467145  0.794552  1
  Ho  Ho3  1  0.467145  0.934290  0.294552  1
  Ho  Ho4  1  0.065710  0.532855  0.294552  1
  Ho  Ho5  1  0.467145  0.532855  0.294552  1
  Er  Er6  1  0.666667  0.333333  0.172568  1
  Er  Er7  1  0.333333  0.666667  0.672568  1
  Er  Er8  1  0.000000  0.000000  0.778278  1
  Er  Er9  1  0.000000  0.000000  0.278278  1
  Tm  Tm10  1  0.822706  0.645412  0.497665  1
  Tm  Tm11  1  0.354588  0.177294  0.497665  1
  Tm  Tm12  1  0.822706  0.177294  0.497665  1
  Tm  Tm13  1  0.177294  0.354588  0.997665  1
  Tm  Tm14  1  0.645412  0.822706  0.997665  1
  Tm  Tm15  1  0.177294  0.822706  0.997665  1
  In  In16  1  0.837470  0.674942  0.040787  1
  In  In17  1  0.325058  0.162530  0.040787  1
  In  In18  1  0.837470  0.162530  0.040787  1
  In  In19  1  0.162530  0.325058  0.540787  1
  In  In20  1  0.674942  0.837470  0.540787  1
  In  In21  1  0.162530  0.837470  0.540787  1
  Ru  Ru22  1  0.666667  0.333333  0.568092  1
  Ru  Ru23  1  0.333333  0.666667  0.068092  1
