# generated using pymatgen
data_ThNi5Sn
_symmetry_space_group_name_H-M   'P 1'
_cell_length_a   4.92877500
_cell_length_b   4.92877394
_cell_length_c   19.82066300
_cell_angle_alpha   90.00000000
_cell_angle_beta   90.00000000
_cell_angle_gamma   119.99998699
_symmetry_Int_Tables_number   1
_chemical_formula_structural   ThNi5Sn
_chemical_formula_sum   'Th4 Ni20 Sn4'
_cell_volume   416.99107383
_cell_formula_units_Z   4
loop_
 _symmetry_equiv_pos_site_id
 _symmetry_equiv_pos_as_xyz
  1  'x, y, z'
loop_
 _atom_site_type_symbol
 _atom_site_label
 _atom_site_symmetry_multiplicity
 _atom_site_fract_x
 _atom_site_fract_y
 _atom_site_fract_z
 _atom_site_occupancy
  Th  Th0  1  0.333333  0.666667  0.250000  1
  Th  Th1  1  0.666667  0.333333  0.750000  1
  Th  Th2  1  0.000000  0.000000  0.500000  1
  Th  Th3  1  0.000000  0.000000  0.000000  1
  Ni  Ni4  1  0.833950  0.166050  0.354430  1
  Ni  Ni5  1  0.833950  0.667901  0.354430  1
  Ni  Ni6  1  0.332099  0.166050  0.354430  1
  Ni  Ni7  1  0.166050  0.833950  0.645570  1
  Ni  Ni8  1  0.166050  0.332099  0.645570  1
  Ni  Ni9  1  0.667901  0.833950  0.645570  1
  Ni  Ni10  1  0.166050  0.833950  0.854430  1
  Ni  Ni11  1  0.166050  0.332099  0.854430  1
  Ni  Ni12  1  0.667901  0.833950  0.854430  1
  Ni  Ni13  1  0.833950  0.166050  0.145570  1
  Ni  Ni14  1  0.833950  0.667901  0.145570  1
  Ni  Ni15  1  0.332099  0.166050  0.145570  1
  Ni  Ni16  1  0.333333  0.666667  0.957822  1
  Ni  Ni17  1  0.666667  0.333333  0.042178  1
  Ni  Ni18  1  0.666667  0.333333  0.457822  1
  Ni  Ni19  1  0.333333  0.666667  0.542178  1
  Ni  Ni20  1  0.333333  0.666667  0.750000  1
  Ni  Ni21  1  0.666667  0.333333  0.250000  1
  Ni  Ni22  1  0.000000  0.000000  0.250000  1
  Ni  Ni23  1  0.000000  0.000000  0.750000  1
  Sn  Sn24  1  0.333333  0.666667  0.412095  1
  Sn  Sn25  1  0.666667  0.333333  0.587905  1
  Sn  Sn26  1  0.666667  0.333333  0.912095  1
  Sn  Sn27  1  0.333333  0.666667  0.087905  1
