# generated using pymatgen
data_AcDy(Sn2Ir)2
_symmetry_space_group_name_H-M   'P 1'
_cell_length_a   10.17619915
_cell_length_b   10.17619875
_cell_length_c   10.17619917
_cell_angle_alpha   153.22594897
_cell_angle_beta   123.37245506
_cell_angle_gamma   63.71290201
_symmetry_Int_Tables_number   1
_chemical_formula_structural   AcDy(Sn2Ir)2
_chemical_formula_sum   'Ac2 Dy2 Sn8 Ir4'
_cell_volume   393.16155487
_cell_formula_units_Z   2
loop_
 _symmetry_equiv_pos_site_id
 _symmetry_equiv_pos_as_xyz
  1  'x, y, z'
loop_
 _atom_site_type_symbol
 _atom_site_label
 _atom_site_symmetry_multiplicity
 _atom_site_fract_x
 _atom_site_fract_y
 _atom_site_fract_z
 _atom_site_occupancy
  Ac  Ac0  1  0.738455  0.000003  0.738458  1
  Ac  Ac1  1  0.261545  0.999997  0.261542  1
  Dy  Dy2  1  0.291680  0.791680  0.500000  1
  Dy  Dy3  1  0.708320  0.208320  0.500000  1
  Sn  Sn4  1  0.914312  0.414312  0.500000  1
  Sn  Sn5  1  0.085688  0.585688  0.500000  1
  Sn  Sn6  1  0.415159  0.415159  0.000000  1
  Sn  Sn7  1  0.584841  0.584841  0.000000  1
  Sn  Sn8  1  0.356896  0.199333  0.157563  1
  Sn  Sn9  1  0.643104  0.800667  0.842437  1
  Sn  Sn10  1  0.041770  0.199333  0.842437  1
  Sn  Sn11  1  0.958230  0.800667  0.157563  1
  Ir  Ir12  1  0.598530  0.349502  0.249032  1
  Ir  Ir13  1  0.401470  0.650498  0.750968  1
  Ir  Ir14  1  0.100470  0.349499  0.750968  1
  Ir  Ir15  1  0.899530  0.650501  0.249032  1
