# generated using pymatgen
data_CaTc11WBr25
_symmetry_space_group_name_H-M   'P 1'
_cell_length_a   9.78524652
_cell_length_b   10.96027569
_cell_length_c   11.75441709
_cell_angle_alpha   85.74209822
_cell_angle_beta   76.98164496
_cell_angle_gamma   87.49427720
_symmetry_Int_Tables_number   1
_chemical_formula_structural   CaTc11WBr25
_chemical_formula_sum   'Ca1 Tc11 W1 Br25'
_cell_volume   1224.38535387
_cell_formula_units_Z   1
loop_
 _symmetry_equiv_pos_site_id
 _symmetry_equiv_pos_as_xyz
  1  'x, y, z'
loop_
 _atom_site_type_symbol
 _atom_site_label
 _atom_site_symmetry_multiplicity
 _atom_site_fract_x
 _atom_site_fract_y
 _atom_site_fract_z
 _atom_site_occupancy
  Ca  Ca0  1  0.492154  0.005333  0.006762  1
  Tc  Tc1  1  0.178268  0.751671  0.879638  1
  Tc  Tc2  1  0.745697  0.108668  0.281842  1
  Tc  Tc3  1  0.247673  0.880678  0.727840  1
  Tc  Tc4  1  0.070406  0.266652  0.187307  1
  Tc  Tc5  1  0.934615  0.731818  0.813907  1
  Tc  Tc6  1  0.849933  0.426625  0.261034  1
  Tc  Tc7  1  0.151166  0.575901  0.740205  1
  Tc  Tc8  1  0.773299  0.296186  0.411145  1
  Tc  Tc9  1  0.225350  0.703402  0.585103  1
  Tc  Tc10  1  0.992213  0.141571  0.339960  1
  Tc  Tc11  1  0.006645  0.856528  0.657493  1
  W  W12  1  0.820420  0.243236  0.128790  1
  Br  Br13  1  0.940266  0.950066  0.258589  1
  Br  Br14  1  0.062816  0.045408  0.740116  1
  Br  Br15  1  0.976026  0.273730  0.506216  1
  Br  Br16  1  0.021439  0.723742  0.492002  1
  Br  Br17  1  0.649173  0.423574  0.159017  1
  Br  Br18  1  0.357313  0.580337  0.835417  1
  Br  Br19  1  0.097158  0.461804  0.274450  1
  Br  Br20  1  0.904198  0.539522  0.720912  1
  Br  Br21  1  0.009588  0.528121  0.987282  1
  Br  Br22  1  0.587198  0.952717  0.221087  1
  Br  Br23  1  0.408371  0.039589  0.777723  1
  Br  Br24  1  0.196879  0.028228  0.403140  1
  Br  Br25  1  0.797538  0.965957  0.601836  1
  Br  Br26  1  0.539970  0.222903  0.395360  1
  Br  Br27  1  0.455087  0.779931  0.604960  1
  Br  Br28  1  0.049158  0.153369  0.017312  1
  Br  Br29  1  0.953480  0.853818  0.978851  1
  Br  Br30  1  0.777723  0.641813  0.310805  1
  Br  Br31  1  0.219059  0.361411  0.690130  1
  Br  Br32  1  0.716305  0.191763  0.951909  1
  Br  Br33  1  0.287172  0.804744  0.052019  1
  Br  Br34  1  0.338256  0.232797  0.111570  1
  Br  Br35  1  0.668598  0.761462  0.886068  1
  Br  Br36  1  0.646131  0.405944  0.584155  1
  Br  Br37  1  0.353256  0.588982  0.418047  1
