# generated using pymatgen
data_LiHo16In3Pd3Rh
_symmetry_space_group_name_H-M   'P 1'
_cell_length_a   9.62656227
_cell_length_b   9.62656143
_cell_length_c   9.63940287
_cell_angle_alpha   60.24449071
_cell_angle_beta   60.24449512
_cell_angle_gamma   60.18953740
_symmetry_Int_Tables_number   1
_chemical_formula_structural   LiHo16In3Pd3Rh
_chemical_formula_sum   'Li1 Ho16 In3 Pd3 Rh1'
_cell_volume   634.88555291
_cell_formula_units_Z   1
loop_
 _symmetry_equiv_pos_site_id
 _symmetry_equiv_pos_as_xyz
  1  'x, y, z'
loop_
 _atom_site_type_symbol
 _atom_site_label
 _atom_site_symmetry_multiplicity
 _atom_site_fract_x
 _atom_site_fract_y
 _atom_site_fract_z
 _atom_site_occupancy
  Li  Li0  1  0.823538  0.823538  0.821592  1
  Ho  Ho1  1  0.187359  0.187359  0.814439  1
  Ho  Ho2  1  0.606083  0.606083  0.184253  1
  Ho  Ho3  1  0.441460  0.059092  0.443053  1
  Ho  Ho4  1  0.441403  0.441403  0.056039  1
  Ho  Ho5  1  0.814513  0.183730  0.817557  1
  Ho  Ho6  1  0.186482  0.811321  0.188565  1
  Ho  Ho7  1  0.438327  0.067217  0.059918  1
  Ho  Ho8  1  0.183730  0.814513  0.817557  1
  Ho  Ho9  1  0.067217  0.438327  0.059918  1
  Ho  Ho10  1  0.815335  0.815335  0.184999  1
  Ho  Ho11  1  0.192295  0.601013  0.607377  1
  Ho  Ho12  1  0.059092  0.441460  0.443053  1
  Ho  Ho13  1  0.062522  0.062522  0.439342  1
  Ho  Ho14  1  0.811321  0.186482  0.188565  1
  Ho  Ho15  1  0.601013  0.192295  0.607377  1
  Ho  Ho16  1  0.597700  0.597700  0.603394  1
  In  In17  1  0.833092  0.833092  0.503940  1
  In  In18  1  0.503111  0.834093  0.831814  1
  In  In19  1  0.834093  0.503111  0.831814  1
  Pd  Pd20  1  0.393532  0.818637  0.390842  1
  Pd  Pd21  1  0.396285  0.396285  0.393076  1
  Pd  Pd22  1  0.818637  0.393532  0.390842  1
  Rh  Rh23  1  0.391865  0.391865  0.820673  1
