# generated using pymatgen
data_Er7PtRhSe2
_symmetry_space_group_name_H-M   'P 1'
_cell_length_a   9.01847761
_cell_length_b   9.04988963
_cell_length_c   9.04988932
_cell_angle_alpha   155.11412720
_cell_angle_beta   118.37533333
_cell_angle_gamma   67.53804314
_symmetry_Int_Tables_number   1
_chemical_formula_structural   Er7PtRhSe2
_chemical_formula_sum   'Er7 Pt1 Rh1 Se2'
_cell_volume   271.06523254
_cell_formula_units_Z   1
loop_
 _symmetry_equiv_pos_site_id
 _symmetry_equiv_pos_as_xyz
  1  'x, y, z'
loop_
 _atom_site_type_symbol
 _atom_site_label
 _atom_site_symmetry_multiplicity
 _atom_site_fract_x
 _atom_site_fract_y
 _atom_site_fract_z
 _atom_site_occupancy
  Er  Er0  1  0.708322  0.124040  0.584281  1
  Er  Er1  1  0.464269  0.878183  0.586086  1
  Er  Er2  1  0.693094  0.318814  0.374278  1
  Er  Er3  1  0.055302  0.682415  0.372887  1
  Er  Er4  1  0.099469  0.361274  0.738195  1
  Er  Er5  1  0.378430  0.637323  0.741107  1
  Er  Er6  1  0.993831  0.999761  0.994070  1
  Pt  Pt7  1  0.308984  0.236669  0.072314  1
  Rh  Rh8  1  0.830909  0.761928  0.068981  1
  Se  Se9  1  0.738530  0.499983  0.238547  1
  Se  Se10  1  0.338001  0.999610  0.338391  1
