# generated using pymatgen
data_Ho3FeNiSb3O14
_symmetry_space_group_name_H-M   'P 1'
_cell_length_a   7.15107601
_cell_length_b   7.15828009
_cell_length_c   7.18223033
_cell_angle_alpha   117.63328835
_cell_angle_beta   62.34362642
_cell_angle_gamma   117.74301515
_symmetry_Int_Tables_number   1
_chemical_formula_structural   Ho3FeNiSb3O14
_chemical_formula_sum   'Ho3 Fe1 Ni1 Sb3 O14'
_cell_volume   273.44309967
_cell_formula_units_Z   1
loop_
 _symmetry_equiv_pos_site_id
 _symmetry_equiv_pos_as_xyz
  1  'x, y, z'
loop_
 _atom_site_type_symbol
 _atom_site_label
 _atom_site_symmetry_multiplicity
 _atom_site_fract_x
 _atom_site_fract_y
 _atom_site_fract_z
 _atom_site_occupancy
  Ho  Ho0  1  0.999981  0.499992  0.000012  1
  Ho  Ho1  1  0.500013  0.000010  0.000002  1
  Ho  Ho2  1  0.499984  0.499975  0.499990  1
  Fe  Fe3  1  0.500003  0.500030  0.999949  1
  Ni  Ni4  1  0.000001  0.999960  0.499967  1
  Sb  Sb5  1  0.499991  0.999990  0.500017  1
  Sb  Sb6  1  0.000001  0.500005  0.500005  1
  Sb  Sb7  1  0.000015  0.999999  0.999994  1
  O  O8  1  0.616461  0.382615  0.120094  1
  O  O9  1  0.383519  0.617398  0.879880  1
  O  O10  1  0.082379  0.327614  0.173650  1
  O  O11  1  0.672768  0.920292  0.174404  1
  O  O12  1  0.675097  0.324523  0.571927  1
  O  O13  1  0.917617  0.672395  0.826369  1
  O  O14  1  0.327238  0.079726  0.825611  1
  O  O15  1  0.324903  0.675482  0.428084  1
  O  O16  1  0.654423  0.908793  0.592606  1
  O  O17  1  0.091309  0.346244  0.593220  1
  O  O18  1  0.093107  0.906373  0.151727  1
  O  O19  1  0.345595  0.091207  0.407418  1
  O  O20  1  0.908684  0.653751  0.406792  1
  O  O21  1  0.906912  0.093630  0.848282  1
