# generated using pymatgen
data_Si4Ni8W12CN
_symmetry_space_group_name_H-M   'P 1'
_cell_length_a   7.74100613
_cell_length_b   7.74100607
_cell_length_c   7.74100700
_cell_angle_alpha   60.00000030
_cell_angle_beta   60.00000057
_cell_angle_gamma   60.00000011
_symmetry_Int_Tables_number   1
_chemical_formula_structural   Si4Ni8W12CN
_chemical_formula_sum   'Si4 Ni8 W12 C1 N1'
_cell_volume   328.00259911
_cell_formula_units_Z   1
loop_
 _symmetry_equiv_pos_site_id
 _symmetry_equiv_pos_as_xyz
  1  'x, y, z'
loop_
 _atom_site_type_symbol
 _atom_site_label
 _atom_site_symmetry_multiplicity
 _atom_site_fract_x
 _atom_site_fract_y
 _atom_site_fract_z
 _atom_site_occupancy
  Si  Si0  1  0.625140  0.625140  0.124581  1
  Si  Si1  1  0.625140  0.124581  0.625140  1
  Si  Si2  1  0.124581  0.625140  0.625140  1
  Si  Si3  1  0.625140  0.625140  0.625140  1
  Ni  Ni4  1  0.418899  0.418899  0.743303  1
  Ni  Ni5  1  0.418899  0.743303  0.418899  1
  Ni  Ni6  1  0.743303  0.418899  0.418899  1
  Ni  Ni7  1  0.418899  0.418899  0.418899  1
  Ni  Ni8  1  0.831245  0.831245  0.506266  1
  Ni  Ni9  1  0.831245  0.506266  0.831245  1
  Ni  Ni10  1  0.506266  0.831245  0.831245  1
  Ni  Ni11  1  0.831245  0.831245  0.831245  1
  W  W12  1  0.054861  0.054861  0.445139  1
  W  W13  1  0.445139  0.054861  0.445139  1
  W  W14  1  0.054861  0.445139  0.445139  1
  W  W15  1  0.445139  0.445139  0.054861  1
  W  W16  1  0.054861  0.445139  0.054861  1
  W  W17  1  0.445139  0.054861  0.054861  1
  W  W18  1  0.194733  0.194733  0.805267  1
  W  W19  1  0.805267  0.194733  0.805267  1
  W  W20  1  0.194733  0.805267  0.805267  1
  W  W21  1  0.805267  0.805267  0.194733  1
  W  W22  1  0.194733  0.805267  0.194733  1
  W  W23  1  0.805267  0.194733  0.194733  1
  C  C24  1  0.000000  0.000000  0.000000  1
  N  N25  1  0.250000  0.250000  0.250000  1
