# generated using pymatgen
data_La17(YbIr4)3
_symmetry_space_group_name_H-M   'P 1'
_cell_length_a   11.39108800
_cell_length_b   11.39108800
_cell_length_c   6.54071200
_cell_angle_alpha   90.00000000
_cell_angle_beta   90.00000000
_cell_angle_gamma   90.00000000
_symmetry_Int_Tables_number   1
_chemical_formula_structural   La17(YbIr4)3
_chemical_formula_sum   'La17 Yb3 Ir12'
_cell_volume   848.70242019
_cell_formula_units_Z   1
loop_
 _symmetry_equiv_pos_site_id
 _symmetry_equiv_pos_as_xyz
  1  'x, y, z'
loop_
 _atom_site_type_symbol
 _atom_site_label
 _atom_site_symmetry_multiplicity
 _atom_site_fract_x
 _atom_site_fract_y
 _atom_site_fract_z
 _atom_site_occupancy
  La  La0  1  0.285967  0.090156  0.393930  1
  La  La1  1  0.287029  0.910907  0.891809  1
  La  La2  1  0.712971  0.089093  0.891809  1
  La  La3  1  0.714033  0.909844  0.393930  1
  La  La4  1  0.590307  0.787152  0.892249  1
  La  La5  1  0.590237  0.207880  0.390980  1
  La  La6  1  0.409763  0.792120  0.390980  1
  La  La7  1  0.409693  0.212848  0.892249  1
  La  La8  1  0.207880  0.409763  0.609020  1
  La  La9  1  0.212848  0.590307  0.107751  1
  La  La10  1  0.787152  0.409693  0.107751  1
  La  La11  1  0.792120  0.590237  0.609020  1
  La  La12  1  0.910907  0.712971  0.108191  1
  La  La13  1  0.909844  0.285967  0.606070  1
  La  La14  1  0.090156  0.714033  0.606070  1
  La  La15  1  0.089093  0.287029  0.108191  1
  La  La16  1  0.500000  0.500000  0.500000  1
  Yb  Yb17  1  0.000000  0.000000  0.500000  1
  Yb  Yb18  1  0.000000  0.000000  0.000000  1
  Yb  Yb19  1  0.500000  0.500000  0.000000  1
  Ir  Ir20  1  0.844582  0.155218  0.248306  1
  Ir  Ir21  1  0.844782  0.844582  0.751694  1
  Ir  Ir22  1  0.155218  0.155418  0.751694  1
  Ir  Ir23  1  0.155418  0.844782  0.248306  1
  Ir  Ir24  1  0.655962  0.346324  0.745130  1
  Ir  Ir25  1  0.653676  0.655962  0.254870  1
  Ir  Ir26  1  0.346324  0.344038  0.254870  1
  Ir  Ir27  1  0.344038  0.653676  0.745130  1
  Ir  Ir28  1  0.500000  0.000000  0.117046  1
  Ir  Ir29  1  0.500000  0.000000  0.621387  1
  Ir  Ir30  1  0.000000  0.500000  0.882954  1
  Ir  Ir31  1  0.000000  0.500000  0.378613  1
