# generated using pymatgen
data_Zr6PPb2
_symmetry_space_group_name_H-M   'P 1'
_cell_length_a   7.76617500
_cell_length_b   7.76617402
_cell_length_c   3.83071200
_cell_angle_alpha   90.00000000
_cell_angle_beta   90.00000000
_cell_angle_gamma   119.99999990
_symmetry_Int_Tables_number   1
_chemical_formula_structural   Zr6PPb2
_chemical_formula_sum   'Zr6 P1 Pb2'
_cell_volume   200.08955792
_cell_formula_units_Z   1
loop_
 _symmetry_equiv_pos_site_id
 _symmetry_equiv_pos_as_xyz
  1  'x, y, z'
loop_
 _atom_site_type_symbol
 _atom_site_label
 _atom_site_symmetry_multiplicity
 _atom_site_fract_x
 _atom_site_fract_y
 _atom_site_fract_z
 _atom_site_occupancy
  Zr  Zr0  1  0.374553  0.374553  0.500000  1
  Zr  Zr1  1  0.625447  0.000000  0.500000  1
  Zr  Zr2  1  0.000000  0.625447  0.500000  1
  Zr  Zr3  1  0.761223  0.761223  0.000000  1
  Zr  Zr4  1  0.238777  0.000000  0.000000  1
  Zr  Zr5  1  0.000000  0.238777  0.000000  1
  P  P6  1  0.000000  0.000000  0.500000  1
  Pb  Pb7  1  0.666667  0.333333  0.000000  1
  Pb  Pb8  1  0.333333  0.666667  0.000000  1
