# generated using pymatgen
data_Tb3Ni8MoP6
_symmetry_space_group_name_H-M   'P 1'
_cell_length_a   3.76601000
_cell_length_b   10.67113900
_cell_length_c   12.33654800
_cell_angle_alpha   90.00000000
_cell_angle_beta   90.00000000
_cell_angle_gamma   90.00000000
_symmetry_Int_Tables_number   1
_chemical_formula_structural   Tb3Ni8MoP6
_chemical_formula_sum   'Tb6 Ni16 Mo2 P12'
_cell_volume   495.77645608
_cell_formula_units_Z   2
loop_
 _symmetry_equiv_pos_site_id
 _symmetry_equiv_pos_as_xyz
  1  'x, y, z'
loop_
 _atom_site_type_symbol
 _atom_site_label
 _atom_site_symmetry_multiplicity
 _atom_site_fract_x
 _atom_site_fract_y
 _atom_site_fract_z
 _atom_site_occupancy
  Tb  Tb0  1  0.000000  0.500000  0.524204  1
  Tb  Tb1  1  0.500000  0.000000  0.475796  1
  Tb  Tb2  1  0.500000  0.818486  0.206751  1
  Tb  Tb3  1  0.500000  0.181514  0.206751  1
  Tb  Tb4  1  0.000000  0.681514  0.793249  1
  Tb  Tb5  1  0.000000  0.318486  0.793249  1
  Ni  Ni6  1  0.500000  0.500000  0.701126  1
  Ni  Ni7  1  0.000000  0.000000  0.298874  1
  Ni  Ni8  1  0.000000  0.500000  0.985518  1
  Ni  Ni9  1  0.500000  0.000000  0.014482  1
  Ni  Ni10  1  0.500000  0.332280  0.989018  1
  Ni  Ni11  1  0.500000  0.667720  0.989018  1
  Ni  Ni12  1  0.000000  0.167720  0.010982  1
  Ni  Ni13  1  0.000000  0.832280  0.010982  1
  Ni  Ni14  1  0.500000  0.301831  0.428116  1
  Ni  Ni15  1  0.500000  0.698169  0.428116  1
  Ni  Ni16  1  0.000000  0.198169  0.571884  1
  Ni  Ni17  1  0.000000  0.801831  0.571884  1
  Ni  Ni18  1  0.500000  0.879519  0.709552  1
  Ni  Ni19  1  0.500000  0.120481  0.709552  1
  Ni  Ni20  1  0.000000  0.620481  0.290448  1
  Ni  Ni21  1  0.000000  0.379519  0.290448  1
  Mo  Mo22  1  0.500000  0.500000  0.153497  1
  Mo  Mo23  1  0.000000  0.000000  0.846503  1
  P  P24  1  0.500000  0.500000  0.879354  1
  P  P25  1  0.000000  0.000000  0.120646  1
  P  P26  1  0.500000  0.500000  0.348580  1
  P  P27  1  0.000000  0.000000  0.651420  1
  P  P28  1  0.500000  0.313746  0.614358  1
  P  P29  1  0.500000  0.686254  0.614358  1
  P  P30  1  0.000000  0.186254  0.385642  1
  P  P31  1  0.000000  0.813746  0.385642  1
  P  P32  1  0.500000  0.845032  0.893062  1
  P  P33  1  0.500000  0.154968  0.893062  1
  P  P34  1  0.000000  0.654968  0.106938  1
  P  P35  1  0.000000  0.345032  0.106938  1
