# generated using pymatgen
data_Ho2UTc2
_symmetry_space_group_name_H-M   'P 1'
_cell_length_a   5.93568238
_cell_length_b   5.93568364
_cell_length_c   5.93568403
_cell_angle_alpha   138.77591845
_cell_angle_beta   122.99148010
_cell_angle_gamma   72.74335727
_symmetry_Int_Tables_number   1
_chemical_formula_structural   Ho2UTc2
_chemical_formula_sum   'Ho2 U1 Tc2'
_cell_volume   113.15696304
_cell_formula_units_Z   1
loop_
 _symmetry_equiv_pos_site_id
 _symmetry_equiv_pos_as_xyz
  1  'x, y, z'
loop_
 _atom_site_type_symbol
 _atom_site_label
 _atom_site_symmetry_multiplicity
 _atom_site_fract_x
 _atom_site_fract_y
 _atom_site_fract_z
 _atom_site_occupancy
  Ho  Ho0  1  0.699577  0.199577  0.500000  1
  Ho  Ho1  1  0.300424  0.800424  0.500001  1
  U  U2  1  0.000000  0.000000  0.000000  1
  Tc  Tc3  1  0.750349  0.500000  0.250349  1
  Tc  Tc4  1  0.249651  0.500001  0.749652  1
