# generated using pymatgen
data_Er4TmReRuC7
_symmetry_space_group_name_H-M   'P 1'
_cell_length_a   8.18082972
_cell_length_b   8.17646790
_cell_length_c   3.43594200
_cell_angle_alpha   90.00000000
_cell_angle_beta   90.00000000
_cell_angle_gamma   121.95401692
_symmetry_Int_Tables_number   1
_chemical_formula_structural   Er4TmReRuC7
_chemical_formula_sum   'Er4 Tm1 Re1 Ru1 C7'
_cell_volume   195.00556169
_cell_formula_units_Z   1
loop_
 _symmetry_equiv_pos_site_id
 _symmetry_equiv_pos_as_xyz
  1  'x, y, z'
loop_
 _atom_site_type_symbol
 _atom_site_label
 _atom_site_symmetry_multiplicity
 _atom_site_fract_x
 _atom_site_fract_y
 _atom_site_fract_z
 _atom_site_occupancy
  Er  Er0  1  0.500526  0.498946  0.000000  1
  Er  Er1  1  0.075973  0.336152  0.500000  1
  Er  Er2  1  0.921246  0.660714  0.500000  1
  Er  Er3  1  0.663497  0.924332  0.500000  1
  Tm  Tm4  1  0.340490  0.079287  0.500000  1
  Re  Re5  1  0.285037  0.715091  0.000000  1
  Ru  Ru6  1  0.712781  0.287060  0.000000  1
  C  C7  1  0.627498  0.371881  0.500000  1
  C  C8  1  0.374993  0.624998  0.500000  1
  C  C9  1  0.999493  0.000517  0.000000  1
  C  C10  1  0.171777  0.170454  0.000000  1
  C  C11  1  0.828797  0.829236  0.000000  1
  C  C12  1  0.001323  0.502559  0.000000  1
  C  C13  1  0.496570  0.998773  0.000000  1
