# generated using pymatgen
data_Lu7H(CI2)3
_symmetry_space_group_name_H-M   'P 1'
_cell_length_a   3.68528600
_cell_length_b   10.96214800
_cell_length_c   21.55655500
_cell_angle_alpha   90.00000000
_cell_angle_beta   90.00000000
_cell_angle_gamma   90.00000000
_symmetry_Int_Tables_number   1
_chemical_formula_structural   Lu7H(CI2)3
_chemical_formula_sum   'Lu14 H2 C6 I12'
_cell_volume   870.85573260
_cell_formula_units_Z   2
loop_
 _symmetry_equiv_pos_site_id
 _symmetry_equiv_pos_as_xyz
  1  'x, y, z'
loop_
 _atom_site_type_symbol
 _atom_site_label
 _atom_site_symmetry_multiplicity
 _atom_site_fract_x
 _atom_site_fract_y
 _atom_site_fract_z
 _atom_site_occupancy
  Lu  Lu0  1  0.500000  0.637061  0.970318  1
  Lu  Lu1  1  0.000000  0.704933  0.664959  1
  Lu  Lu2  1  0.500000  0.507822  0.750000  1
  Lu  Lu3  1  0.000000  0.437711  0.607776  1
  Lu  Lu4  1  0.000000  0.295067  0.164959  1
  Lu  Lu5  1  0.500000  0.492178  0.250000  1
  Lu  Lu6  1  0.500000  0.362939  0.470318  1
  Lu  Lu7  1  0.000000  0.437711  0.892224  1
  Lu  Lu8  1  0.000000  0.562289  0.107776  1
  Lu  Lu9  1  0.000000  0.704933  0.835041  1
  Lu  Lu10  1  0.500000  0.637061  0.529682  1
  Lu  Lu11  1  0.500000  0.362939  0.029682  1
  Lu  Lu12  1  0.000000  0.295067  0.335041  1
  Lu  Lu13  1  0.000000  0.562289  0.392224  1
  H  H14  1  0.000000  0.609049  0.750000  1
  H  H15  1  0.000000  0.390951  0.250000  1
  C  C16  1  0.500000  0.424232  0.142060  1
  C  C17  1  0.500000  0.575768  0.642060  1
  C  C18  1  0.000000  0.500000  0.000000  1
  C  C19  1  0.500000  0.575768  0.857940  1
  C  C20  1  0.000000  0.500000  0.500000  1
  C  C21  1  0.500000  0.424232  0.357940  1
  I  I22  1  0.500000  0.124483  0.250000  1
  I  I23  1  0.000000  0.701984  0.250000  1
  I  I24  1  0.000000  0.136219  0.058558  1
  I  I25  1  0.500000  0.220271  0.905854  1
  I  I26  1  0.500000  0.779729  0.405854  1
  I  I27  1  0.000000  0.863781  0.941442  1
  I  I28  1  0.000000  0.136219  0.441442  1
  I  I29  1  0.500000  0.779729  0.094146  1
  I  I30  1  0.000000  0.863781  0.558558  1
  I  I31  1  0.000000  0.298016  0.750000  1
  I  I32  1  0.500000  0.220271  0.594146  1
  I  I33  1  0.500000  0.875517  0.750000  1
