# generated using pymatgen
data_Dy2Lu2Tc3Os5
_symmetry_space_group_name_H-M   'P 1'
_cell_length_a   5.26413182
_cell_length_b   5.29778396
_cell_length_c   8.96692029
_cell_angle_alpha   90.00000058
_cell_angle_beta   89.97488905
_cell_angle_gamma   120.21167899
_symmetry_Int_Tables_number   1
_chemical_formula_structural   Dy2Lu2Tc3Os5
_chemical_formula_sum   'Dy2 Lu2 Tc3 Os5'
_cell_volume   216.10487794
_cell_formula_units_Z   1
loop_
 _symmetry_equiv_pos_site_id
 _symmetry_equiv_pos_as_xyz
  1  'x, y, z'
loop_
 _atom_site_type_symbol
 _atom_site_label
 _atom_site_symmetry_multiplicity
 _atom_site_fract_x
 _atom_site_fract_y
 _atom_site_fract_z
 _atom_site_occupancy
  Dy  Dy0  1  0.335548  0.667774  0.434026  1
  Dy  Dy1  1  0.667228  0.333614  0.563563  1
  Lu  Lu2  1  0.667344  0.333671  0.937617  1
  Lu  Lu3  1  0.336059  0.668030  0.065164  1
  Tc  Tc4  1  0.166485  0.340210  0.752524  1
  Tc  Tc5  1  0.166485  0.826276  0.752524  1
  Tc  Tc6  1  0.336666  0.168333  0.247843  1
  Os  Os7  1  0.824341  0.653798  0.247097  1
  Os  Os8  1  0.651447  0.825724  0.752779  1
  Os  Os9  1  0.012166  0.006083  0.000800  1
  Os  Os10  1  0.824341  0.170543  0.247097  1
  Os  Os11  1  0.011890  0.005945  0.498967  1
