# generated using pymatgen
data_CaHoEr5Co6Sn23
_symmetry_space_group_name_H-M   'P 1'
_cell_length_a   9.70917603
_cell_length_b   9.70917459
_cell_length_c   9.95226902
_cell_angle_alpha   90.00600692
_cell_angle_beta   89.99399121
_cell_angle_gamma   119.99338865
_symmetry_Int_Tables_number   1
_chemical_formula_structural   CaHoEr5Co6Sn23
_chemical_formula_sum   'Ca1 Ho1 Er5 Co6 Sn23'
_cell_volume   812.54299423
_cell_formula_units_Z   1
loop_
 _symmetry_equiv_pos_site_id
 _symmetry_equiv_pos_as_xyz
  1  'x, y, z'
loop_
 _atom_site_type_symbol
 _atom_site_label
 _atom_site_symmetry_multiplicity
 _atom_site_fract_x
 _atom_site_fract_y
 _atom_site_fract_z
 _atom_site_occupancy
  Ca  Ca0  1  0.000005  0.999995  0.999975  1
  Ho  Ho1  1  0.479235  0.520765  0.306346  1
  Er  Er2  1  0.520613  0.479387  0.693718  1
  Er  Er3  1  0.520566  0.041149  0.693731  1
  Er  Er4  1  0.958851  0.479434  0.693731  1
  Er  Er5  1  0.041183  0.520549  0.306281  1
  Er  Er6  1  0.479451  0.958817  0.306281  1
  Co  Co7  1  0.168863  0.831137  0.801220  1
  Co  Co8  1  0.168855  0.337718  0.801239  1
  Co  Co9  1  0.662282  0.831145  0.801239  1
  Co  Co10  1  0.337652  0.168653  0.198712  1
  Co  Co11  1  0.831347  0.662348  0.198712  1
  Co  Co12  1  0.831115  0.168885  0.198739  1
  Sn  Sn13  1  0.666710  0.333290  0.183636  1
  Sn  Sn14  1  0.666679  0.333321  0.879731  1
  Sn  Sn15  1  0.333124  0.666876  0.120002  1
  Sn  Sn16  1  0.346271  0.346280  0.999966  1
  Sn  Sn17  1  0.000041  0.653787  0.000001  1
  Sn  Sn18  1  0.653780  0.000011  0.999968  1
  Sn  Sn19  1  0.653720  0.653729  0.999966  1
  Sn  Sn20  1  0.333331  0.666669  0.816349  1
  Sn  Sn21  1  0.437653  0.218603  0.452319  1
  Sn  Sn22  1  0.218836  0.781164  0.547804  1
  Sn  Sn23  1  0.218741  0.437675  0.547941  1
  Sn  Sn24  1  0.562325  0.781259  0.547941  1
  Sn  Sn25  1  0.117712  0.882288  0.274119  1
  Sn  Sn26  1  0.781397  0.562347  0.452319  1
  Sn  Sn27  1  0.781181  0.218819  0.452208  1
  Sn  Sn28  1  0.346213  0.999959  0.000001  1
  Sn  Sn29  1  0.117497  0.235194  0.274119  1
  Sn  Sn30  1  0.764806  0.882503  0.274119  1
  Sn  Sn31  1  0.235317  0.117644  0.725861  1
  Sn  Sn32  1  0.882356  0.764683  0.725861  1
  Sn  Sn33  1  0.882292  0.117708  0.725871  1
  Sn  Sn34  1  0.000009  0.999991  0.500007  1
  Sn  Sn35  1  0.999989  0.346220  0.999968  1
