# generated using pymatgen
data_Hf8Ta12Si15Au
_symmetry_space_group_name_H-M   'P 1'
_cell_length_a   6.68176604
_cell_length_b   6.83762923
_cell_length_c   13.16064138
_cell_angle_alpha   89.83547509
_cell_angle_beta   90.00678975
_cell_angle_gamma   90.06392920
_symmetry_Int_Tables_number   1
_chemical_formula_structural   Hf8Ta12Si15Au
_chemical_formula_sum   'Hf8 Ta12 Si15 Au1'
_cell_volume   601.27314031
_cell_formula_units_Z   1
loop_
 _symmetry_equiv_pos_site_id
 _symmetry_equiv_pos_as_xyz
  1  'x, y, z'
loop_
 _atom_site_type_symbol
 _atom_site_label
 _atom_site_symmetry_multiplicity
 _atom_site_fract_x
 _atom_site_fract_y
 _atom_site_fract_z
 _atom_site_occupancy
  Hf  Hf0  1  0.489244  0.666519  0.595952  1
  Hf  Hf1  1  0.996328  0.827693  0.906924  1
  Hf  Hf2  1  0.505854  0.327390  0.092136  1
  Hf  Hf3  1  0.012428  0.175714  0.406111  1
  Hf  Hf4  1  0.503944  0.336478  0.406198  1
  Hf  Hf5  1  0.005141  0.172322  0.091744  1
  Hf  Hf6  1  0.493625  0.673526  0.907513  1
  Hf  Hf7  1  0.003520  0.821648  0.597294  1
  Ta  Ta8  1  0.658974  0.181159  0.629990  1
  Ta  Ta9  1  0.159280  0.329298  0.876844  1
  Ta  Ta10  1  0.336016  0.829089  0.122530  1
  Ta  Ta11  1  0.843835  0.660587  0.371848  1
  Ta  Ta12  1  0.327348  0.829348  0.373927  1
  Ta  Ta13  1  0.837891  0.669365  0.122826  1
  Ta  Ta14  1  0.663723  0.171983  0.877437  1
  Ta  Ta15  1  0.163516  0.329046  0.624668  1
  Ta  Ta16  1  0.835388  0.496898  0.750893  1
  Ta  Ta17  1  0.337054  0.003736  0.751958  1
  Ta  Ta18  1  0.164079  0.502412  0.247341  1
  Ta  Ta19  1  0.661962  0.992878  0.242853  1
  Si  Si20  1  0.172333  0.536099  0.037810  1
  Si  Si21  1  0.327880  0.037636  0.961367  1
  Si  Si22  1  0.826791  0.463694  0.537245  1
  Si  Si23  1  0.329159  0.034790  0.539123  1
  Si  Si24  1  0.826443  0.464734  0.961859  1
  Si  Si25  1  0.672106  0.962151  0.037476  1
  Si  Si26  1  0.172436  0.536835  0.462881  1
  Si  Si27  1  0.457478  0.389984  0.752985  1
  Si  Si28  1  0.961015  0.111566  0.750798  1
  Si  Si29  1  0.539572  0.613716  0.250167  1
  Si  Si30  1  0.037631  0.889969  0.248364  1
  Si  Si31  1  0.701299  0.860093  0.749780  1
  Si  Si32  1  0.201721  0.639598  0.751507  1
  Si  Si33  1  0.300257  0.140487  0.250730  1
  Si  Si34  1  0.796832  0.354890  0.248945  1
  Au  Au35  1  0.677894  0.966670  0.461977  1
