# generated using pymatgen
data_Li4Ac2SmSn4
_symmetry_space_group_name_H-M   'P 1'
_cell_length_a   9.07636251
_cell_length_b   9.07636258
_cell_length_c   9.07636259
_cell_angle_alpha   148.66756895
_cell_angle_beta   133.26857831
_cell_angle_gamma   57.34469332
_symmetry_Int_Tables_number   1
_chemical_formula_structural   Li4Ac2SmSn4
_chemical_formula_sum   'Li4 Ac2 Sm1 Sn4'
_cell_volume   281.02810188
_cell_formula_units_Z   1
loop_
 _symmetry_equiv_pos_site_id
 _symmetry_equiv_pos_as_xyz
  1  'x, y, z'
loop_
 _atom_site_type_symbol
 _atom_site_label
 _atom_site_symmetry_multiplicity
 _atom_site_fract_x
 _atom_site_fract_y
 _atom_site_fract_z
 _atom_site_occupancy
  Li  Li0  1  0.482752  0.671132  0.811622  1
  Li  Li1  1  0.859510  0.671132  0.188378  1
  Li  Li2  1  0.140490  0.328868  0.811622  1
  Li  Li3  1  0.517248  0.328868  0.188378  1
  Ac  Ac4  1  0.868029  0.868029  0.000000  1
  Ac  Ac5  1  0.131971  0.131971  0.000000  1
  Sm  Sm6  1  0.500000  0.000000  0.500000  1
  Sn  Sn7  1  0.291502  0.791502  0.500000  1
  Sn  Sn8  1  0.708498  0.208498  0.500000  1
  Sn  Sn9  1  0.794496  0.500000  0.294496  1
  Sn  Sn10  1  0.205504  0.500000  0.705504  1
