# generated using pymatgen
data_Sn3Pd(SeO3)8
_symmetry_space_group_name_H-M   'P 1'
_cell_length_a   8.29216124
_cell_length_b   8.29216124
_cell_length_c   8.29216124
_cell_angle_alpha   90.18750486
_cell_angle_beta   89.81249514
_cell_angle_gamma   89.81249514
_symmetry_Int_Tables_number   1
_chemical_formula_structural   Sn3Pd(SeO3)8
_chemical_formula_sum   'Sn3 Pd1 Se8 O24'
_cell_volume   570.15931306
_cell_formula_units_Z   1
loop_
 _symmetry_equiv_pos_site_id
 _symmetry_equiv_pos_as_xyz
  1  'x, y, z'
loop_
 _atom_site_type_symbol
 _atom_site_label
 _atom_site_symmetry_multiplicity
 _atom_site_fract_x
 _atom_site_fract_y
 _atom_site_fract_z
 _atom_site_occupancy
  Sn  Sn0  1  0.500000  0.000000  0.500000  1
  Sn  Sn1  1  0.000000  0.000000  0.000000  1
  Sn  Sn2  1  0.000000  0.500000  0.500000  1
  Pd  Pd3  1  0.500000  0.500000  0.000000  1
  Se  Se4  1  0.832893  0.167107  0.667107  1
  Se  Se5  1  0.167107  0.832893  0.332893  1
  Se  Se6  1  0.660115  0.662007  0.682733  1
  Se  Se7  1  0.182733  0.660115  0.837993  1
  Se  Se8  1  0.337993  0.182733  0.839885  1
  Se  Se9  1  0.817267  0.339885  0.162007  1
  Se  Se10  1  0.662007  0.817267  0.160115  1
  Se  Se11  1  0.339885  0.337993  0.317267  1
  O  O12  1  0.245689  0.468219  0.452518  1
  O  O13  1  0.952518  0.245689  0.031781  1
  O  O14  1  0.030381  0.745604  0.465283  1
  O  O15  1  0.477608  0.257767  0.980466  1
  O  O16  1  0.254396  0.965283  0.469619  1
  O  O17  1  0.519534  0.522392  0.757767  1
  O  O18  1  0.965283  0.030381  0.754396  1
  O  O19  1  0.522392  0.742233  0.019534  1
  O  O20  1  0.531781  0.952518  0.254311  1
  O  O21  1  0.468219  0.047482  0.745689  1
  O  O22  1  0.754573  0.951924  0.030049  1
  O  O23  1  0.257767  0.519534  0.977608  1
  O  O24  1  0.048076  0.530049  0.745427  1
  O  O25  1  0.034717  0.969619  0.245604  1
  O  O26  1  0.245427  0.048076  0.969951  1
  O  O27  1  0.480466  0.477608  0.242233  1
  O  O28  1  0.754311  0.531781  0.547482  1
  O  O29  1  0.951924  0.469951  0.254573  1
  O  O30  1  0.047482  0.754311  0.968219  1
  O  O31  1  0.469951  0.245427  0.451924  1
  O  O32  1  0.530049  0.754573  0.548076  1
  O  O33  1  0.969619  0.254396  0.534717  1
  O  O34  1  0.745604  0.034717  0.530381  1
  O  O35  1  0.742233  0.480466  0.022392  1
