# generated using pymatgen
data_Gd2OF4
_symmetry_space_group_name_H-M   'P 1'
_cell_length_a   6.88960239
_cell_length_b   6.88960158
_cell_length_c   5.79151015
_cell_angle_alpha   79.08139901
_cell_angle_beta   79.08139953
_cell_angle_gamma   46.61981720
_symmetry_Int_Tables_number   1
_chemical_formula_structural   Gd2OF4
_chemical_formula_sum   'Gd4 O2 F8'
_cell_volume   195.50730953
_cell_formula_units_Z   2
loop_
 _symmetry_equiv_pos_site_id
 _symmetry_equiv_pos_as_xyz
  1  'x, y, z'
loop_
 _atom_site_type_symbol
 _atom_site_label
 _atom_site_symmetry_multiplicity
 _atom_site_fract_x
 _atom_site_fract_y
 _atom_site_fract_z
 _atom_site_occupancy
  Gd  Gd0  1  0.106147  0.679792  0.578711  1
  Gd  Gd1  1  0.679792  0.106147  0.078711  1
  Gd  Gd2  1  0.320208  0.893853  0.921289  1
  Gd  Gd3  1  0.893853  0.320208  0.421289  1
  O  O4  1  0.952878  0.047122  0.750000  1
  O  O5  1  0.047122  0.952878  0.250000  1
  F  F6  1  0.312320  0.520838  0.929607  1
  F  F7  1  0.520838  0.312320  0.429607  1
  F  F8  1  0.706173  0.853012  0.830723  1
  F  F9  1  0.853012  0.706173  0.330723  1
  F  F10  1  0.146988  0.293827  0.669277  1
  F  F11  1  0.293827  0.146988  0.169277  1
  F  F12  1  0.479162  0.687680  0.570393  1
  F  F13  1  0.687680  0.479162  0.070393  1
