# generated using pymatgen
data_YTiNb5Sn6
_symmetry_space_group_name_H-M   'P 1'
_cell_length_a   5.79623831
_cell_length_b   5.79293846
_cell_length_c   9.63552300
_cell_angle_alpha   90.00000000
_cell_angle_beta   90.00000000
_cell_angle_gamma   119.98116647
_symmetry_Int_Tables_number   1
_chemical_formula_structural   YTiNb5Sn6
_chemical_formula_sum   'Y1 Ti1 Nb5 Sn6'
_cell_volume   280.24215302
_cell_formula_units_Z   1
loop_
 _symmetry_equiv_pos_site_id
 _symmetry_equiv_pos_as_xyz
  1  'x, y, z'
loop_
 _atom_site_type_symbol
 _atom_site_label
 _atom_site_symmetry_multiplicity
 _atom_site_fract_x
 _atom_site_fract_y
 _atom_site_fract_z
 _atom_site_occupancy
  Y  Y0  1  0.000000  0.000000  0.998432  1
  Ti  Ti1  1  0.000000  0.500000  0.248491  1
  Nb  Nb2  1  0.500000  0.000000  0.752271  1
  Nb  Nb3  1  0.500000  0.000000  0.249166  1
  Nb  Nb4  1  0.500000  0.500000  0.249166  1
  Nb  Nb5  1  0.500000  0.500000  0.752271  1
  Nb  Nb6  1  0.000000  0.500000  0.749878  1
  Sn  Sn7  1  0.331233  0.665617  0.499521  1
  Sn  Sn8  1  0.668767  0.334383  0.499521  1
  Sn  Sn9  1  0.330441  0.665221  0.001310  1
  Sn  Sn10  1  0.669559  0.334779  0.001310  1
  Sn  Sn11  1  0.000000  0.000000  0.327903  1
  Sn  Sn12  1  0.000000  0.000000  0.670761  1
