# generated using pymatgen
data_Er8Nb11Si16Tc
_symmetry_space_group_name_H-M   'P 1'
_cell_length_a   6.81846406
_cell_length_b   7.04264501
_cell_length_c   13.35248000
_cell_angle_alpha   90.00000000
_cell_angle_beta   90.00000000
_cell_angle_gamma   90.00988923
_symmetry_Int_Tables_number   1
_chemical_formula_structural   Er8Nb11Si16Tc
_chemical_formula_sum   'Er8 Nb11 Si16 Tc1'
_cell_volume   641.18637186
_cell_formula_units_Z   1
loop_
 _symmetry_equiv_pos_site_id
 _symmetry_equiv_pos_as_xyz
  1  'x, y, z'
loop_
 _atom_site_type_symbol
 _atom_site_label
 _atom_site_symmetry_multiplicity
 _atom_site_fract_x
 _atom_site_fract_y
 _atom_site_fract_z
 _atom_site_occupancy
  Er  Er0  1  0.500219  0.672595  0.594972  1
  Er  Er1  1  0.001456  0.827858  0.904908  1
  Er  Er2  1  0.497543  0.327765  0.095255  1
  Er  Er3  1  0.997816  0.172672  0.404632  1
  Er  Er4  1  0.497543  0.327765  0.404745  1
  Er  Er5  1  0.997816  0.172672  0.095368  1
  Er  Er6  1  0.500219  0.672595  0.905028  1
  Er  Er7  1  0.001456  0.827858  0.595092  1
  Nb  Nb8  1  0.664427  0.171464  0.626514  1
  Nb  Nb9  1  0.164683  0.328553  0.873123  1
  Nb  Nb10  1  0.336912  0.826357  0.125437  1
  Nb  Nb11  1  0.836856  0.673347  0.375465  1
  Nb  Nb12  1  0.336912  0.826357  0.374563  1
  Nb  Nb13  1  0.836856  0.673347  0.124535  1
  Nb  Nb14  1  0.664427  0.171464  0.873486  1
  Nb  Nb15  1  0.164683  0.328553  0.626877  1
  Nb  Nb16  1  0.337212  0.007651  0.750000  1
  Nb  Nb17  1  0.162756  0.507870  0.250000  1
  Nb  Nb18  1  0.662853  0.992655  0.250000  1
  Si  Si19  1  0.664601  0.962951  0.459059  1
  Si  Si20  1  0.164923  0.537497  0.040312  1
  Si  Si21  1  0.335576  0.037540  0.958849  1
  Si  Si22  1  0.835796  0.461518  0.543158  1
  Si  Si23  1  0.335576  0.037540  0.541151  1
  Si  Si24  1  0.835796  0.461518  0.956842  1
  Si  Si25  1  0.664601  0.962951  0.040941  1
  Si  Si26  1  0.164923  0.537497  0.459688  1
  Si  Si27  1  0.467575  0.381403  0.750000  1
  Si  Si28  1  0.958844  0.122752  0.750000  1
  Si  Si29  1  0.540477  0.620896  0.250000  1
  Si  Si30  1  0.039270  0.879908  0.250000  1
  Si  Si31  1  0.703414  0.864735  0.750000  1
  Si  Si32  1  0.197322  0.628388  0.750000  1
  Si  Si33  1  0.295248  0.129606  0.250000  1
  Si  Si34  1  0.795367  0.370600  0.250000  1
  Tc  Tc35  1  0.838051  0.493302  0.750000  1
