# generated using pymatgen
data_La8Ho2IrOs3
_symmetry_space_group_name_H-M   'P 1'
_cell_length_a   6.71453136
_cell_length_b   7.31699192
_cell_length_c   8.98659523
_cell_angle_alpha   94.97215479
_cell_angle_beta   111.31728091
_cell_angle_gamma   89.98216250
_symmetry_Int_Tables_number   1
_chemical_formula_structural   La8Ho2IrOs3
_chemical_formula_sum   'La8 Ho2 Ir1 Os3'
_cell_volume   409.52603706
_cell_formula_units_Z   1
loop_
 _symmetry_equiv_pos_site_id
 _symmetry_equiv_pos_as_xyz
  1  'x, y, z'
loop_
 _atom_site_type_symbol
 _atom_site_label
 _atom_site_symmetry_multiplicity
 _atom_site_fract_x
 _atom_site_fract_y
 _atom_site_fract_z
 _atom_site_occupancy
  La  La0  1  0.973823  0.910892  0.178007  1
  La  La1  1  0.797080  0.588418  0.818917  1
  La  La2  1  0.019902  0.088254  0.818120  1
  La  La3  1  0.198992  0.413799  0.178225  1
  La  La4  1  0.643718  0.817187  0.431052  1
  La  La5  1  0.214446  0.681548  0.572572  1
  La  La6  1  0.359497  0.180998  0.575427  1
  La  La7  1  0.790347  0.320004  0.427738  1
  Ho  Ho8  1  0.434981  0.749303  0.999005  1
  Ho  Ho9  1  0.563463  0.250717  0.999862  1
  Ir  Ir10  1  0.399812  0.072713  0.213662  1
  Os  Os11  1  0.817299  0.574197  0.213222  1
  Os  Os12  1  0.603990  0.927164  0.785789  1
  Os  Os13  1  0.182648  0.424804  0.788402  1
