# generated using pymatgen
data_Pr10Nd7Ho3Sn16
_symmetry_space_group_name_H-M   'P 1'
_cell_length_a   8.29846501
_cell_length_b   8.45387988
_cell_length_c   16.02065700
_cell_angle_alpha   90.01413777
_cell_angle_beta   89.99778369
_cell_angle_gamma   89.97802804
_symmetry_Int_Tables_number   1
_chemical_formula_structural   Pr10Nd7Ho3Sn16
_chemical_formula_sum   'Pr10 Nd7 Ho3 Sn16'
_cell_volume   1123.91667963
_cell_formula_units_Z   1
loop_
 _symmetry_equiv_pos_site_id
 _symmetry_equiv_pos_as_xyz
  1  'x, y, z'
loop_
 _atom_site_type_symbol
 _atom_site_label
 _atom_site_symmetry_multiplicity
 _atom_site_fract_x
 _atom_site_fract_y
 _atom_site_fract_z
 _atom_site_occupancy
  Pr  Pr0  1  0.368189  0.836738  0.620027  1
  Pr  Pr1  1  0.867184  0.663679  0.879651  1
  Pr  Pr2  1  0.519079  0.318386  0.901497  1
  Pr  Pr3  1  0.018588  0.180683  0.598541  1
  Pr  Pr4  1  0.481114  0.681134  0.400428  1
  Pr  Pr5  1  0.981208  0.818884  0.099129  1
  Pr  Pr6  1  0.481115  0.681086  0.099509  1
  Pr  Pr7  1  0.981178  0.818952  0.400948  1
  Pr  Pr8  1  0.519143  0.318458  0.598503  1
  Pr  Pr9  1  0.018608  0.180588  0.901429  1
  Nd  Nd10  1  0.367945  0.836876  0.879731  1
  Nd  Nd11  1  0.866957  0.663593  0.620562  1
  Nd  Nd12  1  0.632598  0.162731  0.379175  1
  Nd  Nd13  1  0.132644  0.337066  0.121747  1
  Nd  Nd14  1  0.632536  0.162839  0.120989  1
  Nd  Nd15  1  0.132570  0.336951  0.378096  1
  Nd  Nd16  1  0.197510  0.501809  0.750057  1
  Ho  Ho17  1  0.698732  0.997842  0.749935  1
  Ho  Ho18  1  0.800920  0.497875  0.250029  1
  Ho  Ho19  1  0.300764  0.001851  0.249978  1
  Sn  Sn20  1  0.292642  0.034971  0.044556  1
  Sn  Sn21  1  0.793049  0.465417  0.455552  1
  Sn  Sn22  1  0.708240  0.965653  0.543889  1
  Sn  Sn23  1  0.208117  0.535889  0.958473  1
  Sn  Sn24  1  0.706375  0.966396  0.956162  1
  Sn  Sn25  1  0.206194  0.535062  0.541539  1
  Sn  Sn26  1  0.292507  0.035405  0.454917  1
  Sn  Sn27  1  0.792844  0.464921  0.044981  1
  Sn  Sn28  1  0.568228  0.617849  0.749916  1
  Sn  Sn29  1  0.063416  0.885566  0.750002  1
  Sn  Sn30  1  0.435999  0.381762  0.250063  1
  Sn  Sn31  1  0.935372  0.117918  0.249988  1
  Sn  Sn32  1  0.325355  0.141614  0.750211  1
  Sn  Sn33  1  0.821874  0.352675  0.749758  1
  Sn  Sn34  1  0.675977  0.854853  0.250023  1
  Sn  Sn35  1  0.175233  0.646027  0.250005  1
