# generated using pymatgen
data_Tb3DyCrFe19P12
_symmetry_space_group_name_H-M   'P 1'
_cell_length_a   3.66148200
_cell_length_b   10.32158713
_cell_length_c   11.84985417
_cell_angle_alpha   89.95359188
_cell_angle_beta   90.00000000
_cell_angle_gamma   90.00000000
_symmetry_Int_Tables_number   1
_chemical_formula_structural   Tb3DyCrFe19P12
_chemical_formula_sum   'Tb3 Dy1 Cr1 Fe19 P12'
_cell_volume   447.83316164
_cell_formula_units_Z   1
loop_
 _symmetry_equiv_pos_site_id
 _symmetry_equiv_pos_as_xyz
  1  'x, y, z'
loop_
 _atom_site_type_symbol
 _atom_site_label
 _atom_site_symmetry_multiplicity
 _atom_site_fract_x
 _atom_site_fract_y
 _atom_site_fract_z
 _atom_site_occupancy
  Tb  Tb0  1  0.250000  0.581078  0.704381  1
  Tb  Tb1  1  0.250000  0.919034  0.204664  1
  Tb  Tb2  1  0.750000  0.419839  0.296069  1
  Dy  Dy3  1  0.750000  0.080905  0.794763  1
  Cr  Cr4  1  0.250000  0.703191  0.989651  1
  Fe  Fe5  1  0.250000  0.792026  0.488784  1
  Fe  Fe6  1  0.750000  0.292848  0.011636  1
  Fe  Fe7  1  0.750000  0.207920  0.511266  1
  Fe  Fe8  1  0.250000  0.404964  0.490521  1
  Fe  Fe9  1  0.250000  0.095425  0.990165  1
  Fe  Fe10  1  0.750000  0.594615  0.509895  1
  Fe  Fe11  1  0.750000  0.905203  0.009019  1
  Fe  Fe12  1  0.250000  0.219731  0.176182  1
  Fe  Fe13  1  0.250000  0.280843  0.676427  1
  Fe  Fe14  1  0.750000  0.782184  0.823161  1
  Fe  Fe15  1  0.750000  0.719271  0.325118  1
  Fe  Fe16  1  0.250000  0.876408  0.700526  1
  Fe  Fe17  1  0.250000  0.624642  0.201888  1
  Fe  Fe18  1  0.750000  0.124598  0.299092  1
  Fe  Fe19  1  0.750000  0.375267  0.799230  1
  Fe  Fe20  1  0.250000  0.462104  0.932677  1
  Fe  Fe21  1  0.250000  0.037065  0.432354  1
  Fe  Fe22  1  0.750000  0.534235  0.066312  1
  Fe  Fe23  1  0.750000  0.963619  0.567094  1
  P  P24  1  0.250000  0.422951  0.113051  1
  P  P25  1  0.250000  0.077616  0.611998  1
  P  P26  1  0.750000  0.578144  0.887125  1
  P  P27  1  0.750000  0.922172  0.387930  1
  P  P28  1  0.250000  0.265231  0.871313  1
  P  P29  1  0.250000  0.233379  0.371561  1
  P  P30  1  0.750000  0.732034  0.131190  1
  P  P31  1  0.750000  0.766840  0.627752  1
  P  P32  1  0.250000  0.601866  0.396182  1
  P  P33  1  0.250000  0.902276  0.894335  1
  P  P34  1  0.750000  0.398663  0.603101  1
  P  P35  1  0.750000  0.101808  0.103581  1
