# generated using pymatgen
data_CsCrSnS4
_symmetry_space_group_name_H-M   'P 1'
_cell_length_a   3.72141700
_cell_length_b   8.57901771
_cell_length_c   6.27361510
_cell_angle_alpha   75.29172875
_cell_angle_beta   90.00000000
_cell_angle_gamma   90.00000000
_symmetry_Int_Tables_number   1
_chemical_formula_structural   CsCrSnS4
_chemical_formula_sum   'Cs1 Cr1 Sn1 S4'
_cell_volume   193.72872858
_cell_formula_units_Z   1
loop_
 _symmetry_equiv_pos_site_id
 _symmetry_equiv_pos_as_xyz
  1  'x, y, z'
loop_
 _atom_site_type_symbol
 _atom_site_label
 _atom_site_symmetry_multiplicity
 _atom_site_fract_x
 _atom_site_fract_y
 _atom_site_fract_z
 _atom_site_occupancy
  Cs  Cs0  1  0.500000  0.494964  0.649964  1
  Cr  Cr1  1  0.500000  0.001370  0.503270  1
  Sn  Sn2  1  0.000000  0.999545  0.002669  1
  S  S3  1  0.000000  0.842791  0.408374  1
  S  S4  1  0.500000  0.831093  0.877891  1
  S  S5  1  0.000000  0.159685  0.597099  1
  S  S6  1  0.500000  0.169672  0.127694  1
