# generated using pymatgen
data_Sm3Ho2Mn2O12
_symmetry_space_group_name_H-M   'P 1'
_cell_length_a   6.90034424
_cell_length_b   6.90034305
_cell_length_c   7.34339455
_cell_angle_alpha   74.11221056
_cell_angle_beta   74.11221135
_cell_angle_gamma   49.70529495
_symmetry_Int_Tables_number   1
_chemical_formula_structural   Sm3Ho2Mn2O12
_chemical_formula_sum   'Sm3 Ho2 Mn2 O12'
_cell_volume   254.26433508
_cell_formula_units_Z   1
loop_
 _symmetry_equiv_pos_site_id
 _symmetry_equiv_pos_as_xyz
  1  'x, y, z'
loop_
 _atom_site_type_symbol
 _atom_site_label
 _atom_site_symmetry_multiplicity
 _atom_site_fract_x
 _atom_site_fract_y
 _atom_site_fract_z
 _atom_site_occupancy
  Sm  Sm0  1  0.693162  0.693162  0.166331  1
  Sm  Sm1  1  0.306838  0.306838  0.833669  1
  Sm  Sm2  1  0.000000  0.000000  0.500000  1
  Ho  Ho3  1  0.305563  0.305563  0.357323  1
  Ho  Ho4  1  0.694437  0.694437  0.642677  1
  Mn  Mn5  1  0.753001  0.246999  0.000000  1
  Mn  Mn6  1  0.246999  0.753001  0.000000  1
  O  O7  1  0.093450  0.595348  0.570908  1
  O  O8  1  0.001489  0.001489  0.173997  1
  O  O9  1  0.404652  0.906550  0.429092  1
  O  O10  1  0.498419  0.498419  0.179689  1
  O  O11  1  0.103411  0.577520  0.084117  1
  O  O12  1  0.906550  0.404652  0.429092  1
  O  O13  1  0.998511  0.998511  0.826003  1
  O  O14  1  0.595348  0.093449  0.570908  1
  O  O15  1  0.501581  0.501581  0.820311  1
  O  O16  1  0.577520  0.103411  0.084117  1
  O  O17  1  0.422480  0.896589  0.915883  1
  O  O18  1  0.896589  0.422480  0.915883  1
