# generated using pymatgen
data_TbEr3Al18Ir5Pd
_symmetry_space_group_name_H-M   'P 1'
_cell_length_a   7.56121612
_cell_length_b   7.56327692
_cell_length_c   9.45214927
_cell_angle_alpha   89.97280543
_cell_angle_beta   89.96173228
_cell_angle_gamma   119.55543431
_symmetry_Int_Tables_number   1
_chemical_formula_structural   TbEr3Al18Ir5Pd
_chemical_formula_sum   'Tb1 Er3 Al18 Ir5 Pd1'
_cell_volume   470.20876489
_cell_formula_units_Z   1
loop_
 _symmetry_equiv_pos_site_id
 _symmetry_equiv_pos_as_xyz
  1  'x, y, z'
loop_
 _atom_site_type_symbol
 _atom_site_label
 _atom_site_symmetry_multiplicity
 _atom_site_fract_x
 _atom_site_fract_y
 _atom_site_fract_z
 _atom_site_occupancy
  Tb  Tb0  1  0.995631  0.670937  0.248906  1
  Er  Er1  1  0.004224  0.328775  0.751316  1
  Er  Er2  1  0.671028  0.995807  0.248722  1
  Er  Er3  1  0.328885  0.004473  0.751312  1
  Al  Al4  1  0.129426  0.130031  0.247814  1
  Al  Al5  1  0.870652  0.870941  0.752020  1
  Al  Al6  1  0.000196  0.333997  0.074005  1
  Al  Al7  1  0.999881  0.665359  0.924382  1
  Al  Al8  1  0.998635  0.660905  0.577977  1
  Al  Al9  1  0.339769  0.001999  0.423532  1
  Al  Al10  1  0.001393  0.338179  0.423736  1
  Al  Al11  1  0.661053  0.998714  0.577111  1
  Al  Al12  1  0.665384  0.999919  0.925198  1
  Al  Al13  1  0.335300  0.000838  0.074126  1
  Al  Al14  1  0.336403  0.336418  0.555610  1
  Al  Al15  1  0.662863  0.663505  0.445457  1
  Al  Al16  1  0.666470  0.667052  0.051289  1
  Al  Al17  1  0.333038  0.333073  0.947753  1
  Al  Al18  1  0.339848  0.549100  0.249551  1
  Al  Al19  1  0.660699  0.450672  0.750465  1
  Al  Al20  1  0.548273  0.338390  0.249564  1
  Al  Al21  1  0.450887  0.660938  0.750434  1
  Ir  Ir22  1  0.671915  0.327785  0.999792  1
  Ir  Ir23  1  0.328071  0.672072  0.999806  1
  Ir  Ir24  1  0.327881  0.672187  0.500193  1
  Ir  Ir25  1  0.672099  0.327678  0.500207  1
  Ir  Ir26  1  0.000124  0.000272  0.999735  1
  Pd  Pd27  1  0.999972  0.999984  0.499988  1
