# generated using pymatgen
data_Li3La8Tb9Si16
_symmetry_space_group_name_H-M   'P 1'
_cell_length_a   7.86314031
_cell_length_b   7.86314031
_cell_length_c   14.22622228
_cell_angle_alpha   89.76321791
_cell_angle_beta   90.23678209
_cell_angle_gamma   89.95126118
_symmetry_Int_Tables_number   1
_chemical_formula_structural   Li3La8Tb9Si16
_chemical_formula_sum   'Li3 La8 Tb9 Si16'
_cell_volume   879.57739590
_cell_formula_units_Z   1
loop_
 _symmetry_equiv_pos_site_id
 _symmetry_equiv_pos_as_xyz
  1  'x, y, z'
loop_
 _atom_site_type_symbol
 _atom_site_label
 _atom_site_symmetry_multiplicity
 _atom_site_fract_x
 _atom_site_fract_y
 _atom_site_fract_z
 _atom_site_occupancy
  Li  Li0  1  0.686377  0.686377  0.500000  1
  Li  Li1  1  0.814411  0.186800  0.748138  1
  Li  Li2  1  0.186800  0.814411  0.251862  1
  La  La3  1  0.992499  0.639714  0.044283  1
  La  La4  1  0.002469  0.366535  0.542858  1
  La  La5  1  0.639714  0.992499  0.955717  1
  La  La6  1  0.131518  0.502744  0.788073  1
  La  La7  1  0.867979  0.500143  0.295786  1
  La  La8  1  0.502744  0.131518  0.211927  1
  La  La9  1  0.500143  0.867979  0.704214  1
  La  La10  1  0.366535  0.002469  0.457142  1
  Tb  Tb11  1  0.367383  0.504147  0.376103  1
  Tb  Tb12  1  0.869938  0.997719  0.376255  1
  Tb  Tb13  1  0.995756  0.127301  0.129919  1
  Tb  Tb14  1  0.997719  0.869938  0.623745  1
  Tb  Tb15  1  0.635698  0.498864  0.872267  1
  Tb  Tb16  1  0.504147  0.367383  0.623897  1
  Tb  Tb17  1  0.498864  0.635698  0.127733  1
  Tb  Tb18  1  0.127301  0.995756  0.870081  1
  Tb  Tb19  1  0.313441  0.313441  0.000000  1
  Si  Si20  1  0.081445  0.714095  0.440963  1
  Si  Si21  1  0.929623  0.289562  0.941426  1
  Si  Si22  1  0.714095  0.081445  0.559037  1
  Si  Si23  1  0.211577  0.421021  0.190943  1
  Si  Si24  1  0.784362  0.581534  0.687461  1
  Si  Si25  1  0.421021  0.211577  0.809057  1
  Si  Si26  1  0.581534  0.784362  0.312539  1
  Si  Si27  1  0.289562  0.929623  0.058574  1
  Si  Si28  1  0.847326  0.783720  0.810992  1
  Si  Si29  1  0.150140  0.216035  0.316549  1
  Si  Si30  1  0.783720  0.847326  0.189008  1
  Si  Si31  1  0.287116  0.651993  0.563878  1
  Si  Si32  1  0.705086  0.343930  0.060980  1
  Si  Si33  1  0.651993  0.287116  0.436122  1
  Si  Si34  1  0.343930  0.705086  0.939020  1
  Si  Si35  1  0.216035  0.150140  0.683451  1
