# generated using pymatgen
data_K8Tb3YF20
_symmetry_space_group_name_H-M   'P 1'
_cell_length_a   6.70427037
_cell_length_b   7.33662700
_cell_length_c   10.99755961
_cell_angle_alpha   90.00000000
_cell_angle_beta   90.03825505
_cell_angle_gamma   90.00000000
_symmetry_Int_Tables_number   1
_chemical_formula_structural   K8Tb3YF20
_chemical_formula_sum   'K8 Tb3 Y1 F20'
_cell_volume   540.93388618
_cell_formula_units_Z   1
loop_
 _symmetry_equiv_pos_site_id
 _symmetry_equiv_pos_as_xyz
  1  'x, y, z'
loop_
 _atom_site_type_symbol
 _atom_site_label
 _atom_site_symmetry_multiplicity
 _atom_site_fract_x
 _atom_site_fract_y
 _atom_site_fract_z
 _atom_site_occupancy
  K  K0  1  0.967784  0.502810  0.671147  1
  K  K1  1  0.032276  0.002832  0.328858  1
  K  K2  1  0.532247  0.502823  0.171188  1
  K  K3  1  0.467738  0.002846  0.828825  1
  K  K4  1  0.967784  0.997190  0.671147  1
  K  K5  1  0.032276  0.497168  0.328858  1
  K  K6  1  0.532247  0.997177  0.171188  1
  K  K7  1  0.467738  0.497154  0.828825  1
  Tb  Tb8  1  0.935462  0.250000  0.997285  1
  Tb  Tb9  1  0.064528  0.750000  0.002719  1
  Tb  Tb10  1  0.564613  0.250000  0.497282  1
  Y  Y11  1  0.435777  0.750000  0.502535  1
  F  F12  1  0.852397  0.534977  0.924462  1
  F  F13  1  0.147600  0.034970  0.075536  1
  F  F14  1  0.647151  0.535597  0.424660  1
  F  F15  1  0.352494  0.034337  0.575431  1
  F  F16  1  0.852397  0.965023  0.924462  1
  F  F17  1  0.147600  0.465030  0.075536  1
  F  F18  1  0.647151  0.964403  0.424660  1
  F  F19  1  0.352494  0.465663  0.575431  1
  F  F20  1  0.626968  0.750000  0.666600  1
  F  F21  1  0.371916  0.250000  0.332487  1
  F  F22  1  0.871917  0.750000  0.167416  1
  F  F23  1  0.128097  0.250000  0.832579  1
  F  F24  1  0.106548  0.750000  0.513355  1
  F  F25  1  0.894586  0.250000  0.486606  1
  F  F26  1  0.394621  0.750000  0.013379  1
  F  F27  1  0.605379  0.250000  0.986628  1
  F  F28  1  0.160554  0.750000  0.808083  1
  F  F29  1  0.839422  0.250000  0.191942  1
  F  F30  1  0.339663  0.750000  0.308844  1
  F  F31  1  0.660573  0.250000  0.692045  1
