# generated using pymatgen
data_La2Pr14Cd4Ir3Pd
_symmetry_space_group_name_H-M   'P 1'
_cell_length_a   10.07266695
_cell_length_b   10.07266562
_cell_length_c   10.07780619
_cell_angle_alpha   60.20054811
_cell_angle_beta   60.20055832
_cell_angle_gamma   60.14001785
_symmetry_Int_Tables_number   1
_chemical_formula_structural   La2Pr14Cd4Ir3Pd
_chemical_formula_sum   'La2 Pr14 Cd4 Ir3 Pd1'
_cell_volume   725.95549685
_cell_formula_units_Z   1
loop_
 _symmetry_equiv_pos_site_id
 _symmetry_equiv_pos_as_xyz
  1  'x, y, z'
loop_
 _atom_site_type_symbol
 _atom_site_label
 _atom_site_symmetry_multiplicity
 _atom_site_fract_x
 _atom_site_fract_y
 _atom_site_fract_z
 _atom_site_occupancy
  La  La0  1  0.345890  0.345890  0.346737  1
  La  La1  1  0.351423  0.351423  0.953296  1
  Pr  Pr2  1  0.351887  0.950003  0.352444  1
  Pr  Pr3  1  0.950003  0.351887  0.352444  1
  Pr  Pr4  1  0.805002  0.190708  0.190551  1
  Pr  Pr5  1  0.188947  0.810261  0.809429  1
  Pr  Pr6  1  0.190708  0.805002  0.190551  1
  Pr  Pr7  1  0.810261  0.188947  0.809429  1
  Pr  Pr8  1  0.190482  0.190482  0.804909  1
  Pr  Pr9  1  0.809768  0.809768  0.189075  1
  Pr  Pr10  1  0.939366  0.562410  0.562558  1
  Pr  Pr11  1  0.563556  0.937801  0.938007  1
  Pr  Pr12  1  0.562410  0.939366  0.562558  1
  Pr  Pr13  1  0.937801  0.563556  0.938007  1
  Pr  Pr14  1  0.562915  0.562915  0.939044  1
  Pr  Pr15  1  0.938102  0.938102  0.563400  1
  Cd  Cd16  1  0.580335  0.580335  0.579485  1
  Cd  Cd17  1  0.580067  0.580067  0.260221  1
  Cd  Cd18  1  0.580270  0.260153  0.579672  1
  Cd  Cd19  1  0.260153  0.580270  0.579672  1
  Ir  Ir20  1  0.142393  0.142393  0.573057  1
  Ir  Ir21  1  0.143098  0.572414  0.141464  1
  Ir  Ir22  1  0.572414  0.143098  0.141464  1
  Pd  Pd23  1  0.142746  0.142746  0.142521  1
