# generated using pymatgen
data_Dy3YMn4Al4O20
_symmetry_space_group_name_H-M   'P 1'
_cell_length_a   5.66866100
_cell_length_b   7.27179100
_cell_length_c   8.44644300
_cell_angle_alpha   89.99644993
_cell_angle_beta   90.00000000
_cell_angle_gamma   90.00000000
_symmetry_Int_Tables_number   1
_chemical_formula_structural   Dy3YMn4Al4O20
_chemical_formula_sum   'Dy3 Y1 Mn4 Al4 O20'
_cell_volume   348.17351289
_cell_formula_units_Z   1
loop_
 _symmetry_equiv_pos_site_id
 _symmetry_equiv_pos_as_xyz
  1  'x, y, z'
loop_
 _atom_site_type_symbol
 _atom_site_label
 _atom_site_symmetry_multiplicity
 _atom_site_fract_x
 _atom_site_fract_y
 _atom_site_fract_z
 _atom_site_occupancy
  Dy  Dy0  1  0.000000  0.632883  0.331228  1
  Dy  Dy1  1  0.000000  0.867146  0.831235  1
  Dy  Dy2  1  0.000000  0.132857  0.168782  1
  Y  Y3  1  0.000000  0.367054  0.668751  1
  Mn  Mn4  1  0.253809  0.500007  0.000034  1
  Mn  Mn5  1  0.746182  0.999987  0.499990  1
  Mn  Mn6  1  0.746191  0.500007  0.000034  1
  Mn  Mn7  1  0.253818  0.999987  0.499990  1
  Al  Al8  1  0.500000  0.106902  0.857890  1
  Al  Al9  1  0.500000  0.893095  0.142123  1
  Al  Al10  1  0.500000  0.606951  0.642092  1
  Al  Al11  1  0.500000  0.393062  0.357885  1
  O  O12  1  0.250503  0.894791  0.289579  1
  O  O13  1  0.250814  0.104913  0.710473  1
  O  O14  1  0.749498  0.394791  0.210413  1
  O  O15  1  0.749259  0.605436  0.789693  1
  O  O16  1  0.749186  0.104913  0.710473  1
  O  O17  1  0.749497  0.894791  0.289579  1
  O  O18  1  0.250741  0.605436  0.789693  1
  O  O19  1  0.250502  0.394791  0.210413  1
  O  O20  1  0.500000  0.342147  0.928485  1
  O  O21  1  0.500000  0.657868  0.071520  1
  O  O22  1  0.500000  0.842121  0.571543  1
  O  O23  1  0.500000  0.157875  0.428478  1
  O  O24  1  0.279998  0.999997  0.999993  1
  O  O25  1  0.719599  0.500222  0.499762  1
  O  O26  1  0.720002  0.999997  0.999993  1
  O  O27  1  0.280401  0.500222  0.499762  1
  O  O28  1  0.000000  0.162962  0.443285  1
  O  O29  1  0.000000  0.836822  0.556480  1
  O  O30  1  0.000000  0.663191  0.056476  1
  O  O31  1  0.000000  0.336778  0.943874  1
