# generated using pymatgen
data_GdScB6Ru
_symmetry_space_group_name_H-M   'P 1'
_cell_length_a   3.58028700
_cell_length_b   8.99667200
_cell_length_c   11.39044600
_cell_angle_alpha   90.00000000
_cell_angle_beta   90.00000000
_cell_angle_gamma   90.00000000
_symmetry_Int_Tables_number   1
_chemical_formula_structural   GdScB6Ru
_chemical_formula_sum   'Gd4 Sc4 B24 Ru4'
_cell_volume   366.89387226
_cell_formula_units_Z   4
loop_
 _symmetry_equiv_pos_site_id
 _symmetry_equiv_pos_as_xyz
  1  'x, y, z'
loop_
 _atom_site_type_symbol
 _atom_site_label
 _atom_site_symmetry_multiplicity
 _atom_site_fract_x
 _atom_site_fract_y
 _atom_site_fract_z
 _atom_site_occupancy
  Gd  Gd0  1  0.000000  0.820626  0.085399  1
  Gd  Gd1  1  0.000000  0.179374  0.914601  1
  Gd  Gd2  1  0.000000  0.320626  0.414601  1
  Gd  Gd3  1  0.000000  0.679374  0.585399  1
  Sc  Sc4  1  0.000000  0.445354  0.126307  1
  Sc  Sc5  1  0.000000  0.554646  0.873693  1
  Sc  Sc6  1  0.000000  0.945354  0.373693  1
  Sc  Sc7  1  0.000000  0.054646  0.626307  1
  B  B8  1  0.500000  0.055767  0.068050  1
  B  B9  1  0.500000  0.944233  0.931950  1
  B  B10  1  0.500000  0.555767  0.431950  1
  B  B11  1  0.500000  0.444233  0.568050  1
  B  B12  1  0.500000  0.253545  0.082068  1
  B  B13  1  0.500000  0.746455  0.917932  1
  B  B14  1  0.500000  0.753545  0.417932  1
  B  B15  1  0.500000  0.246455  0.582068  1
  B  B16  1  0.500000  0.293743  0.234964  1
  B  B17  1  0.500000  0.706257  0.765036  1
  B  B18  1  0.500000  0.793743  0.265036  1
  B  B19  1  0.500000  0.206257  0.734964  1
  B  B20  1  0.500000  0.129104  0.317612  1
  B  B21  1  0.500000  0.870896  0.682388  1
  B  B22  1  0.500000  0.629104  0.182388  1
  B  B23  1  0.500000  0.370896  0.817612  1
  B  B24  1  0.500000  0.482841  0.285298  1
  B  B25  1  0.500000  0.517159  0.714702  1
  B  B26  1  0.500000  0.982841  0.214702  1
  B  B27  1  0.500000  0.017159  0.785298  1
  B  B28  1  0.500000  0.099351  0.473423  1
  B  B29  1  0.500000  0.900649  0.526577  1
  B  B30  1  0.500000  0.599351  0.026577  1
  B  B31  1  0.500000  0.400649  0.973423  1
  Ru  Ru32  1  0.000000  0.140833  0.182089  1
  Ru  Ru33  1  0.000000  0.859167  0.817911  1
  Ru  Ru34  1  0.000000  0.640833  0.317911  1
  Ru  Ru35  1  0.000000  0.359167  0.682089  1
