# generated using pymatgen
data_YHo3Mn2(Co2B)6
_symmetry_space_group_name_H-M   'P 1'
_cell_length_a   5.07825900
_cell_length_b   5.07651874
_cell_length_c   12.67030200
_cell_angle_alpha   89.99989161
_cell_angle_beta   90.00022798
_cell_angle_gamma   120.01133403
_symmetry_Int_Tables_number   1
_chemical_formula_structural   YHo3Mn2(Co2B)6
_chemical_formula_sum   'Y1 Ho3 Mn2 Co12 B6'
_cell_volume   282.84520937
_cell_formula_units_Z   1
loop_
 _symmetry_equiv_pos_site_id
 _symmetry_equiv_pos_as_xyz
  1  'x, y, z'
loop_
 _atom_site_type_symbol
 _atom_site_label
 _atom_site_symmetry_multiplicity
 _atom_site_fract_x
 _atom_site_fract_y
 _atom_site_fract_z
 _atom_site_occupancy
  Y  Y0  1  0.999987  0.000000  0.999945  1
  Ho  Ho1  1  0.999994  0.000000  0.499966  1
  Ho  Ho2  1  0.999987  0.000000  0.260715  1
  Ho  Ho3  1  0.000001  0.000000  0.739285  1
  Mn  Mn4  1  0.333300  0.666621  0.000007  1
  Mn  Mn5  1  0.666678  0.333379  0.000007  1
  Co  Co6  1  0.499985  0.000000  0.158423  1
  Co  Co7  1  0.499985  0.500001  0.158407  1
  Co  Co8  1  0.999984  0.499999  0.158407  1
  Co  Co9  1  0.500000  0.000000  0.841645  1
  Co  Co10  1  0.499998  0.500001  0.841610  1
  Co  Co11  1  0.999998  0.499999  0.841610  1
  Co  Co12  1  0.499988  0.000000  0.385755  1
  Co  Co13  1  0.499989  0.500000  0.385784  1
  Co  Co14  1  0.999989  0.500000  0.385784  1
  Co  Co15  1  0.499996  0.000000  0.614211  1
  Co  Co16  1  0.499996  0.499999  0.614198  1
  Co  Co17  1  0.999996  0.500001  0.614198  1
  B  B18  1  0.333378  0.666770  0.499979  1
  B  B19  1  0.666608  0.333230  0.499979  1
  B  B20  1  0.333356  0.666743  0.269200  1
  B  B21  1  0.666613  0.333257  0.269200  1
  B  B22  1  0.666675  0.333356  0.730841  1
  B  B23  1  0.333319  0.666644  0.730841  1
