# generated using pymatgen
data_Dy3Sc(Ga2Ag)4
_symmetry_space_group_name_H-M   'P 1'
_cell_length_a   4.34688500
_cell_length_b   6.93692449
_cell_length_c   10.21568521
_cell_angle_alpha   90.49613611
_cell_angle_beta   90.00000000
_cell_angle_gamma   90.00000000
_symmetry_Int_Tables_number   1
_chemical_formula_structural   Dy3Sc(Ga2Ag)4
_chemical_formula_sum   'Dy3 Sc1 Ga8 Ag4'
_cell_volume   308.03235582
_cell_formula_units_Z   1
loop_
 _symmetry_equiv_pos_site_id
 _symmetry_equiv_pos_as_xyz
  1  'x, y, z'
loop_
 _atom_site_type_symbol
 _atom_site_label
 _atom_site_symmetry_multiplicity
 _atom_site_fract_x
 _atom_site_fract_y
 _atom_site_fract_z
 _atom_site_occupancy
  Dy  Dy0  1  0.750000  0.220945  0.175620  1
  Dy  Dy1  1  0.750000  0.721941  0.323679  1
  Dy  Dy2  1  0.250000  0.279797  0.677565  1
  Sc  Sc3  1  0.250000  0.780206  0.824821  1
  Ga  Ga4  1  0.250000  0.707517  0.541232  1
  Ga  Ga5  1  0.750000  0.301870  0.466129  1
  Ga  Ga6  1  0.750000  0.795906  0.031106  1
  Ga  Ga7  1  0.250000  0.194413  0.963688  1
  Ga  Ga8  1  0.250000  0.927010  0.152038  1
  Ga  Ga9  1  0.750000  0.062165  0.843545  1
  Ga  Ga10  1  0.750000  0.577570  0.659061  1
  Ga  Ga11  1  0.250000  0.431124  0.347668  1
  Ag  Ag12  1  0.250000  0.543991  0.093290  1
  Ag  Ag13  1  0.750000  0.453388  0.902770  1
  Ag  Ag14  1  0.750000  0.956600  0.595104  1
  Ag  Ag15  1  0.250000  0.045557  0.402686  1
