# generated using pymatgen
data_Sc4Tc2B8Ru7W
_symmetry_space_group_name_H-M   'P 1'
_cell_length_a   3.03774100
_cell_length_b   8.57946591
_cell_length_c   10.02431398
_cell_angle_alpha   90.06822421
_cell_angle_beta   90.00000000
_cell_angle_gamma   90.00000000
_symmetry_Int_Tables_number   1
_chemical_formula_structural   Sc4Tc2B8Ru7W
_chemical_formula_sum   'Sc4 Tc2 B8 Ru7 W1'
_cell_volume   261.25544408
_cell_formula_units_Z   1
loop_
 _symmetry_equiv_pos_site_id
 _symmetry_equiv_pos_as_xyz
  1  'x, y, z'
loop_
 _atom_site_type_symbol
 _atom_site_label
 _atom_site_symmetry_multiplicity
 _atom_site_fract_x
 _atom_site_fract_y
 _atom_site_fract_z
 _atom_site_occupancy
  Sc  Sc0  1  0.500000  0.839369  0.179731  1
  Sc  Sc1  1  0.500000  0.158000  0.820107  1
  Sc  Sc2  1  0.500000  0.656766  0.682195  1
  Sc  Sc3  1  0.500000  0.340725  0.316036  1
  Tc  Tc4  1  0.000000  0.659610  0.952274  1
  Tc  Tc5  1  0.000000  0.339376  0.046666  1
  B  B6  1  0.500000  0.967358  0.590222  1
  B  B7  1  0.500000  0.038698  0.412533  1
  B  B8  1  0.500000  0.850088  0.901775  1
  B  B9  1  0.500000  0.152440  0.098941  1
  B  B10  1  0.500000  0.648715  0.398911  1
  B  B11  1  0.500000  0.351816  0.600414  1
  B  B12  1  0.500000  0.465068  0.912308  1
  B  B13  1  0.500000  0.535133  0.086212  1
  Ru  Ru14  1  0.000000  0.163561  0.549345  1
  Ru  Ru15  1  0.000000  0.000063  0.000534  1
  Ru  Ru16  1  0.000000  0.403126  0.760360  1
  Ru  Ru17  1  0.000000  0.593549  0.238100  1
  Ru  Ru18  1  0.000000  0.497693  0.499429  1
  Ru  Ru19  1  0.000000  0.904352  0.738957  1
  Ru  Ru20  1  0.000000  0.093661  0.261457  1
  W  W21  1  0.000000  0.840832  0.453494  1
