# generated using pymatgen
data_Pr2B4Ru3Rh
_symmetry_space_group_name_H-M   'P 1'
_cell_length_a   6.87066395
_cell_length_b   6.03024793
_cell_length_c   5.60958427
_cell_angle_alpha   72.25008574
_cell_angle_beta   56.70963155
_cell_angle_gamma   51.32811871
_symmetry_Int_Tables_number   1
_chemical_formula_structural   Pr2B4Ru3Rh
_chemical_formula_sum   'Pr2 B4 Ru3 Rh1'
_cell_volume   151.41947543
_cell_formula_units_Z   1
loop_
 _symmetry_equiv_pos_site_id
 _symmetry_equiv_pos_as_xyz
  1  'x, y, z'
loop_
 _atom_site_type_symbol
 _atom_site_label
 _atom_site_symmetry_multiplicity
 _atom_site_fract_x
 _atom_site_fract_y
 _atom_site_fract_z
 _atom_site_occupancy
  Pr  Pr0  1  0.999884  0.999884  0.000116  1
  Pr  Pr1  1  0.248692  0.248692  0.251308  1
  B  B2  1  0.677598  0.320130  0.676315  1
  B  B3  1  0.320130  0.677598  0.325957  1
  B  B4  1  0.933738  0.571400  0.933551  1
  B  B5  1  0.571400  0.933738  0.561311  1
  Ru  Ru6  1  0.635745  0.635745  0.364254  1
  Ru  Ru7  1  0.364026  0.364027  0.635973  1
  Ru  Ru8  1  0.884344  0.884343  0.615656  1
  Rh  Rh9  1  0.614444  0.614444  0.885556  1
