# generated using pymatgen
data_Sc22Ga2Tc5Ir
_symmetry_space_group_name_H-M   'P 1'
_cell_length_a   9.64549516
_cell_length_b   9.50414360
_cell_length_c   9.64549610
_cell_angle_alpha   60.48359958
_cell_angle_beta   59.03280380
_cell_angle_gamma   60.48360188
_symmetry_Int_Tables_number   1
_chemical_formula_structural   Sc22Ga2Tc5Ir
_chemical_formula_sum   'Sc22 Ga2 Tc5 Ir1'
_cell_volume   624.97581996
_cell_formula_units_Z   1
loop_
 _symmetry_equiv_pos_site_id
 _symmetry_equiv_pos_as_xyz
  1  'x, y, z'
loop_
 _atom_site_type_symbol
 _atom_site_label
 _atom_site_symmetry_multiplicity
 _atom_site_fract_x
 _atom_site_fract_y
 _atom_site_fract_z
 _atom_site_occupancy
  Sc  Sc0  1  0.804775  0.804775  0.195225  1
  Sc  Sc1  1  0.197337  0.802663  0.197337  1
  Sc  Sc2  1  0.804775  0.195225  0.195225  1
  Sc  Sc3  1  0.195225  0.195225  0.804775  1
  Sc  Sc4  1  0.802663  0.197337  0.802663  1
  Sc  Sc5  1  0.195225  0.804775  0.804775  1
  Sc  Sc6  1  0.608689  0.620964  0.149383  1
  Sc  Sc7  1  0.620964  0.149383  0.620964  1
  Sc  Sc8  1  0.149383  0.620964  0.608689  1
  Sc  Sc9  1  0.620964  0.608689  0.620964  1
  Sc  Sc10  1  0.391311  0.379036  0.850617  1
  Sc  Sc11  1  0.379036  0.850617  0.379036  1
  Sc  Sc12  1  0.850617  0.379036  0.391311  1
  Sc  Sc13  1  0.379036  0.391311  0.379036  1
  Sc  Sc14  1  0.853840  0.838221  0.469717  1
  Sc  Sc15  1  0.838221  0.469717  0.838221  1
  Sc  Sc16  1  0.469717  0.838221  0.853840  1
  Sc  Sc17  1  0.838221  0.853840  0.838221  1
  Sc  Sc18  1  0.146160  0.161779  0.530283  1
  Sc  Sc19  1  0.161779  0.530283  0.161779  1
  Sc  Sc20  1  0.530283  0.161779  0.146160  1
  Sc  Sc21  1  0.161779  0.146160  0.161779  1
  Ga  Ga22  1  0.500000  0.000000  0.500000  1
  Ga  Ga23  1  0.000000  0.500000  0.000000  1
  Tc  Tc24  1  0.000000  0.000000  0.000000  1
  Tc  Tc25  1  0.000000  0.000000  0.500000  1
  Tc  Tc26  1  0.000000  0.500000  0.500000  1
  Tc  Tc27  1  0.500000  0.500000  0.000000  1
  Tc  Tc28  1  0.500000  0.000000  0.000000  1
  Ir  Ir29  1  0.500000  0.500000  0.500000  1
