# generated using pymatgen
data_Ta5V7Fe4(Si2C)4
_symmetry_space_group_name_H-M   'P 1'
_cell_length_a   7.79246578
_cell_length_b   7.83507407
_cell_length_c   7.83694871
_cell_angle_alpha   59.93219647
_cell_angle_beta   60.18668476
_cell_angle_gamma   60.17663833
_symmetry_Int_Tables_number   1
_chemical_formula_structural   Ta5V7Fe4(Si2C)4
_chemical_formula_sum   'Ta5 V7 Fe4 Si8 C4'
_cell_volume   339.08830495
_cell_formula_units_Z   1
loop_
 _symmetry_equiv_pos_site_id
 _symmetry_equiv_pos_as_xyz
  1  'x, y, z'
loop_
 _atom_site_type_symbol
 _atom_site_label
 _atom_site_symmetry_multiplicity
 _atom_site_fract_x
 _atom_site_fract_y
 _atom_site_fract_z
 _atom_site_occupancy
  Ta  Ta0  1  0.804614  0.804437  0.196311  1
  Ta  Ta1  1  0.194631  0.196295  0.804475  1
  Ta  Ta2  1  0.804583  0.196317  0.804471  1
  Ta  Ta3  1  0.194644  0.804451  0.196291  1
  Ta  Ta4  1  0.197332  0.802658  0.802701  1
  V  V5  1  0.812413  0.187607  0.187545  1
  V  V6  1  0.435817  0.432466  0.066341  1
  V  V7  1  0.065449  0.066338  0.432431  1
  V  V8  1  0.435762  0.066354  0.432425  1
  V  V9  1  0.065364  0.432479  0.066334  1
  V  V10  1  0.066039  0.433972  0.433966  1
  V  V11  1  0.426945  0.073008  0.073094  1
  Fe  Fe12  1  0.123026  0.624937  0.624928  1
  Fe  Fe13  1  0.623626  0.126145  0.626606  1
  Fe  Fe14  1  0.623642  0.626610  0.126109  1
  Fe  Fe15  1  0.627128  0.624934  0.624927  1
  Si  Si16  1  0.759956  0.410234  0.410304  1
  Si  Si17  1  0.412885  0.760606  0.413595  1
  Si  Si18  1  0.412871  0.413493  0.760733  1
  Si  Si19  1  0.419483  0.410252  0.410326  1
  Si  Si20  1  0.503004  0.832736  0.832677  1
  Si  Si21  1  0.829856  0.498969  0.841360  1
  Si  Si22  1  0.829830  0.841451  0.498939  1
  Si  Si23  1  0.831612  0.832724  0.832669  1
  C  C24  1  0.620063  0.129967  0.129926  1
  C  C25  1  0.129706  0.612407  0.128172  1
  C  C26  1  0.129703  0.128177  0.612408  1
  C  C27  1  0.120023  0.129972  0.129932  1
