# generated using pymatgen
data_Sm3TmTh6(Sn3C)2
_symmetry_space_group_name_H-M   'P 1'
_cell_length_a   9.28942200
_cell_length_b   9.28942212
_cell_length_c   6.52615800
_cell_angle_alpha   90.00000000
_cell_angle_beta   90.00000000
_cell_angle_gamma   120.00000669
_symmetry_Int_Tables_number   1
_chemical_formula_structural   Sm3TmTh6(Sn3C)2
_chemical_formula_sum   'Sm3 Tm1 Th6 Sn6 C2'
_cell_volume   487.71439818
_cell_formula_units_Z   1
loop_
 _symmetry_equiv_pos_site_id
 _symmetry_equiv_pos_as_xyz
  1  'x, y, z'
loop_
 _atom_site_type_symbol
 _atom_site_label
 _atom_site_symmetry_multiplicity
 _atom_site_fract_x
 _atom_site_fract_y
 _atom_site_fract_z
 _atom_site_occupancy
  Sm  Sm0  1  0.333333  0.666667  0.500000  1
  Sm  Sm1  1  0.333333  0.666667  0.000000  1
  Sm  Sm2  1  0.666667  0.333333  0.000000  1
  Tm  Tm3  1  0.666667  0.333333  0.500000  1
  Th  Th4  1  0.778206  0.778106  0.250303  1
  Th  Th5  1  0.221894  0.000100  0.250303  1
  Th  Th6  1  0.999900  0.221794  0.250303  1
  Th  Th7  1  0.221894  0.221794  0.749697  1
  Th  Th8  1  0.778206  0.000100  0.749697  1
  Th  Th9  1  0.999900  0.778106  0.749697  1
  Sn  Sn10  1  0.404751  0.402649  0.251536  1
  Sn  Sn11  1  0.597351  0.002102  0.251536  1
  Sn  Sn12  1  0.997898  0.595249  0.251536  1
  Sn  Sn13  1  0.597351  0.595249  0.748464  1
  Sn  Sn14  1  0.404751  0.002102  0.748464  1
  Sn  Sn15  1  0.997898  0.402649  0.748464  1
  C  C16  1  0.000000  0.000000  0.500000  1
  C  C17  1  0.000000  0.000000  0.000000  1
