# generated using pymatgen
data_Lu3Al3ZnSiRh
_symmetry_space_group_name_H-M   'P 1'
_cell_length_a   6.84624300
_cell_length_b   6.84624331
_cell_length_c   4.17237900
_cell_angle_alpha   90.00000000
_cell_angle_beta   90.00000000
_cell_angle_gamma   119.99999369
_symmetry_Int_Tables_number   1
_chemical_formula_structural   Lu3Al3ZnSiRh
_chemical_formula_sum   'Lu3 Al3 Zn1 Si1 Rh1'
_cell_volume   169.36319944
_cell_formula_units_Z   1
loop_
 _symmetry_equiv_pos_site_id
 _symmetry_equiv_pos_as_xyz
  1  'x, y, z'
loop_
 _atom_site_type_symbol
 _atom_site_label
 _atom_site_symmetry_multiplicity
 _atom_site_fract_x
 _atom_site_fract_y
 _atom_site_fract_z
 _atom_site_occupancy
  Lu  Lu0  1  0.416728  0.998605  0.000000  1
  Lu  Lu1  1  0.001395  0.418123  0.000000  1
  Lu  Lu2  1  0.581878  0.583272  0.000000  1
  Al  Al3  1  0.764072  0.000822  0.500001  1
  Al  Al4  1  0.236750  0.235927  0.500001  1
  Al  Al5  1  0.999178  0.763250  0.500001  1
  Zn  Zn6  1  0.666666  0.333333  0.500001  1
  Si  Si7  1  0.333334  0.666667  0.500001  1
  Rh  Rh8  1  0.000000  0.000000  0.000000  1
