# generated using pymatgen
data_K6ScInP4
_symmetry_space_group_name_H-M   'P 1'
_cell_length_a   9.05877099
_cell_length_b   9.05877129
_cell_length_c   9.05877173
_cell_angle_alpha   137.28326362
_cell_angle_beta   129.17975074
_cell_angle_gamma   68.50180965
_symmetry_Int_Tables_number   1
_chemical_formula_structural   K6ScInP4
_chemical_formula_sum   'K6 Sc1 In1 P4'
_cell_volume   384.10200934
_cell_formula_units_Z   1
loop_
 _symmetry_equiv_pos_site_id
 _symmetry_equiv_pos_as_xyz
  1  'x, y, z'
loop_
 _atom_site_type_symbol
 _atom_site_label
 _atom_site_symmetry_multiplicity
 _atom_site_fract_x
 _atom_site_fract_y
 _atom_site_fract_z
 _atom_site_occupancy
  K  K0  1  0.009281  0.806378  0.191377  1
  K  K1  1  0.500000  0.750000  0.250000  1
  K  K2  1  0.615001  0.317904  0.308623  1
  K  K3  1  0.384999  0.693622  0.702903  1
  K  K4  1  0.500000  0.250000  0.750000  1
  K  K5  1  0.990719  0.182096  0.797097  1
  Sc  Sc6  1  0.000000  0.250000  0.250000  1
  In  In7  1  0.000000  0.750000  0.750000  1
  P  P8  1  0.090160  0.397451  0.683061  1
  P  P9  1  0.909840  0.592900  0.307290  1
  P  P10  1  0.285610  0.102549  0.192710  1
  P  P11  1  0.714390  0.907100  0.816939  1
