# generated using pymatgen
data_TbYEr4(SiIr2)6
_symmetry_space_group_name_H-M   'P 1'
_cell_length_a   5.55895300
_cell_length_b   5.55895417
_cell_length_c   15.11831000
_cell_angle_alpha   90.00000000
_cell_angle_beta   90.00000000
_cell_angle_gamma   120.00001090
_symmetry_Int_Tables_number   1
_chemical_formula_structural   TbYEr4(SiIr2)6
_chemical_formula_sum   'Tb1 Y1 Er4 Si6 Ir12'
_cell_volume   404.59445453
_cell_formula_units_Z   1
loop_
 _symmetry_equiv_pos_site_id
 _symmetry_equiv_pos_as_xyz
  1  'x, y, z'
loop_
 _atom_site_type_symbol
 _atom_site_label
 _atom_site_symmetry_multiplicity
 _atom_site_fract_x
 _atom_site_fract_y
 _atom_site_fract_z
 _atom_site_occupancy
  Tb  Tb0  1  0.333333  0.666667  0.750000  1
  Y  Y1  1  0.666667  0.333333  0.250000  1
  Er  Er2  1  0.333333  0.666667  0.539033  1
  Er  Er3  1  0.666667  0.333333  0.460743  1
  Er  Er4  1  0.666667  0.333333  0.039257  1
  Er  Er5  1  0.333333  0.666667  0.960967  1
  Si  Si6  1  0.000000  0.000000  0.250000  1
  Si  Si7  1  0.000000  0.000000  0.750000  1
  Si  Si8  1  0.333333  0.666667  0.250000  1
  Si  Si9  1  0.666667  0.333333  0.750000  1
  Si  Si10  1  0.000000  0.000000  0.000094  1
  Si  Si11  1  0.000000  0.000000  0.499906  1
  Ir  Ir12  1  0.167647  0.335293  0.129580  1
  Ir  Ir13  1  0.832344  0.664688  0.870632  1
  Ir  Ir14  1  0.664707  0.832353  0.129580  1
  Ir  Ir15  1  0.832344  0.664688  0.629368  1
  Ir  Ir16  1  0.335312  0.167656  0.870632  1
  Ir  Ir17  1  0.167647  0.335293  0.370420  1
  Ir  Ir18  1  0.167647  0.832353  0.129580  1
  Ir  Ir19  1  0.335312  0.167656  0.629368  1
  Ir  Ir20  1  0.832344  0.167656  0.870632  1
  Ir  Ir21  1  0.664707  0.832353  0.370420  1
  Ir  Ir22  1  0.832344  0.167656  0.629368  1
  Ir  Ir23  1  0.167647  0.832353  0.370420  1
