# generated using pymatgen
data_YHo2Th(Ga3Ir)6
_symmetry_space_group_name_H-M   'P 1'
_cell_length_a   7.61946799
_cell_length_b   7.62204301
_cell_length_c   9.48994700
_cell_angle_alpha   90.00000000
_cell_angle_beta   90.00000000
_cell_angle_gamma   119.77789628
_symmetry_Int_Tables_number   1
_chemical_formula_structural   YHo2Th(Ga3Ir)6
_chemical_formula_sum   'Y1 Ho2 Th1 Ga18 Ir6'
_cell_volume   478.36356897
_cell_formula_units_Z   1
loop_
 _symmetry_equiv_pos_site_id
 _symmetry_equiv_pos_as_xyz
  1  'x, y, z'
loop_
 _atom_site_type_symbol
 _atom_site_label
 _atom_site_symmetry_multiplicity
 _atom_site_fract_x
 _atom_site_fract_y
 _atom_site_fract_z
 _atom_site_occupancy
  Y  Y0  1  0.669751  0.997030  0.250000  1
  Ho  Ho1  1  0.002531  0.331273  0.750000  1
  Ho  Ho2  1  0.330764  0.002212  0.750000  1
  Th  Th3  1  0.996919  0.668938  0.250000  1
  Ga  Ga4  1  0.129384  0.131423  0.250000  1
  Ga  Ga5  1  0.873839  0.875216  0.750000  1
  Ga  Ga6  1  0.999287  0.329266  0.077641  1
  Ga  Ga7  1  0.001025  0.665386  0.914116  1
  Ga  Ga8  1  0.001025  0.665386  0.585884  1
  Ga  Ga9  1  0.339928  0.004282  0.422263  1
  Ga  Ga10  1  0.999287  0.329266  0.422359  1
  Ga  Ga11  1  0.665653  0.001662  0.581705  1
  Ga  Ga12  1  0.665653  0.001662  0.918295  1
  Ga  Ga13  1  0.339928  0.004282  0.077737  1
  Ga  Ga14  1  0.331191  0.331056  0.566660  1
  Ga  Ga15  1  0.663199  0.668063  0.438749  1
  Ga  Ga16  1  0.663199  0.668063  0.061251  1
  Ga  Ga17  1  0.331191  0.331056  0.933340  1
  Ga  Ga18  1  0.341939  0.545905  0.250000  1
  Ga  Ga19  1  0.659467  0.451826  0.750000  1
  Ga  Ga20  1  0.542044  0.336713  0.250000  1
  Ga  Ga21  1  0.452448  0.660891  0.750000  1
  Ir  Ir22  1  0.673324  0.330898  0.000623  1
  Ir  Ir23  1  0.326372  0.670773  0.000689  1
  Ir  Ir24  1  0.326372  0.670773  0.499311  1
  Ir  Ir25  1  0.673324  0.330898  0.499377  1
  Ir  Ir26  1  0.000478  0.997900  0.000819  1
  Ir  Ir27  1  0.000478  0.997900  0.499181  1
