# generated using pymatgen
data_Nb3Fe6Si2Ru
_symmetry_space_group_name_H-M   'P 1'
_cell_length_a   4.80771000
_cell_length_b   4.80771174
_cell_length_c   7.77596600
_cell_angle_alpha   90.00000000
_cell_angle_beta   90.00000000
_cell_angle_gamma   119.99998805
_symmetry_Int_Tables_number   1
_chemical_formula_structural   Nb3Fe6Si2Ru
_chemical_formula_sum   'Nb3 Fe6 Si2 Ru1'
_cell_volume   155.65451422
_cell_formula_units_Z   1
loop_
 _symmetry_equiv_pos_site_id
 _symmetry_equiv_pos_as_xyz
  1  'x, y, z'
loop_
 _atom_site_type_symbol
 _atom_site_label
 _atom_site_symmetry_multiplicity
 _atom_site_fract_x
 _atom_site_fract_y
 _atom_site_fract_z
 _atom_site_occupancy
  Nb  Nb0  1  0.333333  0.666667  0.429593  1
  Nb  Nb1  1  0.666667  0.333333  0.583979  1
  Nb  Nb2  1  0.333333  0.666667  0.046889  1
  Fe  Fe3  1  0.170094  0.829906  0.748288  1
  Fe  Fe4  1  0.659812  0.829906  0.748288  1
  Fe  Fe5  1  0.829077  0.170923  0.249609  1
  Fe  Fe6  1  0.170094  0.340188  0.748288  1
  Fe  Fe7  1  0.829077  0.658153  0.249609  1
  Fe  Fe8  1  0.341847  0.170923  0.249609  1
  Si  Si9  1  0.000000  0.000000  0.498628  1
  Si  Si10  1  0.000000  0.000000  0.997476  1
  Ru  Ru11  1  0.666667  0.333333  0.949748  1
