# generated using pymatgen
data_Ce3NdThP12Ru19
_symmetry_space_group_name_H-M   'P 1'
_cell_length_a   12.63308310
_cell_length_b   12.63647430
_cell_length_c   3.99884200
_cell_angle_alpha   90.00000000
_cell_angle_beta   90.00000000
_cell_angle_gamma   120.00580344
_symmetry_Int_Tables_number   1
_chemical_formula_structural   Ce3NdThP12Ru19
_chemical_formula_sum   'Ce3 Nd1 Th1 P12 Ru19'
_cell_volume   552.80854531
_cell_formula_units_Z   1
loop_
 _symmetry_equiv_pos_site_id
 _symmetry_equiv_pos_as_xyz
  1  'x, y, z'
loop_
 _atom_site_type_symbol
 _atom_site_label
 _atom_site_symmetry_multiplicity
 _atom_site_fract_x
 _atom_site_fract_y
 _atom_site_fract_z
 _atom_site_occupancy
  Ce  Ce0  1  0.000471  0.185169  0.500000  1
  Ce  Ce1  1  0.815227  0.814813  0.500000  1
  Ce  Ce2  1  0.666766  0.333789  0.000000  1
  Nd  Nd3  1  0.187933  0.000026  0.500000  1
  Th  Th4  1  0.333094  0.666137  0.000000  1
  P  P5  1  0.000324  0.814494  0.000000  1
  P  P6  1  0.186336  0.185050  0.000000  1
  P  P7  1  0.813554  0.000534  0.000000  1
  P  P8  1  0.695379  0.171706  0.500000  1
  P  P9  1  0.828332  0.524031  0.500000  1
  P  P10  1  0.476538  0.304561  0.500000  1
  P  P11  1  0.170302  0.695692  0.500000  1
  P  P12  1  0.525529  0.829940  0.500000  1
  P  P13  1  0.304061  0.474081  0.500000  1
  P  P14  1  0.999252  0.373934  0.000000  1
  P  P15  1  0.625827  0.625593  0.000000  1
  P  P16  1  0.374788  0.000462  0.000000  1
  Ru  Ru17  1  0.998504  0.554023  0.000000  1
  Ru  Ru18  1  0.444495  0.445876  0.000000  1
  Ru  Ru19  1  0.555331  0.000128  0.000000  1
  Ru  Ru20  1  0.998712  0.715967  0.500000  1
  Ru  Ru21  1  0.283370  0.283322  0.500000  1
  Ru  Ru22  1  0.717017  0.000661  0.500000  1
  Ru  Ru23  1  0.807579  0.184414  0.000000  1
  Ru  Ru24  1  0.815398  0.623807  0.000000  1
  Ru  Ru25  1  0.380253  0.195753  0.000000  1
  Ru  Ru26  1  0.184054  0.805417  0.000000  1
  Ru  Ru27  1  0.624553  0.816013  0.000000  1
  Ru  Ru28  1  0.190531  0.374712  0.000000  1
  Ru  Ru29  1  0.873103  0.366900  0.500000  1
  Ru  Ru30  1  0.632567  0.506790  0.500000  1
  Ru  Ru31  1  0.494122  0.126306  0.500000  1
  Ru  Ru32  1  0.367991  0.874435  0.500000  1
  Ru  Ru33  1  0.506898  0.632863  0.500000  1
  Ru  Ru34  1  0.124907  0.492566  0.500000  1
  Ru  Ru35  1  0.996894  0.000034  0.000000  1
