# generated using pymatgen
data_NaNb8GeSe16
_symmetry_space_group_name_H-M   'P 1'
_cell_length_a   7.02203300
_cell_length_b   7.02203328
_cell_length_c   15.25490700
_cell_angle_alpha   90.00000000
_cell_angle_beta   90.00000000
_cell_angle_gamma   120.00000339
_symmetry_Int_Tables_number   1
_chemical_formula_structural   NaNb8GeSe16
_chemical_formula_sum   'Na1 Nb8 Ge1 Se16'
_cell_volume   651.42726368
_cell_formula_units_Z   1
loop_
 _symmetry_equiv_pos_site_id
 _symmetry_equiv_pos_as_xyz
  1  'x, y, z'
loop_
 _atom_site_type_symbol
 _atom_site_label
 _atom_site_symmetry_multiplicity
 _atom_site_fract_x
 _atom_site_fract_y
 _atom_site_fract_z
 _atom_site_occupancy
  Na  Na0  1  0.000000  0.000000  0.000000  1
  Nb  Nb1  1  0.988047  0.494024  0.267652  1
  Nb  Nb2  1  0.011953  0.505976  0.732348  1
  Nb  Nb3  1  0.494024  0.505976  0.732348  1
  Nb  Nb4  1  0.505976  0.011953  0.267652  1
  Nb  Nb5  1  0.000000  0.000000  0.733442  1
  Nb  Nb6  1  0.000000  0.000000  0.266558  1
  Nb  Nb7  1  0.505976  0.494024  0.267652  1
  Nb  Nb8  1  0.494024  0.988047  0.732348  1
  Ge  Ge9  1  0.000000  0.000000  0.500000  1
  Se  Se10  1  0.333333  0.666667  0.620070  1
  Se  Se11  1  0.666667  0.333333  0.155401  1
  Se  Se12  1  0.666667  0.333333  0.379930  1
  Se  Se13  1  0.333333  0.666667  0.844599  1
  Se  Se14  1  0.167988  0.335976  0.375687  1
  Se  Se15  1  0.832581  0.167419  0.841343  1
  Se  Se16  1  0.334839  0.167419  0.841343  1
  Se  Se17  1  0.664024  0.832012  0.375687  1
  Se  Se18  1  0.167988  0.832012  0.375687  1
  Se  Se19  1  0.832581  0.665161  0.841343  1
  Se  Se20  1  0.167419  0.334839  0.158657  1
  Se  Se21  1  0.832012  0.167988  0.624313  1
  Se  Se22  1  0.335976  0.167988  0.624313  1
  Se  Se23  1  0.665161  0.832581  0.158657  1
  Se  Se24  1  0.167419  0.832581  0.158657  1
  Se  Se25  1  0.832012  0.664024  0.624313  1
