# generated using pymatgen
data_EuCd9Ag2
_symmetry_space_group_name_H-M   'P 1'
_cell_length_a   9.34406653
_cell_length_b   9.34406518
_cell_length_c   9.34406560
_cell_angle_alpha   99.51482836
_cell_angle_beta   99.51481813
_cell_angle_gamma   132.02033609
_symmetry_Int_Tables_number   1
_chemical_formula_structural   EuCd9Ag2
_chemical_formula_sum   'Eu2 Cd18 Ag4'
_cell_volume   553.74112742
_cell_formula_units_Z   2
loop_
 _symmetry_equiv_pos_site_id
 _symmetry_equiv_pos_as_xyz
  1  'x, y, z'
loop_
 _atom_site_type_symbol
 _atom_site_label
 _atom_site_symmetry_multiplicity
 _atom_site_fract_x
 _atom_site_fract_y
 _atom_site_fract_z
 _atom_site_occupancy
  Eu  Eu0  1  0.500000  0.500000  0.000000  1
  Eu  Eu1  1  0.750000  0.250000  0.500000  1
  Cd  Cd2  1  0.993621  0.316370  0.918721  1
  Cd  Cd3  1  0.566370  0.147650  0.822750  1
  Cd  Cd4  1  0.993621  0.074898  0.677250  1
  Cd  Cd5  1  0.566370  0.743621  0.418721  1
  Cd  Cd6  1  0.925102  0.602350  0.918721  1
  Cd  Cd7  1  0.925102  0.006379  0.322750  1
  Cd  Cd8  1  0.852350  0.433630  0.177250  1
  Cd  Cd9  1  0.256379  0.675102  0.822750  1
  Cd  Cd10  1  0.250000  0.750000  0.500000  1
  Cd  Cd11  1  0.683630  0.006379  0.081279  1
  Cd  Cd12  1  0.000000  0.000000  0.000000  1
  Cd  Cd13  1  0.683630  0.602350  0.677250  1
  Cd  Cd14  1  0.397650  0.074898  0.081279  1
  Cd  Cd15  1  0.256379  0.433630  0.581279  1
  Cd  Cd16  1  0.324898  0.743621  0.177250  1
  Cd  Cd17  1  0.324898  0.147650  0.581279  1
  Cd  Cd18  1  0.852350  0.675102  0.418721  1
  Cd  Cd19  1  0.397650  0.316370  0.322750  1
  Ag  Ag20  1  0.125000  0.875000  0.750000  1
  Ag  Ag21  1  0.625000  0.875000  0.750000  1
  Ag  Ag22  1  0.125000  0.875000  0.250000  1
  Ag  Ag23  1  0.125000  0.375000  0.250000  1
