# generated using pymatgen
data_Y3Tl2Cd
_symmetry_space_group_name_H-M   'P 1'
_cell_length_a   5.34750600
_cell_length_b   5.34750510
_cell_length_c   6.57392700
_cell_angle_alpha   90.00000000
_cell_angle_beta   90.00000000
_cell_angle_gamma   120.00000559
_symmetry_Int_Tables_number   1
_chemical_formula_structural   Y3Tl2Cd
_chemical_formula_sum   'Y3 Tl2 Cd1'
_cell_volume   162.80133884
_cell_formula_units_Z   1
loop_
 _symmetry_equiv_pos_site_id
 _symmetry_equiv_pos_as_xyz
  1  'x, y, z'
loop_
 _atom_site_type_symbol
 _atom_site_label
 _atom_site_symmetry_multiplicity
 _atom_site_fract_x
 _atom_site_fract_y
 _atom_site_fract_z
 _atom_site_occupancy
  Y  Y0  1  0.000000  0.000000  0.500000  1
  Y  Y1  1  0.333333  0.666667  0.828003  1
  Y  Y2  1  0.666667  0.333333  0.171997  1
  Tl  Tl3  1  0.333333  0.666667  0.319662  1
  Tl  Tl4  1  0.666667  0.333333  0.680338  1
  Cd  Cd5  1  0.000000  0.000000  0.000000  1
