# generated using pymatgen
data_CeTm15(ZnCo)4
_symmetry_space_group_name_H-M   'P 1'
_cell_length_a   9.21689704
_cell_length_b   9.21689713
_cell_length_c   9.21689783
_cell_angle_alpha   59.64670187
_cell_angle_beta   59.64670222
_cell_angle_gamma   59.64670322
_symmetry_Int_Tables_number   1
_chemical_formula_structural   CeTm15(ZnCo)4
_chemical_formula_sum   'Ce1 Tm15 Zn4 Co4'
_cell_volume   549.21043027
_cell_formula_units_Z   1
loop_
 _symmetry_equiv_pos_site_id
 _symmetry_equiv_pos_as_xyz
  1  'x, y, z'
loop_
 _atom_site_type_symbol
 _atom_site_label
 _atom_site_symmetry_multiplicity
 _atom_site_fract_x
 _atom_site_fract_y
 _atom_site_fract_z
 _atom_site_occupancy
  Ce  Ce0  1  0.343511  0.343511  0.343511  1
  Tm  Tm1  1  0.351736  0.351736  0.943927  1
  Tm  Tm2  1  0.351736  0.943927  0.351736  1
  Tm  Tm3  1  0.943927  0.351736  0.351736  1
  Tm  Tm4  1  0.811181  0.190471  0.190471  1
  Tm  Tm5  1  0.190498  0.810847  0.810847  1
  Tm  Tm6  1  0.190471  0.811181  0.190471  1
  Tm  Tm7  1  0.810847  0.190498  0.810847  1
  Tm  Tm8  1  0.190471  0.190471  0.811181  1
  Tm  Tm9  1  0.810847  0.810847  0.190498  1
  Tm  Tm10  1  0.938104  0.562888  0.562888  1
  Tm  Tm11  1  0.562643  0.937446  0.937446  1
  Tm  Tm12  1  0.562888  0.938104  0.562888  1
  Tm  Tm13  1  0.937446  0.562643  0.937446  1
  Tm  Tm14  1  0.562888  0.562888  0.938104  1
  Tm  Tm15  1  0.937446  0.937446  0.562643  1
  Zn  Zn16  1  0.576466  0.576466  0.576466  1
  Zn  Zn17  1  0.577204  0.577204  0.265674  1
  Zn  Zn18  1  0.577204  0.265674  0.577204  1
  Zn  Zn19  1  0.265674  0.577204  0.577204  1
  Co  Co20  1  0.143182  0.143182  0.143182  1
  Co  Co21  1  0.147475  0.147475  0.568682  1
  Co  Co22  1  0.147475  0.568682  0.147475  1
  Co  Co23  1  0.568682  0.147475  0.147475  1
