# generated using pymatgen
data_Y3Ir4Rh5
_symmetry_space_group_name_H-M   'P 1'
_cell_length_a   5.29743200
_cell_length_b   5.29743177
_cell_length_c   17.50341600
_cell_angle_alpha   90.00000000
_cell_angle_beta   90.00000000
_cell_angle_gamma   119.99998894
_symmetry_Int_Tables_number   1
_chemical_formula_structural   Y3Ir4Rh5
_chemical_formula_sum   'Y6 Ir8 Rh10'
_cell_volume   425.38704286
_cell_formula_units_Z   2
loop_
 _symmetry_equiv_pos_site_id
 _symmetry_equiv_pos_as_xyz
  1  'x, y, z'
loop_
 _atom_site_type_symbol
 _atom_site_label
 _atom_site_symmetry_multiplicity
 _atom_site_fract_x
 _atom_site_fract_y
 _atom_site_fract_z
 _atom_site_occupancy
  Y  Y0  1  0.333333  0.666667  0.958265  1
  Y  Y1  1  0.666667  0.333333  0.041735  1
  Y  Y2  1  0.666667  0.333333  0.459626  1
  Y  Y3  1  0.333333  0.666667  0.540374  1
  Y  Y4  1  0.333333  0.666667  0.748021  1
  Y  Y5  1  0.666667  0.333333  0.251979  1
  Ir  Ir6  1  0.167491  0.832509  0.373583  1
  Ir  Ir7  1  0.167491  0.334982  0.373583  1
  Ir  Ir8  1  0.665018  0.832509  0.373583  1
  Ir  Ir9  1  0.832509  0.167491  0.626417  1
  Ir  Ir10  1  0.832509  0.665018  0.626417  1
  Ir  Ir11  1  0.334982  0.167491  0.626417  1
  Ir  Ir12  1  0.000000  0.000000  0.500000  1
  Ir  Ir13  1  0.000000  0.000000  0.000000  1
  Rh  Rh14  1  0.832829  0.167171  0.875308  1
  Rh  Rh15  1  0.832829  0.665658  0.875308  1
  Rh  Rh16  1  0.334342  0.167171  0.875308  1
  Rh  Rh17  1  0.167171  0.832829  0.124692  1
  Rh  Rh18  1  0.167171  0.334342  0.124692  1
  Rh  Rh19  1  0.665658  0.832829  0.124692  1
  Rh  Rh20  1  0.333333  0.666667  0.248850  1
  Rh  Rh21  1  0.666667  0.333333  0.751150  1
  Rh  Rh22  1  0.000000  0.000000  0.249767  1
  Rh  Rh23  1  0.000000  0.000000  0.750233  1
