# generated using pymatgen
data_Zr7Ta(Rh2N)2
_symmetry_space_group_name_H-M   'P 1'
_cell_length_a   8.77362433
_cell_length_b   8.71626472
_cell_length_c   8.77362410
_cell_angle_alpha   60.21603529
_cell_angle_beta   60.40388856
_cell_angle_gamma   60.21603373
_symmetry_Int_Tables_number   1
_chemical_formula_structural   Zr7Ta(Rh2N)2
_chemical_formula_sum   'Zr14 Ta2 Rh8 N4'
_cell_volume   477.42008235
_cell_formula_units_Z   2
loop_
 _symmetry_equiv_pos_site_id
 _symmetry_equiv_pos_as_xyz
  1  'x, y, z'
loop_
 _atom_site_type_symbol
 _atom_site_label
 _atom_site_symmetry_multiplicity
 _atom_site_fract_x
 _atom_site_fract_y
 _atom_site_fract_z
 _atom_site_occupancy
  Zr  Zr0  1  0.625000  0.125000  0.625000  1
  Zr  Zr1  1  0.625000  0.625000  0.625000  1
  Zr  Zr2  1  0.815772  0.815681  0.183515  1
  Zr  Zr3  1  0.183515  0.185031  0.815772  1
  Zr  Zr4  1  0.817552  0.182448  0.817552  1
  Zr  Zr5  1  0.186046  0.813954  0.186046  1
  Zr  Zr6  1  0.183515  0.815681  0.815772  1
  Zr  Zr7  1  0.815772  0.185031  0.183515  1
  Zr  Zr8  1  0.434228  0.434319  0.066485  1
  Zr  Zr9  1  0.066485  0.064969  0.434228  1
  Zr  Zr10  1  0.432448  0.067552  0.432448  1
  Zr  Zr11  1  0.063954  0.436046  0.063954  1
  Zr  Zr12  1  0.066485  0.434319  0.434228  1
  Zr  Zr13  1  0.434228  0.064969  0.066485  1
  Ta  Ta14  1  0.125000  0.625000  0.625000  1
  Ta  Ta15  1  0.625000  0.625000  0.125000  1
  Rh  Rh16  1  0.767953  0.415268  0.401510  1
  Rh  Rh17  1  0.409063  0.760774  0.409063  1
  Rh  Rh18  1  0.401510  0.415268  0.767953  1
  Rh  Rh19  1  0.409063  0.421099  0.409063  1
  Rh  Rh20  1  0.482047  0.834732  0.848490  1
  Rh  Rh21  1  0.840937  0.489226  0.840937  1
  Rh  Rh22  1  0.848490  0.834732  0.482047  1
  Rh  Rh23  1  0.840937  0.828901  0.840937  1
  N  N24  1  0.625000  0.125000  0.125000  1
  N  N25  1  0.125000  0.625000  0.125000  1
  N  N26  1  0.125000  0.125000  0.625000  1
  N  N27  1  0.125000  0.125000  0.125000  1
