# generated using pymatgen
data_Li2NdSmSi2Sn
_symmetry_space_group_name_H-M   'P 1'
_cell_length_a   9.73998238
_cell_length_b   9.73998154
_cell_length_c   6.84944300
_cell_angle_alpha   90.00000000
_cell_angle_beta   90.00000000
_cell_angle_gamma   153.22841875
_symmetry_Int_Tables_number   1
_chemical_formula_structural   Li2NdSmSi2Sn
_chemical_formula_sum   'Li4 Nd2 Sm2 Si4 Sn2'
_cell_volume   292.68701817
_cell_formula_units_Z   2
loop_
 _symmetry_equiv_pos_site_id
 _symmetry_equiv_pos_as_xyz
  1  'x, y, z'
loop_
 _atom_site_type_symbol
 _atom_site_label
 _atom_site_symmetry_multiplicity
 _atom_site_fract_x
 _atom_site_fract_y
 _atom_site_fract_z
 _atom_site_occupancy
  Li  Li0  1  0.815541  0.184459  0.554079  1
  Li  Li1  1  0.184459  0.815541  0.445921  1
  Li  Li2  1  0.184459  0.815541  0.054079  1
  Li  Li3  1  0.815541  0.184459  0.945921  1
  Nd  Nd4  1  0.548469  0.451531  0.250000  1
  Nd  Nd5  1  0.451531  0.548469  0.750000  1
  Sm  Sm6  1  0.350578  0.649422  0.250000  1
  Sm  Sm7  1  0.649422  0.350578  0.750000  1
  Si  Si8  1  0.942528  0.057472  0.074354  1
  Si  Si9  1  0.057472  0.942528  0.925646  1
  Si  Si10  1  0.057472  0.942528  0.574354  1
  Si  Si11  1  0.942528  0.057472  0.425646  1
  Sn  Sn12  1  0.719353  0.280647  0.250000  1
  Sn  Sn13  1  0.280647  0.719353  0.750000  1
