# generated using pymatgen
data_NdHf3(Al3Rh)6
_symmetry_space_group_name_H-M   'P 1'
_cell_length_a   7.49872020
_cell_length_b   7.48588375
_cell_length_c   9.32312600
_cell_angle_alpha   90.00000000
_cell_angle_beta   90.00000000
_cell_angle_gamma   119.69346403
_symmetry_Int_Tables_number   1
_chemical_formula_structural   NdHf3(Al3Rh)6
_chemical_formula_sum   'Nd1 Hf3 Al18 Rh6'
_cell_volume   454.62741088
_cell_formula_units_Z   1
loop_
 _symmetry_equiv_pos_site_id
 _symmetry_equiv_pos_as_xyz
  1  'x, y, z'
loop_
 _atom_site_type_symbol
 _atom_site_label
 _atom_site_symmetry_multiplicity
 _atom_site_fract_x
 _atom_site_fract_y
 _atom_site_fract_z
 _atom_site_occupancy
  Nd  Nd0  1  0.329588  0.006554  0.250000  1
  Hf  Hf1  1  0.993619  0.670883  0.750000  1
  Hf  Hf2  1  0.005464  0.329613  0.250000  1
  Hf  Hf3  1  0.672061  0.994772  0.750000  1
  Al  Al4  1  0.120321  0.122231  0.750000  1
  Al  Al5  1  0.870062  0.876253  0.250000  1
  Al  Al6  1  0.996512  0.334663  0.578493  1
  Al  Al7  1  0.998724  0.660853  0.428741  1
  Al  Al8  1  0.998724  0.660853  0.071259  1
  Al  Al9  1  0.335031  0.996886  0.916044  1
  Al  Al10  1  0.996512  0.334663  0.921507  1
  Al  Al11  1  0.669919  0.002806  0.071308  1
  Al  Al12  1  0.669919  0.002806  0.428692  1
  Al  Al13  1  0.335031  0.996886  0.583956  1
  Al  Al14  1  0.330821  0.334967  0.050904  1
  Al  Al15  1  0.669134  0.669155  0.938139  1
  Al  Al16  1  0.669134  0.669155  0.561861  1
  Al  Al17  1  0.330821  0.334967  0.449096  1
  Al  Al18  1  0.338072  0.554206  0.750000  1
  Al  Al19  1  0.669805  0.454359  0.250000  1
  Al  Al20  1  0.556010  0.339815  0.750000  1
  Al  Al21  1  0.445576  0.653660  0.250000  1
  Rh  Rh22  1  0.673640  0.328514  0.502737  1
  Rh  Rh23  1  0.328142  0.672929  0.502974  1
  Rh  Rh24  1  0.328142  0.672929  0.997026  1
  Rh  Rh25  1  0.673640  0.328514  0.997263  1
  Rh  Rh26  1  0.997788  0.998053  0.503056  1
  Rh  Rh27  1  0.997788  0.998053  0.996944  1
