# generated using pymatgen
data_ScTa9Si6C
_symmetry_space_group_name_H-M   'P 1'
_cell_length_a   7.58065993
_cell_length_b   7.58369979
_cell_length_c   5.28896100
_cell_angle_alpha   89.75089928
_cell_angle_beta   90.12460379
_cell_angle_gamma   120.01325110
_symmetry_Int_Tables_number   1
_chemical_formula_structural   ScTa9Si6C
_chemical_formula_sum   'Sc1 Ta9 Si6 C1'
_cell_volume   263.28555539
_cell_formula_units_Z   1
loop_
 _symmetry_equiv_pos_site_id
 _symmetry_equiv_pos_as_xyz
  1  'x, y, z'
loop_
 _atom_site_type_symbol
 _atom_site_label
 _atom_site_symmetry_multiplicity
 _atom_site_fract_x
 _atom_site_fract_y
 _atom_site_fract_z
 _atom_site_occupancy
  Sc  Sc0  1  0.000000  0.759475  0.249513  1
  Ta  Ta1  1  0.240570  0.240275  0.261043  1
  Ta  Ta2  1  0.759430  0.999704  0.261043  1
  Ta  Ta3  1  0.000000  0.243906  0.747826  1
  Ta  Ta4  1  0.758526  0.759288  0.739525  1
  Ta  Ta5  1  0.241474  0.000763  0.739525  1
  Ta  Ta6  1  0.333898  0.667123  0.000156  1
  Ta  Ta7  1  0.666102  0.333224  0.000156  1
  Ta  Ta8  1  0.665262  0.330610  0.499429  1
  Ta  Ta9  1  0.334738  0.665349  0.499429  1
  Si  Si10  1  0.000000  0.398404  0.240999  1
  Si  Si11  1  0.598256  0.597325  0.240323  1
  Si  Si12  1  0.401744  0.999069  0.240323  1
  Si  Si13  1  0.000000  0.600755  0.755901  1
  Si  Si14  1  0.400627  0.400405  0.759792  1
  Si  Si15  1  0.599373  0.999778  0.759792  1
  C  C16  1  0.000000  0.004546  0.505224  1
