# generated using pymatgen
data_TiNb8GeSe16
_symmetry_space_group_name_H-M   'P 1'
_cell_length_a   7.00346500
_cell_length_b   7.00346696
_cell_length_c   13.55879300
_cell_angle_alpha   90.00000000
_cell_angle_beta   90.00000000
_cell_angle_gamma   120.00000492
_symmetry_Int_Tables_number   1
_chemical_formula_structural   TiNb8GeSe16
_chemical_formula_sum   'Ti1 Nb8 Ge1 Se16'
_cell_volume   575.94059044
_cell_formula_units_Z   1
loop_
 _symmetry_equiv_pos_site_id
 _symmetry_equiv_pos_as_xyz
  1  'x, y, z'
loop_
 _atom_site_type_symbol
 _atom_site_label
 _atom_site_symmetry_multiplicity
 _atom_site_fract_x
 _atom_site_fract_y
 _atom_site_fract_z
 _atom_site_occupancy
  Ti  Ti0  1  0.000000  0.000000  0.500000  1
  Nb  Nb1  1  0.000000  0.000000  0.261813  1
  Nb  Nb2  1  0.000000  0.000000  0.738187  1
  Nb  Nb3  1  0.506700  0.013400  0.261558  1
  Nb  Nb4  1  0.493300  0.986600  0.738442  1
  Nb  Nb5  1  0.986600  0.493300  0.261558  1
  Nb  Nb6  1  0.013400  0.506700  0.738442  1
  Nb  Nb7  1  0.506700  0.493300  0.261558  1
  Nb  Nb8  1  0.493300  0.506700  0.738442  1
  Ge  Ge9  1  0.000000  0.000000  0.000000  1
  Se  Se10  1  0.333333  0.666667  0.612195  1
  Se  Se11  1  0.666667  0.333333  0.387805  1
  Se  Se12  1  0.666667  0.333333  0.134223  1
  Se  Se13  1  0.333333  0.666667  0.865777  1
  Se  Se14  1  0.168704  0.337407  0.138707  1
  Se  Se15  1  0.831296  0.662593  0.861293  1
  Se  Se16  1  0.662593  0.831296  0.138707  1
  Se  Se17  1  0.832186  0.664373  0.615550  1
  Se  Se18  1  0.337407  0.168704  0.861293  1
  Se  Se19  1  0.167814  0.335627  0.384450  1
  Se  Se20  1  0.168704  0.831296  0.138707  1
  Se  Se21  1  0.335627  0.167814  0.615550  1
  Se  Se22  1  0.831296  0.168704  0.861293  1
  Se  Se23  1  0.664373  0.832186  0.384450  1
  Se  Se24  1  0.832186  0.167814  0.615550  1
  Se  Se25  1  0.167814  0.832186  0.384450  1
