# generated using pymatgen
data_Tb8Y8MgIn3Pd4
_symmetry_space_group_name_H-M   'P 1'
_cell_length_a   9.78303521
_cell_length_b   9.77010009
_cell_length_c   9.79898300
_cell_angle_alpha   59.90217813
_cell_angle_beta   59.94617648
_cell_angle_gamma   60.05496122
_symmetry_Int_Tables_number   1
_chemical_formula_structural   Tb8Y8MgIn3Pd4
_chemical_formula_sum   'Tb8 Y8 Mg1 In3 Pd4'
_cell_volume   661.78890415
_cell_formula_units_Z   1
loop_
 _symmetry_equiv_pos_site_id
 _symmetry_equiv_pos_as_xyz
  1  'x, y, z'
loop_
 _atom_site_type_symbol
 _atom_site_label
 _atom_site_symmetry_multiplicity
 _atom_site_fract_x
 _atom_site_fract_y
 _atom_site_fract_z
 _atom_site_occupancy
  Tb  Tb0  1  0.351647  0.351286  0.351330  1
  Tb  Tb1  1  0.351647  0.351285  0.945738  1
  Tb  Tb2  1  0.351625  0.944207  0.352084  1
  Tb  Tb3  1  0.940707  0.352388  0.353452  1
  Tb  Tb4  1  0.808841  0.191660  0.191150  1
  Tb  Tb5  1  0.188622  0.811423  0.810347  1
  Tb  Tb6  1  0.188622  0.811422  0.189607  1
  Tb  Tb7  1  0.808841  0.191661  0.808348  1
  Y  Y8  1  0.188941  0.189856  0.810600  1
  Y  Y9  1  0.808193  0.807665  0.192071  1
  Y  Y10  1  0.935221  0.564828  0.564966  1
  Y  Y11  1  0.564449  0.935252  0.935869  1
  Y  Y12  1  0.564448  0.935251  0.564430  1
  Y  Y13  1  0.935220  0.564827  0.934985  1
  Y  Y14  1  0.564656  0.564564  0.935389  1
  Y  Y15  1  0.935551  0.936045  0.564201  1
  Mg  Mg16  1  0.267185  0.577224  0.577795  1
  In  In17  1  0.582712  0.583897  0.583447  1
  In  In18  1  0.582711  0.583897  0.249945  1
  In  In19  1  0.581828  0.251138  0.583518  1
  Pd  Pd20  1  0.143248  0.144007  0.145318  1
  Pd  Pd21  1  0.143245  0.144010  0.567429  1
  Pd  Pd22  1  0.143186  0.568260  0.144277  1
  Pd  Pd23  1  0.568651  0.143946  0.143701  1
