# generated using pymatgen
data_Yb3TmIr8
_symmetry_space_group_name_H-M   'P 1'
_cell_length_a   5.32422117
_cell_length_b   5.32422349
_cell_length_c   8.68330100
_cell_angle_alpha   89.99977011
_cell_angle_beta   90.00033918
_cell_angle_gamma   120.00006787
_symmetry_Int_Tables_number   1
_chemical_formula_structural   Yb3TmIr8
_chemical_formula_sum   'Yb3 Tm1 Ir8'
_cell_volume   213.17072179
_cell_formula_units_Z   1
loop_
 _symmetry_equiv_pos_site_id
 _symmetry_equiv_pos_as_xyz
  1  'x, y, z'
loop_
 _atom_site_type_symbol
 _atom_site_label
 _atom_site_symmetry_multiplicity
 _atom_site_fract_x
 _atom_site_fract_y
 _atom_site_fract_z
 _atom_site_occupancy
  Yb  Yb0  1  0.333339  0.666653  0.426867  1
  Yb  Yb1  1  0.333341  0.666648  0.067909  1
  Yb  Yb2  1  0.666670  0.333328  0.937979  1
  Tm  Tm3  1  0.666668  0.333331  0.570091  1
  Ir  Ir4  1  0.000005  0.999991  0.499065  1
  Ir  Ir5  1  0.000003  0.999991  0.999841  1
  Ir  Ir6  1  0.170791  0.341614  0.748226  1
  Ir  Ir7  1  0.170778  0.829231  0.748239  1
  Ir  Ir8  1  0.658399  0.829220  0.748227  1
  Ir  Ir9  1  0.829325  0.658637  0.251182  1
  Ir  Ir10  1  0.829316  0.170680  0.251189  1
  Ir  Ir11  1  0.341363  0.170673  0.251185  1
