# generated using pymatgen
data_Ce2Al20CrRuRh2
_symmetry_space_group_name_H-M   'P 1'
_cell_length_a   6.87403680
_cell_length_b   6.84729364
_cell_length_c   9.15026572
_cell_angle_alpha   90.44746611
_cell_angle_beta   90.45617716
_cell_angle_gamma   97.36451838
_symmetry_Int_Tables_number   1
_chemical_formula_structural   Ce2Al20CrRuRh2
_chemical_formula_sum   'Ce2 Al20 Cr1 Ru1 Rh2'
_cell_volume   427.10638057
_cell_formula_units_Z   1
loop_
 _symmetry_equiv_pos_site_id
 _symmetry_equiv_pos_as_xyz
  1  'x, y, z'
loop_
 _atom_site_type_symbol
 _atom_site_label
 _atom_site_symmetry_multiplicity
 _atom_site_fract_x
 _atom_site_fract_y
 _atom_site_fract_z
 _atom_site_occupancy
  Ce  Ce0  1  0.880088  0.127814  0.754103  1
  Ce  Ce1  1  0.119912  0.872186  0.245897  1
  Al  Al2  1  0.592201  0.861339  0.250178  1
  Al  Al3  1  0.777506  0.519498  0.244658  1
  Al  Al4  1  0.157942  0.836793  0.899025  1
  Al  Al5  1  0.407799  0.138661  0.749822  1
  Al  Al6  1  0.625987  0.381248  0.949289  1
  Al  Al7  1  0.839907  0.157121  0.398110  1
  Al  Al8  1  0.776816  0.772133  0.001283  1
  Al  Al9  1  0.861937  0.589882  0.752500  1
  Al  Al10  1  0.842058  0.163207  0.100975  1
  Al  Al11  1  0.222494  0.480502  0.755342  1
  Al  Al12  1  0.160093  0.842879  0.601890  1
  Al  Al13  1  0.776250  0.776894  0.500880  1
  Al  Al14  1  0.478708  0.223385  0.254012  1
  Al  Al15  1  0.621048  0.376989  0.551842  1
  Al  Al16  1  0.223750  0.223106  0.499120  1
  Al  Al17  1  0.378952  0.623011  0.448158  1
  Al  Al18  1  0.138063  0.410118  0.247500  1
  Al  Al19  1  0.521292  0.776615  0.745988  1
  Al  Al20  1  0.374013  0.618752  0.050711  1
  Al  Al21  1  0.223184  0.227867  0.998717  1
  Cr  Cr22  1  0.000000  0.500000  0.000000  1
  Ru  Ru23  1  0.500000  0.000000  0.500000  1
  Rh  Rh24  1  0.500000  0.000000  0.000000  1
  Rh  Rh25  1  0.000000  0.500000  0.500000  1
