# generated using pymatgen
data_Te(PtBr6)2
_symmetry_space_group_name_H-M   'P 1'
_cell_length_a   11.86833900
_cell_length_b   8.92332711
_cell_length_c   10.89496641
_cell_angle_alpha   89.01435827
_cell_angle_beta   90.00000000
_cell_angle_gamma   90.00000000
_symmetry_Int_Tables_number   1
_chemical_formula_structural   Te(PtBr6)2
_chemical_formula_sum   'Te2 Pt4 Br24'
_cell_volume   1153.66146875
_cell_formula_units_Z   2
loop_
 _symmetry_equiv_pos_site_id
 _symmetry_equiv_pos_as_xyz
  1  'x, y, z'
loop_
 _atom_site_type_symbol
 _atom_site_label
 _atom_site_symmetry_multiplicity
 _atom_site_fract_x
 _atom_site_fract_y
 _atom_site_fract_z
 _atom_site_occupancy
  Te  Te0  1  0.250000  0.839165  0.916155  1
  Te  Te1  1  0.750000  0.160835  0.083845  1
  Pt  Pt2  1  0.250000  0.106581  0.641738  1
  Pt  Pt3  1  0.750000  0.668731  0.601354  1
  Pt  Pt4  1  0.750000  0.893419  0.358262  1
  Pt  Pt5  1  0.250000  0.331269  0.398646  1
  Br  Br6  1  0.897890  0.663394  0.759929  1
  Br  Br7  1  0.590532  0.165422  0.928687  1
  Br  Br8  1  0.250000  0.606830  0.405213  1
  Br  Br9  1  0.102110  0.336606  0.240071  1
  Br  Br10  1  0.100009  0.918172  0.690934  1
  Br  Br11  1  0.750000  0.393170  0.594787  1
  Br  Br12  1  0.392797  0.306725  0.573751  1
  Br  Br13  1  0.090532  0.834578  0.071313  1
  Br  Br14  1  0.409468  0.834578  0.071313  1
  Br  Br15  1  0.250000  0.560506  0.872597  1
  Br  Br16  1  0.250000  0.187667  0.859035  1
  Br  Br17  1  0.892797  0.693275  0.426249  1
  Br  Br18  1  0.397890  0.336606  0.240071  1
  Br  Br19  1  0.750000  0.439494  0.127403  1
  Br  Br20  1  0.399991  0.918172  0.690934  1
  Br  Br21  1  0.107203  0.306725  0.573751  1
  Br  Br22  1  0.750000  0.812333  0.140965  1
  Br  Br23  1  0.250000  0.042896  0.416690  1
  Br  Br24  1  0.600009  0.081828  0.309066  1
  Br  Br25  1  0.909468  0.165422  0.928687  1
  Br  Br26  1  0.750000  0.957104  0.583310  1
  Br  Br27  1  0.607203  0.693275  0.426249  1
  Br  Br28  1  0.602110  0.663394  0.759929  1
  Br  Br29  1  0.899991  0.081828  0.309066  1
