# generated using pymatgen
data_Er2MnAl20RuRh2
_symmetry_space_group_name_H-M   'P 1'
_cell_length_a   6.81604511
_cell_length_b   6.83538258
_cell_length_c   9.10657108
_cell_angle_alpha   89.81234887
_cell_angle_beta   89.83173578
_cell_angle_gamma   96.81147766
_symmetry_Int_Tables_number   1
_chemical_formula_structural   Er2MnAl20RuRh2
_chemical_formula_sum   'Er2 Mn1 Al20 Ru1 Rh2'
_cell_volume   421.27838868
_cell_formula_units_Z   1
loop_
 _symmetry_equiv_pos_site_id
 _symmetry_equiv_pos_as_xyz
  1  'x, y, z'
loop_
 _atom_site_type_symbol
 _atom_site_label
 _atom_site_symmetry_multiplicity
 _atom_site_fract_x
 _atom_site_fract_y
 _atom_site_fract_z
 _atom_site_occupancy
  Er  Er0  1  0.868042  0.124266  0.751441  1
  Er  Er1  1  0.131958  0.875734  0.248559  1
  Mn  Mn2  1  0.500000  0.000000  0.000000  1
  Al  Al3  1  0.620447  0.375574  0.550151  1
  Al  Al4  1  0.379553  0.624426  0.449849  1
  Al  Al5  1  0.381447  0.629131  0.048301  1
  Al  Al6  1  0.618553  0.370869  0.951699  1
  Al  Al7  1  0.225452  0.222832  0.499857  1
  Al  Al8  1  0.774548  0.777168  0.500143  1
  Al  Al9  1  0.770499  0.780079  0.997448  1
  Al  Al10  1  0.229501  0.219921  0.002552  1
  Al  Al11  1  0.839936  0.152031  0.098845  1
  Al  Al12  1  0.160064  0.847969  0.901155  1
  Al  Al13  1  0.155590  0.845418  0.601622  1
  Al  Al14  1  0.844410  0.154582  0.398378  1
  Al  Al15  1  0.856953  0.588526  0.750915  1
  Al  Al16  1  0.143047  0.411474  0.249085  1
  Al  Al17  1  0.413824  0.138625  0.753680  1
  Al  Al18  1  0.586176  0.861375  0.246320  1
  Al  Al19  1  0.223651  0.479386  0.750022  1
  Al  Al20  1  0.776349  0.520614  0.249978  1
  Al  Al21  1  0.519122  0.781076  0.753446  1
  Al  Al22  1  0.480878  0.218924  0.246554  1
  Ru  Ru23  1  0.500000  0.000000  0.500000  1
  Rh  Rh24  1  0.000000  0.500000  0.500000  1
  Rh  Rh25  1  0.000000  0.500000  0.000000  1
