# generated using pymatgen
data_HfZr11Ta4(Rh2N)4
_symmetry_space_group_name_H-M   'P 1'
_cell_length_a   8.71075593
_cell_length_b   8.71075558
_cell_length_c   8.70869300
_cell_angle_alpha   60.00783628
_cell_angle_beta   60.00783763
_cell_angle_gamma   59.91333840
_symmetry_Int_Tables_number   1
_chemical_formula_structural   HfZr11Ta4(Rh2N)4
_chemical_formula_sum   'Hf1 Zr11 Ta4 Rh8 N4'
_cell_volume   466.99881344
_cell_formula_units_Z   1
loop_
 _symmetry_equiv_pos_site_id
 _symmetry_equiv_pos_as_xyz
  1  'x, y, z'
loop_
 _atom_site_type_symbol
 _atom_site_label
 _atom_site_symmetry_multiplicity
 _atom_site_fract_x
 _atom_site_fract_y
 _atom_site_fract_z
 _atom_site_occupancy
  Hf  Hf0  1  0.814657  0.814657  0.185343  1
  Zr  Zr1  1  0.186192  0.186192  0.813808  1
  Zr  Zr2  1  0.813928  0.185770  0.814006  1
  Zr  Zr3  1  0.185770  0.813928  0.186296  1
  Zr  Zr4  1  0.185770  0.813928  0.814006  1
  Zr  Zr5  1  0.813928  0.185770  0.186296  1
  Zr  Zr6  1  0.435918  0.435918  0.064082  1
  Zr  Zr7  1  0.063879  0.063879  0.436121  1
  Zr  Zr8  1  0.436307  0.063473  0.436300  1
  Zr  Zr9  1  0.063473  0.436307  0.063920  1
  Zr  Zr10  1  0.063473  0.436307  0.436300  1
  Zr  Zr11  1  0.436307  0.063473  0.063920  1
  Ta  Ta12  1  0.125033  0.625035  0.624966  1
  Ta  Ta13  1  0.625035  0.125033  0.624966  1
  Ta  Ta14  1  0.625390  0.625390  0.124863  1
  Ta  Ta15  1  0.625390  0.625390  0.624356  1
  Rh  Rh16  1  0.758622  0.414659  0.413358  1
  Rh  Rh17  1  0.414659  0.758622  0.413358  1
  Rh  Rh18  1  0.413900  0.413900  0.758748  1
  Rh  Rh19  1  0.413900  0.413900  0.413449  1
  Rh  Rh20  1  0.491837  0.835704  0.836230  1
  Rh  Rh21  1  0.835704  0.491837  0.836230  1
  Rh  Rh22  1  0.835945  0.835945  0.489441  1
  Rh  Rh23  1  0.835945  0.835945  0.838671  1
  N  N24  1  0.627184  0.121548  0.125634  1
  N  N25  1  0.121548  0.627184  0.125634  1
  N  N26  1  0.125151  0.125151  0.624781  1
  N  N27  1  0.125151  0.125151  0.124917  1
