# generated using pymatgen
data_BaTlAg2(NO3)8
_symmetry_space_group_name_H-M   'P 1'
_cell_length_a   8.42674115
_cell_length_b   8.01065660
_cell_length_c   7.98711563
_cell_angle_alpha   88.19724295
_cell_angle_beta   86.32731463
_cell_angle_gamma   87.27805322
_symmetry_Int_Tables_number   1
_chemical_formula_structural   BaTlAg2(NO3)8
_chemical_formula_sum   'Ba1 Tl1 Ag2 N8 O24'
_cell_volume   537.22732057
_cell_formula_units_Z   1
loop_
 _symmetry_equiv_pos_site_id
 _symmetry_equiv_pos_as_xyz
  1  'x, y, z'
loop_
 _atom_site_type_symbol
 _atom_site_label
 _atom_site_symmetry_multiplicity
 _atom_site_fract_x
 _atom_site_fract_y
 _atom_site_fract_z
 _atom_site_occupancy
  Ba  Ba0  1  0.000000  0.000000  0.000000  1
  Tl  Tl1  1  0.000000  0.500000  0.500000  1
  Ag  Ag2  1  0.500000  0.500000  0.000000  1
  Ag  Ag3  1  0.500000  0.000000  0.500000  1
  N  N4  1  0.332243  0.339589  0.328995  1
  N  N5  1  0.360004  0.183535  0.844455  1
  N  N6  1  0.176673  0.827064  0.363823  1
  N  N7  1  0.862881  0.351593  0.189338  1
  N  N8  1  0.667757  0.660411  0.671005  1
  N  N9  1  0.137119  0.648407  0.810662  1
  N  N10  1  0.823327  0.172936  0.636177  1
  N  N11  1  0.639996  0.816465  0.155545  1
  O  O12  1  0.779510  0.316982  0.071819  1
  O  O13  1  0.200143  0.951500  0.268140  1
  O  O14  1  0.257538  0.788986  0.484482  1
  O  O15  1  0.259971  0.207927  0.965774  1
  O  O16  1  0.229958  0.316175  0.452848  1
  O  O17  1  0.451705  0.240933  0.312489  1
  O  O18  1  0.310198  0.460789  0.227050  1
  O  O19  1  0.170743  0.514532  0.727949  1
  O  O20  1  0.942476  0.264656  0.670891  1
  O  O21  1  0.660555  0.933001  0.255966  1
  O  O22  1  0.019902  0.742311  0.770690  1
  O  O23  1  0.519854  0.727315  0.178753  1
  O  O24  1  0.799857  0.048500  0.731860  1
  O  O25  1  0.742462  0.211014  0.515518  1
  O  O26  1  0.740029  0.792073  0.034226  1
  O  O27  1  0.220490  0.683018  0.928181  1
  O  O28  1  0.770042  0.683825  0.547152  1
  O  O29  1  0.548295  0.759067  0.687511  1
  O  O30  1  0.689802  0.539211  0.772950  1
  O  O31  1  0.829257  0.485468  0.272051  1
  O  O32  1  0.057524  0.735344  0.329109  1
  O  O33  1  0.339445  0.066999  0.744034  1
  O  O34  1  0.980098  0.257689  0.229310  1
  O  O35  1  0.480146  0.272685  0.821247  1
