# generated using pymatgen
data_Tm2Lu18Bi11Sb
_symmetry_space_group_name_H-M   'P 1'
_cell_length_a   8.10991896
_cell_length_b   9.37631200
_cell_length_c   11.78095207
_cell_angle_alpha   90.00000000
_cell_angle_beta   89.95386913
_cell_angle_gamma   90.00000000
_symmetry_Int_Tables_number   1
_chemical_formula_structural   Tm2Lu18Bi11Sb
_chemical_formula_sum   'Tm2 Lu18 Bi11 Sb1'
_cell_volume   895.83662350
_cell_formula_units_Z   1
loop_
 _symmetry_equiv_pos_site_id
 _symmetry_equiv_pos_as_xyz
  1  'x, y, z'
loop_
 _atom_site_type_symbol
 _atom_site_label
 _atom_site_symmetry_multiplicity
 _atom_site_fract_x
 _atom_site_fract_y
 _atom_site_fract_z
 _atom_site_occupancy
  Tm  Tm0  1  0.812420  0.750000  0.217250  1
  Tm  Tm1  1  0.312888  0.750000  0.283047  1
  Lu  Lu2  1  0.027146  0.250000  0.511404  1
  Lu  Lu3  1  0.977654  0.750000  0.489879  1
  Lu  Lu4  1  0.476013  0.750000  0.011113  1
  Lu  Lu5  1  0.524521  0.250000  0.988054  1
  Lu  Lu6  1  0.355461  0.250000  0.285400  1
  Lu  Lu7  1  0.646030  0.750000  0.717914  1
  Lu  Lu8  1  0.145445  0.750000  0.781191  1
  Lu  Lu9  1  0.854283  0.250000  0.218313  1
  Lu  Lu10  1  0.189883  0.250000  0.780720  1
  Lu  Lu11  1  0.682385  0.250000  0.713569  1
  Lu  Lu12  1  0.193307  0.067229  0.060253  1
  Lu  Lu13  1  0.806786  0.933122  0.940114  1
  Lu  Lu14  1  0.308359  0.936975  0.559554  1
  Lu  Lu15  1  0.806786  0.566878  0.940114  1
  Lu  Lu16  1  0.690132  0.069244  0.442072  1
  Lu  Lu17  1  0.193307  0.432771  0.060253  1
  Lu  Lu18  1  0.690132  0.430756  0.442072  1
  Lu  Lu19  1  0.308359  0.563025  0.559554  1
  Bi  Bi20  1  0.596777  0.750000  0.457897  1
  Bi  Bi21  1  0.095973  0.750000  0.041815  1
  Bi  Bi22  1  0.905098  0.250000  0.956254  1
  Bi  Bi23  1  0.066150  0.004073  0.325692  1
  Bi  Bi24  1  0.932858  0.997009  0.674805  1
  Bi  Bi25  1  0.433230  0.995993  0.825229  1
  Bi  Bi26  1  0.932858  0.502991  0.674805  1
  Bi  Bi27  1  0.566682  0.004654  0.174615  1
  Bi  Bi28  1  0.066150  0.495927  0.325692  1
  Bi  Bi29  1  0.566682  0.495346  0.174615  1
  Bi  Bi30  1  0.433230  0.504007  0.825229  1
  Sb  Sb31  1  0.403019  0.250000  0.541511  1
