# generated using pymatgen
data_Pr2USn7
_symmetry_space_group_name_H-M   'P 1'
_cell_length_a   12.83265900
_cell_length_b   12.83265718
_cell_length_c   4.56128100
_cell_angle_alpha   90.00000000
_cell_angle_beta   90.00000000
_cell_angle_gamma   158.61713647
_symmetry_Int_Tables_number   1
_chemical_formula_structural   Pr2USn7
_chemical_formula_sum   'Pr2 U1 Sn7'
_cell_volume   273.86385330
_cell_formula_units_Z   1
loop_
 _symmetry_equiv_pos_site_id
 _symmetry_equiv_pos_as_xyz
  1  'x, y, z'
loop_
 _atom_site_type_symbol
 _atom_site_label
 _atom_site_symmetry_multiplicity
 _atom_site_fract_x
 _atom_site_fract_y
 _atom_site_fract_z
 _atom_site_occupancy
  Pr  Pr0  1  0.817226  0.182772  0.000000  1
  Pr  Pr1  1  0.182772  0.817226  0.000000  1
  U  U2  1  0.000000  0.000000  0.000000  1
  Sn  Sn3  1  0.592743  0.407255  0.000000  1
  Sn  Sn4  1  0.407255  0.592743  0.000000  1
  Sn  Sn5  1  0.908259  0.091738  0.500000  1
  Sn  Sn6  1  0.709496  0.290502  0.500000  1
  Sn  Sn7  1  0.499999  0.499999  0.500000  1
  Sn  Sn8  1  0.290502  0.709496  0.500000  1
  Sn  Sn9  1  0.091738  0.908259  0.500000  1
