# generated using pymatgen
data_Tb4Ce2RuI10
_symmetry_space_group_name_H-M   'P 1'
_cell_length_a   7.81484504
_cell_length_b   9.79505038
_cell_length_c   9.84718700
_cell_angle_alpha   106.98622820
_cell_angle_beta   96.62910230
_cell_angle_gamma   104.82007924
_symmetry_Int_Tables_number   1
_chemical_formula_structural   Tb4Ce2RuI10
_chemical_formula_sum   'Tb4 Ce2 Ru1 I10'
_cell_volume   682.00533550
_cell_formula_units_Z   1
loop_
 _symmetry_equiv_pos_site_id
 _symmetry_equiv_pos_as_xyz
  1  'x, y, z'
loop_
 _atom_site_type_symbol
 _atom_site_label
 _atom_site_symmetry_multiplicity
 _atom_site_fract_x
 _atom_site_fract_y
 _atom_site_fract_z
 _atom_site_occupancy
  Tb  Tb0  1  0.970000  0.293204  0.088949  1
  Tb  Tb1  1  0.644326  0.871085  0.828740  1
  Tb  Tb2  1  0.355674  0.128915  0.171260  1
  Tb  Tb3  1  0.030000  0.706796  0.911051  1
  Ce  Ce4  1  0.110189  0.039844  0.773538  1
  Ce  Ce5  1  0.889811  0.960156  0.226462  1
  Ru  Ru6  1  0.000000  0.000000  0.000000  1
  I  I7  1  0.351651  0.454369  0.273415  1
  I  I8  1  0.648349  0.545631  0.726585  1
  I  I9  1  0.734343  0.911558  0.542323  1
  I  I10  1  0.084559  0.374205  0.823873  1
  I  I11  1  0.915441  0.625795  0.176127  1
  I  I12  1  0.453293  0.815125  0.087137  1
  I  I13  1  0.546707  0.184875  0.912863  1
  I  I14  1  0.779891  0.266301  0.345737  1
  I  I15  1  0.220109  0.733699  0.654263  1
  I  I16  1  0.265657  0.088442  0.457677  1
