# generated using pymatgen
data_LiFe3(PtO3)8
_symmetry_space_group_name_H-M   'P 1'
_cell_length_a   4.60087800
_cell_length_b   9.19823386
_cell_length_c   9.46737400
_cell_angle_alpha   90.00000000
_cell_angle_beta   90.00000000
_cell_angle_gamma   89.81710385
_symmetry_Int_Tables_number   1
_chemical_formula_structural   LiFe3(PtO3)8
_chemical_formula_sum   'Li1 Fe3 Pt8 O24'
_cell_volume   400.65677026
_cell_formula_units_Z   1
loop_
 _symmetry_equiv_pos_site_id
 _symmetry_equiv_pos_as_xyz
  1  'x, y, z'
loop_
 _atom_site_type_symbol
 _atom_site_label
 _atom_site_symmetry_multiplicity
 _atom_site_fract_x
 _atom_site_fract_y
 _atom_site_fract_z
 _atom_site_occupancy
  Li  Li0  1  0.000000  0.500000  0.000000  1
  Fe  Fe1  1  0.500509  0.750093  0.500000  1
  Fe  Fe2  1  0.000000  0.000000  0.000000  1
  Fe  Fe3  1  0.499491  0.249907  0.500000  1
  Pt  Pt4  1  0.000000  0.000000  0.331562  1
  Pt  Pt5  1  0.000000  0.500000  0.329745  1
  Pt  Pt6  1  0.495100  0.253115  0.832940  1
  Pt  Pt7  1  0.504900  0.746885  0.832940  1
  Pt  Pt8  1  0.495100  0.253115  0.167060  1
  Pt  Pt9  1  0.504900  0.746885  0.167060  1
  Pt  Pt10  1  0.000000  0.000000  0.668438  1
  Pt  Pt11  1  0.000000  0.500000  0.670255  1
  O  O12  1  0.305426  0.155500  0.000000  1
  O  O13  1  0.314320  0.654018  0.000000  1
  O  O14  1  0.191575  0.404466  0.500000  1
  O  O15  1  0.191118  0.904429  0.500000  1
  O  O16  1  0.808882  0.095571  0.500000  1
  O  O17  1  0.808425  0.595534  0.500000  1
  O  O18  1  0.685680  0.345982  0.000000  1
  O  O19  1  0.694574  0.844500  0.000000  1
  O  O20  1  0.307908  0.153302  0.335883  1
  O  O21  1  0.306387  0.653769  0.334877  1
  O  O22  1  0.191161  0.403273  0.835573  1
  O  O23  1  0.195297  0.903307  0.836321  1
  O  O24  1  0.804703  0.096693  0.836321  1
  O  O25  1  0.808839  0.596727  0.835573  1
  O  O26  1  0.804703  0.096693  0.163679  1
  O  O27  1  0.808839  0.596727  0.164427  1
  O  O28  1  0.191161  0.403273  0.164427  1
  O  O29  1  0.195297  0.903307  0.163679  1
  O  O30  1  0.693613  0.346231  0.334877  1
  O  O31  1  0.692092  0.846698  0.335883  1
  O  O32  1  0.307908  0.153302  0.664117  1
  O  O33  1  0.306387  0.653769  0.665123  1
  O  O34  1  0.693613  0.346231  0.665123  1
  O  O35  1  0.692092  0.846698  0.664117  1
