# generated using pymatgen
data_Ti12Al7AuO4
_symmetry_space_group_name_H-M   'P 1'
_cell_length_a   6.92948837
_cell_length_b   6.92948886
_cell_length_c   6.92948857
_cell_angle_alpha   89.74715185
_cell_angle_beta   90.25284456
_cell_angle_gamma   90.25284781
_symmetry_Int_Tables_number   1
_chemical_formula_structural   Ti12Al7AuO4
_chemical_formula_sum   'Ti12 Al7 Au1 O4'
_cell_volume   332.72919131
_cell_formula_units_Z   1
loop_
 _symmetry_equiv_pos_site_id
 _symmetry_equiv_pos_as_xyz
  1  'x, y, z'
loop_
 _atom_site_type_symbol
 _atom_site_label
 _atom_site_symmetry_multiplicity
 _atom_site_fract_x
 _atom_site_fract_y
 _atom_site_fract_z
 _atom_site_occupancy
  Ti  Ti0  1  0.787610  0.960193  0.375008  1
  Ti  Ti1  1  0.709611  0.042647  0.876110  1
  Ti  Ti2  1  0.211322  0.456723  0.120518  1
  Ti  Ti3  1  0.292940  0.541244  0.628970  1
  Ti  Ti4  1  0.957353  0.376110  0.790389  1
  Ti  Ti5  1  0.039807  0.875008  0.712390  1
  Ti  Ti6  1  0.458756  0.128970  0.207060  1
  Ti  Ti7  1  0.543277  0.620518  0.288678  1
  Ti  Ti8  1  0.379482  0.788678  0.956723  1
  Ti  Ti9  1  0.871030  0.707060  0.041244  1
  Ti  Ti10  1  0.124992  0.212390  0.460193  1
  Ti  Ti11  1  0.623890  0.290389  0.542647  1
  Al  Al12  1  0.321013  0.176594  0.821244  1
  Al  Al13  1  0.823406  0.321244  0.178987  1
  Al  Al14  1  0.678756  0.678987  0.676594  1
  Al  Al15  1  0.571261  0.428739  0.928739  1
  Al  Al16  1  0.425940  0.928170  0.568703  1
  Al  Al17  1  0.931297  0.574060  0.428170  1
  Al  Al18  1  0.071830  0.068703  0.074060  1
  Au  Au19  1  0.180864  0.819136  0.319136  1
  O  O20  1  0.876521  0.123479  0.623479  1
  O  O21  1  0.622810  0.875359  0.128409  1
  O  O22  1  0.124641  0.628409  0.877190  1
  O  O23  1  0.371591  0.377190  0.375359  1
