# generated using pymatgen
data_YEr3CSe3
_symmetry_space_group_name_H-M   'P 1'
_cell_length_a   6.88102215
_cell_length_b   6.88102307
_cell_length_c   6.88456400
_cell_angle_alpha   79.89079356
_cell_angle_beta   79.89078374
_cell_angle_gamma   32.72722696
_symmetry_Int_Tables_number   1
_chemical_formula_structural   YEr3CSe3
_chemical_formula_sum   'Y1 Er3 C1 Se3'
_cell_volume   173.26044920
_cell_formula_units_Z   1
loop_
 _symmetry_equiv_pos_site_id
 _symmetry_equiv_pos_as_xyz
  1  'x, y, z'
loop_
 _atom_site_type_symbol
 _atom_site_label
 _atom_site_symmetry_multiplicity
 _atom_site_fract_x
 _atom_site_fract_y
 _atom_site_fract_z
 _atom_site_occupancy
  Y  Y0  1  0.019303  0.019303  0.024766  1
  Er  Er1  1  0.229831  0.229831  0.224119  1
  Er  Er2  1  0.513438  0.513438  0.453861  1
  Er  Er3  1  0.736645  0.736645  0.796419  1
  C  C4  1  0.626517  0.626517  0.126739  1
  Se  Se5  1  0.866016  0.866016  0.381721  1
  Se  Se6  1  0.125791  0.125791  0.623111  1
  Se  Se7  1  0.382459  0.382459  0.869265  1
