# generated using pymatgen
data_Pa2ReTcC3
_symmetry_space_group_name_H-M   'P 1'
_cell_length_a   6.21231274
_cell_length_b   6.21231277
_cell_length_c   5.62687100
_cell_angle_alpha   67.97175051
_cell_angle_beta   67.97175181
_cell_angle_gamma   29.83765941
_symmetry_Int_Tables_number   1
_chemical_formula_structural   Pa2ReTcC3
_chemical_formula_sum   'Pa2 Re1 Tc1 C3'
_cell_volume   99.57411038
_cell_formula_units_Z   1
loop_
 _symmetry_equiv_pos_site_id
 _symmetry_equiv_pos_as_xyz
  1  'x, y, z'
loop_
 _atom_site_type_symbol
 _atom_site_label
 _atom_site_symmetry_multiplicity
 _atom_site_fract_x
 _atom_site_fract_y
 _atom_site_fract_z
 _atom_site_occupancy
  Pa  Pa0  1  0.602121  0.602121  0.192397  1
  Pa  Pa1  1  0.397180  0.397180  0.811685  1
  Re  Re2  1  0.156547  0.156547  0.661994  1
  Tc  Tc3  1  0.843861  0.843861  0.333623  1
  C  C4  1  0.749749  0.749749  0.749068  1
  C  C5  1  0.248382  0.248382  0.252984  1
  C  C6  1  0.002159  0.002159  0.998249  1
