# generated using pymatgen
data_Y3Ho5Tc2(B12Os)2
_symmetry_space_group_name_H-M   'P 1'
_cell_length_a   3.66264200
_cell_length_b   9.14217808
_cell_length_c   11.53057101
_cell_angle_alpha   89.92153059
_cell_angle_beta   90.00000000
_cell_angle_gamma   90.00000000
_symmetry_Int_Tables_number   1
_chemical_formula_structural   Y3Ho5Tc2(B12Os)2
_chemical_formula_sum   'Y3 Ho5 Tc2 B24 Os2'
_cell_volume   386.09533570
_cell_formula_units_Z   1
loop_
 _symmetry_equiv_pos_site_id
 _symmetry_equiv_pos_as_xyz
  1  'x, y, z'
loop_
 _atom_site_type_symbol
 _atom_site_label
 _atom_site_symmetry_multiplicity
 _atom_site_fract_x
 _atom_site_fract_y
 _atom_site_fract_z
 _atom_site_occupancy
  Y  Y0  1  0.000000  0.324604  0.415393  1
  Y  Y1  1  0.000000  0.675389  0.584620  1
  Y  Y2  1  0.000000  0.820733  0.087298  1
  Ho  Ho3  1  0.000000  0.179150  0.912671  1
  Ho  Ho4  1  0.000000  0.941593  0.370908  1
  Ho  Ho5  1  0.000000  0.058424  0.629153  1
  Ho  Ho6  1  0.000000  0.443436  0.129911  1
  Ho  Ho7  1  0.000000  0.556413  0.870046  1
  Tc  Tc8  1  0.000000  0.638411  0.320146  1
  Tc  Tc9  1  0.000000  0.361461  0.680017  1
  B  B10  1  0.500000  0.553199  0.432817  1
  B  B11  1  0.500000  0.446784  0.567207  1
  B  B12  1  0.500000  0.053911  0.066886  1
  B  B13  1  0.500000  0.946534  0.932890  1
  B  B14  1  0.500000  0.748392  0.418628  1
  B  B15  1  0.500000  0.251630  0.581415  1
  B  B16  1  0.500000  0.248687  0.081233  1
  B  B17  1  0.500000  0.751291  0.918433  1
  B  B18  1  0.500000  0.791155  0.265470  1
  B  B19  1  0.500000  0.208756  0.734793  1
  B  B20  1  0.500000  0.290382  0.234110  1
  B  B21  1  0.500000  0.709624  0.765855  1
  B  B22  1  0.500000  0.630924  0.185357  1
  B  B23  1  0.500000  0.368794  0.814827  1
  B  B24  1  0.500000  0.130442  0.313842  1
  B  B25  1  0.500000  0.869609  0.686164  1
  B  B26  1  0.500000  0.982862  0.212052  1
  B  B27  1  0.500000  0.017484  0.788083  1
  B  B28  1  0.500000  0.482682  0.287491  1
  B  B29  1  0.500000  0.517255  0.712515  1
  B  B30  1  0.500000  0.602970  0.028346  1
  B  B31  1  0.500000  0.396675  0.971555  1
  B  B32  1  0.500000  0.102979  0.471166  1
  B  B33  1  0.500000  0.897043  0.528840  1
  Os  Os34  1  0.000000  0.137400  0.178074  1
  Os  Os35  1  0.000000  0.862920  0.821790  1
