# generated using pymatgen
data_Sc2Ni2PRh4
_symmetry_space_group_name_H-M   'P 1'
_cell_length_a   5.75678330
_cell_length_b   5.75678287
_cell_length_c   5.58414300
_cell_angle_alpha   60.98715990
_cell_angle_beta   60.98716225
_cell_angle_gamma   60.41286825
_symmetry_Int_Tables_number   1
_chemical_formula_structural   Sc2Ni2PRh4
_chemical_formula_sum   'Sc2 Ni2 P1 Rh4'
_cell_volume   133.19830780
_cell_formula_units_Z   1
loop_
 _symmetry_equiv_pos_site_id
 _symmetry_equiv_pos_as_xyz
  1  'x, y, z'
loop_
 _atom_site_type_symbol
 _atom_site_label
 _atom_site_symmetry_multiplicity
 _atom_site_fract_x
 _atom_site_fract_y
 _atom_site_fract_z
 _atom_site_occupancy
  Sc  Sc0  1  0.246005  0.246005  0.248738  1
  Sc  Sc1  1  0.753995  0.753995  0.740749  1
  Ni  Ni2  1  0.714423  0.285578  0.263420  1
  Ni  Ni3  1  0.285578  0.714423  0.263420  1
  P  P4  1  0.000000  0.000000  0.031420  1
  Rh  Rh5  1  0.733086  0.733086  0.257762  1
  Rh  Rh6  1  0.266913  0.266913  0.723935  1
  Rh  Rh7  1  0.737286  0.262715  0.735279  1
  Rh  Rh8  1  0.262715  0.737286  0.735279  1
