# generated using pymatgen
data_Sm2BeCo6SiB2
_symmetry_space_group_name_H-M   'P 1'
_cell_length_a   5.13605301
_cell_length_b   5.13633027
_cell_length_c   6.42539000
_cell_angle_alpha   90.00000000
_cell_angle_beta   90.00000000
_cell_angle_gamma   120.00645667
_symmetry_Int_Tables_number   1
_chemical_formula_structural   Sm2BeCo6SiB2
_chemical_formula_sum   'Sm2 Be1 Co6 Si1 B2'
_cell_volume   146.78588789
_cell_formula_units_Z   1
loop_
 _symmetry_equiv_pos_site_id
 _symmetry_equiv_pos_as_xyz
  1  'x, y, z'
loop_
 _atom_site_type_symbol
 _atom_site_label
 _atom_site_symmetry_multiplicity
 _atom_site_fract_x
 _atom_site_fract_y
 _atom_site_fract_z
 _atom_site_occupancy
  Sm  Sm0  1  0.000010  0.000028  0.000000  1
  Sm  Sm1  1  0.999986  0.000002  0.500000  1
  Be  Be2  1  0.666555  0.333186  0.000000  1
  Co  Co3  1  0.500952  0.001935  0.281334  1
  Co  Co4  1  0.500953  0.499044  0.281270  1
  Co  Co5  1  0.998071  0.499049  0.281242  1
  Co  Co6  1  0.500952  0.001935  0.718666  1
  Co  Co7  1  0.500953  0.499044  0.718729  1
  Co  Co8  1  0.998071  0.499049  0.718757  1
  Si  Si9  1  0.333318  0.666706  0.000000  1
  B  B10  1  0.333268  0.666630  0.500000  1
  B  B11  1  0.666709  0.333394  0.500000  1
