# generated using pymatgen
data_Tm2Nb3Ni9As7
_symmetry_space_group_name_H-M   'P 1'
_cell_length_a   9.61288900
_cell_length_b   9.61288918
_cell_length_c   3.82168000
_cell_angle_alpha   90.00000000
_cell_angle_beta   90.00000000
_cell_angle_gamma   120.00000281
_symmetry_Int_Tables_number   1
_chemical_formula_structural   Tm2Nb3Ni9As7
_chemical_formula_sum   'Tm2 Nb3 Ni9 As7'
_cell_volume   305.83895582
_cell_formula_units_Z   1
loop_
 _symmetry_equiv_pos_site_id
 _symmetry_equiv_pos_as_xyz
  1  'x, y, z'
loop_
 _atom_site_type_symbol
 _atom_site_label
 _atom_site_symmetry_multiplicity
 _atom_site_fract_x
 _atom_site_fract_y
 _atom_site_fract_z
 _atom_site_occupancy
  Tm  Tm0  1  0.333333  0.666667  0.000000  1
  Tm  Tm1  1  0.666667  0.333333  0.500000  1
  Nb  Nb2  1  0.223866  0.118279  0.500000  1
  Nb  Nb3  1  0.881721  0.105586  0.500000  1
  Nb  Nb4  1  0.894414  0.776134  0.500000  1
  Ni  Ni5  1  0.128668  0.285725  0.000000  1
  Ni  Ni6  1  0.714275  0.842944  0.000000  1
  Ni  Ni7  1  0.157056  0.871332  0.000000  1
  Ni  Ni8  1  0.429462  0.366122  0.000000  1
  Ni  Ni9  1  0.633878  0.063339  0.000000  1
  Ni  Ni10  1  0.936661  0.570538  0.000000  1
  Ni  Ni11  1  0.058292  0.440368  0.500000  1
  Ni  Ni12  1  0.559632  0.617924  0.500000  1
  Ni  Ni13  1  0.382076  0.941708  0.500000  1
  As  As14  1  0.292559  0.414170  0.500000  1
  As  As15  1  0.585830  0.878389  0.500000  1
  As  As16  1  0.121611  0.707441  0.500000  1
  As  As17  1  0.419354  0.114183  0.000000  1
  As  As18  1  0.885817  0.305170  0.000000  1
  As  As19  1  0.694830  0.580646  0.000000  1
  As  As20  1  0.000000  0.000000  0.000000  1
