# generated using pymatgen
data_Nd20InSi10Ag
_symmetry_space_group_name_H-M   'P 1'
_cell_length_a   7.81535700
_cell_length_b   7.81535700
_cell_length_c   14.60676100
_cell_angle_alpha   90.00000000
_cell_angle_beta   90.00000000
_cell_angle_gamma   90.00000000
_symmetry_Int_Tables_number   1
_chemical_formula_structural   Nd20InSi10Ag
_chemical_formula_sum   'Nd20 In1 Si10 Ag1'
_cell_volume   892.17811411
_cell_formula_units_Z   1
loop_
 _symmetry_equiv_pos_site_id
 _symmetry_equiv_pos_as_xyz
  1  'x, y, z'
loop_
 _atom_site_type_symbol
 _atom_site_label
 _atom_site_symmetry_multiplicity
 _atom_site_fract_x
 _atom_site_fract_y
 _atom_site_fract_z
 _atom_site_occupancy
  Nd  Nd0  1  0.815455  0.826680  0.603671  1
  Nd  Nd1  1  0.184425  0.832257  0.114050  1
  Nd  Nd2  1  0.172858  0.813525  0.396050  1
  Nd  Nd3  1  0.000000  0.500000  0.732666  1
  Nd  Nd4  1  0.827142  0.186475  0.396050  1
  Nd  Nd5  1  0.686475  0.672858  0.396050  1
  Nd  Nd6  1  0.673320  0.315455  0.603671  1
  Nd  Nd7  1  0.326680  0.684545  0.603671  1
  Nd  Nd8  1  0.000000  0.500000  0.237503  1
  Nd  Nd9  1  0.667743  0.684425  0.114050  1
  Nd  Nd10  1  0.680000  0.332610  0.884897  1
  Nd  Nd11  1  0.832610  0.820000  0.884897  1
  Nd  Nd12  1  0.313525  0.327142  0.396050  1
  Nd  Nd13  1  0.184545  0.173320  0.603671  1
  Nd  Nd14  1  0.815575  0.167743  0.114050  1
  Nd  Nd15  1  0.320000  0.667390  0.884897  1
  Nd  Nd16  1  0.332257  0.315575  0.114050  1
  Nd  Nd17  1  0.500000  0.000000  0.274423  1
  Nd  Nd18  1  0.167390  0.180000  0.884897  1
  Nd  Nd19  1  0.500000  0.000000  0.767243  1
  In  In20  1  0.000000  0.500000  0.003759  1
  Si  Si21  1  0.614758  0.385662  0.256618  1
  Si  Si22  1  0.115690  0.885054  0.741938  1
  Si  Si23  1  0.385054  0.384310  0.741938  1
  Si  Si24  1  0.385242  0.614338  0.256618  1
  Si  Si25  1  0.885662  0.885242  0.256618  1
  Si  Si26  1  0.614946  0.615690  0.741938  1
  Si  Si27  1  0.000000  0.500000  0.507659  1
  Si  Si28  1  0.884310  0.114946  0.741938  1
  Si  Si29  1  0.500000  0.000000  0.492512  1
  Si  Si30  1  0.114338  0.114758  0.256618  1
  Ag  Ag31  1  0.500000  0.000000  0.995337  1
