# generated using pymatgen
data_La16Cd4TcOs3
_symmetry_space_group_name_H-M   'P 1'
_cell_length_a   10.11198100
_cell_length_b   10.06655948
_cell_length_c   10.06656000
_cell_angle_alpha   59.99999170
_cell_angle_beta   60.14847014
_cell_angle_gamma   60.14847418
_symmetry_Int_Tables_number   1
_chemical_formula_structural   La16Cd4TcOs3
_chemical_formula_sum   'La16 Cd4 Tc1 Os3'
_cell_volume   726.19684535
_cell_formula_units_Z   1
loop_
 _symmetry_equiv_pos_site_id
 _symmetry_equiv_pos_as_xyz
  1  'x, y, z'
loop_
 _atom_site_type_symbol
 _atom_site_label
 _atom_site_symmetry_multiplicity
 _atom_site_fract_x
 _atom_site_fract_y
 _atom_site_fract_z
 _atom_site_occupancy
  La  La0  1  0.905050  0.903646  0.903646  1
  La  La1  1  0.440881  0.436697  0.061211  1
  La  La2  1  0.062048  0.060017  0.438968  1
  La  La3  1  0.440881  0.061211  0.061211  1
  La  La4  1  0.306451  0.692915  0.307717  1
  La  La5  1  0.694139  0.692235  0.306813  1
  La  La6  1  0.694139  0.306813  0.306813  1
  La  La7  1  0.286932  0.904357  0.904357  1
  La  La8  1  0.905050  0.287659  0.903646  1
  La  La9  1  0.306451  0.692915  0.692915  1
  La  La10  1  0.905050  0.903646  0.287659  1
  La  La11  1  0.062048  0.438968  0.060017  1
  La  La12  1  0.306451  0.307717  0.692915  1
  La  La13  1  0.062048  0.438968  0.438968  1
  La  La14  1  0.440881  0.061211  0.436697  1
  La  La15  1  0.694139  0.306813  0.692235  1
  Cd  Cd16  1  0.671492  0.671282  0.985943  1
  Cd  Cd17  1  0.986576  0.671141  0.671141  1
  Cd  Cd18  1  0.671492  0.985943  0.671282  1
  Cd  Cd19  1  0.671492  0.671282  0.671282  1
  Tc  Tc20  1  0.650610  0.116463  0.116463  1
  Os  Os21  1  0.111900  0.112585  0.662930  1
  Os  Os22  1  0.111900  0.112585  0.112585  1
  Os  Os23  1  0.111900  0.662930  0.112585  1
