# generated using pymatgen
data_ErZrCr2(Co4P3)2
_symmetry_space_group_name_H-M   'P 1'
_cell_length_a   3.62530200
_cell_length_b   10.21534800
_cell_length_c   11.67166700
_cell_angle_alpha   90.00000000
_cell_angle_beta   90.00000000
_cell_angle_gamma   90.00000000
_symmetry_Int_Tables_number   1
_chemical_formula_structural   ErZrCr2(Co4P3)2
_chemical_formula_sum   'Er2 Zr2 Cr4 Co16 P12'
_cell_volume   432.24526553
_cell_formula_units_Z   2
loop_
 _symmetry_equiv_pos_site_id
 _symmetry_equiv_pos_as_xyz
  1  'x, y, z'
loop_
 _atom_site_type_symbol
 _atom_site_label
 _atom_site_symmetry_multiplicity
 _atom_site_fract_x
 _atom_site_fract_y
 _atom_site_fract_z
 _atom_site_occupancy
  Er  Er0  1  0.750000  0.417709  0.295537  1
  Er  Er1  1  0.750000  0.082291  0.795537  1
  Zr  Zr2  1  0.250000  0.582699  0.703723  1
  Zr  Zr3  1  0.250000  0.917301  0.203723  1
  Cr  Cr4  1  0.250000  0.712233  0.989031  1
  Cr  Cr5  1  0.250000  0.787767  0.489031  1
  Cr  Cr6  1  0.750000  0.289225  0.011917  1
  Cr  Cr7  1  0.750000  0.210775  0.511917  1
  Co  Co8  1  0.250000  0.408339  0.490726  1
  Co  Co9  1  0.250000  0.091661  0.990726  1
  Co  Co10  1  0.750000  0.594297  0.513468  1
  Co  Co11  1  0.750000  0.905703  0.013468  1
  Co  Co12  1  0.250000  0.220677  0.178522  1
  Co  Co13  1  0.250000  0.279323  0.678522  1
  Co  Co14  1  0.750000  0.777587  0.821963  1
  Co  Co15  1  0.750000  0.722413  0.321963  1
  Co  Co16  1  0.250000  0.883590  0.699199  1
  Co  Co17  1  0.250000  0.616410  0.199199  1
  Co  Co18  1  0.750000  0.111689  0.299438  1
  Co  Co19  1  0.750000  0.388311  0.799438  1
  Co  Co20  1  0.250000  0.467900  0.930543  1
  Co  Co21  1  0.250000  0.032100  0.430543  1
  Co  Co22  1  0.750000  0.535197  0.066443  1
  Co  Co23  1  0.750000  0.964803  0.566443  1
  P  P24  1  0.250000  0.418397  0.112508  1
  P  P25  1  0.250000  0.081603  0.612508  1
  P  P26  1  0.750000  0.582426  0.884884  1
  P  P27  1  0.750000  0.917574  0.384884  1
  P  P28  1  0.250000  0.267938  0.869845  1
  P  P29  1  0.250000  0.232062  0.369845  1
  P  P30  1  0.750000  0.733477  0.131741  1
  P  P31  1  0.750000  0.766523  0.631741  1
  P  P32  1  0.250000  0.599893  0.391430  1
  P  P33  1  0.250000  0.900107  0.891430  1
  P  P34  1  0.750000  0.401308  0.609082  1
  P  P35  1  0.750000  0.098692  0.109082  1
