# generated using pymatgen
data_BeCr2Si5W8
_symmetry_space_group_name_H-M   'P 1'
_cell_length_a   7.19871798
_cell_length_b   7.19871402
_cell_length_c   7.19871700
_cell_angle_alpha   96.26199075
_cell_angle_beta   96.26274164
_cell_angle_gamma   141.42913696
_symmetry_Int_Tables_number   1
_chemical_formula_structural   BeCr2Si5W8
_chemical_formula_sum   'Be1 Cr2 Si5 W8'
_cell_volume   219.53719475
_cell_formula_units_Z   1
loop_
 _symmetry_equiv_pos_site_id
 _symmetry_equiv_pos_as_xyz
  1  'x, y, z'
loop_
 _atom_site_type_symbol
 _atom_site_label
 _atom_site_symmetry_multiplicity
 _atom_site_fract_x
 _atom_site_fract_y
 _atom_site_fract_z
 _atom_site_occupancy
  Be  Be0  1  0.249999  0.250000  0.999999  1
  Cr  Cr1  1  0.249931  0.750000  0.499931  1
  Cr  Cr2  1  0.749940  0.250000  0.499940  1
  Si  Si3  1  0.749997  0.750000  0.999997  1
  Si  Si4  1  0.160315  0.660295  0.820483  1
  Si  Si5  1  0.839838  0.339813  0.179518  1
  Si  Si6  1  0.339704  0.160187  0.500024  1
  Si  Si7  1  0.660189  0.839705  0.500019  1
  W  W8  1  0.081793  0.225824  0.301188  1
  W  W9  1  0.924668  0.780599  0.698846  1
  W  W10  1  0.780608  0.081778  0.855949  1
  W  W11  1  0.418246  0.719401  0.144069  1
  W  W12  1  0.225832  0.924654  0.144061  1
  W  W13  1  0.575364  0.274176  0.855968  1
  W  W14  1  0.719407  0.575346  0.301176  1
  W  W15  1  0.274171  0.418222  0.698830  1
