# generated using pymatgen
data_ThPa3(GeIr)4
_symmetry_space_group_name_H-M   'P 1'
_cell_length_a   4.35056800
_cell_length_b   7.07180143
_cell_length_c   7.69895479
_cell_angle_alpha   90.03562546
_cell_angle_beta   90.00000000
_cell_angle_gamma   90.00000000
_symmetry_Int_Tables_number   1
_chemical_formula_structural   ThPa3(GeIr)4
_chemical_formula_sum   'Th1 Pa3 Ge4 Ir4'
_cell_volume   236.86871512
_cell_formula_units_Z   1
loop_
 _symmetry_equiv_pos_site_id
 _symmetry_equiv_pos_as_xyz
  1  'x, y, z'
loop_
 _atom_site_type_symbol
 _atom_site_label
 _atom_site_symmetry_multiplicity
 _atom_site_fract_x
 _atom_site_fract_y
 _atom_site_fract_z
 _atom_site_occupancy
  Th  Th0  1  0.250000  0.489939  0.203394  1
  Pa  Pa1  1  0.750000  0.508627  0.791823  1
  Pa  Pa2  1  0.250000  0.992741  0.300214  1
  Pa  Pa3  1  0.750000  0.008039  0.704142  1
  Ge  Ge4  1  0.250000  0.817136  0.916475  1
  Ge  Ge5  1  0.250000  0.319562  0.586048  1
  Ge  Ge6  1  0.750000  0.176217  0.082458  1
  Ge  Ge7  1  0.750000  0.692548  0.415584  1
  Ir  Ir8  1  0.250000  0.732588  0.590131  1
  Ir  Ir9  1  0.250000  0.220797  0.906718  1
  Ir  Ir10  1  0.750000  0.782328  0.084838  1
  Ir  Ir11  1  0.750000  0.259478  0.418175  1
