# generated using pymatgen
data_Zr8Co7Si14Ni
_symmetry_space_group_name_H-M   'P 1'
_cell_length_a   9.48113814
_cell_length_b   9.49049446
_cell_length_c   9.48143275
_cell_angle_alpha   94.16219434
_cell_angle_beta   94.10959627
_cell_angle_gamma   148.85066732
_symmetry_Int_Tables_number   1
_chemical_formula_structural   Zr8Co7Si14Ni
_chemical_formula_sum   'Zr8 Co7 Si14 Ni1'
_cell_volume   425.08758434
_cell_formula_units_Z   1
loop_
 _symmetry_equiv_pos_site_id
 _symmetry_equiv_pos_as_xyz
  1  'x, y, z'
loop_
 _atom_site_type_symbol
 _atom_site_label
 _atom_site_symmetry_multiplicity
 _atom_site_fract_x
 _atom_site_fract_y
 _atom_site_fract_z
 _atom_site_occupancy
  Zr  Zr0  1  0.137724  0.137724  0.275450  1
  Zr  Zr1  1  0.862529  0.862529  0.725055  1
  Zr  Zr2  1  0.861462  0.136550  0.000485  1
  Zr  Zr3  1  0.139023  0.863935  0.000485  1
  Zr  Zr4  1  0.499220  0.303362  0.804071  1
  Zr  Zr5  1  0.499474  0.695321  0.196226  1
  Zr  Zr6  1  0.696752  0.500905  0.196226  1
  Zr  Zr7  1  0.304850  0.500709  0.804071  1
  Co  Co8  1  0.103669  0.603669  0.207336  1
  Co  Co9  1  0.104158  0.897405  0.501230  1
  Co  Co10  1  0.397072  0.603824  0.501230  1
  Co  Co11  1  0.601364  0.398220  0.498662  1
  Co  Co12  1  0.897298  0.100443  0.498662  1
  Co  Co13  1  0.896983  0.396983  0.793968  1
  Co  Co14  1  0.601713  0.101713  0.203423  1
  Si  Si15  1  0.508375  0.101493  0.589103  1
  Si  Si16  1  0.501669  0.909908  0.409006  1
  Si  Si17  1  0.907337  0.499099  0.409006  1
  Si  Si18  1  0.080728  0.487609  0.589103  1
  Si  Si19  1  0.749050  0.748828  0.000138  1
  Si  Si20  1  0.251088  0.251310  0.000138  1
  Si  Si21  1  0.289454  0.289454  0.578906  1
  Si  Si22  1  0.710590  0.710590  0.421183  1
  Si  Si23  1  0.716280  0.295770  0.001321  1
  Si  Si24  1  0.285041  0.705552  0.001321  1
  Si  Si25  1  0.999037  0.301042  0.302144  1
  Si  Si26  1  0.994405  0.693716  0.697268  1
  Si  Si27  1  0.702863  0.003551  0.697268  1
  Si  Si28  1  0.303108  0.001103  0.302144  1
  Ni  Ni29  1  0.397686  0.897686  0.795375  1
