# generated using pymatgen
data_BaTc15P4WO56
_symmetry_space_group_name_H-M   'P 1'
_cell_length_a   9.33608397
_cell_length_b   9.33462419
_cell_length_c   17.93282747
_cell_angle_alpha   67.35543101
_cell_angle_beta   67.35159252
_cell_angle_gamma   47.78787371
_symmetry_Int_Tables_number   1
_chemical_formula_structural   BaTc15P4WO56
_chemical_formula_sum   'Ba1 Tc15 P4 W1 O56'
_cell_volume   1049.87240480
_cell_formula_units_Z   1
loop_
 _symmetry_equiv_pos_site_id
 _symmetry_equiv_pos_as_xyz
  1  'x, y, z'
loop_
 _atom_site_type_symbol
 _atom_site_label
 _atom_site_symmetry_multiplicity
 _atom_site_fract_x
 _atom_site_fract_y
 _atom_site_fract_z
 _atom_site_occupancy
  Ba  Ba0  1  0.000702  0.000371  0.499592  1
  Tc  Tc1  1  0.112998  0.611372  0.740493  1
  Tc  Tc2  1  0.389499  0.889069  0.256821  1
  Tc  Tc3  1  0.888321  0.388898  0.257181  1
  Tc  Tc4  1  0.610113  0.109630  0.742556  1
  Tc  Tc5  1  0.354611  0.852500  0.644440  1
  Tc  Tc6  1  0.148144  0.646268  0.354535  1
  Tc  Tc7  1  0.645619  0.148277  0.356825  1
  Tc  Tc8  1  0.851938  0.353702  0.644776  1
  Tc  Tc9  1  0.365752  0.865875  0.847771  1
  Tc  Tc10  1  0.132103  0.633685  0.150956  1
  Tc  Tc11  1  0.632846  0.134723  0.155956  1
  Tc  Tc12  1  0.869021  0.369801  0.846338  1
  Tc  Tc13  1  0.121641  0.621030  0.944262  1
  Tc  Tc14  1  0.376234  0.875907  0.053580  1
  Tc  Tc15  1  0.877381  0.376357  0.053387  1
  P  P16  1  0.127597  0.534277  0.563737  1
  P  P17  1  0.465989  0.872189  0.435816  1
  P  P18  1  0.872518  0.466023  0.435775  1
  P  P19  1  0.533810  0.127898  0.564120  1
  W  W20  1  0.623014  0.121964  0.949317  1
  O  O21  1  0.370690  0.847020  0.743020  1
  O  O22  1  0.153576  0.627597  0.257151  1
  O  O23  1  0.628170  0.155170  0.258307  1
  O  O24  1  0.847378  0.371615  0.742614  1
  O  O25  1  0.358445  0.355694  0.730206  1
  O  O26  1  0.643183  0.643660  0.268219  1
  O  O27  1  0.868743  0.871270  0.741318  1
  O  O28  1  0.130594  0.130028  0.258906  1
  O  O29  1  0.871477  0.869361  0.939087  1
  O  O30  1  0.128225  0.127043  0.058761  1
  O  O31  1  0.373968  0.376952  0.952714  1
  O  O32  1  0.625464  0.626111  0.048589  1
  O  O33  1  0.355355  0.355509  0.562769  1
  O  O34  1  0.644660  0.644482  0.437341  1
  O  O35  1  0.886260  0.338266  0.522687  1
  O  O36  1  0.661871  0.114803  0.477372  1
  O  O37  1  0.114206  0.662065  0.477112  1
  O  O38  1  0.338216  0.885961  0.522714  1
  O  O39  1  0.136883  0.600659  0.841634  1
  O  O40  1  0.396334  0.865717  0.157758  1
  O  O41  1  0.866602  0.396398  0.157585  1
  O  O42  1  0.598301  0.139134  0.841373  1
  O  O43  1  0.250479  0.721860  0.684194  1
  O  O44  1  0.278780  0.750148  0.314363  1
  O  O45  1  0.750482  0.279157  0.315082  1
  O  O46  1  0.721816  0.249697  0.683910  1
  O  O47  1  0.122860  0.122560  0.838464  1
  O  O48  1  0.877839  0.878170  0.163240  1
  O  O49  1  0.614938  0.614652  0.851785  1
  O  O50  1  0.384789  0.384386  0.148408  1
  O  O51  1  0.098453  0.098626  0.645091  1
  O  O52  1  0.901850  0.901218  0.355331  1
  O  O53  1  0.616604  0.616221  0.627705  1
  O  O54  1  0.382697  0.384324  0.373263  1
  O  O55  1  0.888384  0.363146  0.947604  1
  O  O56  1  0.642363  0.107764  0.054213  1
  O  O57  1  0.107987  0.641105  0.052072  1
  O  O58  1  0.360562  0.885640  0.948632  1
  O  O59  1  0.074335  0.655634  0.621627  1
  O  O60  1  0.344971  0.924722  0.378130  1
  O  O61  1  0.925445  0.345011  0.377988  1
  O  O62  1  0.655619  0.072909  0.621877  1
  O  O63  1  0.982061  0.503138  0.788504  1
  O  O64  1  0.497467  0.018928  0.212216  1
  O  O65  1  0.018529  0.497253  0.210878  1
  O  O66  1  0.502733  0.980538  0.789430  1
  O  O67  1  0.012055  0.459809  0.587357  1
  O  O68  1  0.540424  0.987752  0.412654  1
  O  O69  1  0.987731  0.540753  0.412613  1
  O  O70  1  0.459339  0.012559  0.586908  1
  O  O71  1  0.237624  0.750567  0.897196  1
  O  O72  1  0.248830  0.757837  0.103063  1
  O  O73  1  0.759039  0.250584  0.104073  1
  O  O74  1  0.754250  0.239466  0.897726  1
  O  O75  1  0.002629  0.499171  0.998705  1
  O  O76  1  0.497586  0.000362  0.000231  1
