# generated using pymatgen
data_Ca9TbSn6F2
_symmetry_space_group_name_H-M   'P 1'
_cell_length_a   9.46123075
_cell_length_b   9.46122989
_cell_length_c   9.46222035
_cell_angle_alpha   128.84129674
_cell_angle_beta   128.84130121
_cell_angle_gamma   75.18439332
_symmetry_Int_Tables_number   1
_chemical_formula_structural   Ca9TbSn6F2
_chemical_formula_sum   'Ca9 Tb1 Sn6 F2'
_cell_volume   500.45246838
_cell_formula_units_Z   1
loop_
 _symmetry_equiv_pos_site_id
 _symmetry_equiv_pos_as_xyz
  1  'x, y, z'
loop_
 _atom_site_type_symbol
 _atom_site_label
 _atom_site_symmetry_multiplicity
 _atom_site_fract_x
 _atom_site_fract_y
 _atom_site_fract_z
 _atom_site_occupancy
  Ca  Ca0  1  0.499121  0.502425  0.001263  1
  Ca  Ca1  1  0.002425  0.999121  0.001263  1
  Ca  Ca2  1  0.187561  0.687561  0.176997  1
  Ca  Ca3  1  0.007893  0.186179  0.498289  1
  Ca  Ca4  1  0.686179  0.507893  0.498289  1
  Ca  Ca5  1  0.491259  0.991259  0.182463  1
  Ca  Ca6  1  0.810383  0.310383  0.820201  1
  Ca  Ca7  1  0.988335  0.811684  0.498354  1
  Ca  Ca8  1  0.311684  0.488335  0.498354  1
  Tb  Tb9  1  0.514188  0.014188  0.823457  1
  Sn  Sn10  1  0.254821  0.244354  0.994377  1
  Sn  Sn11  1  0.744354  0.754821  0.994377  1
  Sn  Sn12  1  0.868898  0.368898  0.238961  1
  Sn  Sn13  1  0.125748  0.625748  0.751881  1
  Sn  Sn14  1  0.371497  0.128663  0.505606  1
  Sn  Sn15  1  0.628663  0.871497  0.505606  1
  F  F16  1  0.257032  0.757032  0.507991  1
  F  F17  1  0.749956  0.249956  0.502269  1
