# generated using pymatgen
data_Yb2SiP5Pd21
_symmetry_space_group_name_H-M   'P 1'
_cell_length_a   8.67969647
_cell_length_b   8.67934080
_cell_length_c   8.67934100
_cell_angle_alpha   60.00271665
_cell_angle_beta   59.99864499
_cell_angle_gamma   59.99864164
_symmetry_Int_Tables_number   1
_chemical_formula_structural   Yb2SiP5Pd21
_chemical_formula_sum   'Yb2 Si1 P5 Pd21'
_cell_volume   462.34167523
_cell_formula_units_Z   1
loop_
 _symmetry_equiv_pos_site_id
 _symmetry_equiv_pos_as_xyz
  1  'x, y, z'
loop_
 _atom_site_type_symbol
 _atom_site_label
 _atom_site_symmetry_multiplicity
 _atom_site_fract_x
 _atom_site_fract_y
 _atom_site_fract_z
 _atom_site_occupancy
  Yb  Yb0  1  0.749449  0.750551  0.750551  1
  Yb  Yb1  1  0.249449  0.250551  0.250551  1
  Si  Si2  1  0.260432  0.739568  0.739568  1
  P  P3  1  0.736250  0.738356  0.263750  1
  P  P4  1  0.261644  0.738356  0.263750  1
  P  P5  1  0.737689  0.262311  0.262311  1
  P  P6  1  0.261644  0.263750  0.738356  1
  P  P7  1  0.736250  0.263750  0.738356  1
  Pd  Pd8  1  0.002850  0.997150  0.997150  1
  Pd  Pd9  1  0.614387  0.614515  0.156713  1
  Pd  Pd10  1  0.614387  0.156713  0.614515  1
  Pd  Pd11  1  0.154980  0.614619  0.614619  1
  Pd  Pd12  1  0.615785  0.614619  0.614619  1
  Pd  Pd13  1  0.385381  0.384215  0.845020  1
  Pd  Pd14  1  0.385381  0.845020  0.384215  1
  Pd  Pd15  1  0.843287  0.385613  0.385613  1
  Pd  Pd16  1  0.385485  0.385613  0.385613  1
  Pd  Pd17  1  0.000211  0.999789  0.342945  1
  Pd  Pd18  1  0.657055  0.999789  0.342945  1
  Pd  Pd19  1  0.001327  0.655105  0.342241  1
  Pd  Pd20  1  0.657055  0.342945  0.999789  1
  Pd  Pd21  1  0.000211  0.342945  0.999789  1
  Pd  Pd22  1  0.001327  0.342241  0.655105  1
  Pd  Pd23  1  0.345730  0.654270  0.003015  1
  Pd  Pd24  1  0.345730  0.003015  0.654270  1
  Pd  Pd25  1  0.344895  0.998673  0.998673  1
  Pd  Pd26  1  0.996985  0.003015  0.654270  1
  Pd  Pd27  1  0.996985  0.654270  0.003015  1
  Pd  Pd28  1  0.657759  0.998673  0.998673  1
