# generated using pymatgen
data_Tb7Ce3(Zn2Ru3)2
_symmetry_space_group_name_H-M   'P 1'
_cell_length_a   8.42699642
_cell_length_b   8.42699598
_cell_length_c   8.42699771
_cell_angle_alpha   110.22540891
_cell_angle_beta   110.22541702
_cell_angle_gamma   110.22541225
_symmetry_Int_Tables_number   1
_chemical_formula_structural   Tb7Ce3(Zn2Ru3)2
_chemical_formula_sum   'Tb7 Ce3 Zn4 Ru6'
_cell_volume   447.35165096
_cell_formula_units_Z   1
loop_
 _symmetry_equiv_pos_site_id
 _symmetry_equiv_pos_as_xyz
  1  'x, y, z'
loop_
 _atom_site_type_symbol
 _atom_site_label
 _atom_site_symmetry_multiplicity
 _atom_site_fract_x
 _atom_site_fract_y
 _atom_site_fract_z
 _atom_site_occupancy
  Tb  Tb0  1  0.776088  0.776088  0.776088  1
  Tb  Tb1  1  0.315341  0.568174  0.753093  1
  Tb  Tb2  1  0.753093  0.315341  0.568174  1
  Tb  Tb3  1  0.568174  0.753093  0.315341  1
  Tb  Tb4  1  0.726370  0.505319  0.994463  1
  Tb  Tb5  1  0.994463  0.726370  0.505319  1
  Tb  Tb6  1  0.505319  0.994463  0.726370  1
  Ce  Ce7  1  0.252320  0.199263  0.943352  1
  Ce  Ce8  1  0.943352  0.252320  0.199263  1
  Ce  Ce9  1  0.199263  0.943352  0.252320  1
  Zn  Zn10  1  0.418829  0.418829  0.418829  1
  Zn  Zn11  1  0.090044  0.498177  0.003874  1
  Zn  Zn12  1  0.003874  0.090044  0.498177  1
  Zn  Zn13  1  0.498177  0.003874  0.090044  1
  Ru  Ru14  1  0.897857  0.113649  0.754081  1
  Ru  Ru15  1  0.754081  0.897857  0.113649  1
  Ru  Ru16  1  0.113649  0.754081  0.897857  1
  Ru  Ru17  1  0.220417  0.595528  0.373759  1
  Ru  Ru18  1  0.373759  0.220417  0.595528  1
  Ru  Ru19  1  0.595528  0.373759  0.220417  1
