# generated using pymatgen
data_Lu2ThGa9Tc2
_symmetry_space_group_name_H-M   'P 1'
_cell_length_a   8.20333779
_cell_length_b   8.20333907
_cell_length_c   8.20333806
_cell_angle_alpha   150.02974285
_cell_angle_beta   109.03688899
_cell_angle_gamma   78.90351991
_symmetry_Int_Tables_number   1
_chemical_formula_structural   Lu2ThGa9Tc2
_chemical_formula_sum   'Lu2 Th1 Ga9 Tc2'
_cell_volume   255.90122616
_cell_formula_units_Z   1
loop_
 _symmetry_equiv_pos_site_id
 _symmetry_equiv_pos_as_xyz
  1  'x, y, z'
loop_
 _atom_site_type_symbol
 _atom_site_label
 _atom_site_symmetry_multiplicity
 _atom_site_fract_x
 _atom_site_fract_y
 _atom_site_fract_z
 _atom_site_occupancy
  Lu  Lu0  1  0.195556  0.195556  0.000000  1
  Lu  Lu1  1  0.804444  0.804444  0.000000  1
  Th  Th2  1  0.500000  0.500000  0.000000  1
  Ga  Ga3  1  0.653317  0.365052  0.288265  1
  Ga  Ga4  1  0.346683  0.634948  0.711735  1
  Ga  Ga5  1  0.076788  0.365052  0.711735  1
  Ga  Ga6  1  0.923212  0.634948  0.288265  1
  Ga  Ga7  1  0.521657  0.156680  0.364976  1
  Ga  Ga8  1  0.478343  0.843320  0.635024  1
  Ga  Ga9  1  0.791703  0.156680  0.635024  1
  Ga  Ga10  1  0.208297  0.843320  0.364976  1
  Ga  Ga11  1  0.000000  0.500000  0.500000  1
  Tc  Tc12  1  0.176467  0.000000  0.176467  1
  Tc  Tc13  1  0.823533  0.000000  0.823533  1
