# generated using pymatgen
data_Hf6Al11Si5Ir6Rh
_symmetry_space_group_name_H-M   'P 1'
_cell_length_a   8.63082635
_cell_length_b   8.63082582
_cell_length_c   8.63082690
_cell_angle_alpha   59.91107497
_cell_angle_beta   59.91107391
_cell_angle_gamma   59.91107718
_symmetry_Int_Tables_number   1
_chemical_formula_structural   Hf6Al11Si5Ir6Rh
_chemical_formula_sum   'Hf6 Al11 Si5 Ir6 Rh1'
_cell_volume   453.69622522
_cell_formula_units_Z   1
loop_
 _symmetry_equiv_pos_site_id
 _symmetry_equiv_pos_as_xyz
  1  'x, y, z'
loop_
 _atom_site_type_symbol
 _atom_site_label
 _atom_site_symmetry_multiplicity
 _atom_site_fract_x
 _atom_site_fract_y
 _atom_site_fract_z
 _atom_site_occupancy
  Hf  Hf0  1  0.685446  0.313946  0.313946  1
  Hf  Hf1  1  0.314695  0.686687  0.686687  1
  Hf  Hf2  1  0.313946  0.685446  0.313946  1
  Hf  Hf3  1  0.313946  0.313946  0.685446  1
  Hf  Hf4  1  0.686687  0.314695  0.686687  1
  Hf  Hf5  1  0.686687  0.686687  0.314695  1
  Al  Al6  1  0.665305  0.665305  0.005867  1
  Al  Al7  1  0.665305  0.005867  0.665305  1
  Al  Al8  1  0.005867  0.665305  0.665305  1
  Al  Al9  1  0.120530  0.120530  0.120530  1
  Al  Al10  1  0.120345  0.120345  0.637646  1
  Al  Al11  1  0.637646  0.120345  0.120345  1
  Al  Al12  1  0.120345  0.637646  0.120345  1
  Al  Al13  1  0.881184  0.881184  0.881184  1
  Al  Al14  1  0.882542  0.882542  0.356638  1
  Al  Al15  1  0.882542  0.356638  0.882542  1
  Al  Al16  1  0.356638  0.882542  0.882542  1
  Si  Si17  1  0.344116  0.344116  0.344116  1
  Si  Si18  1  0.344468  0.344468  0.965949  1
  Si  Si19  1  0.965949  0.344468  0.344468  1
  Si  Si20  1  0.344468  0.965949  0.344468  1
  Si  Si21  1  0.662066  0.662066  0.662066  1
  Ir  Ir22  1  0.491679  0.007911  0.007911  1
  Ir  Ir23  1  0.001979  0.495020  0.495020  1
  Ir  Ir24  1  0.007911  0.491679  0.007911  1
  Ir  Ir25  1  0.007911  0.007911  0.491679  1
  Ir  Ir26  1  0.495020  0.001979  0.495020  1
  Ir  Ir27  1  0.495020  0.495020  0.001979  1
  Rh  Rh28  1  0.999754  0.999754  0.999754  1
