# generated using pymatgen
data_Tb3Y13Cd4Ir3Ru
_symmetry_space_group_name_H-M   'P 1'
_cell_length_a   9.69460495
_cell_length_b   9.70314262
_cell_length_c   9.70314345
_cell_angle_alpha   59.75801121
_cell_angle_beta   59.73752308
_cell_angle_gamma   59.73752905
_symmetry_Int_Tables_number   1
_chemical_formula_structural   Tb3Y13Cd4Ir3Ru
_chemical_formula_sum   'Tb3 Y13 Cd4 Ir3 Ru1'
_cell_volume   641.66944479
_cell_formula_units_Z   1
loop_
 _symmetry_equiv_pos_site_id
 _symmetry_equiv_pos_as_xyz
  1  'x, y, z'
loop_
 _atom_site_type_symbol
 _atom_site_label
 _atom_site_symmetry_multiplicity
 _atom_site_fract_x
 _atom_site_fract_y
 _atom_site_fract_z
 _atom_site_occupancy
  Tb  Tb0  1  0.348976  0.349107  0.349107  1
  Tb  Tb1  1  0.348362  0.348445  0.956443  1
  Tb  Tb2  1  0.348362  0.956443  0.348445  1
  Y  Y3  1  0.955153  0.348868  0.348868  1
  Y  Y4  1  0.811456  0.189022  0.189022  1
  Y  Y5  1  0.187853  0.809841  0.809841  1
  Y  Y6  1  0.188907  0.811391  0.188993  1
  Y  Y7  1  0.809782  0.188020  0.809797  1
  Y  Y8  1  0.188907  0.188993  0.811391  1
  Y  Y9  1  0.809782  0.809797  0.188020  1
  Y  Y10  1  0.939196  0.561185  0.561185  1
  Y  Y11  1  0.559911  0.937974  0.937974  1
  Y  Y12  1  0.561013  0.938984  0.561121  1
  Y  Y13  1  0.938040  0.560112  0.937535  1
  Y  Y14  1  0.561013  0.561121  0.938984  1
  Y  Y15  1  0.938040  0.937535  0.560112  1
  Cd  Cd16  1  0.579865  0.579680  0.579680  1
  Cd  Cd17  1  0.580958  0.580779  0.256922  1
  Cd  Cd18  1  0.580958  0.256922  0.580779  1
  Cd  Cd19  1  0.257043  0.580746  0.580746  1
  Ir  Ir20  1  0.144153  0.143600  0.576412  1
  Ir  Ir21  1  0.144153  0.576412  0.143600  1
  Ir  Ir22  1  0.576034  0.143923  0.143923  1
  Ru  Ru23  1  0.142090  0.141106  0.141106  1
