# generated using pymatgen
data_Ta7Nb3Si5Pt
_symmetry_space_group_name_H-M   'P 1'
_cell_length_a   7.56020330
_cell_length_b   7.56527424
_cell_length_c   7.56533117
_cell_angle_alpha   127.88077831
_cell_angle_beta   127.88056442
_cell_angle_gamma   76.76947972
_symmetry_Int_Tables_number   1
_chemical_formula_structural   Ta7Nb3Si5Pt
_chemical_formula_sum   'Ta7 Nb3 Si5 Pt1'
_cell_volume   261.83006660
_cell_formula_units_Z   1
loop_
 _symmetry_equiv_pos_site_id
 _symmetry_equiv_pos_as_xyz
  1  'x, y, z'
loop_
 _atom_site_type_symbol
 _atom_site_label
 _atom_site_symmetry_multiplicity
 _atom_site_fract_x
 _atom_site_fract_y
 _atom_site_fract_z
 _atom_site_occupancy
  Ta  Ta0  1  0.190680  0.682365  0.170971  1
  Ta  Ta1  1  0.988390  0.817362  0.507958  1
  Ta  Ta2  1  0.309360  0.480472  0.491749  1
  Ta  Ta3  1  0.480228  0.988092  0.170990  1
  Ta  Ta4  1  0.816941  0.308810  0.828845  1
  Ta  Ta5  1  0.999081  0.998720  0.999862  1
  Ta  Ta6  1  0.500936  0.501330  0.000127  1
  Nb  Nb7  1  0.021226  0.192207  0.510127  1
  Nb  Nb8  1  0.682192  0.511314  0.490168  1
  Nb  Nb9  1  0.511188  0.020697  0.828498  1
  Si  Si10  1  0.249601  0.249977  0.000056  1
  Si  Si11  1  0.370139  0.129617  0.499899  1
  Si  Si12  1  0.629678  0.870118  0.499936  1
  Si  Si13  1  0.870267  0.370162  0.240589  1
  Si  Si14  1  0.129783  0.629785  0.759590  1
  Pt  Pt15  1  0.750310  0.748972  0.000635  1
