# generated using pymatgen
data_Yb3PrOs8
_symmetry_space_group_name_H-M   'P 1'
_cell_length_a   5.31613700
_cell_length_b   5.31613565
_cell_length_c   8.86967600
_cell_angle_alpha   90.00000000
_cell_angle_beta   90.00000000
_cell_angle_gamma   119.99998973
_symmetry_Int_Tables_number   1
_chemical_formula_structural   Yb3PrOs8
_chemical_formula_sum   'Yb3 Pr1 Os8'
_cell_volume   217.08541748
_cell_formula_units_Z   1
loop_
 _symmetry_equiv_pos_site_id
 _symmetry_equiv_pos_as_xyz
  1  'x, y, z'
loop_
 _atom_site_type_symbol
 _atom_site_label
 _atom_site_symmetry_multiplicity
 _atom_site_fract_x
 _atom_site_fract_y
 _atom_site_fract_z
 _atom_site_occupancy
  Yb  Yb0  1  0.666667  0.333333  0.568332  1
  Yb  Yb1  1  0.666667  0.333333  0.935096  1
  Yb  Yb2  1  0.333333  0.666667  0.060332  1
  Pr  Pr3  1  0.333333  0.666667  0.436777  1
  Os  Os4  1  0.000000  0.000000  0.500981  1
  Os  Os5  1  0.000000  0.000000  0.000892  1
  Os  Os6  1  0.827720  0.172280  0.246088  1
  Os  Os7  1  0.827720  0.655439  0.246088  1
  Os  Os8  1  0.344561  0.172280  0.246088  1
  Os  Os9  1  0.171330  0.828670  0.753108  1
  Os  Os10  1  0.171330  0.342661  0.753108  1
  Os  Os11  1  0.657339  0.828670  0.753108  1
