# generated using pymatgen
data_Ho2LuCo8P6W
_symmetry_space_group_name_H-M   'P 1'
_cell_length_a   3.70109900
_cell_length_b   10.52380600
_cell_length_c   12.18391500
_cell_angle_alpha   90.00000000
_cell_angle_beta   90.00000000
_cell_angle_gamma   90.00000000
_symmetry_Int_Tables_number   1
_chemical_formula_structural   Ho2LuCo8P6W
_chemical_formula_sum   'Ho4 Lu2 Co16 P12 W2'
_cell_volume   474.55919884
_cell_formula_units_Z   2
loop_
 _symmetry_equiv_pos_site_id
 _symmetry_equiv_pos_as_xyz
  1  'x, y, z'
loop_
 _atom_site_type_symbol
 _atom_site_label
 _atom_site_symmetry_multiplicity
 _atom_site_fract_x
 _atom_site_fract_y
 _atom_site_fract_z
 _atom_site_occupancy
  Ho  Ho0  1  0.000000  0.500000  0.524548  1
  Ho  Ho1  1  0.500000  0.000000  0.474779  1
  Ho  Ho2  1  0.000000  0.680534  0.795073  1
  Ho  Ho3  1  0.000000  0.319466  0.795073  1
  Lu  Lu4  1  0.500000  0.820064  0.204920  1
  Lu  Lu5  1  0.500000  0.179936  0.204920  1
  Co  Co6  1  0.000000  0.500000  0.987943  1
  Co  Co7  1  0.500000  0.000000  0.014156  1
  Co  Co8  1  0.500000  0.295602  0.430341  1
  Co  Co9  1  0.500000  0.704398  0.430341  1
  Co  Co10  1  0.000000  0.203897  0.567666  1
  Co  Co11  1  0.000000  0.796103  0.567666  1
  Co  Co12  1  0.500000  0.878093  0.706868  1
  Co  Co13  1  0.500000  0.121907  0.706868  1
  Co  Co14  1  0.000000  0.622831  0.292194  1
  Co  Co15  1  0.000000  0.377169  0.292194  1
  Co  Co16  1  0.500000  0.332208  0.991403  1
  Co  Co17  1  0.500000  0.667792  0.991403  1
  Co  Co18  1  0.000000  0.166870  0.011041  1
  Co  Co19  1  0.000000  0.833130  0.011041  1
  Co  Co20  1  0.500000  0.500000  0.701065  1
  Co  Co21  1  0.000000  0.000000  0.297935  1
  P  P22  1  0.500000  0.311480  0.615465  1
  P  P23  1  0.500000  0.688520  0.615465  1
  P  P24  1  0.000000  0.187747  0.382347  1
  P  P25  1  0.000000  0.812253  0.382347  1
  P  P26  1  0.500000  0.500000  0.880957  1
  P  P27  1  0.000000  0.000000  0.120957  1
  P  P28  1  0.500000  0.844093  0.892694  1
  P  P29  1  0.500000  0.155907  0.892694  1
  P  P30  1  0.000000  0.657182  0.108668  1
  P  P31  1  0.000000  0.342818  0.108668  1
  P  P32  1  0.500000  0.500000  0.351028  1
  P  P33  1  0.000000  0.000000  0.648786  1
  W  W34  1  0.500000  0.500000  0.156950  1
  W  W35  1  0.000000  0.000000  0.843535  1
