# generated using pymatgen
data_LiSm2Si2(PPd5)4
_symmetry_space_group_name_H-M   'P 1'
_cell_length_a   8.66547433
_cell_length_b   8.67566518
_cell_length_c   8.67566498
_cell_angle_alpha   59.92230034
_cell_angle_beta   60.03884911
_cell_angle_gamma   60.03884820
_symmetry_Int_Tables_number   1
_chemical_formula_structural   LiSm2Si2(PPd5)4
_chemical_formula_sum   'Li1 Sm2 Si2 P4 Pd20'
_cell_volume   461.19192337
_cell_formula_units_Z   1
loop_
 _symmetry_equiv_pos_site_id
 _symmetry_equiv_pos_as_xyz
  1  'x, y, z'
loop_
 _atom_site_type_symbol
 _atom_site_label
 _atom_site_symmetry_multiplicity
 _atom_site_fract_x
 _atom_site_fract_y
 _atom_site_fract_z
 _atom_site_occupancy
  Li  Li0  1  0.000000  0.000000  0.000000  1
  Sm  Sm1  1  0.250000  0.250000  0.250000  1
  Sm  Sm2  1  0.750000  0.750000  0.750000  1
  Si  Si3  1  0.738172  0.261828  0.261828  1
  Si  Si4  1  0.261828  0.738172  0.738172  1
  P  P5  1  0.261696  0.738304  0.261696  1
  P  P6  1  0.738304  0.261696  0.738304  1
  P  P7  1  0.261696  0.261696  0.738304  1
  P  P8  1  0.738304  0.738304  0.261696  1
  Pd  Pd9  1  0.384537  0.386007  0.386007  1
  Pd  Pd10  1  0.615463  0.613993  0.613993  1
  Pd  Pd11  1  0.386007  0.384537  0.843449  1
  Pd  Pd12  1  0.386007  0.843449  0.384537  1
  Pd  Pd13  1  0.613993  0.615463  0.156551  1
  Pd  Pd14  1  0.613993  0.156551  0.615463  1
  Pd  Pd15  1  0.843449  0.386007  0.386007  1
  Pd  Pd16  1  0.156551  0.613993  0.613993  1
  Pd  Pd17  1  0.343814  0.000000  0.000000  1
  Pd  Pd18  1  0.656186  0.000000  0.000000  1
  Pd  Pd19  1  0.000000  0.343814  0.656186  1
  Pd  Pd20  1  0.000000  0.656186  0.343814  1
  Pd  Pd21  1  0.001734  0.345354  0.998266  1
  Pd  Pd22  1  0.654646  0.998266  0.345354  1
  Pd  Pd23  1  0.998266  0.654646  0.001734  1
  Pd  Pd24  1  0.345354  0.001734  0.654646  1
  Pd  Pd25  1  0.001734  0.998266  0.345354  1
  Pd  Pd26  1  0.998266  0.001734  0.654646  1
  Pd  Pd27  1  0.654646  0.345354  0.998266  1
  Pd  Pd28  1  0.345354  0.654646  0.001734  1
