# generated using pymatgen
data_Gd4PdPt2Au
_symmetry_space_group_name_H-M   'P 1'
_cell_length_a   4.73202800
_cell_length_b   5.72837864
_cell_length_c   7.14700300
_cell_angle_alpha   90.13387815
_cell_angle_beta   90.00000000
_cell_angle_gamma   90.00000000
_symmetry_Int_Tables_number   1
_chemical_formula_structural   Gd4PdPt2Au
_chemical_formula_sum   'Gd4 Pd1 Pt2 Au1'
_cell_volume   193.73219589
_cell_formula_units_Z   1
loop_
 _symmetry_equiv_pos_site_id
 _symmetry_equiv_pos_as_xyz
  1  'x, y, z'
loop_
 _atom_site_type_symbol
 _atom_site_label
 _atom_site_symmetry_multiplicity
 _atom_site_fract_x
 _atom_site_fract_y
 _atom_site_fract_z
 _atom_site_occupancy
  Gd  Gd0  1  0.250000  0.358463  0.692434  1
  Gd  Gd1  1  0.250000  0.144498  0.174474  1
  Gd  Gd2  1  0.750000  0.634375  0.306317  1
  Gd  Gd3  1  0.750000  0.857785  0.827862  1
  Pd  Pd4  1  0.750000  0.149121  0.461876  1
  Pt  Pt5  1  0.250000  0.659221  0.042536  1
  Pt  Pt6  1  0.750000  0.342348  0.955582  1
  Au  Au7  1  0.250000  0.854191  0.538918  1
