# generated using pymatgen
data_Ho5Tm5(IrOs)2
_symmetry_space_group_name_H-M   'P 1'
_cell_length_a   6.37006337
_cell_length_b   7.28449878
_cell_length_c   8.36906734
_cell_angle_alpha   96.82902144
_cell_angle_beta   112.54651023
_cell_angle_gamma   90.06162051
_symmetry_Int_Tables_number   1
_chemical_formula_structural   Ho5Tm5(IrOs)2
_chemical_formula_sum   'Ho5 Tm5 Ir2 Os2'
_cell_volume   355.65947831
_cell_formula_units_Z   1
loop_
 _symmetry_equiv_pos_site_id
 _symmetry_equiv_pos_as_xyz
  1  'x, y, z'
loop_
 _atom_site_type_symbol
 _atom_site_label
 _atom_site_symmetry_multiplicity
 _atom_site_fract_x
 _atom_site_fract_y
 _atom_site_fract_z
 _atom_site_occupancy
  Ho  Ho0  1  0.969895  0.916880  0.180368  1
  Ho  Ho1  1  0.788462  0.582690  0.819517  1
  Ho  Ho2  1  0.025877  0.082374  0.815288  1
  Ho  Ho3  1  0.210684  0.418279  0.185148  1
  Ho  Ho4  1  0.651617  0.817244  0.439844  1
  Tm  Tm5  1  0.211708  0.682314  0.560414  1
  Tm  Tm6  1  0.352328  0.179260  0.562818  1
  Tm  Tm7  1  0.790388  0.320570  0.437482  1
  Tm  Tm8  1  0.423218  0.749967  0.999427  1
  Tm  Tm9  1  0.577046  0.249842  0.000180  1
  Ir  Ir10  1  0.175278  0.423533  0.778330  1
  Ir  Ir11  1  0.395579  0.077416  0.220221  1
  Os  Os12  1  0.822995  0.574481  0.217494  1
  Os  Os13  1  0.604925  0.925151  0.783469  1
