# generated using pymatgen
data_Dy2Tm2Si6PtRh
_symmetry_space_group_name_H-M   'P 1'
_cell_length_a   8.15923000
_cell_length_b   8.15922997
_cell_length_c   7.88243500
_cell_angle_alpha   90.00000000
_cell_angle_beta   90.00000000
_cell_angle_gamma   119.99999201
_symmetry_Int_Tables_number   1
_chemical_formula_structural   Dy2Tm2Si6PtRh
_chemical_formula_sum   'Dy4 Tm4 Si12 Pt2 Rh2'
_cell_volume   454.45346026
_cell_formula_units_Z   2
loop_
 _symmetry_equiv_pos_site_id
 _symmetry_equiv_pos_as_xyz
  1  'x, y, z'
loop_
 _atom_site_type_symbol
 _atom_site_label
 _atom_site_symmetry_multiplicity
 _atom_site_fract_x
 _atom_site_fract_y
 _atom_site_fract_z
 _atom_site_occupancy
  Dy  Dy0  1  0.000000  0.000000  0.750000  1
  Dy  Dy1  1  0.509179  0.018357  0.750000  1
  Dy  Dy2  1  0.509179  0.490821  0.750000  1
  Dy  Dy3  1  0.981643  0.490821  0.750000  1
  Tm  Tm4  1  0.000000  0.000000  0.250000  1
  Tm  Tm5  1  0.015462  0.507730  0.250000  1
  Tm  Tm6  1  0.492270  0.507730  0.250000  1
  Tm  Tm7  1  0.492270  0.984538  0.250000  1
  Si  Si8  1  0.164000  0.327999  0.002827  1
  Si  Si9  1  0.672001  0.836000  0.002827  1
  Si  Si10  1  0.164000  0.327999  0.497173  1
  Si  Si11  1  0.336304  0.168153  0.002464  1
  Si  Si12  1  0.164000  0.836000  0.002827  1
  Si  Si13  1  0.672001  0.836000  0.497173  1
  Si  Si14  1  0.831847  0.663696  0.002464  1
  Si  Si15  1  0.336304  0.168153  0.497536  1
  Si  Si16  1  0.164000  0.836000  0.497173  1
  Si  Si17  1  0.831847  0.663696  0.497536  1
  Si  Si18  1  0.831847  0.168153  0.002464  1
  Si  Si19  1  0.831847  0.168153  0.497536  1
  Pt  Pt20  1  0.333333  0.666667  0.979171  1
  Pt  Pt21  1  0.333333  0.666667  0.520829  1
  Rh  Rh22  1  0.666667  0.333333  0.044355  1
  Rh  Rh23  1  0.666667  0.333333  0.455645  1
