# generated using pymatgen
data_Sc4CrFeB12
_symmetry_space_group_name_H-M   'P 1'
_cell_length_a   3.35401400
_cell_length_b   8.85124344
_cell_length_c   11.15556428
_cell_angle_alpha   89.81622296
_cell_angle_beta   90.00000000
_cell_angle_gamma   90.00000000
_symmetry_Int_Tables_number   1
_chemical_formula_structural   Sc4CrFeB12
_chemical_formula_sum   'Sc8 Cr2 Fe2 B24'
_cell_volume   331.17570183
_cell_formula_units_Z   2
loop_
 _symmetry_equiv_pos_site_id
 _symmetry_equiv_pos_as_xyz
  1  'x, y, z'
loop_
 _atom_site_type_symbol
 _atom_site_label
 _atom_site_symmetry_multiplicity
 _atom_site_fract_x
 _atom_site_fract_y
 _atom_site_fract_z
 _atom_site_occupancy
  Sc  Sc0  1  0.000000  0.821236  0.085596  1
  Sc  Sc1  1  0.000000  0.178764  0.914404  1
  Sc  Sc2  1  0.000000  0.322355  0.414648  1
  Sc  Sc3  1  0.000000  0.677645  0.585352  1
  Sc  Sc4  1  0.000000  0.442787  0.129627  1
  Sc  Sc5  1  0.000000  0.557213  0.870373  1
  Sc  Sc6  1  0.000000  0.944077  0.369967  1
  Sc  Sc7  1  0.000000  0.055923  0.630033  1
  Cr  Cr8  1  0.000000  0.640538  0.318758  1
  Cr  Cr9  1  0.000000  0.359462  0.681242  1
  Fe  Fe10  1  0.000000  0.140152  0.179985  1
  Fe  Fe11  1  0.000000  0.859848  0.820015  1
  B  B12  1  0.500000  0.054520  0.066012  1
  B  B13  1  0.500000  0.945480  0.933988  1
  B  B14  1  0.500000  0.553201  0.434409  1
  B  B15  1  0.500000  0.446799  0.565591  1
  B  B16  1  0.500000  0.250142  0.080810  1
  B  B17  1  0.500000  0.749858  0.919190  1
  B  B18  1  0.500000  0.751646  0.420478  1
  B  B19  1  0.500000  0.248354  0.579522  1
  B  B20  1  0.500000  0.292623  0.235649  1
  B  B21  1  0.500000  0.707377  0.764351  1
  B  B22  1  0.500000  0.795884  0.262856  1
  B  B23  1  0.500000  0.204116  0.737144  1
  B  B24  1  0.500000  0.130731  0.315765  1
  B  B25  1  0.500000  0.869269  0.684235  1
  B  B26  1  0.500000  0.631187  0.182348  1
  B  B27  1  0.500000  0.368813  0.817652  1
  B  B28  1  0.500000  0.479579  0.287848  1
  B  B29  1  0.500000  0.520421  0.712152  1
  B  B30  1  0.500000  0.983211  0.211245  1
  B  B31  1  0.500000  0.016789  0.788755  1
  B  B32  1  0.500000  0.100339  0.472144  1
  B  B33  1  0.500000  0.899661  0.527856  1
  B  B34  1  0.500000  0.600846  0.026967  1
  B  B35  1  0.500000  0.399154  0.973033  1
