# generated using pymatgen
data_BaNd2FeH12Ir
_symmetry_space_group_name_H-M   'P 1'
_cell_length_a   5.05179600
_cell_length_b   5.05179679
_cell_length_c   8.73307700
_cell_angle_alpha   90.00000000
_cell_angle_beta   90.00000000
_cell_angle_gamma   120.00000795
_symmetry_Int_Tables_number   1
_chemical_formula_structural   BaNd2FeH12Ir
_chemical_formula_sum   'Ba1 Nd2 Fe1 H12 Ir1'
_cell_volume   193.01433424
_cell_formula_units_Z   1
loop_
 _symmetry_equiv_pos_site_id
 _symmetry_equiv_pos_as_xyz
  1  'x, y, z'
loop_
 _atom_site_type_symbol
 _atom_site_label
 _atom_site_symmetry_multiplicity
 _atom_site_fract_x
 _atom_site_fract_y
 _atom_site_fract_z
 _atom_site_occupancy
  Ba  Ba0  1  0.000000  0.000000  0.983606  1
  Nd  Nd1  1  0.666667  0.333333  0.379131  1
  Nd  Nd2  1  0.333333  0.666667  0.647879  1
  Fe  Fe3  1  0.666667  0.333333  0.729520  1
  H  H4  1  0.172305  0.827695  0.379136  1
  H  H5  1  0.655392  0.827695  0.379136  1
  H  H6  1  0.172305  0.344608  0.379136  1
  H  H7  1  0.819189  0.180811  0.624620  1
  H  H8  1  0.361623  0.180811  0.624620  1
  H  H9  1  0.819189  0.638377  0.624620  1
  H  H10  1  0.518648  0.037297  0.841835  1
  H  H11  1  0.518648  0.481352  0.841835  1
  H  H12  1  0.962703  0.481352  0.841835  1
  H  H13  1  0.488351  0.976701  0.151775  1
  H  H14  1  0.488351  0.511649  0.151775  1
  H  H15  1  0.023299  0.511649  0.151775  1
  Ir  Ir16  1  0.333333  0.666667  0.267768  1
