# generated using pymatgen
data_Fe5Si7(BMo6)2
_symmetry_space_group_name_H-M   'P 1'
_cell_length_a   7.76557934
_cell_length_b   7.76557936
_cell_length_c   7.76557865
_cell_angle_alpha   60.43514972
_cell_angle_beta   60.43515252
_cell_angle_gamma   60.43514978
_symmetry_Int_Tables_number   1
_chemical_formula_structural   Fe5Si7(BMo6)2
_chemical_formula_sum   'Fe5 Si7 B2 Mo12'
_cell_volume   334.39400200
_cell_formula_units_Z   1
loop_
 _symmetry_equiv_pos_site_id
 _symmetry_equiv_pos_as_xyz
  1  'x, y, z'
loop_
 _atom_site_type_symbol
 _atom_site_label
 _atom_site_symmetry_multiplicity
 _atom_site_fract_x
 _atom_site_fract_y
 _atom_site_fract_z
 _atom_site_occupancy
  Fe  Fe0  1  0.835685  0.835685  0.835685  1
  Fe  Fe1  1  0.620552  0.620552  0.132773  1
  Fe  Fe2  1  0.620552  0.132773  0.620552  1
  Fe  Fe3  1  0.132773  0.620552  0.620552  1
  Fe  Fe4  1  0.625428  0.625428  0.625428  1
  Si  Si5  1  0.415263  0.415263  0.754971  1
  Si  Si6  1  0.415263  0.754971  0.415263  1
  Si  Si7  1  0.754971  0.415263  0.415263  1
  Si  Si8  1  0.413960  0.413960  0.413960  1
  Si  Si9  1  0.834502  0.834502  0.502371  1
  Si  Si10  1  0.834502  0.502371  0.834502  1
  Si  Si11  1  0.502371  0.834502  0.834502  1
  B  B12  1  0.247590  0.247590  0.247590  1
  B  B13  1  0.001990  0.001990  0.001990  1
  Mo  Mo14  1  0.048706  0.048706  0.450080  1
  Mo  Mo15  1  0.446583  0.051997  0.446583  1
  Mo  Mo16  1  0.051997  0.446583  0.446583  1
  Mo  Mo17  1  0.446583  0.446583  0.051997  1
  Mo  Mo18  1  0.048706  0.450080  0.048706  1
  Mo  Mo19  1  0.450080  0.048706  0.048706  1
  Mo  Mo20  1  0.197979  0.197979  0.803632  1
  Mo  Mo21  1  0.805416  0.191520  0.805416  1
  Mo  Mo22  1  0.191520  0.805416  0.805416  1
  Mo  Mo23  1  0.805416  0.805416  0.191520  1
  Mo  Mo24  1  0.197979  0.803632  0.197979  1
  Mo  Mo25  1  0.803632  0.197979  0.197979  1
