# generated using pymatgen
data_Y3Lu7AlSb5
_symmetry_space_group_name_H-M   'P 1'
_cell_length_a   6.27073900
_cell_length_b   8.82880375
_cell_length_c   8.79200441
_cell_angle_alpha   119.87756968
_cell_angle_beta   89.99961400
_cell_angle_gamma   90.00021897
_symmetry_Int_Tables_number   1
_chemical_formula_structural   Y3Lu7AlSb5
_chemical_formula_sum   'Y3 Lu7 Al1 Sb5'
_cell_volume   422.05940338
_cell_formula_units_Z   1
loop_
 _symmetry_equiv_pos_site_id
 _symmetry_equiv_pos_as_xyz
  1  'x, y, z'
loop_
 _atom_site_type_symbol
 _atom_site_label
 _atom_site_symmetry_multiplicity
 _atom_site_fract_x
 _atom_site_fract_y
 _atom_site_fract_z
 _atom_site_occupancy
  Y  Y0  1  0.750007  0.989558  0.234702  1
  Y  Y1  1  0.250007  0.246495  0.244104  1
  Y  Y2  1  0.249999  0.001893  0.758181  1
  Lu  Lu3  1  0.501994  0.337991  0.673132  1
  Lu  Lu4  1  0.501800  0.666237  0.326452  1
  Lu  Lu5  1  0.998199  0.666233  0.326436  1
  Lu  Lu6  1  0.998015  0.337992  0.673133  1
  Lu  Lu7  1  0.749996  0.248400  0.999673  1
  Lu  Lu8  1  0.749983  0.751935  0.763883  1
  Lu  Lu9  1  0.250003  0.756064  0.999602  1
  Al  Al10  1  0.749994  0.600663  0.999722  1
  Sb  Sb11  1  0.750003  0.389671  0.389610  1
  Sb  Sb12  1  0.750002  0.997642  0.610831  1
  Sb  Sb13  1  0.250005  0.397387  0.000139  1
  Sb  Sb14  1  0.249995  0.610088  0.608792  1
  Sb  Sb15  1  0.250002  0.001754  0.391606  1
