# generated using pymatgen
data_Zr16Co4PtRh3
_symmetry_space_group_name_H-M   'P 1'
_cell_length_a   8.70353369
_cell_length_b   8.70247958
_cell_length_c   8.70247900
_cell_angle_alpha   60.00000601
_cell_angle_beta   60.00401229
_cell_angle_gamma   60.00401664
_symmetry_Int_Tables_number   1
_chemical_formula_structural   Zr16Co4PtRh3
_chemical_formula_sum   'Zr16 Co4 Pt1 Rh3'
_cell_volume   466.11489678
_cell_formula_units_Z   1
loop_
 _symmetry_equiv_pos_site_id
 _symmetry_equiv_pos_as_xyz
  1  'x, y, z'
loop_
 _atom_site_type_symbol
 _atom_site_label
 _atom_site_symmetry_multiplicity
 _atom_site_fract_x
 _atom_site_fract_y
 _atom_site_fract_z
 _atom_site_occupancy
  Zr  Zr0  1  0.062708  0.645831  0.645749  1
  Zr  Zr1  1  0.644992  0.064361  0.645346  1
  Zr  Zr2  1  0.644967  0.645386  0.064377  1
  Zr  Zr3  1  0.644934  0.645345  0.645281  1
  Zr  Zr4  1  0.805360  0.805789  0.194401  1
  Zr  Zr5  1  0.194068  0.193974  0.805977  1
  Zr  Zr6  1  0.805354  0.194381  0.805825  1
  Zr  Zr7  1  0.194077  0.805961  0.193986  1
  Zr  Zr8  1  0.194018  0.805999  0.806015  1
  Zr  Zr9  1  0.805323  0.194431  0.194439  1
  Zr  Zr10  1  0.436570  0.436180  0.063635  1
  Zr  Zr11  1  0.066912  0.061199  0.435945  1
  Zr  Zr12  1  0.436527  0.063657  0.436179  1
  Zr  Zr13  1  0.066859  0.435947  0.061174  1
  Zr  Zr14  1  0.066869  0.435956  0.436022  1
  Zr  Zr15  1  0.436493  0.063682  0.063685  1
  Co  Co16  1  0.428608  0.857121  0.857132  1
  Co  Co17  1  0.856922  0.428084  0.857493  1
  Co  Co18  1  0.856889  0.857449  0.428212  1
  Co  Co19  1  0.856872  0.857446  0.857430  1
  Pt  Pt20  1  0.749435  0.416880  0.416827  1
  Rh  Rh21  1  0.415087  0.752370  0.416264  1
  Rh  Rh22  1  0.415072  0.416294  0.752364  1
  Rh  Rh23  1  0.415086  0.416278  0.416241  1
