# generated using pymatgen
data_Ho3Co7(P3Rh)2
_symmetry_space_group_name_H-M   'P 1'
_cell_length_a   3.73845300
_cell_length_b   10.68284500
_cell_length_c   12.39373200
_cell_angle_alpha   90.00000000
_cell_angle_beta   90.00000000
_cell_angle_gamma   90.00000000
_symmetry_Int_Tables_number   1
_chemical_formula_structural   Ho3Co7(P3Rh)2
_chemical_formula_sum   'Ho6 Co14 P12 Rh4'
_cell_volume   494.97236576
_cell_formula_units_Z   2
loop_
 _symmetry_equiv_pos_site_id
 _symmetry_equiv_pos_as_xyz
  1  'x, y, z'
loop_
 _atom_site_type_symbol
 _atom_site_label
 _atom_site_symmetry_multiplicity
 _atom_site_fract_x
 _atom_site_fract_y
 _atom_site_fract_z
 _atom_site_occupancy
  Ho  Ho0  1  0.000000  0.500000  0.520184  1
  Ho  Ho1  1  0.500000  0.000000  0.479816  1
  Ho  Ho2  1  0.500000  0.813951  0.205839  1
  Ho  Ho3  1  0.500000  0.186049  0.205839  1
  Ho  Ho4  1  0.000000  0.686049  0.794161  1
  Ho  Ho5  1  0.000000  0.313951  0.794161  1
  Co  Co6  1  0.000000  0.500000  0.988183  1
  Co  Co7  1  0.500000  0.000000  0.011817  1
  Co  Co8  1  0.500000  0.300350  0.429521  1
  Co  Co9  1  0.500000  0.699650  0.429521  1
  Co  Co10  1  0.000000  0.199650  0.570479  1
  Co  Co11  1  0.000000  0.800350  0.570479  1
  Co  Co12  1  0.500000  0.880180  0.709840  1
  Co  Co13  1  0.500000  0.119820  0.709840  1
  Co  Co14  1  0.000000  0.619820  0.290160  1
  Co  Co15  1  0.000000  0.380180  0.290160  1
  Co  Co16  1  0.500000  0.332120  0.993752  1
  Co  Co17  1  0.500000  0.667880  0.993752  1
  Co  Co18  1  0.000000  0.167880  0.006248  1
  Co  Co19  1  0.000000  0.832120  0.006248  1
  P  P20  1  0.500000  0.302162  0.613445  1
  P  P21  1  0.500000  0.697838  0.613445  1
  P  P22  1  0.000000  0.197838  0.386555  1
  P  P23  1  0.000000  0.802162  0.386555  1
  P  P24  1  0.500000  0.500000  0.889795  1
  P  P25  1  0.000000  0.000000  0.110205  1
  P  P26  1  0.500000  0.844283  0.894523  1
  P  P27  1  0.500000  0.155717  0.894523  1
  P  P28  1  0.000000  0.655717  0.105477  1
  P  P29  1  0.000000  0.344283  0.105477  1
  P  P30  1  0.500000  0.500000  0.350150  1
  P  P31  1  0.000000  0.000000  0.649850  1
  Rh  Rh32  1  0.500000  0.500000  0.160329  1
  Rh  Rh33  1  0.000000  0.000000  0.839671  1
  Rh  Rh34  1  0.500000  0.500000  0.703182  1
  Rh  Rh35  1  0.000000  0.000000  0.296818  1
