# generated using pymatgen
data_LaTh2Zn4Pt3Rh
_symmetry_space_group_name_H-M   'P 1'
_cell_length_a   8.42647820
_cell_length_b   8.42647836
_cell_length_c   8.42647780
_cell_angle_alpha   152.52348767
_cell_angle_beta   124.79600019
_cell_angle_gamma   62.75113982
_symmetry_Int_Tables_number   1
_chemical_formula_structural   LaTh2Zn4Pt3Rh
_chemical_formula_sum   'La1 Th2 Zn4 Pt3 Rh1'
_cell_volume   224.83694486
_cell_formula_units_Z   1
loop_
 _symmetry_equiv_pos_site_id
 _symmetry_equiv_pos_as_xyz
  1  'x, y, z'
loop_
 _atom_site_type_symbol
 _atom_site_label
 _atom_site_symmetry_multiplicity
 _atom_site_fract_x
 _atom_site_fract_y
 _atom_site_fract_z
 _atom_site_occupancy
  La  La0  1  0.497961  0.997961  0.500000  1
  Th  Th1  1  0.874582  0.874582  0.000000  1
  Th  Th2  1  0.130598  0.130598  0.000000  1
  Zn  Zn3  1  0.477209  0.675144  0.802065  1
  Zn  Zn4  1  0.873079  0.675144  0.197935  1
  Zn  Zn5  1  0.131621  0.325744  0.805877  1
  Zn  Zn6  1  0.519867  0.325744  0.194123  1
  Pt  Pt7  1  0.722091  0.222091  0.500000  1
  Pt  Pt8  1  0.807548  0.499639  0.307909  1
  Pt  Pt9  1  0.191730  0.499639  0.692091  1
  Rh  Rh10  1  0.273715  0.773715  0.500000  1
