# generated using pymatgen
data_Nd4Pd2PtAu
_symmetry_space_group_name_H-M   'P 1'
_cell_length_a   4.72332200
_cell_length_b   5.74206304
_cell_length_c   7.38890517
_cell_angle_alpha   90.53731946
_cell_angle_beta   90.00000000
_cell_angle_gamma   90.00000000
_symmetry_Int_Tables_number   1
_chemical_formula_structural   Nd4Pd2PtAu
_chemical_formula_sum   'Nd4 Pd2 Pt1 Au1'
_cell_volume   200.39021214
_cell_formula_units_Z   1
loop_
 _symmetry_equiv_pos_site_id
 _symmetry_equiv_pos_as_xyz
  1  'x, y, z'
loop_
 _atom_site_type_symbol
 _atom_site_label
 _atom_site_symmetry_multiplicity
 _atom_site_fract_x
 _atom_site_fract_y
 _atom_site_fract_z
 _atom_site_occupancy
  Nd  Nd0  1  0.000000  0.112289  0.693133  1
  Nd  Nd1  1  0.000000  0.894488  0.175910  1
  Nd  Nd2  1  0.500000  0.389425  0.311407  1
  Nd  Nd3  1  0.500000  0.608497  0.820254  1
  Pd  Pd4  1  0.000000  0.600598  0.539118  1
  Pd  Pd5  1  0.000000  0.404669  0.042701  1
  Pt  Pt6  1  0.500000  0.096903  0.957931  1
  Au  Au7  1  0.500000  0.893130  0.459546  1
