# generated using pymatgen
data_ErTmLu2(B6Os)2
_symmetry_space_group_name_H-M   'P 1'
_cell_length_a   3.60543100
_cell_length_b   9.04693803
_cell_length_c   11.42005303
_cell_angle_alpha   90.00885700
_cell_angle_beta   90.00000000
_cell_angle_gamma   90.00000000
_symmetry_Int_Tables_number   1
_chemical_formula_structural   ErTmLu2(B6Os)2
_chemical_formula_sum   'Er2 Tm2 Lu4 B24 Os4'
_cell_volume   372.50055096
_cell_formula_units_Z   2
loop_
 _symmetry_equiv_pos_site_id
 _symmetry_equiv_pos_as_xyz
  1  'x, y, z'
loop_
 _atom_site_type_symbol
 _atom_site_label
 _atom_site_symmetry_multiplicity
 _atom_site_fract_x
 _atom_site_fract_y
 _atom_site_fract_z
 _atom_site_occupancy
  Er  Er0  1  0.000000  0.321137  0.413909  1
  Er  Er1  1  0.000000  0.678863  0.586091  1
  Tm  Tm2  1  0.000000  0.821104  0.086014  1
  Tm  Tm3  1  0.000000  0.178896  0.913986  1
  Lu  Lu4  1  0.000000  0.944213  0.373234  1
  Lu  Lu5  1  0.000000  0.055787  0.626766  1
  Lu  Lu6  1  0.000000  0.444355  0.126647  1
  Lu  Lu7  1  0.000000  0.555645  0.873353  1
  B  B8  1  0.500000  0.554051  0.433380  1
  B  B9  1  0.500000  0.445949  0.566620  1
  B  B10  1  0.500000  0.053907  0.066402  1
  B  B11  1  0.500000  0.946093  0.933598  1
  B  B12  1  0.500000  0.749598  0.420114  1
  B  B13  1  0.500000  0.250402  0.579886  1
  B  B14  1  0.500000  0.249494  0.079657  1
  B  B15  1  0.500000  0.750506  0.920343  1
  B  B16  1  0.500000  0.792371  0.265948  1
  B  B17  1  0.500000  0.207629  0.734051  1
  B  B18  1  0.500000  0.292238  0.233800  1
  B  B19  1  0.500000  0.707762  0.766201  1
  B  B20  1  0.500000  0.631211  0.184313  1
  B  B21  1  0.500000  0.368789  0.815687  1
  B  B22  1  0.500000  0.131030  0.315506  1
  B  B23  1  0.500000  0.868970  0.684494  1
  B  B24  1  0.500000  0.982023  0.213332  1
  B  B25  1  0.500000  0.017977  0.786668  1
  B  B26  1  0.500000  0.482250  0.286474  1
  B  B27  1  0.500000  0.517750  0.713526  1
  B  B28  1  0.500000  0.605477  0.029114  1
  B  B29  1  0.500000  0.394523  0.970886  1
  B  B30  1  0.500000  0.105147  0.470971  1
  B  B31  1  0.500000  0.894853  0.529029  1
  Os  Os32  1  0.000000  0.638087  0.320626  1
  Os  Os33  1  0.000000  0.361913  0.679374  1
  Os  Os34  1  0.000000  0.137693  0.178951  1
  Os  Os35  1  0.000000  0.862307  0.821049  1
