# generated using pymatgen
data_HoLu7Sc12Si15As
_symmetry_space_group_name_H-M   'P 1'
_cell_length_a   7.07615421
_cell_length_b   7.30610235
_cell_length_c   13.87198095
_cell_angle_alpha   90.02787724
_cell_angle_beta   88.64808185
_cell_angle_gamma   90.12201369
_symmetry_Int_Tables_number   1
_chemical_formula_structural   HoLu7Sc12Si15As
_chemical_formula_sum   'Ho1 Lu7 Sc12 Si15 As1'
_cell_volume   716.96770150
_cell_formula_units_Z   1
loop_
 _symmetry_equiv_pos_site_id
 _symmetry_equiv_pos_as_xyz
  1  'x, y, z'
loop_
 _atom_site_type_symbol
 _atom_site_label
 _atom_site_symmetry_multiplicity
 _atom_site_fract_x
 _atom_site_fract_y
 _atom_site_fract_z
 _atom_site_occupancy
  Ho  Ho0  1  0.501361  0.678053  0.597224  1
  Lu  Lu1  1  0.011941  0.177032  0.097094  1
  Lu  Lu2  1  0.988448  0.823590  0.902828  1
  Lu  Lu3  1  0.488900  0.676440  0.902610  1
  Lu  Lu4  1  0.994238  0.822017  0.595609  1
  Lu  Lu5  1  0.511522  0.324094  0.097197  1
  Lu  Lu6  1  0.003497  0.178419  0.403798  1
  Lu  Lu7  1  0.503492  0.320470  0.402091  1
  Sc  Sc8  1  0.166683  0.501591  0.749943  1
  Sc  Sc9  1  0.833028  0.498044  0.252928  1
  Sc  Sc10  1  0.333322  0.002095  0.251545  1
  Sc  Sc11  1  0.667069  0.998084  0.749003  1
  Sc  Sc12  1  0.342755  0.170332  0.626463  1
  Sc  Sc13  1  0.658347  0.827971  0.373810  1
  Sc  Sc14  1  0.156188  0.672011  0.377078  1
  Sc  Sc15  1  0.667499  0.823382  0.125420  1
  Sc  Sc16  1  0.841245  0.328669  0.622591  1
  Sc  Sc17  1  0.332193  0.176158  0.874455  1
  Sc  Sc18  1  0.833552  0.322738  0.874786  1
  Sc  Sc19  1  0.166738  0.677253  0.125024  1
  Si  Si20  1  0.037736  0.113986  0.749723  1
  Si  Si21  1  0.962010  0.886429  0.249360  1
  Si  Si22  1  0.458469  0.614569  0.248997  1
  Si  Si23  1  0.540607  0.384988  0.750891  1
  Si  Si24  1  0.289289  0.868565  0.750968  1
  Si  Si25  1  0.710695  0.130762  0.248990  1
  Si  Si26  1  0.209036  0.370487  0.249610  1
  Si  Si27  1  0.793315  0.629958  0.750972  1
  Si  Si28  1  0.809537  0.538467  0.457457  1
  Si  Si29  1  0.326126  0.963890  0.460397  1
  Si  Si30  1  0.841137  0.534566  0.039364  1
  Si  Si31  1  0.673848  0.038327  0.539349  1
  Si  Si32  1  0.158777  0.466014  0.960546  1
  Si  Si33  1  0.657689  0.033825  0.959878  1
  Si  Si34  1  0.342284  0.966723  0.040189  1
  As  As35  1  0.187427  0.459993  0.541810  1
