# generated using pymatgen
data_Sc4Ga20Os5Ru
_symmetry_space_group_name_H-M   'P 1'
_cell_length_a   8.87812501
_cell_length_b   8.87812500
_cell_length_c   6.20281300
_cell_angle_alpha   90.00000000
_cell_angle_beta   90.00000000
_cell_angle_gamma   89.99767671
_symmetry_Int_Tables_number   1
_chemical_formula_structural   Sc4Ga20Os5Ru
_chemical_formula_sum   'Sc4 Ga20 Os5 Ru1'
_cell_volume   488.91256550
_cell_formula_units_Z   1
loop_
 _symmetry_equiv_pos_site_id
 _symmetry_equiv_pos_as_xyz
  1  'x, y, z'
loop_
 _atom_site_type_symbol
 _atom_site_label
 _atom_site_symmetry_multiplicity
 _atom_site_fract_x
 _atom_site_fract_y
 _atom_site_fract_z
 _atom_site_occupancy
  Sc  Sc0  1  0.682921  0.182921  0.000000  1
  Sc  Sc1  1  0.317241  0.817241  0.000000  1
  Sc  Sc2  1  0.816956  0.682714  0.000000  1
  Sc  Sc3  1  0.182714  0.316956  0.000000  1
  Ga  Ga4  1  0.936955  0.208030  0.287339  1
  Ga  Ga5  1  0.708030  0.436955  0.287339  1
  Ga  Ga6  1  0.500807  0.000807  0.269921  1
  Ga  Ga7  1  0.562273  0.707719  0.713126  1
  Ga  Ga8  1  0.292511  0.561804  0.713327  1
  Ga  Ga9  1  0.791537  0.938447  0.286965  1
  Ga  Ga10  1  0.936955  0.208030  0.712661  1
  Ga  Ga11  1  0.292511  0.561804  0.286673  1
  Ga  Ga12  1  0.061804  0.792511  0.286673  1
  Ga  Ga13  1  0.708030  0.436955  0.712661  1
  Ga  Ga14  1  0.438447  0.291537  0.713035  1
  Ga  Ga15  1  0.061804  0.792511  0.713327  1
  Ga  Ga16  1  0.207719  0.062273  0.713126  1
  Ga  Ga17  1  0.791537  0.938447  0.713035  1
  Ga  Ga18  1  0.207719  0.062273  0.286874  1
  Ga  Ga19  1  0.999863  0.499863  0.730014  1
  Ga  Ga20  1  0.999863  0.499863  0.269986  1
  Ga  Ga21  1  0.562273  0.707719  0.286874  1
  Ga  Ga22  1  0.438447  0.291537  0.286965  1
  Ga  Ga23  1  0.500807  0.000807  0.730079  1
  Os  Os24  1  0.822544  0.677602  0.500000  1
  Os  Os25  1  0.177602  0.322544  0.500000  1
  Os  Os26  1  0.000074  0.000285  0.000000  1
  Os  Os27  1  0.322375  0.822375  0.500000  1
  Os  Os28  1  0.500285  0.500074  0.000000  1
  Ru  Ru29  1  0.677397  0.177397  0.500000  1
