# generated using pymatgen
data_Sr6Co3IrO12
_symmetry_space_group_name_H-M   'P 1'
_cell_length_a   6.69062551
_cell_length_b   6.70261520
_cell_length_c   6.69213659
_cell_angle_alpha   92.25234544
_cell_angle_beta   92.40257753
_cell_angle_gamma   92.25804024
_symmetry_Int_Tables_number   1
_chemical_formula_structural   Sr6Co3IrO12
_chemical_formula_sum   'Sr6 Co3 Ir1 O12'
_cell_volume   299.35796808
_cell_formula_units_Z   1
loop_
 _symmetry_equiv_pos_site_id
 _symmetry_equiv_pos_as_xyz
  1  'x, y, z'
loop_
 _atom_site_type_symbol
 _atom_site_label
 _atom_site_symmetry_multiplicity
 _atom_site_fract_x
 _atom_site_fract_y
 _atom_site_fract_z
 _atom_site_occupancy
  Sr  Sr0  1  0.882647  0.261876  0.610500  1
  Sr  Sr1  1  0.260722  0.610137  0.881225  1
  Sr  Sr2  1  0.609960  0.882265  0.259641  1
  Sr  Sr3  1  0.740079  0.389900  0.117732  1
  Sr  Sr4  1  0.389268  0.118593  0.737218  1
  Sr  Sr5  1  0.117302  0.740133  0.390032  1
  Co  Co6  1  0.740318  0.742410  0.737462  1
  Co  Co7  1  0.500695  0.498638  0.500773  1
  Co  Co8  1  0.260455  0.265360  0.254358  1
  Ir  Ir9  1  0.999339  0.999595  0.001272  1
  O  O10  1  0.222002  0.408003  0.540117  1
  O  O11  1  0.408361  0.540465  0.221200  1
  O  O12  1  0.541628  0.220738  0.409042  1
  O  O13  1  0.909027  0.715657  0.038855  1
  O  O14  1  0.715146  0.037182  0.912027  1
  O  O15  1  0.034716  0.907211  0.716673  1
  O  O16  1  0.779554  0.589904  0.460139  1
  O  O17  1  0.591223  0.457001  0.778929  1
  O  O18  1  0.460809  0.777700  0.593493  1
  O  O19  1  0.091298  0.284146  0.964220  1
  O  O20  1  0.283616  0.962982  0.090533  1
  O  O21  1  0.961834  0.090104  0.284558  1
