# generated using pymatgen
data_Tb7YIr3WO24
_symmetry_space_group_name_H-M   'P 1'
_cell_length_a   5.30564973
_cell_length_b   9.20214817
_cell_length_c   9.95591304
_cell_angle_alpha   90.07548174
_cell_angle_beta   90.04779268
_cell_angle_gamma   90.08829900
_symmetry_Int_Tables_number   1
_chemical_formula_structural   Tb7YIr3WO24
_chemical_formula_sum   'Tb7 Y1 Ir3 W1 O24'
_cell_volume   486.08010583
_cell_formula_units_Z   1
loop_
 _symmetry_equiv_pos_site_id
 _symmetry_equiv_pos_as_xyz
  1  'x, y, z'
loop_
 _atom_site_type_symbol
 _atom_site_label
 _atom_site_symmetry_multiplicity
 _atom_site_fract_x
 _atom_site_fract_y
 _atom_site_fract_z
 _atom_site_occupancy
  Tb  Tb0  1  0.983640  0.601016  0.534426  1
  Tb  Tb1  1  0.484068  0.896109  0.467311  1
  Tb  Tb2  1  0.020218  0.102136  0.962355  1
  Tb  Tb3  1  0.516591  0.398630  0.034134  1
  Tb  Tb4  1  0.461055  0.781256  0.869625  1
  Tb  Tb5  1  0.960290  0.719135  0.129755  1
  Tb  Tb6  1  0.040943  0.218207  0.369873  1
  Y  Y7  1  0.540312  0.281843  0.629888  1
  Ir  Ir8  1  0.959228  0.996560  0.647346  1
  Ir  Ir9  1  0.458941  0.503400  0.351867  1
  Ir  Ir10  1  0.041156  0.496384  0.851815  1
  W  W11  1  0.540147  0.004870  0.151249  1
  O  O12  1  0.752634  0.088093  0.502427  1
  O  O13  1  0.252393  0.410604  0.496690  1
  O  O14  1  0.247070  0.588490  0.997291  1
  O  O15  1  0.746219  0.911782  0.004741  1
  O  O16  1  0.233888  0.116152  0.570089  1
  O  O17  1  0.733436  0.383709  0.429845  1
  O  O18  1  0.765658  0.614835  0.930845  1
  O  O19  1  0.268704  0.885928  0.067512  1
  O  O20  1  0.084021  0.844156  0.528173  1
  O  O21  1  0.583877  0.654025  0.473686  1
  O  O22  1  0.915024  0.344447  0.971013  1
  O  O23  1  0.412976  0.157019  0.030722  1
  O  O24  1  0.692007  0.859923  0.264632  1
  O  O25  1  0.187390  0.642783  0.736639  1
  O  O26  1  0.312061  0.357455  0.236665  1
  O  O27  1  0.811991  0.142688  0.762594  1
  O  O28  1  0.329140  0.048134  0.299220  1
  O  O29  1  0.834040  0.446213  0.701751  1
  O  O30  1  0.675360  0.865251  0.682210  1
  O  O31  1  0.167459  0.946497  0.796679  1
  O  O32  1  0.821384  0.136924  0.179209  1
  O  O33  1  0.324773  0.365555  0.817296  1
  O  O34  1  0.176459  0.635324  0.318078  1
  O  O35  1  0.665445  0.554468  0.202349  1
