# generated using pymatgen
data_HoEr2In3SnPd2
_symmetry_space_group_name_H-M   'P 1'
_cell_length_a   7.58444616
_cell_length_b   7.58940059
_cell_length_c   4.17118100
_cell_angle_alpha   90.00000000
_cell_angle_beta   90.00000000
_cell_angle_gamma   120.00194203
_symmetry_Int_Tables_number   1
_chemical_formula_structural   HoEr2In3SnPd2
_chemical_formula_sum   'Ho1 Er2 In3 Sn1 Pd2'
_cell_volume   207.92778037
_cell_formula_units_Z   1
loop_
 _symmetry_equiv_pos_site_id
 _symmetry_equiv_pos_as_xyz
  1  'x, y, z'
loop_
 _atom_site_type_symbol
 _atom_site_label
 _atom_site_symmetry_multiplicity
 _atom_site_fract_x
 _atom_site_fract_y
 _atom_site_fract_z
 _atom_site_occupancy
  Ho  Ho0  1  0.398427  0.980721  0.500000  1
  Er  Er1  1  0.582156  0.601916  0.500000  1
  Er  Er2  1  0.019795  0.417799  0.500000  1
  In  In3  1  0.242612  0.256336  0.000000  1
  In  In4  1  0.743785  0.986282  0.000000  1
  In  In5  1  0.013522  0.757222  0.000000  1
  Sn  Sn6  1  0.666831  0.333606  0.000000  1
  Pd  Pd7  1  0.999665  0.999960  0.500000  1
  Pd  Pd8  1  0.333206  0.666159  0.000000  1
