# generated using pymatgen
data_Fe8SiMo12As3N4
_symmetry_space_group_name_H-M   'P 1'
_cell_length_a   7.87447741
_cell_length_b   7.90948226
_cell_length_c   7.87448900
_cell_angle_alpha   60.14623567
_cell_angle_beta   59.99997119
_cell_angle_gamma   60.14595787
_symmetry_Int_Tables_number   1
_chemical_formula_structural   Fe8SiMo12As3N4
_chemical_formula_sum   'Fe8 Si1 Mo12 As3 N4'
_cell_volume   347.56224678
_cell_formula_units_Z   1
loop_
 _symmetry_equiv_pos_site_id
 _symmetry_equiv_pos_as_xyz
  1  'x, y, z'
loop_
 _atom_site_type_symbol
 _atom_site_label
 _atom_site_symmetry_multiplicity
 _atom_site_fract_x
 _atom_site_fract_y
 _atom_site_fract_z
 _atom_site_occupancy
  Fe  Fe0  1  0.919363  0.915004  0.246262  1
  Fe  Fe1  1  0.246247  0.915004  0.919375  1
  Fe  Fe2  1  0.916950  0.249140  0.916955  1
  Fe  Fe3  1  0.333050  0.000860  0.333045  1
  Fe  Fe4  1  0.330637  0.334996  0.003738  1
  Fe  Fe5  1  0.330637  0.334996  0.330629  1
  Fe  Fe6  1  0.919363  0.915004  0.919371  1
  Fe  Fe7  1  0.003753  0.334996  0.330625  1
  Si  Si8  1  0.125000  0.625000  0.125000  1
  Mo  Mo9  1  0.558392  0.941535  0.941674  1
  Mo  Mo10  1  0.306524  0.691381  0.306523  1
  Mo  Mo11  1  0.941675  0.941537  0.558393  1
  Mo  Mo12  1  0.943475  0.558620  0.554427  1
  Mo  Mo13  1  0.691607  0.308467  0.691601  1
  Mo  Mo14  1  0.308325  0.308463  0.691607  1
  Mo  Mo15  1  0.691608  0.308465  0.308326  1
  Mo  Mo16  1  0.558393  0.941533  0.558399  1
  Mo  Mo17  1  0.306525  0.691380  0.695573  1
  Mo  Mo18  1  0.943476  0.558619  0.943477  1
  Mo  Mo19  1  0.554427  0.558626  0.943473  1
  Mo  Mo20  1  0.695573  0.691374  0.306527  1
  As  As21  1  0.625000  0.125000  0.125000  1
  As  As22  1  0.125000  0.125000  0.625000  1
  As  As23  1  0.125000  0.125000  0.125000  1
  N  N24  1  0.625000  0.625000  0.625000  1
  N  N25  1  0.125000  0.625000  0.625000  1
  N  N26  1  0.625000  0.125000  0.625000  1
  N  N27  1  0.625000  0.625000  0.125000  1
