# generated using pymatgen
data_TbPr19Si15Ni
_symmetry_space_group_name_H-M   'P 1'
_cell_length_a   7.91433489
_cell_length_b   7.91386977
_cell_length_c   15.29667100
_cell_angle_alpha   90.27443020
_cell_angle_beta   89.90067409
_cell_angle_gamma   90.14733021
_symmetry_Int_Tables_number   1
_chemical_formula_structural   TbPr19Si15Ni
_chemical_formula_sum   'Tb1 Pr19 Si15 Ni1'
_cell_volume   958.06105806
_cell_formula_units_Z   1
loop_
 _symmetry_equiv_pos_site_id
 _symmetry_equiv_pos_as_xyz
  1  'x, y, z'
loop_
 _atom_site_type_symbol
 _atom_site_label
 _atom_site_symmetry_multiplicity
 _atom_site_fract_x
 _atom_site_fract_y
 _atom_site_fract_z
 _atom_site_occupancy
  Tb  Tb0  1  0.308622  0.308116  0.998675  1
  Pr  Pr1  1  0.192634  0.806401  0.249005  1
  Pr  Pr2  1  0.816642  0.186991  0.750014  1
  Pr  Pr3  1  0.694880  0.688675  0.500503  1
  Pr  Pr4  1  0.375489  0.010792  0.446987  1
  Pr  Pr5  1  0.488617  0.875246  0.698969  1
  Pr  Pr6  1  0.510844  0.123080  0.196098  1
  Pr  Pr7  1  0.877874  0.488022  0.301256  1
  Pr  Pr8  1  0.122484  0.509759  0.801222  1
  Pr  Pr9  1  0.624897  0.988938  0.947483  1
  Pr  Pr10  1  0.004010  0.379777  0.552187  1
  Pr  Pr11  1  0.987753  0.624108  0.051915  1
  Pr  Pr12  1  0.133879  0.983619  0.875065  1
  Pr  Pr13  1  0.518680  0.630354  0.125674  1
  Pr  Pr14  1  0.468639  0.364294  0.629620  1
  Pr  Pr15  1  0.627330  0.517030  0.873247  1
  Pr  Pr16  1  0.372090  0.481845  0.372537  1
  Pr  Pr17  1  0.873988  0.021917  0.377416  1
  Pr  Pr18  1  0.981397  0.124857  0.122503  1
  Pr  Pr19  1  0.025565  0.881030  0.625487  1
  Si  Si20  1  0.331054  0.691244  0.952517  1
  Si  Si21  1  0.662551  0.305155  0.453738  1
  Si  Si22  1  0.693329  0.332126  0.047036  1
  Si  Si23  1  0.304861  0.669550  0.547563  1
  Si  Si24  1  0.806965  0.831542  0.204486  1
  Si  Si25  1  0.168518  0.195725  0.295569  1
  Si  Si26  1  0.833323  0.803794  0.797267  1
  Si  Si27  1  0.288804  0.924739  0.058252  1
  Si  Si28  1  0.580374  0.786415  0.310463  1
  Si  Si29  1  0.419657  0.210977  0.813902  1
  Si  Si30  1  0.783459  0.580258  0.690053  1
  Si  Si31  1  0.213930  0.418860  0.186461  1
  Si  Si32  1  0.706149  0.077291  0.559998  1
  Si  Si33  1  0.924095  0.288693  0.941281  1
  Si  Si34  1  0.080242  0.715597  0.440740  1
  Ni  Ni35  1  0.196375  0.173180  0.704816  1
