# generated using pymatgen
data_Zr6Sn6Ir5Au
_symmetry_space_group_name_H-M   'P 1'
_cell_length_a   7.37883700
_cell_length_b   7.37883700
_cell_length_c   7.57816500
_cell_angle_alpha   90.00000000
_cell_angle_beta   90.00000000
_cell_angle_gamma   120.00000450
_symmetry_Int_Tables_number   1
_chemical_formula_structural   Zr6Sn6Ir5Au
_chemical_formula_sum   'Zr6 Sn6 Ir5 Au1'
_cell_volume   357.33084173
_cell_formula_units_Z   1
loop_
 _symmetry_equiv_pos_site_id
 _symmetry_equiv_pos_as_xyz
  1  'x, y, z'
loop_
 _atom_site_type_symbol
 _atom_site_label
 _atom_site_symmetry_multiplicity
 _atom_site_fract_x
 _atom_site_fract_y
 _atom_site_fract_z
 _atom_site_occupancy
  Zr  Zr0  1  0.399476  0.012912  0.242363  1
  Zr  Zr1  1  0.587411  0.622905  0.756405  1
  Zr  Zr2  1  0.613438  0.600524  0.242363  1
  Zr  Zr3  1  0.987088  0.386562  0.242363  1
  Zr  Zr4  1  0.035493  0.412589  0.756405  1
  Zr  Zr5  1  0.377095  0.964507  0.756405  1
  Sn  Sn6  1  0.264629  0.267165  0.495761  1
  Sn  Sn7  1  0.269626  0.265564  0.997838  1
  Sn  Sn8  1  0.734436  0.004062  0.997838  1
  Sn  Sn9  1  0.002537  0.735371  0.495761  1
  Sn  Sn10  1  0.732835  0.997463  0.495761  1
  Sn  Sn11  1  0.995938  0.730374  0.997838  1
  Ir  Ir12  1  0.666667  0.333333  0.968711  1
  Ir  Ir13  1  0.333333  0.666667  0.042196  1
  Ir  Ir14  1  0.333333  0.666667  0.465016  1
  Ir  Ir15  1  0.000000  0.000000  0.747459  1
  Ir  Ir16  1  0.000000  0.000000  0.245795  1
  Au  Au17  1  0.666667  0.333333  0.553724  1
