# generated using pymatgen
data_Tb5Y2CoI12
_symmetry_space_group_name_H-M   'P 1'
_cell_length_a   9.78494493
_cell_length_b   9.78360069
_cell_length_c   9.78406904
_cell_angle_alpha   106.85266852
_cell_angle_beta   106.85766032
_cell_angle_gamma   106.88176328
_symmetry_Int_Tables_number   1
_chemical_formula_structural   Tb5Y2CoI12
_chemical_formula_sum   'Tb5 Y2 Co1 I12'
_cell_volume   782.92499446
_cell_formula_units_Z   1
loop_
 _symmetry_equiv_pos_site_id
 _symmetry_equiv_pos_as_xyz
  1  'x, y, z'
loop_
 _atom_site_type_symbol
 _atom_site_label
 _atom_site_symmetry_multiplicity
 _atom_site_fract_x
 _atom_site_fract_y
 _atom_site_fract_z
 _atom_site_occupancy
  Tb  Tb0  1  0.092230  0.288435  0.022345  1
  Tb  Tb1  1  0.288444  0.022239  0.092265  1
  Tb  Tb2  1  0.977793  0.907692  0.711456  1
  Tb  Tb3  1  0.907771  0.711602  0.977882  1
  Tb  Tb4  1  0.711560  0.977814  0.907888  1
  Y  Y5  1  0.500037  0.500034  0.500034  1
  Y  Y6  1  0.022173  0.092113  0.288439  1
  Co  Co7  1  0.000032  0.999989  0.999815  1
  I  I8  1  0.161081  0.463647  0.386775  1
  I  I9  1  0.463831  0.386796  0.161270  1
  I  I10  1  0.386637  0.161165  0.463819  1
  I  I11  1  0.838748  0.536145  0.613202  1
  I  I12  1  0.536169  0.613214  0.838774  1
  I  I13  1  0.613190  0.838763  0.536160  1
  I  I14  1  0.678412  0.071965  0.225270  1
  I  I15  1  0.071884  0.225162  0.677900  1
  I  I16  1  0.225177  0.678206  0.071931  1
  I  I17  1  0.321801  0.928092  0.774844  1
  I  I18  1  0.928185  0.775117  0.321834  1
  I  I19  1  0.774844  0.321812  0.928097  1
