# generated using pymatgen
data_LuIn(BrO3)6
_symmetry_space_group_name_H-M   'P 1'
_cell_length_a   9.56893300
_cell_length_b   9.56893256
_cell_length_c   5.72812800
_cell_angle_alpha   90.00000000
_cell_angle_beta   90.00000000
_cell_angle_gamma   119.99998424
_symmetry_Int_Tables_number   1
_chemical_formula_structural   LuIn(BrO3)6
_chemical_formula_sum   'Lu1 In1 Br6 O18'
_cell_volume   454.22436062
_cell_formula_units_Z   1
loop_
 _symmetry_equiv_pos_site_id
 _symmetry_equiv_pos_as_xyz
  1  'x, y, z'
loop_
 _atom_site_type_symbol
 _atom_site_label
 _atom_site_symmetry_multiplicity
 _atom_site_fract_x
 _atom_site_fract_y
 _atom_site_fract_z
 _atom_site_occupancy
  Lu  Lu0  1  0.333333  0.666667  0.192620  1
  In  In1  1  0.666667  0.333333  0.695902  1
  Br  Br2  1  0.684470  0.023998  0.365277  1
  Br  Br3  1  0.321523  0.985869  0.861637  1
  Br  Br4  1  0.014131  0.335653  0.861637  1
  Br  Br5  1  0.339527  0.315530  0.365277  1
  Br  Br6  1  0.976002  0.660473  0.365277  1
  Br  Br7  1  0.664347  0.678477  0.861637  1
  O  O8  1  0.776696  0.825548  0.040672  1
  O  O9  1  0.941428  0.771024  0.548345  1
  O  O10  1  0.829596  0.058572  0.548345  1
  O  O11  1  0.174452  0.951148  0.040672  1
  O  O12  1  0.048852  0.223304  0.040672  1
  O  O13  1  0.228976  0.170404  0.548345  1
  O  O14  1  0.714197  0.532728  0.931267  1
  O  O15  1  0.172819  0.712235  0.417447  1
  O  O16  1  0.535401  0.414730  0.471219  1
  O  O17  1  0.120912  0.529675  0.967096  1
  O  O18  1  0.408762  0.879088  0.967096  1
  O  O19  1  0.585270  0.120671  0.471219  1
  O  O20  1  0.879329  0.464599  0.471219  1
  O  O21  1  0.470325  0.591238  0.967096  1
  O  O22  1  0.287765  0.460584  0.417447  1
  O  O23  1  0.818531  0.285803  0.931267  1
  O  O24  1  0.467272  0.181469  0.931267  1
  O  O25  1  0.539416  0.827181  0.417447  1
