# generated using pymatgen
data_Tb4Al18(NiOs)3
_symmetry_space_group_name_H-M   'P 1'
_cell_length_a   7.51259847
_cell_length_b   7.51260096
_cell_length_c   9.45024975
_cell_angle_alpha   90.04297692
_cell_angle_beta   90.04292866
_cell_angle_gamma   119.26366848
_symmetry_Int_Tables_number   1
_chemical_formula_structural   Tb4Al18(NiOs)3
_chemical_formula_sum   'Tb4 Al18 Ni3 Os3'
_cell_volume   465.29535587
_cell_formula_units_Z   1
loop_
 _symmetry_equiv_pos_site_id
 _symmetry_equiv_pos_as_xyz
  1  'x, y, z'
loop_
 _atom_site_type_symbol
 _atom_site_label
 _atom_site_symmetry_multiplicity
 _atom_site_fract_x
 _atom_site_fract_y
 _atom_site_fract_z
 _atom_site_occupancy
  Tb  Tb0  1  0.994748  0.671716  0.253048  1
  Tb  Tb1  1  0.005252  0.328284  0.746952  1
  Tb  Tb2  1  0.671716  0.994748  0.253049  1
  Tb  Tb3  1  0.328284  0.005252  0.746951  1
  Al  Al4  1  0.127978  0.127978  0.245525  1
  Al  Al5  1  0.872022  0.872022  0.754475  1
  Al  Al6  1  0.997747  0.335046  0.073008  1
  Al  Al7  1  0.002253  0.664954  0.926992  1
  Al  Al8  1  0.996184  0.663818  0.574107  1
  Al  Al9  1  0.336182  0.003816  0.425893  1
  Al  Al10  1  0.003816  0.336182  0.425893  1
  Al  Al11  1  0.663818  0.996184  0.574107  1
  Al  Al12  1  0.664954  0.002254  0.926992  1
  Al  Al13  1  0.335046  0.997746  0.073008  1
  Al  Al14  1  0.334641  0.334641  0.545958  1
  Al  Al15  1  0.665359  0.665359  0.454042  1
  Al  Al16  1  0.668499  0.668499  0.046919  1
  Al  Al17  1  0.331501  0.331501  0.953081  1
  Al  Al18  1  0.338902  0.550134  0.245951  1
  Al  Al19  1  0.661098  0.449866  0.754049  1
  Al  Al20  1  0.550134  0.338902  0.245951  1
  Al  Al21  1  0.449866  0.661098  0.754049  1
  Ni  Ni22  1  0.670263  0.329691  0.999994  1
  Ni  Ni23  1  0.329737  0.670309  0.000006  1
  Ni  Ni24  1  0.000000  0.000000  0.000000  1
  Os  Os25  1  0.328164  0.671836  0.500000  1
  Os  Os26  1  0.671836  0.328164  0.500000  1
  Os  Os27  1  0.000000  0.000000  0.500000  1
