# generated using pymatgen
data_Tb3Dy6Th3Co4
_symmetry_space_group_name_H-M   'P 1'
_cell_length_a   6.30696251
_cell_length_b   6.88420084
_cell_length_c   9.57421525
_cell_angle_alpha   89.98882785
_cell_angle_beta   90.07800072
_cell_angle_gamma   91.14351809
_symmetry_Int_Tables_number   1
_chemical_formula_structural   Tb3Dy6Th3Co4
_chemical_formula_sum   'Tb3 Dy6 Th3 Co4'
_cell_volume   415.61389519
_cell_formula_units_Z   1
loop_
 _symmetry_equiv_pos_site_id
 _symmetry_equiv_pos_as_xyz
  1  'x, y, z'
loop_
 _atom_site_type_symbol
 _atom_site_label
 _atom_site_symmetry_multiplicity
 _atom_site_fract_x
 _atom_site_fract_y
 _atom_site_fract_z
 _atom_site_occupancy
  Tb  Tb0  1  0.672069  0.327069  0.931541  1
  Tb  Tb1  1  0.644763  0.044447  0.249901  1
  Tb  Tb2  1  0.174869  0.171982  0.429115  1
  Dy  Dy3  1  0.829277  0.827885  0.569359  1
  Dy  Dy4  1  0.174784  0.171980  0.070988  1
  Dy  Dy5  1  0.829633  0.827819  0.930795  1
  Dy  Dy6  1  0.671683  0.327261  0.568570  1
  Dy  Dy7  1  0.324337  0.671749  0.069228  1
  Dy  Dy8  1  0.324378  0.671841  0.431016  1
  Th  Th9  1  0.156137  0.447291  0.749910  1
  Th  Th10  1  0.346171  0.945768  0.750066  1
  Th  Th11  1  0.843408  0.552686  0.249980  1
  Co  Co12  1  0.534250  0.627637  0.749620  1
  Co  Co13  1  0.967397  0.127031  0.750077  1
  Co  Co14  1  0.039845  0.867551  0.249624  1
  Co  Co15  1  0.467001  0.390002  0.250211  1
