# generated using pymatgen
data_Bi2Sb4O13
_symmetry_space_group_name_H-M   'P 1'
_cell_length_a   7.46466400
_cell_length_b   7.41005532
_cell_length_c   10.38478019
_cell_angle_alpha   89.18024935
_cell_angle_beta   90.00000000
_cell_angle_gamma   90.00000000
_symmetry_Int_Tables_number   1
_chemical_formula_structural   Bi2Sb4O13
_chemical_formula_sum   'Bi4 Sb8 O26'
_cell_volume   574.36050850
_cell_formula_units_Z   2
loop_
 _symmetry_equiv_pos_site_id
 _symmetry_equiv_pos_as_xyz
  1  'x, y, z'
loop_
 _atom_site_type_symbol
 _atom_site_label
 _atom_site_symmetry_multiplicity
 _atom_site_fract_x
 _atom_site_fract_y
 _atom_site_fract_z
 _atom_site_occupancy
  Bi  Bi0  1  0.250000  0.751608  0.729350  1
  Bi  Bi1  1  0.500000  0.500000  0.000000  1
  Bi  Bi2  1  0.000000  0.500000  0.000000  1
  Bi  Bi3  1  0.750000  0.248392  0.270650  1
  Sb  Sb4  1  0.500000  0.000000  0.000000  1
  Sb  Sb5  1  0.750000  0.759454  0.744417  1
  Sb  Sb6  1  0.250000  0.748862  0.255187  1
  Sb  Sb7  1  0.500000  0.500000  0.500000  1
  Sb  Sb8  1  0.000000  0.500000  0.500000  1
  Sb  Sb9  1  0.750000  0.251138  0.744813  1
  Sb  Sb10  1  0.250000  0.240546  0.255583  1
  Sb  Sb11  1  0.000000  0.000000  0.000000  1
  O  O12  1  0.449979  0.688383  0.370848  1
  O  O13  1  0.750000  0.456728  0.131965  1
  O  O14  1  0.250000  0.492357  0.168974  1
  O  O15  1  0.453219  0.304599  0.369584  1
  O  O16  1  0.558404  0.209106  0.882657  1
  O  O17  1  0.941596  0.209106  0.882657  1
  O  O18  1  0.447854  0.198711  0.125691  1
  O  O19  1  0.750000  0.003615  0.075145  1
  O  O20  1  0.250000  0.996385  0.924855  1
  O  O21  1  0.750000  0.004666  0.679922  1
  O  O22  1  0.552146  0.801289  0.874309  1
  O  O23  1  0.947854  0.801289  0.874309  1
  O  O24  1  0.441596  0.790894  0.117343  1
  O  O25  1  0.050021  0.688383  0.370848  1
  O  O26  1  0.546781  0.695401  0.630416  1
  O  O27  1  0.953219  0.695401  0.630416  1
  O  O28  1  0.250000  0.519163  0.574679  1
  O  O29  1  0.750000  0.507643  0.831026  1
  O  O30  1  0.750000  0.480837  0.425321  1
  O  O31  1  0.046781  0.304599  0.369584  1
  O  O32  1  0.550021  0.311617  0.629152  1
  O  O33  1  0.949979  0.311617  0.629152  1
  O  O34  1  0.052146  0.198711  0.125691  1
  O  O35  1  0.250000  0.995334  0.320078  1
  O  O36  1  0.058404  0.790894  0.117343  1
  O  O37  1  0.250000  0.543272  0.868035  1
