# generated using pymatgen
data_Ho19MgIr5Pt7
_symmetry_space_group_name_H-M   'P 1'
_cell_length_a   10.94915324
_cell_length_b   10.94639628
_cell_length_c   6.29995039
_cell_angle_alpha   90.02954533
_cell_angle_beta   89.97262361
_cell_angle_gamma   90.15425735
_symmetry_Int_Tables_number   1
_chemical_formula_structural   Ho19MgIr5Pt7
_chemical_formula_sum   'Ho19 Mg1 Ir5 Pt7'
_cell_volume   755.06988364
_cell_formula_units_Z   1
loop_
 _symmetry_equiv_pos_site_id
 _symmetry_equiv_pos_as_xyz
  1  'x, y, z'
loop_
 _atom_site_type_symbol
 _atom_site_label
 _atom_site_symmetry_multiplicity
 _atom_site_fract_x
 _atom_site_fract_y
 _atom_site_fract_z
 _atom_site_occupancy
  Ho  Ho0  1  0.287236  0.080848  0.374509  1
  Ho  Ho1  1  0.293548  0.907615  0.876301  1
  Ho  Ho2  1  0.706329  0.088215  0.875319  1
  Ho  Ho3  1  0.712670  0.918021  0.373181  1
  Ho  Ho4  1  0.586166  0.793332  0.871131  1
  Ho  Ho5  1  0.585057  0.205781  0.371965  1
  Ho  Ho6  1  0.413049  0.792318  0.375107  1
  Ho  Ho7  1  0.409926  0.204009  0.873529  1
  Ho  Ho8  1  0.207386  0.420215  0.629584  1
  Ho  Ho9  1  0.208208  0.592350  0.121647  1
  Ho  Ho10  1  0.793751  0.409694  0.125340  1
  Ho  Ho11  1  0.795731  0.583993  0.628409  1
  Ho  Ho12  1  0.912105  0.705220  0.125688  1
  Ho  Ho13  1  0.917411  0.287504  0.627151  1
  Ho  Ho14  1  0.086966  0.712347  0.626670  1
  Ho  Ho15  1  0.089044  0.295031  0.126478  1
  Ho  Ho16  1  0.999741  0.000267  0.999266  1
  Ho  Ho17  1  0.497822  0.501011  0.999621  1
  Ho  Ho18  1  0.499575  0.502101  0.498855  1
  Mg  Mg19  1  0.999288  0.999545  0.501240  1
  Ir  Ir20  1  0.347948  0.653295  0.747653  1
  Ir  Ir21  1  0.499949  0.000009  0.123230  1
  Ir  Ir22  1  0.499924  0.000231  0.619199  1
  Ir  Ir23  1  0.999844  0.500064  0.877822  1
  Ir  Ir24  1  0.000036  0.499949  0.378504  1
  Pt  Pt25  1  0.849367  0.154892  0.248415  1
  Pt  Pt26  1  0.845074  0.847757  0.751775  1
  Pt  Pt27  1  0.153859  0.152870  0.750681  1
  Pt  Pt28  1  0.149342  0.845835  0.248522  1
  Pt  Pt29  1  0.653010  0.346546  0.747902  1
  Pt  Pt30  1  0.655206  0.655805  0.252629  1
  Pt  Pt31  1  0.345433  0.343329  0.252677  1
