# generated using pymatgen
data_Th3(GaRh2)2
_symmetry_space_group_name_H-M   'P 1'
_cell_length_a   7.23987764
_cell_length_b   7.23987870
_cell_length_c   3.86911400
_cell_angle_alpha   90.00000000
_cell_angle_beta   90.00000000
_cell_angle_gamma   114.76149203
_symmetry_Int_Tables_number   1
_chemical_formula_structural   Th3(GaRh2)2
_chemical_formula_sum   'Th3 Ga2 Rh4'
_cell_volume   184.15698543
_cell_formula_units_Z   1
loop_
 _symmetry_equiv_pos_site_id
 _symmetry_equiv_pos_as_xyz
  1  'x, y, z'
loop_
 _atom_site_type_symbol
 _atom_site_label
 _atom_site_symmetry_multiplicity
 _atom_site_fract_x
 _atom_site_fract_y
 _atom_site_fract_z
 _atom_site_occupancy
  Th  Th0  1  0.411033  0.411033  0.500000  1
  Th  Th1  1  0.611205  0.978312  0.500000  1
  Th  Th2  1  0.978312  0.611205  0.500000  1
  Ga  Ga3  1  0.255487  0.996272  0.000000  1
  Ga  Ga4  1  0.996272  0.255487  0.000000  1
  Rh  Rh5  1  0.644792  0.304208  0.000000  1
  Rh  Rh6  1  0.304208  0.644792  0.000000  1
  Rh  Rh7  1  0.041894  0.041894  0.500000  1
  Rh  Rh8  1  0.756798  0.756798  0.000000  1
