# generated using pymatgen
data_Li3Ta2MnRh6
_symmetry_space_group_name_H-M   'P 1'
_cell_length_a   4.33598201
_cell_length_b   6.04518000
_cell_length_c   12.91207402
_cell_angle_alpha   90.00000000
_cell_angle_beta   90.00618020
_cell_angle_gamma   90.00000000
_symmetry_Int_Tables_number   1
_chemical_formula_structural   Li3Ta2MnRh6
_chemical_formula_sum   'Li6 Ta4 Mn2 Rh12'
_cell_volume   338.44859269
_cell_formula_units_Z   2
loop_
 _symmetry_equiv_pos_site_id
 _symmetry_equiv_pos_as_xyz
  1  'x, y, z'
loop_
 _atom_site_type_symbol
 _atom_site_label
 _atom_site_symmetry_multiplicity
 _atom_site_fract_x
 _atom_site_fract_y
 _atom_site_fract_z
 _atom_site_occupancy
  Li  Li0  1  0.000060  0.000000  0.003516  1
  Li  Li1  1  0.499710  0.500001  0.162989  1
  Li  Li2  1  0.999783  0.000000  0.329332  1
  Li  Li3  1  0.500007  0.500001  0.498415  1
  Li  Li4  1  0.000171  0.000000  0.668299  1
  Li  Li5  1  0.500278  0.500001  0.837447  1
  Ta  Ta6  1  0.999796  0.500001  0.325284  1
  Ta  Ta7  1  0.499999  0.000000  0.498294  1
  Ta  Ta8  1  0.000185  0.500001  0.668344  1
  Ta  Ta9  1  0.500229  0.000000  0.841380  1
  Mn  Mn10  1  0.999995  0.500001  0.002594  1
  Mn  Mn11  1  0.499767  0.000000  0.164116  1
  Rh  Rh12  1  0.500024  0.254419  0.999897  1
  Rh  Rh13  1  0.500024  0.745579  0.999897  1
  Rh  Rh14  1  0.999763  0.245470  0.166773  1
  Rh  Rh15  1  0.999763  0.754531  0.166773  1
  Rh  Rh16  1  0.499801  0.249186  0.332239  1
  Rh  Rh17  1  0.499801  0.750812  0.332239  1
  Rh  Rh18  1  0.999998  0.250646  0.498994  1
  Rh  Rh19  1  0.999998  0.749353  0.498994  1
  Rh  Rh20  1  0.500187  0.249364  0.667678  1
  Rh  Rh21  1  0.500187  0.750634  0.667678  1
  Rh  Rh22  1  0.000235  0.250872  0.834414  1
  Rh  Rh23  1  0.000235  0.749129  0.834414  1
