# generated using pymatgen
data_Hf16Nb4Si15Se
_symmetry_space_group_name_H-M   'P 1'
_cell_length_a   6.79533557
_cell_length_b   6.93613297
_cell_length_c   13.39643475
_cell_angle_alpha   89.81994346
_cell_angle_beta   89.15620450
_cell_angle_gamma   90.00069363
_symmetry_Int_Tables_number   1
_chemical_formula_structural   Hf16Nb4Si15Se
_chemical_formula_sum   'Hf16 Nb4 Si15 Se1'
_cell_volume   631.34727283
_cell_formula_units_Z   1
loop_
 _symmetry_equiv_pos_site_id
 _symmetry_equiv_pos_as_xyz
  1  'x, y, z'
loop_
 _atom_site_type_symbol
 _atom_site_label
 _atom_site_symmetry_multiplicity
 _atom_site_fract_x
 _atom_site_fract_y
 _atom_site_fract_z
 _atom_site_occupancy
  Hf  Hf0  1  0.335330  0.675957  0.875464  1
  Hf  Hf1  1  0.835917  0.827103  0.874985  1
  Hf  Hf2  1  0.656375  0.331999  0.374342  1
  Hf  Hf3  1  0.002142  0.675010  0.094059  1
  Hf  Hf4  1  0.484646  0.816893  0.401119  1
  Hf  Hf5  1  0.500823  0.175367  0.905448  1
  Hf  Hf6  1  0.504969  0.183797  0.599994  1
  Hf  Hf7  1  0.997798  0.324597  0.905773  1
  Hf  Hf8  1  0.164552  0.173430  0.124593  1
  Hf  Hf9  1  0.157637  0.170177  0.377822  1
  Hf  Hf10  1  0.996229  0.670476  0.404875  1
  Hf  Hf11  1  0.664853  0.325115  0.124279  1
  Hf  Hf12  1  0.499671  0.824977  0.093988  1
  Hf  Hf13  1  0.011790  0.328298  0.597118  1
  Hf  Hf14  1  0.342241  0.670150  0.625322  1
  Hf  Hf15  1  0.844729  0.829933  0.623342  1
  Nb  Nb16  1  0.665877  0.502683  0.749285  1
  Nb  Nb17  1  0.166975  0.999008  0.749339  1
  Nb  Nb18  1  0.333914  0.497247  0.250973  1
  Nb  Nb19  1  0.832740  0.000283  0.247663  1
  Si  Si20  1  0.680923  0.532765  0.538432  1
  Si  Si21  1  0.169072  0.970763  0.960801  1
  Si  Si22  1  0.297704  0.359289  0.753021  1
  Si  Si23  1  0.831266  0.029375  0.039010  1
  Si  Si24  1  0.330647  0.469014  0.038584  1
  Si  Si25  1  0.458646  0.105077  0.250283  1
  Si  Si26  1  0.701688  0.641657  0.247927  1
  Si  Si27  1  0.961369  0.394352  0.250338  1
  Si  Si28  1  0.799626  0.142603  0.750633  1
  Si  Si29  1  0.669028  0.530621  0.960678  1
  Si  Si30  1  0.198333  0.968786  0.540194  1
  Si  Si31  1  0.039010  0.605298  0.750470  1
  Si  Si32  1  0.321390  0.465455  0.462627  1
  Si  Si33  1  0.541789  0.895427  0.749037  1
  Si  Si34  1  0.199754  0.857261  0.248425  1
  Se  Se35  1  0.800551  0.029757  0.459756  1
