# generated using pymatgen
data_Ho7Tm(SiI6)2
_symmetry_space_group_name_H-M   'P 1'
_cell_length_a   4.18499900
_cell_length_b   13.97288684
_cell_length_c   14.71239289
_cell_angle_alpha   89.96023913
_cell_angle_beta   90.00000000
_cell_angle_gamma   90.00000000
_symmetry_Int_Tables_number   1
_chemical_formula_structural   Ho7Tm(SiI6)2
_chemical_formula_sum   'Ho7 Tm1 Si2 I12'
_cell_volume   860.32929226
_cell_formula_units_Z   1
loop_
 _symmetry_equiv_pos_site_id
 _symmetry_equiv_pos_as_xyz
  1  'x, y, z'
loop_
 _atom_site_type_symbol
 _atom_site_label
 _atom_site_symmetry_multiplicity
 _atom_site_fract_x
 _atom_site_fract_y
 _atom_site_fract_z
 _atom_site_occupancy
  Ho  Ho0  1  0.500000  0.114385  0.347876  1
  Ho  Ho1  1  0.500000  0.885620  0.652133  1
  Ho  Ho2  1  0.500000  0.614219  0.152030  1
  Ho  Ho3  1  0.500000  0.385675  0.848049  1
  Ho  Ho4  1  0.000000  0.110643  0.574411  1
  Ho  Ho5  1  0.000000  0.889355  0.425586  1
  Ho  Ho6  1  0.000000  0.610085  0.925972  1
  Tm  Tm7  1  0.000000  0.390034  0.073936  1
  Si  Si8  1  0.500000  0.000005  0.499987  1
  Si  Si9  1  0.500000  0.498952  0.000710  1
  I  I10  1  0.500000  0.248370  0.161641  1
  I  I11  1  0.500000  0.752974  0.837558  1
  I  I12  1  0.500000  0.746814  0.337433  1
  I  I13  1  0.500000  0.253137  0.662586  1
  I  I14  1  0.000000  0.258680  0.414637  1
  I  I15  1  0.000000  0.741345  0.585313  1
  I  I16  1  0.000000  0.758552  0.085222  1
  I  I17  1  0.000000  0.241849  0.915648  1
  I  I18  1  0.000000  0.999823  0.240295  1
  I  I19  1  0.000000  0.000260  0.759671  1
  I  I20  1  0.000000  0.498915  0.258843  1
  I  I21  1  0.000000  0.500307  0.740463  1
