# generated using pymatgen
data_Nd8Al(Si4Au)3
_symmetry_space_group_name_H-M   'P 1'
_cell_length_a   8.29191500
_cell_length_b   8.29191695
_cell_length_c   8.61953100
_cell_angle_alpha   90.00000000
_cell_angle_beta   90.00000000
_cell_angle_gamma   119.99999621
_symmetry_Int_Tables_number   1
_chemical_formula_structural   Nd8Al(Si4Au)3
_chemical_formula_sum   'Nd8 Al1 Si12 Au3'
_cell_volume   513.24422267
_cell_formula_units_Z   1
loop_
 _symmetry_equiv_pos_site_id
 _symmetry_equiv_pos_as_xyz
  1  'x, y, z'
loop_
 _atom_site_type_symbol
 _atom_site_label
 _atom_site_symmetry_multiplicity
 _atom_site_fract_x
 _atom_site_fract_y
 _atom_site_fract_z
 _atom_site_occupancy
  Nd  Nd0  1  0.501055  0.498945  0.746753  1
  Nd  Nd1  1  0.501605  0.498395  0.253139  1
  Nd  Nd2  1  0.997890  0.498945  0.746753  1
  Nd  Nd3  1  0.996791  0.498395  0.253139  1
  Nd  Nd4  1  0.501055  0.002110  0.746753  1
  Nd  Nd5  1  0.501605  0.003209  0.253139  1
  Nd  Nd6  1  0.000000  0.000000  0.749159  1
  Nd  Nd7  1  0.000000  0.000000  0.251167  1
  Al  Al8  1  0.666667  0.333333  0.499611  1
  Si  Si9  1  0.836491  0.163509  0.000807  1
  Si  Si10  1  0.163904  0.836096  0.999335  1
  Si  Si11  1  0.327018  0.163509  0.000807  1
  Si  Si12  1  0.164437  0.835563  0.499631  1
  Si  Si13  1  0.672191  0.836096  0.999335  1
  Si  Si14  1  0.835464  0.164536  0.500772  1
  Si  Si15  1  0.836491  0.672982  0.000807  1
  Si  Si16  1  0.671126  0.835563  0.499631  1
  Si  Si17  1  0.163904  0.327809  0.999335  1
  Si  Si18  1  0.329070  0.164536  0.500772  1
  Si  Si19  1  0.164437  0.328874  0.499631  1
  Si  Si20  1  0.835464  0.670930  0.500772  1
  Au  Au21  1  0.666667  0.333333  0.998121  1
  Au  Au22  1  0.333333  0.666667  0.001563  1
  Au  Au23  1  0.333333  0.666667  0.499069  1
