# generated using pymatgen
data_Zr2Be2GaRh5
_symmetry_space_group_name_H-M   'P 1'
_cell_length_a   9.39574700
_cell_length_b   9.39574700
_cell_length_c   3.16773600
_cell_angle_alpha   90.00000000
_cell_angle_beta   90.00000000
_cell_angle_gamma   90.00000000
_symmetry_Int_Tables_number   1
_chemical_formula_structural   Zr2Be2GaRh5
_chemical_formula_sum   'Zr4 Be4 Ga2 Rh10'
_cell_volume   279.64792949
_cell_formula_units_Z   2
loop_
 _symmetry_equiv_pos_site_id
 _symmetry_equiv_pos_as_xyz
  1  'x, y, z'
loop_
 _atom_site_type_symbol
 _atom_site_label
 _atom_site_symmetry_multiplicity
 _atom_site_fract_x
 _atom_site_fract_y
 _atom_site_fract_z
 _atom_site_occupancy
  Zr  Zr0  1  0.823473  0.323473  0.000000  1
  Zr  Zr1  1  0.323473  0.176527  0.000000  1
  Zr  Zr2  1  0.676527  0.823473  0.000000  1
  Zr  Zr3  1  0.176527  0.676527  0.000000  1
  Be  Be4  1  0.622931  0.122931  0.000000  1
  Be  Be5  1  0.122931  0.377069  0.000000  1
  Be  Be6  1  0.877069  0.622931  0.000000  1
  Be  Be7  1  0.377069  0.877069  0.000000  1
  Ga  Ga8  1  0.000000  0.000000  0.000000  1
  Ga  Ga9  1  0.500000  0.500000  0.000000  1
  Rh  Rh10  1  0.067943  0.211145  0.500000  1
  Rh  Rh11  1  0.211145  0.932057  0.500000  1
  Rh  Rh12  1  0.788855  0.067943  0.500000  1
  Rh  Rh13  1  0.932057  0.788855  0.500000  1
  Rh  Rh14  1  0.432057  0.711145  0.500000  1
  Rh  Rh15  1  0.567943  0.288855  0.500000  1
  Rh  Rh16  1  0.711145  0.567943  0.500000  1
  Rh  Rh17  1  0.288855  0.432057  0.500000  1
  Rh  Rh18  1  0.500000  0.000000  0.500000  1
  Rh  Rh19  1  0.000000  0.500000  0.500000  1
