# generated using pymatgen
data_Hf10BeSn4Sb3
_symmetry_space_group_name_H-M   'P 1'
_cell_length_a   5.84221601
_cell_length_b   8.65174805
_cell_length_c   8.64812800
_cell_angle_alpha   119.98695898
_cell_angle_beta   89.99913494
_cell_angle_gamma   89.99610592
_symmetry_Int_Tables_number   1
_chemical_formula_structural   Hf10BeSn4Sb3
_chemical_formula_sum   'Hf10 Be1 Sn4 Sb3'
_cell_volume   378.60929188
_cell_formula_units_Z   1
loop_
 _symmetry_equiv_pos_site_id
 _symmetry_equiv_pos_as_xyz
  1  'x, y, z'
loop_
 _atom_site_type_symbol
 _atom_site_label
 _atom_site_symmetry_multiplicity
 _atom_site_fract_x
 _atom_site_fract_y
 _atom_site_fract_z
 _atom_site_occupancy
  Hf  Hf0  1  0.498594  0.333587  0.666626  1
  Hf  Hf1  1  0.498604  0.666410  0.333021  1
  Hf  Hf2  1  0.000556  0.665815  0.332762  1
  Hf  Hf3  1  0.000563  0.334185  0.666939  1
  Hf  Hf4  1  0.723836  0.267585  0.000231  1
  Hf  Hf5  1  0.723855  0.732411  0.732645  1
  Hf  Hf6  1  0.723672  0.000000  0.266456  1
  Hf  Hf7  1  0.277092  0.731719  0.999741  1
  Hf  Hf8  1  0.277080  0.268280  0.268016  1
  Hf  Hf9  1  0.277721  0.000005  0.732176  1
  Be  Be10  1  0.499250  0.999997  0.999837  1
  Sn  Sn11  1  0.758881  0.999996  0.608918  1
  Sn  Sn12  1  0.241691  0.389770  0.999701  1
  Sn  Sn13  1  0.241696  0.610229  0.609935  1
  Sn  Sn14  1  0.241192  0.000004  0.390925  1
  Sb  Sb15  1  0.757371  0.607486  0.999955  1
  Sb  Sb16  1  0.757381  0.392520  0.392470  1
  Sb  Sb17  1  0.000965  0.000000  0.999649  1
