# generated using pymatgen
data_Ce3Y(Rh2Au)2
_symmetry_space_group_name_H-M   'P 1'
_cell_length_a   7.55430824
_cell_length_b   7.55430874
_cell_length_c   3.67505900
_cell_angle_alpha   90.00000000
_cell_angle_beta   90.00000000
_cell_angle_gamma   88.31566225
_symmetry_Int_Tables_number   1
_chemical_formula_structural   Ce3Y(Rh2Au)2
_chemical_formula_sum   'Ce3 Y1 Rh4 Au2'
_cell_volume   209.63609559
_cell_formula_units_Z   1
loop_
 _symmetry_equiv_pos_site_id
 _symmetry_equiv_pos_as_xyz
  1  'x, y, z'
loop_
 _atom_site_type_symbol
 _atom_site_label
 _atom_site_symmetry_multiplicity
 _atom_site_fract_x
 _atom_site_fract_y
 _atom_site_fract_z
 _atom_site_occupancy
  Ce  Ce0  1  0.327680  0.827680  0.500000  1
  Ce  Ce1  1  0.170195  0.325383  0.500000  1
  Ce  Ce2  1  0.825383  0.670195  0.500000  1
  Y  Y3  1  0.672059  0.172059  0.500000  1
  Rh  Rh4  1  0.143206  0.643206  0.000000  1
  Rh  Rh5  1  0.879528  0.379528  0.000000  1
  Rh  Rh6  1  0.632294  0.856312  0.000000  1
  Rh  Rh7  1  0.356312  0.132294  0.000000  1
  Au  Au8  1  0.989666  0.003679  0.000000  1
  Au  Au9  1  0.503679  0.489666  0.000000  1
