# generated using pymatgen
data_TmLu9(InBi)3
_symmetry_space_group_name_H-M   'P 1'
_cell_length_a   6.43779400
_cell_length_b   8.88097231
_cell_length_c   8.88316908
_cell_angle_alpha   119.99182299
_cell_angle_beta   89.99826393
_cell_angle_gamma   90.00347776
_symmetry_Int_Tables_number   1
_chemical_formula_structural   TmLu9(InBi)3
_chemical_formula_sum   'Tm1 Lu9 In3 Bi3'
_cell_volume   439.87768414
_cell_formula_units_Z   1
loop_
 _symmetry_equiv_pos_site_id
 _symmetry_equiv_pos_as_xyz
  1  'x, y, z'
loop_
 _atom_site_type_symbol
 _atom_site_label
 _atom_site_symmetry_multiplicity
 _atom_site_fract_x
 _atom_site_fract_y
 _atom_site_fract_z
 _atom_site_occupancy
  Tm  Tm0  1  0.749802  0.234599  0.000000  1
  Lu  Lu1  1  0.491819  0.333371  0.666749  1
  Lu  Lu2  1  0.491819  0.666623  0.333251  1
  Lu  Lu3  1  0.008236  0.666715  0.333379  1
  Lu  Lu4  1  0.008236  0.333337  0.666621  1
  Lu  Lu5  1  0.749912  0.765443  0.765429  1
  Lu  Lu6  1  0.749912  0.000016  0.234571  1
  Lu  Lu7  1  0.249916  0.763225  0.000000  1
  Lu  Lu8  1  0.249879  0.236845  0.236878  1
  Lu  Lu9  1  0.249879  0.999968  0.763122  1
  In  In10  1  0.249988  0.392857  0.000000  1
  In  In11  1  0.250320  0.606928  0.606935  1
  In  In12  1  0.250320  0.999993  0.393065  1
  Bi  Bi13  1  0.750028  0.602549  0.000000  1
  Bi  Bi14  1  0.749968  0.397580  0.397625  1
  Bi  Bi15  1  0.749968  0.999955  0.602375  1
