# generated using pymatgen
data_Cs2Lu2MnZnTe6
_symmetry_space_group_name_H-M   'P 1'
_cell_length_a   8.86517328
_cell_length_b   8.86517345
_cell_length_c   11.58342400
_cell_angle_alpha   90.00000000
_cell_angle_beta   90.00000000
_cell_angle_gamma   150.90342793
_symmetry_Int_Tables_number   1
_chemical_formula_structural   Cs2Lu2MnZnTe6
_chemical_formula_sum   'Cs2 Lu2 Mn1 Zn1 Te6'
_cell_volume   442.69090387
_cell_formula_units_Z   1
loop_
 _symmetry_equiv_pos_site_id
 _symmetry_equiv_pos_as_xyz
  1  'x, y, z'
loop_
 _atom_site_type_symbol
 _atom_site_label
 _atom_site_symmetry_multiplicity
 _atom_site_fract_x
 _atom_site_fract_y
 _atom_site_fract_z
 _atom_site_occupancy
  Cs  Cs0  1  0.253649  0.746351  0.250000  1
  Cs  Cs1  1  0.746398  0.253602  0.750000  1
  Lu  Lu2  1  0.000014  0.999986  0.500388  1
  Lu  Lu3  1  0.000014  0.999986  0.999612  1
  Mn  Mn4  1  0.537208  0.462792  0.250000  1
  Zn  Zn5  1  0.461809  0.538191  0.750000  1
  Te  Te6  1  0.618250  0.381750  0.447517  1
  Te  Te7  1  0.382496  0.617504  0.553554  1
  Te  Te8  1  0.618250  0.381750  0.052483  1
  Te  Te9  1  0.382496  0.617504  0.946446  1
  Te  Te10  1  0.941186  0.058814  0.250000  1
  Te  Te11  1  0.058230  0.941770  0.750000  1
