# generated using pymatgen
data_Ca6Y2Zn3Si12Rh
_symmetry_space_group_name_H-M   'P 1'
_cell_length_a   8.20084100
_cell_length_b   8.20084106
_cell_length_c   8.40323400
_cell_angle_alpha   90.00000000
_cell_angle_beta   90.00000000
_cell_angle_gamma   119.99999571
_symmetry_Int_Tables_number   1
_chemical_formula_structural   Ca6Y2Zn3Si12Rh
_chemical_formula_sum   'Ca6 Y2 Zn3 Si12 Rh1'
_cell_volume   489.43372836
_cell_formula_units_Z   1
loop_
 _symmetry_equiv_pos_site_id
 _symmetry_equiv_pos_as_xyz
  1  'x, y, z'
loop_
 _atom_site_type_symbol
 _atom_site_label
 _atom_site_symmetry_multiplicity
 _atom_site_fract_x
 _atom_site_fract_y
 _atom_site_fract_z
 _atom_site_occupancy
  Ca  Ca0  1  0.498294  0.996591  0.255426  1
  Ca  Ca1  1  0.497342  0.994683  0.744413  1
  Ca  Ca2  1  0.003409  0.501706  0.255426  1
  Ca  Ca3  1  0.005317  0.502658  0.744413  1
  Ca  Ca4  1  0.498294  0.501706  0.255426  1
  Ca  Ca5  1  0.497342  0.502658  0.744413  1
  Y  Y6  1  0.000000  0.000000  0.251874  1
  Y  Y7  1  0.000000  0.000000  0.748082  1
  Zn  Zn8  1  0.333333  0.666667  0.004305  1
  Zn  Zn9  1  0.666667  0.333333  0.997454  1
  Zn  Zn10  1  0.666667  0.333333  0.500703  1
  Si  Si11  1  0.164182  0.328367  0.998339  1
  Si  Si12  1  0.835685  0.671371  0.001494  1
  Si  Si13  1  0.671633  0.835818  0.998339  1
  Si  Si14  1  0.839650  0.679301  0.500852  1
  Si  Si15  1  0.328629  0.164315  0.001494  1
  Si  Si16  1  0.169392  0.338784  0.499058  1
  Si  Si17  1  0.164182  0.835818  0.998339  1
  Si  Si18  1  0.320699  0.160350  0.500852  1
  Si  Si19  1  0.835685  0.164315  0.001494  1
  Si  Si20  1  0.661216  0.830608  0.499058  1
  Si  Si21  1  0.839650  0.160350  0.500852  1
  Si  Si22  1  0.169392  0.830608  0.499058  1
  Rh  Rh23  1  0.333333  0.666667  0.498835  1
