# generated using pymatgen
data_Ce4In2RuRhAu2
_symmetry_space_group_name_H-M   'P 1'
_cell_length_a   7.91305024
_cell_length_b   7.91304967
_cell_length_c   3.74543100
_cell_angle_alpha   90.00000000
_cell_angle_beta   90.00000000
_cell_angle_gamma   88.68256039
_symmetry_Int_Tables_number   1
_chemical_formula_structural   Ce4In2RuRhAu2
_chemical_formula_sum   'Ce4 In2 Ru1 Rh1 Au2'
_cell_volume   234.46325928
_cell_formula_units_Z   1
loop_
 _symmetry_equiv_pos_site_id
 _symmetry_equiv_pos_as_xyz
  1  'x, y, z'
loop_
 _atom_site_type_symbol
 _atom_site_label
 _atom_site_symmetry_multiplicity
 _atom_site_fract_x
 _atom_site_fract_y
 _atom_site_fract_z
 _atom_site_occupancy
  Ce  Ce0  1  0.660852  0.158174  0.500000  1
  Ce  Ce1  1  0.341826  0.839148  0.500000  1
  Ce  Ce2  1  0.184225  0.315775  0.500000  1
  Ce  Ce3  1  0.808744  0.691256  0.500000  1
  In  In4  1  0.000079  0.000425  0.000000  1
  In  In5  1  0.499575  0.499921  0.000000  1
  Ru  Ru6  1  0.642095  0.857905  0.000000  1
  Rh  Rh7  1  0.365060  0.134940  0.000000  1
  Au  Au8  1  0.127009  0.629464  0.000000  1
  Au  Au9  1  0.870536  0.372991  0.000000  1
