# generated using pymatgen
data_YErU(GaRu)3
_symmetry_space_group_name_H-M   'P 1'
_cell_length_a   6.89619324
_cell_length_b   6.90004483
_cell_length_c   3.96802200
_cell_angle_alpha   90.00000000
_cell_angle_beta   90.00000000
_cell_angle_gamma   116.25839704
_symmetry_Int_Tables_number   1
_chemical_formula_structural   YErU(GaRu)3
_chemical_formula_sum   'Y1 Er1 U1 Ga3 Ru3'
_cell_volume   169.33036229
_cell_formula_units_Z   1
loop_
 _symmetry_equiv_pos_site_id
 _symmetry_equiv_pos_as_xyz
  1  'x, y, z'
loop_
 _atom_site_type_symbol
 _atom_site_label
 _atom_site_symmetry_multiplicity
 _atom_site_fract_x
 _atom_site_fract_y
 _atom_site_fract_z
 _atom_site_occupancy
  Y  Y0  1  0.411982  0.006431  0.500000  1
  Er  Er1  1  0.006740  0.411390  0.500000  1
  U  U2  1  0.618166  0.617777  0.500000  1
  Ga  Ga3  1  0.744739  0.032840  0.000000  1
  Ga  Ga4  1  0.031975  0.742796  0.000000  1
  Ga  Ga5  1  0.212014  0.213059  0.000000  1
  Ru  Ru6  1  0.379760  0.635766  0.000000  1
  Ru  Ru7  1  0.638350  0.381673  0.000000  1
  Ru  Ru8  1  0.956276  0.958271  0.500000  1
