# generated using pymatgen
data_Pr6Al23VOs8
_symmetry_space_group_name_H-M   'P 1'
_cell_length_a   8.93502900
_cell_length_b   8.93502780
_cell_length_c   9.69731700
_cell_angle_alpha   90.00000000
_cell_angle_beta   90.00000000
_cell_angle_gamma   120.00000074
_symmetry_Int_Tables_number   1
_chemical_formula_structural   Pr6Al23VOs8
_chemical_formula_sum   'Pr6 Al23 V1 Os8'
_cell_volume   670.46188789
_cell_formula_units_Z   1
loop_
 _symmetry_equiv_pos_site_id
 _symmetry_equiv_pos_as_xyz
  1  'x, y, z'
loop_
 _atom_site_type_symbol
 _atom_site_label
 _atom_site_symmetry_multiplicity
 _atom_site_fract_x
 _atom_site_fract_y
 _atom_site_fract_z
 _atom_site_occupancy
  Pr  Pr0  1  0.193437  0.386875  0.249025  1
  Pr  Pr1  1  0.807579  0.615157  0.749664  1
  Pr  Pr2  1  0.613125  0.806563  0.249025  1
  Pr  Pr3  1  0.384843  0.192421  0.749664  1
  Pr  Pr4  1  0.193437  0.806563  0.249025  1
  Pr  Pr5  1  0.807579  0.192421  0.749664  1
  Al  Al6  1  0.666667  0.333333  0.986235  1
  Al  Al7  1  0.666667  0.333333  0.511343  1
  Al  Al8  1  0.333333  0.666667  0.490141  1
  Al  Al9  1  0.162590  0.325179  0.573990  1
  Al  Al10  1  0.837429  0.674859  0.425978  1
  Al  Al11  1  0.674821  0.837410  0.573990  1
  Al  Al12  1  0.836089  0.672179  0.075121  1
  Al  Al13  1  0.325141  0.162571  0.425978  1
  Al  Al14  1  0.160602  0.321202  0.927518  1
  Al  Al15  1  0.162590  0.837410  0.573990  1
  Al  Al16  1  0.327821  0.163911  0.075121  1
  Al  Al17  1  0.837429  0.162571  0.425978  1
  Al  Al18  1  0.678798  0.839398  0.927518  1
  Al  Al19  1  0.836089  0.163911  0.075121  1
  Al  Al20  1  0.160602  0.839398  0.927518  1
  Al  Al21  1  0.563386  0.126772  0.252260  1
  Al  Al22  1  0.439369  0.878737  0.749852  1
  Al  Al23  1  0.873228  0.436614  0.252260  1
  Al  Al24  1  0.121263  0.560631  0.749852  1
  Al  Al25  1  0.563386  0.436614  0.252260  1
  Al  Al26  1  0.439369  0.560631  0.749852  1
  Al  Al27  1  0.000000  0.000000  0.251116  1
  Al  Al28  1  0.000000  0.000000  0.749857  1
  V  V29  1  0.333333  0.666667  0.977148  1
  Os  Os30  1  0.495063  0.990126  0.005058  1
  Os  Os31  1  0.009874  0.504937  0.005058  1
  Os  Os32  1  0.499352  0.998703  0.502502  1
  Os  Os33  1  0.495063  0.504937  0.005058  1
  Os  Os34  1  0.001297  0.500648  0.502502  1
  Os  Os35  1  0.499352  0.500648  0.502502  1
  Os  Os36  1  0.000000  0.000000  0.001601  1
  Os  Os37  1  0.000000  0.000000  0.499654  1
