# generated using pymatgen
data_La6CoPd
_symmetry_space_group_name_H-M   'P 1'
_cell_length_a   6.60826961
_cell_length_b   7.34373770
_cell_length_c   10.22975300
_cell_angle_alpha   90.00000000
_cell_angle_beta   90.00000000
_cell_angle_gamma   89.54795188
_symmetry_Int_Tables_number   1
_chemical_formula_structural   La6CoPd
_chemical_formula_sum   'La12 Co2 Pd2'
_cell_volume   496.42831052
_cell_formula_units_Z   2
loop_
 _symmetry_equiv_pos_site_id
 _symmetry_equiv_pos_as_xyz
  1  'x, y, z'
loop_
 _atom_site_type_symbol
 _atom_site_label
 _atom_site_symmetry_multiplicity
 _atom_site_fract_x
 _atom_site_fract_y
 _atom_site_fract_z
 _atom_site_occupancy
  La  La0  1  0.835803  0.656930  0.070759  1
  La  La1  1  0.675647  0.179741  0.064372  1
  La  La2  1  0.164197  0.343070  0.929241  1
  La  La3  1  0.324353  0.820259  0.564372  1
  La  La4  1  0.869813  0.942621  0.750000  1
  La  La5  1  0.130187  0.057379  0.250000  1
  La  La6  1  0.164197  0.343070  0.570759  1
  La  La7  1  0.675647  0.179741  0.435628  1
  La  La8  1  0.324353  0.820259  0.935628  1
  La  La9  1  0.835803  0.656930  0.429241  1
  La  La10  1  0.334357  0.524867  0.250000  1
  La  La11  1  0.665643  0.475133  0.750000  1
  Co  Co12  1  0.078198  0.628865  0.750000  1
  Co  Co13  1  0.921802  0.371135  0.250000  1
  Pd  Pd14  1  0.561269  0.882912  0.250000  1
  Pd  Pd15  1  0.438731  0.117088  0.750000  1
