# generated using pymatgen
data_TbEr3Al13Ga5Ir6
_symmetry_space_group_name_H-M   'P 1'
_cell_length_a   7.52915810
_cell_length_b   7.52973378
_cell_length_c   9.55006100
_cell_angle_alpha   90.00000000
_cell_angle_beta   90.00000000
_cell_angle_gamma   119.75741784
_symmetry_Int_Tables_number   1
_chemical_formula_structural   TbEr3Al13Ga5Ir6
_chemical_formula_sum   'Tb1 Er3 Al13 Ga5 Ir6'
_cell_volume   470.02313180
_cell_formula_units_Z   1
loop_
 _symmetry_equiv_pos_site_id
 _symmetry_equiv_pos_as_xyz
  1  'x, y, z'
loop_
 _atom_site_type_symbol
 _atom_site_label
 _atom_site_symmetry_multiplicity
 _atom_site_fract_x
 _atom_site_fract_y
 _atom_site_fract_z
 _atom_site_occupancy
  Tb  Tb0  1  0.003258  0.330340  0.250000  1
  Er  Er1  1  0.997790  0.667438  0.750000  1
  Er  Er2  1  0.667394  0.997771  0.750000  1
  Er  Er3  1  0.330318  0.003198  0.250000  1
  Al  Al4  1  0.125872  0.125856  0.750000  1
  Al  Al5  1  0.001302  0.333963  0.573269  1
  Al  Al6  1  0.998437  0.666143  0.427831  1
  Al  Al7  1  0.998437  0.666143  0.072169  1
  Al  Al8  1  0.333966  0.001299  0.926907  1
  Al  Al9  1  0.001302  0.333963  0.926731  1
  Al  Al10  1  0.665658  0.998196  0.072178  1
  Al  Al11  1  0.665658  0.998196  0.427822  1
  Al  Al12  1  0.333966  0.001299  0.573093  1
  Al  Al13  1  0.334277  0.334058  0.054231  1
  Al  Al14  1  0.666828  0.666826  0.942303  1
  Al  Al15  1  0.666828  0.666826  0.557697  1
  Al  Al16  1  0.334277  0.334058  0.445769  1
  Ga  Ga17  1  0.872100  0.871945  0.250000  1
  Ga  Ga18  1  0.339027  0.546099  0.750000  1
  Ga  Ga19  1  0.660721  0.452702  0.250000  1
  Ga  Ga20  1  0.546080  0.339004  0.750000  1
  Ga  Ga21  1  0.452926  0.661079  0.250000  1
  Ir  Ir22  1  0.672550  0.328380  0.499934  1
  Ir  Ir23  1  0.328476  0.672772  0.499932  1
  Ir  Ir24  1  0.328476  0.672772  0.000068  1
  Ir  Ir25  1  0.672550  0.328380  0.000066  1
  Ir  Ir26  1  0.000761  0.000643  0.502661  1
  Ir  Ir27  1  0.000761  0.000643  0.997339  1
