# generated using pymatgen
data_Tb17Dy3(Ir2Rh)4
_symmetry_space_group_name_H-M   'P 1'
_cell_length_a   10.91713600
_cell_length_b   10.91713600
_cell_length_c   6.40837800
_cell_angle_alpha   90.00000000
_cell_angle_beta   90.00000000
_cell_angle_gamma   90.00000000
_symmetry_Int_Tables_number   1
_chemical_formula_structural   Tb17Dy3(Ir2Rh)4
_chemical_formula_sum   'Tb17 Dy3 Ir8 Rh4'
_cell_volume   763.77521640
_cell_formula_units_Z   1
loop_
 _symmetry_equiv_pos_site_id
 _symmetry_equiv_pos_as_xyz
  1  'x, y, z'
loop_
 _atom_site_type_symbol
 _atom_site_label
 _atom_site_symmetry_multiplicity
 _atom_site_fract_x
 _atom_site_fract_y
 _atom_site_fract_z
 _atom_site_occupancy
  Tb  Tb0  1  0.290569  0.089081  0.379440  1
  Tb  Tb1  1  0.290509  0.910919  0.879492  1
  Tb  Tb2  1  0.709491  0.089081  0.879492  1
  Tb  Tb3  1  0.709431  0.910919  0.379440  1
  Tb  Tb4  1  0.589079  0.790470  0.879458  1
  Tb  Tb5  1  0.589051  0.209531  0.379481  1
  Tb  Tb6  1  0.410949  0.790469  0.379481  1
  Tb  Tb7  1  0.410921  0.209530  0.879458  1
  Tb  Tb8  1  0.209531  0.410949  0.620519  1
  Tb  Tb9  1  0.209530  0.589079  0.120542  1
  Tb  Tb10  1  0.790470  0.410921  0.120542  1
  Tb  Tb11  1  0.790469  0.589051  0.620519  1
  Tb  Tb12  1  0.910919  0.709491  0.120508  1
  Tb  Tb13  1  0.910919  0.290569  0.620560  1
  Tb  Tb14  1  0.089081  0.709431  0.620560  1
  Tb  Tb15  1  0.089081  0.290509  0.120508  1
  Tb  Tb16  1  0.000000  0.000000  0.500000  1
  Dy  Dy17  1  0.000000  0.000000  0.000000  1
  Dy  Dy18  1  0.500000  0.500000  0.000000  1
  Dy  Dy19  1  0.500000  0.500000  0.500000  1
  Ir  Ir20  1  0.846194  0.153805  0.249775  1
  Ir  Ir21  1  0.846195  0.846194  0.750225  1
  Ir  Ir22  1  0.153805  0.153806  0.750225  1
  Ir  Ir23  1  0.153806  0.846195  0.249775  1
  Ir  Ir24  1  0.653651  0.346359  0.749988  1
  Ir  Ir25  1  0.653641  0.653651  0.250012  1
  Ir  Ir26  1  0.346359  0.346349  0.250012  1
  Ir  Ir27  1  0.346349  0.653641  0.749988  1
  Rh  Rh28  1  0.500000  0.000000  0.123935  1
  Rh  Rh29  1  0.500000  0.000000  0.623926  1
  Rh  Rh30  1  0.000000  0.500000  0.876065  1
  Rh  Rh31  1  0.000000  0.500000  0.376074  1
