# generated using pymatgen
data_TaMn6Nb11(Al8Ir)2
_symmetry_space_group_name_H-M   'P 1'
_cell_length_a   8.79376230
_cell_length_b   8.84813702
_cell_length_c   8.20691274
_cell_angle_alpha   89.95220756
_cell_angle_beta   90.01755367
_cell_angle_gamma   120.62666006
_symmetry_Int_Tables_number   1
_chemical_formula_structural   TaMn6Nb11(Al8Ir)2
_chemical_formula_sum   'Ta1 Mn6 Nb11 Al16 Ir2'
_cell_volume   549.48982803
_cell_formula_units_Z   1
loop_
 _symmetry_equiv_pos_site_id
 _symmetry_equiv_pos_as_xyz
  1  'x, y, z'
loop_
 _atom_site_type_symbol
 _atom_site_label
 _atom_site_symmetry_multiplicity
 _atom_site_fract_x
 _atom_site_fract_y
 _atom_site_fract_z
 _atom_site_occupancy
  Ta  Ta0  1  0.337734  0.005684  0.063449  1
  Mn  Mn1  1  0.176320  0.503937  0.749528  1
  Mn  Mn2  1  0.824614  0.496412  0.250738  1
  Mn  Mn3  1  0.489580  0.659058  0.750262  1
  Mn  Mn4  1  0.498710  0.165905  0.752023  1
  Mn  Mn5  1  0.508763  0.338903  0.249086  1
  Mn  Mn6  1  0.500158  0.834514  0.248901  1
  Nb  Nb7  1  0.662274  0.995823  0.936296  1
  Nb  Nb8  1  0.999354  0.333260  0.062965  1
  Nb  Nb9  1  0.662711  0.995979  0.564036  1
  Nb  Nb10  1  0.999125  0.333086  0.437184  1
  Nb  Nb11  1  0.001193  0.666905  0.936740  1
  Nb  Nb12  1  0.337333  0.003731  0.435194  1
  Nb  Nb13  1  0.000520  0.666628  0.562856  1
  Nb  Nb14  1  0.662055  0.666621  0.064231  1
  Nb  Nb15  1  0.338635  0.332865  0.936014  1
  Nb  Nb16  1  0.337804  0.333386  0.564300  1
  Nb  Nb17  1  0.661876  0.666569  0.435999  1
  Al  Al18  1  0.339687  0.843343  0.749858  1
  Al  Al19  1  0.655626  0.503676  0.749950  1
  Al  Al20  1  0.660765  0.157085  0.250263  1
  Al  Al21  1  0.344655  0.496488  0.249856  1
  Al  Al22  1  0.843796  0.337966  0.749903  1
  Al  Al23  1  0.156462  0.662282  0.249652  1
  Al  Al24  1  0.338254  0.669348  0.499966  1
  Al  Al25  1  0.660995  0.330342  0.500054  1
  Al  Al26  1  0.663666  0.332096  0.000565  1
  Al  Al27  1  0.337398  0.668910  0.999480  1
  Al  Al28  1  0.175482  0.004862  0.748919  1
  Al  Al29  1  0.824213  0.994586  0.249421  1
  Al  Al30  1  0.012371  0.180941  0.750663  1
  Al  Al31  1  0.987675  0.819013  0.250489  1
  Al  Al32  1  0.820227  0.832325  0.750334  1
  Al  Al33  1  0.179058  0.167838  0.250622  1
  Ir  Ir34  1  0.999372  0.999995  0.499931  1
  Ir  Ir35  1  0.001538  0.999637  0.000270  1
