# generated using pymatgen
data_Zr2PaMn3
_symmetry_space_group_name_H-M   'P 1'
_cell_length_a   5.39315014
_cell_length_b   5.39315070
_cell_length_c   5.06297796
_cell_angle_alpha   57.81825745
_cell_angle_beta   57.81825208
_cell_angle_gamma   60.00000533
_symmetry_Int_Tables_number   1
_chemical_formula_structural   Zr2PaMn3
_chemical_formula_sum   'Zr2 Pa1 Mn3'
_cell_volume   100.56291910
_cell_formula_units_Z   1
loop_
 _symmetry_equiv_pos_site_id
 _symmetry_equiv_pos_as_xyz
  1  'x, y, z'
loop_
 _atom_site_type_symbol
 _atom_site_label
 _atom_site_symmetry_multiplicity
 _atom_site_fract_x
 _atom_site_fract_y
 _atom_site_fract_z
 _atom_site_occupancy
  Zr  Zr0  1  0.750902  0.750902  0.747295  1
  Zr  Zr1  1  0.499098  0.499098  0.502705  1
  Pa  Pa2  1  0.125000  0.125000  0.625000  1
  Mn  Mn3  1  0.125000  0.625000  0.125000  1
  Mn  Mn4  1  0.625000  0.125000  0.125000  1
  Mn  Mn5  1  0.125000  0.125000  0.125000  1
