# generated using pymatgen
data_Dy20Ir7Ru3Rh2
_symmetry_space_group_name_H-M   'P 1'
_cell_length_a   10.84170491
_cell_length_b   10.83844971
_cell_length_c   6.43863187
_cell_angle_alpha   90.01833586
_cell_angle_beta   90.01197788
_cell_angle_gamma   89.89872221
_symmetry_Int_Tables_number   1
_chemical_formula_structural   Dy20Ir7Ru3Rh2
_chemical_formula_sum   'Dy20 Ir7 Ru3 Rh2'
_cell_volume   756.58483852
_cell_formula_units_Z   1
loop_
 _symmetry_equiv_pos_site_id
 _symmetry_equiv_pos_as_xyz
  1  'x, y, z'
loop_
 _atom_site_type_symbol
 _atom_site_label
 _atom_site_symmetry_multiplicity
 _atom_site_fract_x
 _atom_site_fract_y
 _atom_site_fract_z
 _atom_site_occupancy
  Dy  Dy0  1  0.291950  0.087741  0.382032  1
  Dy  Dy1  1  0.291683  0.912376  0.876229  1
  Dy  Dy2  1  0.707864  0.087147  0.874943  1
  Dy  Dy3  1  0.707293  0.910429  0.382089  1
  Dy  Dy4  1  0.587784  0.791475  0.876758  1
  Dy  Dy5  1  0.586437  0.208058  0.382277  1
  Dy  Dy6  1  0.411720  0.792194  0.381961  1
  Dy  Dy7  1  0.412088  0.208466  0.876088  1
  Dy  Dy8  1  0.206400  0.413541  0.620271  1
  Dy  Dy9  1  0.206195  0.587283  0.120936  1
  Dy  Dy10  1  0.793517  0.414597  0.120888  1
  Dy  Dy11  1  0.793768  0.586687  0.620716  1
  Dy  Dy12  1  0.913448  0.706538  0.120699  1
  Dy  Dy13  1  0.914348  0.294220  0.621959  1
  Dy  Dy14  1  0.086407  0.706106  0.620679  1
  Dy  Dy15  1  0.088493  0.294205  0.120638  1
  Dy  Dy16  1  0.000198  0.999950  0.500359  1
  Dy  Dy17  1  0.000076  0.999863  0.001103  1
  Dy  Dy18  1  0.499927  0.500182  0.001050  1
  Dy  Dy19  1  0.499849  0.499988  0.500923  1
  Ir  Ir20  1  0.846975  0.848558  0.750367  1
  Ir  Ir21  1  0.152080  0.152414  0.750696  1
  Ir  Ir22  1  0.153806  0.848330  0.249837  1
  Ir  Ir23  1  0.652403  0.346959  0.750721  1
  Ir  Ir24  1  0.651736  0.653287  0.249938  1
  Ir  Ir25  1  0.348712  0.346120  0.249378  1
  Ir  Ir26  1  0.347791  0.652874  0.750665  1
  Ru  Ru27  1  0.500702  0.000303  0.622758  1
  Ru  Ru28  1  0.999523  0.499339  0.876106  1
  Ru  Ru29  1  0.999392  0.499244  0.375237  1
  Rh  Rh30  1  0.846637  0.150989  0.249661  1
  Rh  Rh31  1  0.500793  0.000540  0.122039  1
