# generated using pymatgen
data_Hf5ScCo16(MoP6)2
_symmetry_space_group_name_H-M   'P 1'
_cell_length_a   11.95497702
_cell_length_b   11.95454407
_cell_length_c   3.64381900
_cell_angle_alpha   90.00000000
_cell_angle_beta   90.00000000
_cell_angle_gamma   120.00290770
_symmetry_Int_Tables_number   1
_chemical_formula_structural   Hf5ScCo16(MoP6)2
_chemical_formula_sum   'Hf5 Sc1 Co16 Mo2 P12'
_cell_volume   450.97915165
_cell_formula_units_Z   1
loop_
 _symmetry_equiv_pos_site_id
 _symmetry_equiv_pos_as_xyz
  1  'x, y, z'
loop_
 _atom_site_type_symbol
 _atom_site_label
 _atom_site_symmetry_multiplicity
 _atom_site_fract_x
 _atom_site_fract_y
 _atom_site_fract_z
 _atom_site_occupancy
  Hf  Hf0  1  0.821078  0.819609  0.500000  1
  Hf  Hf1  1  0.000130  0.174789  0.500000  1
  Hf  Hf2  1  0.665857  0.333572  0.000000  1
  Hf  Hf3  1  0.000155  0.556096  0.000000  1
  Hf  Hf4  1  0.178583  0.998080  0.500000  1
  Sc  Sc5  1  0.334689  0.667885  0.000000  1
  Co  Co6  1  0.628629  0.824662  0.000000  1
  Co  Co7  1  0.373230  0.195775  0.000000  1
  Co  Co8  1  0.999646  0.721323  0.500000  1
  Co  Co9  1  0.280514  0.279139  0.500000  1
  Co  Co10  1  0.869323  0.350654  0.500000  1
  Co  Co11  1  0.720020  0.999864  0.500000  1
  Co  Co12  1  0.817478  0.627709  0.000000  1
  Co  Co13  1  0.180697  0.809731  0.000000  1
  Co  Co14  1  0.356621  0.876824  0.500000  1
  Co  Co15  1  0.127018  0.477207  0.500000  1
  Co  Co16  1  0.643045  0.517019  0.500000  1
  Co  Co17  1  0.999940  0.999772  0.000000  1
  Co  Co18  1  0.517237  0.647994  0.500000  1
  Co  Co19  1  0.485503  0.132799  0.500000  1
  Co  Co20  1  0.194755  0.367458  0.000000  1
  Co  Co21  1  0.805543  0.174701  0.000000  1
  Mo  Mo22  1  0.447707  0.449577  0.000000  1
  Mo  Mo23  1  0.552217  0.001886  0.000000  1
  P  P24  1  0.000882  0.345571  0.000000  1
  P  P25  1  0.825567  0.516281  0.500000  1
  P  P26  1  0.685187  0.166924  0.500000  1
  P  P27  1  0.176192  0.173141  0.000000  1
  P  P28  1  0.641971  0.646425  0.000000  1
  P  P29  1  0.824311  0.998026  0.000000  1
  P  P30  1  0.517035  0.833520  0.500000  1
  P  P31  1  0.175076  0.690618  0.500000  1
  P  P32  1  0.357122  0.002937  0.000000  1
  P  P33  1  0.482400  0.315960  0.500000  1
  P  P34  1  0.999619  0.824377  0.000000  1
  P  P35  1  0.315024  0.482098  0.500000  1
