# generated using pymatgen
data_Yb3YEr4(B6Os)4
_symmetry_space_group_name_H-M   'P 1'
_cell_length_a   3.63598400
_cell_length_b   9.13624803
_cell_length_c   11.52942300
_cell_angle_alpha   89.93281626
_cell_angle_beta   90.00000000
_cell_angle_gamma   90.00000000
_symmetry_Int_Tables_number   1
_chemical_formula_structural   Yb3YEr4(B6Os)4
_chemical_formula_sum   'Yb3 Y1 Er4 B24 Os4'
_cell_volume   382.99854101
_cell_formula_units_Z   1
loop_
 _symmetry_equiv_pos_site_id
 _symmetry_equiv_pos_as_xyz
  1  'x, y, z'
loop_
 _atom_site_type_symbol
 _atom_site_label
 _atom_site_symmetry_multiplicity
 _atom_site_fract_x
 _atom_site_fract_y
 _atom_site_fract_z
 _atom_site_occupancy
  Yb  Yb0  1  0.000000  0.324585  0.414461  1
  Yb  Yb1  1  0.000000  0.675493  0.585084  1
  Yb  Yb2  1  0.000000  0.823101  0.086251  1
  Y  Y3  1  0.000000  0.176267  0.914853  1
  Er  Er4  1  0.000000  0.941385  0.367800  1
  Er  Er5  1  0.000000  0.057722  0.630411  1
  Er  Er6  1  0.000000  0.443413  0.132020  1
  Er  Er7  1  0.000000  0.558468  0.868794  1
  B  B8  1  0.500000  0.553179  0.433026  1
  B  B9  1  0.500000  0.446274  0.567724  1
  B  B10  1  0.500000  0.053532  0.067163  1
  B  B11  1  0.500000  0.945608  0.933224  1
  B  B12  1  0.500000  0.748474  0.417532  1
  B  B13  1  0.500000  0.251343  0.582407  1
  B  B14  1  0.500000  0.249097  0.082261  1
  B  B15  1  0.500000  0.751595  0.917967  1
  B  B16  1  0.500000  0.790902  0.264276  1
  B  B17  1  0.500000  0.208711  0.735521  1
  B  B18  1  0.500000  0.291249  0.234867  1
  B  B19  1  0.500000  0.709791  0.764996  1
  B  B20  1  0.500000  0.630850  0.185983  1
  B  B21  1  0.500000  0.369399  0.814847  1
  B  B22  1  0.500000  0.130903  0.313640  1
  B  B23  1  0.500000  0.869391  0.685146  1
  B  B24  1  0.500000  0.982652  0.210791  1
  B  B25  1  0.500000  0.016827  0.788260  1
  B  B26  1  0.500000  0.483515  0.288975  1
  B  B27  1  0.500000  0.516462  0.711754  1
  B  B28  1  0.500000  0.599050  0.027452  1
  B  B29  1  0.500000  0.400778  0.972766  1
  B  B30  1  0.500000  0.096999  0.472633  1
  B  B31  1  0.500000  0.902834  0.526357  1
  Os  Os32  1  0.000000  0.638704  0.320761  1
  Os  Os33  1  0.000000  0.360252  0.680559  1
  Os  Os34  1  0.000000  0.138418  0.179252  1
  Os  Os35  1  0.000000  0.862773  0.820184  1
