# generated using pymatgen
data_Ta2Te3(SeF4)3
_symmetry_space_group_name_H-M   'P 1'
_cell_length_a   8.94098000
_cell_length_b   12.63167200
_cell_length_c   16.21529700
_cell_angle_alpha   90.00000000
_cell_angle_beta   90.00000000
_cell_angle_gamma   90.00000000
_symmetry_Int_Tables_number   1
_chemical_formula_structural   Ta2Te3(SeF4)3
_chemical_formula_sum   'Ta8 Te12 Se12 F48'
_cell_volume   1831.34796878
_cell_formula_units_Z   4
loop_
 _symmetry_equiv_pos_site_id
 _symmetry_equiv_pos_as_xyz
  1  'x, y, z'
loop_
 _atom_site_type_symbol
 _atom_site_label
 _atom_site_symmetry_multiplicity
 _atom_site_fract_x
 _atom_site_fract_y
 _atom_site_fract_z
 _atom_site_occupancy
  Ta  Ta0  1  0.023660  0.041140  0.051720  1
  Ta  Ta1  1  0.476340  0.958860  0.551720  1
  Ta  Ta2  1  0.976340  0.541140  0.448280  1
  Ta  Ta3  1  0.523660  0.458860  0.948280  1
  Ta  Ta4  1  0.538170  0.215514  0.231858  1
  Ta  Ta5  1  0.961830  0.784486  0.731858  1
  Ta  Ta6  1  0.461830  0.715514  0.268142  1
  Ta  Ta7  1  0.038170  0.284486  0.768142  1
  Te  Te8  1  0.158669  0.658132  0.048144  1
  Te  Te9  1  0.341331  0.341868  0.548144  1
  Te  Te10  1  0.841331  0.158132  0.451856  1
  Te  Te11  1  0.658669  0.841868  0.951856  1
  Te  Te12  1  0.543135  0.612884  0.549533  1
  Te  Te13  1  0.956865  0.387116  0.049533  1
  Te  Te14  1  0.456865  0.112884  0.950467  1
  Te  Te15  1  0.043135  0.887116  0.450467  1
  Te  Te16  1  0.122435  0.012080  0.309390  1
  Te  Te17  1  0.377565  0.987920  0.809390  1
  Te  Te18  1  0.877565  0.512080  0.190610  1
  Te  Te19  1  0.622435  0.487920  0.690610  1
  Se  Se20  1  0.076056  0.198282  0.371000  1
  Se  Se21  1  0.423944  0.801718  0.871000  1
  Se  Se22  1  0.923944  0.698282  0.129000  1
  Se  Se23  1  0.576056  0.301718  0.629000  1
  Se  Se24  1  0.134221  0.428865  0.168050  1
  Se  Se25  1  0.365779  0.571135  0.668050  1
  Se  Se26  1  0.865779  0.928865  0.331950  1
  Se  Se27  1  0.634221  0.071135  0.831950  1
  Se  Se28  1  0.486370  0.455780  0.450389  1
  Se  Se29  1  0.013630  0.544220  0.950389  1
  Se  Se30  1  0.513630  0.955780  0.049611  1
  Se  Se31  1  0.986370  0.044220  0.549611  1
  F  F32  1  0.481711  0.187038  0.118813  1
  F  F33  1  0.018289  0.812962  0.618813  1
  F  F34  1  0.518289  0.687038  0.381187  1
  F  F35  1  0.981711  0.312962  0.881187  1
  F  F36  1  0.652350  0.087761  0.234990  1
  F  F37  1  0.847650  0.912239  0.734990  1
  F  F38  1  0.347650  0.587761  0.265010  1
  F  F39  1  0.152350  0.412239  0.765010  1
  F  F40  1  0.332389  0.038316  0.615565  1
  F  F41  1  0.167611  0.961684  0.115565  1
  F  F42  1  0.667611  0.538316  0.884435  1
  F  F43  1  0.832389  0.461684  0.384435  1
  F  F44  1  0.966596  0.106015  0.154827  1
  F  F45  1  0.533404  0.893985  0.654827  1
  F  F46  1  0.033404  0.606015  0.345173  1
  F  F47  1  0.466596  0.393985  0.845173  1
  F  F48  1  0.115214  0.424715  0.434362  1
  F  F49  1  0.384786  0.575285  0.934362  1
  F  F50  1  0.884786  0.924715  0.065638  1
  F  F51  1  0.615214  0.075285  0.565638  1
  F  F52  1  0.415534  0.340522  0.232004  1
  F  F53  1  0.084466  0.659478  0.732004  1
  F  F54  1  0.584466  0.840522  0.267996  1
  F  F55  1  0.915534  0.159478  0.767996  1
  F  F56  1  0.593761  0.243716  0.344761  1
  F  F57  1  0.906239  0.756284  0.844761  1
  F  F58  1  0.406239  0.743716  0.155239  1
  F  F59  1  0.093761  0.256284  0.655239  1
  F  F60  1  0.597593  0.521110  0.048276  1
  F  F61  1  0.902407  0.478890  0.548276  1
  F  F62  1  0.402407  0.021110  0.451724  1
  F  F63  1  0.097593  0.978890  0.951724  1
  F  F64  1  0.706678  0.296520  0.193996  1
  F  F65  1  0.793322  0.703480  0.693996  1
  F  F66  1  0.293322  0.796520  0.306004  1
  F  F67  1  0.206678  0.203480  0.806004  1
  F  F68  1  0.362056  0.136508  0.268545  1
  F  F69  1  0.137944  0.863492  0.768545  1
  F  F70  1  0.637944  0.636508  0.231455  1
  F  F71  1  0.862056  0.363492  0.731455  1
  F  F72  1  0.369684  0.381400  0.004218  1
  F  F73  1  0.130316  0.618600  0.504218  1
  F  F74  1  0.630316  0.881400  0.495782  1
  F  F75  1  0.869684  0.118600  0.995782  1
  F  F76  1  0.166450  0.154578  0.034347  1
  F  F77  1  0.333550  0.845422  0.534347  1
  F  F78  1  0.833550  0.654578  0.465653  1
  F  F79  1  0.666450  0.345422  0.965653  1
