# generated using pymatgen
data_Tm2B8IrRu
_symmetry_space_group_name_H-M   'P 1'
_cell_length_a   3.53844300
_cell_length_b   5.93370995
_cell_length_c   11.49961661
_cell_angle_alpha   90.13198288
_cell_angle_beta   90.00000000
_cell_angle_gamma   90.00000000
_symmetry_Int_Tables_number   1
_chemical_formula_structural   Tm2B8IrRu
_chemical_formula_sum   'Tm4 B16 Ir2 Ru2'
_cell_volume   241.44639552
_cell_formula_units_Z   2
loop_
 _symmetry_equiv_pos_site_id
 _symmetry_equiv_pos_as_xyz
  1  'x, y, z'
loop_
 _atom_site_type_symbol
 _atom_site_label
 _atom_site_symmetry_multiplicity
 _atom_site_fract_x
 _atom_site_fract_y
 _atom_site_fract_z
 _atom_site_occupancy
  Tm  Tm0  1  0.500000  0.130123  0.147194  1
  Tm  Tm1  1  0.500000  0.869877  0.852806  1
  Tm  Tm2  1  0.500000  0.631943  0.348750  1
  Tm  Tm3  1  0.500000  0.368057  0.651250  1
  B  B4  1  0.000000  0.475618  0.191875  1
  B  B5  1  0.000000  0.524382  0.808125  1
  B  B6  1  0.000000  0.976470  0.306101  1
  B  B7  1  0.000000  0.023530  0.693899  1
  B  B8  1  0.000000  0.291413  0.311362  1
  B  B9  1  0.000000  0.708587  0.688638  1
  B  B10  1  0.000000  0.791100  0.186097  1
  B  B11  1  0.000000  0.208900  0.813903  1
  B  B12  1  0.000000  0.364069  0.471047  1
  B  B13  1  0.000000  0.635931  0.528953  1
  B  B14  1  0.000000  0.864832  0.030492  1
  B  B15  1  0.000000  0.135168  0.969508  1
  B  B16  1  0.000000  0.387372  0.046584  1
  B  B17  1  0.000000  0.612628  0.953416  1
  B  B18  1  0.000000  0.887086  0.452046  1
  B  B19  1  0.000000  0.112914  0.547954  1
  Ir  Ir20  1  0.500000  0.145940  0.403378  1
  Ir  Ir21  1  0.500000  0.854060  0.596622  1
  Ru  Ru22  1  0.500000  0.640990  0.093439  1
  Ru  Ru23  1  0.500000  0.359010  0.906561  1
