# generated using pymatgen
data_TmPa3(Ni2Hg)2
_symmetry_space_group_name_H-M   'P 1'
_cell_length_a   7.46596809
_cell_length_b   7.46596768
_cell_length_c   3.52291600
_cell_angle_alpha   90.00000000
_cell_angle_beta   90.00000000
_cell_angle_gamma   91.72105230
_symmetry_Int_Tables_number   1
_chemical_formula_structural   TmPa3(Ni2Hg)2
_chemical_formula_sum   'Tm1 Pa3 Ni4 Hg2'
_cell_volume   196.28113716
_cell_formula_units_Z   1
loop_
 _symmetry_equiv_pos_site_id
 _symmetry_equiv_pos_as_xyz
  1  'x, y, z'
loop_
 _atom_site_type_symbol
 _atom_site_label
 _atom_site_symmetry_multiplicity
 _atom_site_fract_x
 _atom_site_fract_y
 _atom_site_fract_z
 _atom_site_occupancy
  Tm  Tm0  1  0.828582  0.671418  0.500000  1
  Pa  Pa1  1  0.672271  0.171405  0.500000  1
  Pa  Pa2  1  0.328595  0.827729  0.500000  1
  Pa  Pa3  1  0.169713  0.330287  0.500000  1
  Ni  Ni4  1  0.880889  0.362761  0.000000  1
  Ni  Ni5  1  0.137239  0.619111  0.000000  1
  Ni  Ni6  1  0.368582  0.131418  0.000000  1
  Ni  Ni7  1  0.609767  0.890233  0.000000  1
  Hg  Hg8  1  0.510475  0.506112  0.000000  1
  Hg  Hg9  1  0.993888  0.989525  0.000000  1
