# generated using pymatgen
data_Mg3AlP7N12
_symmetry_space_group_name_H-M   'P 1'
_cell_length_a   7.19124025
_cell_length_b   7.19124130
_cell_length_c   7.19124090
_cell_angle_alpha   109.49995193
_cell_angle_beta   109.49994721
_cell_angle_gamma   109.49993335
_symmetry_Int_Tables_number   1
_chemical_formula_structural   Mg3AlP7N12
_chemical_formula_sum   'Mg3 Al1 P7 N12'
_cell_volume   285.97422416
_cell_formula_units_Z   1
loop_
 _symmetry_equiv_pos_site_id
 _symmetry_equiv_pos_as_xyz
  1  'x, y, z'
loop_
 _atom_site_type_symbol
 _atom_site_label
 _atom_site_symmetry_multiplicity
 _atom_site_fract_x
 _atom_site_fract_y
 _atom_site_fract_z
 _atom_site_occupancy
  Mg  Mg0  1  0.999845  0.668171  0.999845  1
  Mg  Mg1  1  0.668171  0.999845  0.999845  1
  Mg  Mg2  1  0.999845  0.999845  0.668171  1
  Al  Al3  1  0.350418  0.350418  0.350418  1
  P  P4  1  0.495573  0.248103  0.747635  1
  P  P5  1  0.495573  0.747635  0.248103  1
  P  P6  1  0.747635  0.248103  0.495573  1
  P  P7  1  0.248103  0.495573  0.747635  1
  P  P8  1  0.747635  0.495573  0.248103  1
  P  P9  1  0.248103  0.747635  0.495573  1
  P  P10  1  0.030305  0.030305  0.030305  1
  N  N11  1  0.998181  0.720618  0.441453  1
  N  N12  1  0.268644  0.707426  0.268644  1
  N  N13  1  0.292588  0.555494  0.555494  1
  N  N14  1  0.555494  0.555494  0.292588  1
  N  N15  1  0.555494  0.292588  0.555494  1
  N  N16  1  0.720618  0.998181  0.441453  1
  N  N17  1  0.441453  0.998181  0.720618  1
  N  N18  1  0.720618  0.441453  0.998181  1
  N  N19  1  0.268644  0.268644  0.707426  1
  N  N20  1  0.707426  0.268644  0.268644  1
  N  N21  1  0.998181  0.441453  0.720618  1
  N  N22  1  0.441453  0.720618  0.998181  1
