# generated using pymatgen
data_Dy7Er3(SiSn3)2
_symmetry_space_group_name_H-M   'P 1'
_cell_length_a   9.20415300
_cell_length_b   9.20415334
_cell_length_c   6.43624800
_cell_angle_alpha   90.00000000
_cell_angle_beta   90.00000000
_cell_angle_gamma   119.99999518
_symmetry_Int_Tables_number   1
_chemical_formula_structural   Dy7Er3(SiSn3)2
_chemical_formula_sum   'Dy7 Er3 Si2 Sn6'
_cell_volume   472.20556102
_cell_formula_units_Z   1
loop_
 _symmetry_equiv_pos_site_id
 _symmetry_equiv_pos_as_xyz
  1  'x, y, z'
loop_
 _atom_site_type_symbol
 _atom_site_label
 _atom_site_symmetry_multiplicity
 _atom_site_fract_x
 _atom_site_fract_y
 _atom_site_fract_z
 _atom_site_occupancy
  Dy  Dy0  1  0.666667  0.333333  0.000000  1
  Dy  Dy1  1  0.746866  0.746942  0.750223  1
  Dy  Dy2  1  0.253058  0.999924  0.750223  1
  Dy  Dy3  1  0.000076  0.253134  0.750223  1
  Dy  Dy4  1  0.253058  0.253134  0.249777  1
  Dy  Dy5  1  0.746866  0.999924  0.249777  1
  Dy  Dy6  1  0.000076  0.746942  0.249777  1
  Er  Er7  1  0.333333  0.666667  0.000000  1
  Er  Er8  1  0.333333  0.666667  0.500000  1
  Er  Er9  1  0.666667  0.333333  0.500000  1
  Si  Si10  1  0.000000  0.000000  0.000000  1
  Si  Si11  1  0.000000  0.000000  0.500000  1
  Sn  Sn12  1  0.391830  0.392076  0.749939  1
  Sn  Sn13  1  0.607924  0.999754  0.749939  1
  Sn  Sn14  1  0.000246  0.608170  0.749939  1
  Sn  Sn15  1  0.607924  0.608170  0.250061  1
  Sn  Sn16  1  0.391830  0.999754  0.250061  1
  Sn  Sn17  1  0.000246  0.392076  0.250061  1
