# generated using pymatgen
data_Ce8Si12Os3Ru
_symmetry_space_group_name_H-M   'P 1'
_cell_length_a   8.24655906
_cell_length_b   8.24659606
_cell_length_c   8.11239200
_cell_angle_alpha   90.00047221
_cell_angle_beta   89.99995680
_cell_angle_gamma   119.99861900
_symmetry_Int_Tables_number   1
_chemical_formula_structural   Ce8Si12Os3Ru
_chemical_formula_sum   'Ce8 Si12 Os3 Ru1'
_cell_volume   477.78564697
_cell_formula_units_Z   1
loop_
 _symmetry_equiv_pos_site_id
 _symmetry_equiv_pos_as_xyz
  1  'x, y, z'
loop_
 _atom_site_type_symbol
 _atom_site_label
 _atom_site_symmetry_multiplicity
 _atom_site_fract_x
 _atom_site_fract_y
 _atom_site_fract_z
 _atom_site_occupancy
  Ce  Ce0  1  0.000000  0.999998  0.249261  1
  Ce  Ce1  1  0.000012  0.000015  0.750445  1
  Ce  Ce2  1  0.501487  0.498524  0.250349  1
  Ce  Ce3  1  0.501468  0.002943  0.250344  1
  Ce  Ce4  1  0.997046  0.498527  0.250351  1
  Ce  Ce5  1  0.499531  0.500452  0.749445  1
  Ce  Ce6  1  0.499549  0.999097  0.749447  1
  Ce  Ce7  1  0.000930  0.500458  0.749446  1
  Si  Si8  1  0.165508  0.834487  0.499427  1
  Si  Si9  1  0.165512  0.331023  0.499422  1
  Si  Si10  1  0.668979  0.834488  0.499425  1
  Si  Si11  1  0.834837  0.165166  0.500328  1
  Si  Si12  1  0.834835  0.669669  0.500329  1
  Si  Si13  1  0.330326  0.165165  0.500323  1
  Si  Si14  1  0.834737  0.165263  0.002081  1
  Si  Si15  1  0.834738  0.669476  0.002082  1
  Si  Si16  1  0.330523  0.165263  0.002085  1
  Si  Si17  1  0.166280  0.833718  0.997381  1
  Si  Si18  1  0.166277  0.332558  0.997386  1
  Si  Si19  1  0.667439  0.833721  0.997379  1
  Os  Os20  1  0.333333  0.666668  0.496487  1
  Os  Os21  1  0.666661  0.333328  0.502725  1
  Os  Os22  1  0.666663  0.333330  0.989907  1
  Ru  Ru23  1  0.333331  0.666662  0.014144  1
