# generated using pymatgen
data_Pa2Mn6Ni6P7
_symmetry_space_group_name_H-M   'P 1'
_cell_length_a   9.20622545
_cell_length_b   9.13957409
_cell_length_c   3.71284400
_cell_angle_alpha   90.00000000
_cell_angle_beta   90.00000000
_cell_angle_gamma   119.93766243
_symmetry_Int_Tables_number   1
_chemical_formula_structural   Pa2Mn6Ni6P7
_chemical_formula_sum   'Pa2 Mn6 Ni6 P7'
_cell_volume   270.71814097
_cell_formula_units_Z   1
loop_
 _symmetry_equiv_pos_site_id
 _symmetry_equiv_pos_as_xyz
  1  'x, y, z'
loop_
 _atom_site_type_symbol
 _atom_site_label
 _atom_site_symmetry_multiplicity
 _atom_site_fract_x
 _atom_site_fract_y
 _atom_site_fract_z
 _atom_site_occupancy
  Pa  Pa0  1  0.327080  0.654801  0.000000  1
  Pa  Pa1  1  0.001705  0.006014  0.500000  1
  Mn  Mn2  1  0.947227  0.492217  0.000000  1
  Mn  Mn3  1  0.514476  0.455636  0.000000  1
  Mn  Mn4  1  0.279836  0.383883  0.500000  1
  Mn  Mn5  1  0.784424  0.234505  0.500000  1
  Mn  Mn6  1  0.769658  0.554591  0.500000  1
  Mn  Mn7  1  0.453291  0.216027  0.500000  1
  Ni  Ni8  1  0.036930  0.268425  0.000000  1
  Ni  Ni9  1  0.731501  0.768808  0.000000  1
  Ni  Ni10  1  0.232577  0.965147  0.000000  1
  Ni  Ni11  1  0.541388  0.053681  0.000000  1
  Ni  Ni12  1  0.613621  0.892971  0.500000  1
  Ni  Ni13  1  0.104259  0.724914  0.500000  1
  P  P14  1  0.775282  0.035836  0.000000  1
  P  P15  1  0.964549  0.742415  0.000000  1
  P  P16  1  0.262695  0.229826  0.000000  1
  P  P17  1  0.377893  0.928721  0.500000  1
  P  P18  1  0.063777  0.441536  0.500000  1
  P  P19  1  0.546832  0.614592  0.500000  1
  P  P20  1  0.670993  0.335457  0.000000  1
