# generated using pymatgen
data_Y3Sc(Ti4Sn5)2
_symmetry_space_group_name_H-M   'P 1'
_cell_length_a   10.72431045
_cell_length_b   10.73436998
_cell_length_c   10.73436824
_cell_angle_alpha   148.84881327
_cell_angle_beta   131.61087607
_cell_angle_gamma   58.68530479
_symmetry_Int_Tables_number   1
_chemical_formula_structural   Y3Sc(Ti4Sn5)2
_chemical_formula_sum   'Y3 Sc1 Ti8 Sn10'
_cell_volume   474.15688208
_cell_formula_units_Z   1
loop_
 _symmetry_equiv_pos_site_id
 _symmetry_equiv_pos_as_xyz
  1  'x, y, z'
loop_
 _atom_site_type_symbol
 _atom_site_label
 _atom_site_symmetry_multiplicity
 _atom_site_fract_x
 _atom_site_fract_y
 _atom_site_fract_z
 _atom_site_occupancy
  Y  Y0  1  0.256926  0.143657  0.113270  1
  Y  Y1  1  0.745252  0.856678  0.888573  1
  Y  Y2  1  0.030299  0.643489  0.386810  1
  Sc  Sc3  1  0.968998  0.356527  0.612471  1
  Ti  Ti4  1  0.311367  0.560980  0.250299  1
  Ti  Ti5  1  0.689681  0.439306  0.750229  1
  Ti  Ti6  1  0.689681  0.939452  0.250375  1
  Ti  Ti7  1  0.311367  0.061068  0.750387  1
  Ti  Ti8  1  0.675126  0.436277  0.238848  1
  Ti  Ti9  1  0.324970  0.563865  0.761106  1
  Ti  Ti10  1  0.195875  0.935999  0.259876  1
  Ti  Ti11  1  0.803133  0.063724  0.739409  1
  Sn  Sn12  1  0.590550  0.290232  0.300317  1
  Sn  Sn13  1  0.415662  0.710814  0.704848  1
  Sn  Sn14  1  0.993433  0.789829  0.203604  1
  Sn  Sn15  1  0.005957  0.212119  0.793838  1
  Sn  Sn16  1  0.999910  0.250091  0.252293  1
  Sn  Sn17  1  0.999910  0.747617  0.749820  1
  Sn  Sn18  1  0.472945  0.066810  0.406133  1
  Sn  Sn19  1  0.527166  0.933085  0.594082  1
  Sn  Sn20  1  0.660052  0.566670  0.093382  1
  Sn  Sn21  1  0.331740  0.431711  0.900030  1
