# generated using pymatgen
data_Ho6Zn21Cu2Se
_symmetry_space_group_name_H-M   'P 1'
_cell_length_a   8.98442653
_cell_length_b   8.97260572
_cell_length_c   8.97260700
_cell_angle_alpha   60.03408817
_cell_angle_beta   60.03730728
_cell_angle_gamma   60.03730272
_symmetry_Int_Tables_number   1
_chemical_formula_structural   Ho6Zn21Cu2Se
_chemical_formula_sum   'Ho6 Zn21 Cu2 Se1'
_cell_volume   511.88114433
_cell_formula_units_Z   1
loop_
 _symmetry_equiv_pos_site_id
 _symmetry_equiv_pos_as_xyz
  1  'x, y, z'
loop_
 _atom_site_type_symbol
 _atom_site_label
 _atom_site_symmetry_multiplicity
 _atom_site_fract_x
 _atom_site_fract_y
 _atom_site_fract_z
 _atom_site_occupancy
  Ho  Ho0  1  0.718563  0.282139  0.282139  1
  Ho  Ho1  1  0.718181  0.281922  0.717693  1
  Ho  Ho2  1  0.718181  0.717693  0.281922  1
  Ho  Ho3  1  0.281437  0.717861  0.717861  1
  Ho  Ho4  1  0.281819  0.718078  0.282307  1
  Ho  Ho5  1  0.281819  0.282307  0.718078  1
  Zn  Zn6  1  0.623863  0.125233  0.125233  1
  Zn  Zn7  1  0.123007  0.623590  0.123754  1
  Zn  Zn8  1  0.123007  0.123754  0.623590  1
  Zn  Zn9  1  0.121950  0.127549  0.127549  1
  Zn  Zn10  1  0.376137  0.874767  0.874767  1
  Zn  Zn11  1  0.876993  0.376410  0.876246  1
  Zn  Zn12  1  0.876993  0.876246  0.376410  1
  Zn  Zn13  1  0.878050  0.872451  0.872451  1
  Zn  Zn14  1  0.500000  0.000000  0.000000  1
  Zn  Zn15  1  0.500000  0.000000  0.500000  1
  Zn  Zn16  1  0.500000  0.500000  0.000000  1
  Zn  Zn17  1  0.000000  0.500000  0.500000  1
  Zn  Zn18  1  0.000000  0.000000  0.000000  1
  Zn  Zn19  1  0.011375  0.327860  0.327860  1
  Zn  Zn20  1  0.326186  0.010459  0.331664  1
  Zn  Zn21  1  0.326186  0.331664  0.010459  1
  Zn  Zn22  1  0.330091  0.330041  0.330041  1
  Zn  Zn23  1  0.988625  0.672140  0.672140  1
  Zn  Zn24  1  0.673814  0.989541  0.668336  1
  Zn  Zn25  1  0.673814  0.668336  0.989541  1
  Zn  Zn26  1  0.669909  0.669959  0.669959  1
  Cu  Cu27  1  0.000000  0.500000  0.000000  1
  Cu  Cu28  1  0.000000  0.000000  0.500000  1
  Se  Se29  1  0.500000  0.500000  0.500000  1
