# generated using pymatgen
data_HoTa4NbC5
_symmetry_space_group_name_H-M   'P 1'
_cell_length_a   5.57487660
_cell_length_b   5.57872560
_cell_length_c   5.54886906
_cell_angle_alpha   81.13288221
_cell_angle_beta   80.97469248
_cell_angle_gamma   120.45943831
_symmetry_Int_Tables_number   1
_chemical_formula_structural   HoTa4NbC5
_chemical_formula_sum   'Ho1 Ta4 Nb1 C5'
_cell_volume   141.27240730
_cell_formula_units_Z   1
loop_
 _symmetry_equiv_pos_site_id
 _symmetry_equiv_pos_as_xyz
  1  'x, y, z'
loop_
 _atom_site_type_symbol
 _atom_site_label
 _atom_site_symmetry_multiplicity
 _atom_site_fract_x
 _atom_site_fract_y
 _atom_site_fract_z
 _atom_site_occupancy
  Ho  Ho0  1  0.751000  0.751871  0.750073  1
  Ta  Ta1  1  0.257871  0.257919  0.260557  1
  Ta  Ta2  1  0.087936  0.444113  0.742768  1
  Ta  Ta3  1  0.558795  0.908669  0.253957  1
  Ta  Ta4  1  0.907692  0.557805  0.254583  1
  Nb  Nb5  1  0.443546  0.088562  0.743602  1
  C  C6  1  0.491945  0.495144  0.494040  1
  C  C7  1  0.664433  0.319401  0.011831  1
  C  C8  1  0.316041  0.658970  0.011755  1
  C  C9  1  0.840613  0.182409  0.488240  1
  C  C10  1  0.180127  0.835136  0.488593  1
