# generated using pymatgen
data_HoU4Se5O4
_symmetry_space_group_name_H-M   'P 1'
_cell_length_a   3.90465553
_cell_length_b   3.90465481
_cell_length_c   18.37062501
_cell_angle_alpha   96.10059543
_cell_angle_beta   96.10059468
_cell_angle_gamma   90.00001003
_symmetry_Int_Tables_number   1
_chemical_formula_structural   HoU4Se5O4
_chemical_formula_sum   'Ho1 U4 Se5 O4'
_cell_volume   276.90323373
_cell_formula_units_Z   1
loop_
 _symmetry_equiv_pos_site_id
 _symmetry_equiv_pos_as_xyz
  1  'x, y, z'
loop_
 _atom_site_type_symbol
 _atom_site_label
 _atom_site_symmetry_multiplicity
 _atom_site_fract_x
 _atom_site_fract_y
 _atom_site_fract_z
 _atom_site_occupancy
  Ho  Ho0  1  0.500001  0.500001  0.000000  1
  U  U1  1  0.116993  0.116993  0.233987  1
  U  U2  1  0.688438  0.688438  0.376875  1
  U  U3  1  0.311562  0.311562  0.623125  1
  U  U4  1  0.883007  0.883007  0.766013  1
  Se  Se5  1  0.000000  0.000000  0.000000  1
  Se  Se6  1  0.578282  0.578282  0.156564  1
  Se  Se7  1  0.223094  0.223094  0.446190  1
  Se  Se8  1  0.776906  0.776906  0.553811  1
  Se  Se9  1  0.421719  0.421719  0.843437  1
  O  O10  1  0.650974  0.150974  0.301948  1
  O  O11  1  0.150974  0.650974  0.301948  1
  O  O12  1  0.849027  0.349027  0.698052  1
  O  O13  1  0.349027  0.849027  0.698052  1
