# generated using pymatgen
data_Tb3Tl2Cd
_symmetry_space_group_name_H-M   'P 1'
_cell_length_a   5.36757500
_cell_length_b   5.36757448
_cell_length_c   6.58474200
_cell_angle_alpha   90.00000000
_cell_angle_beta   90.00000000
_cell_angle_gamma   119.99999701
_symmetry_Int_Tables_number   1
_chemical_formula_structural   Tb3Tl2Cd
_chemical_formula_sum   'Tb3 Tl2 Cd1'
_cell_volume   164.29547763
_cell_formula_units_Z   1
loop_
 _symmetry_equiv_pos_site_id
 _symmetry_equiv_pos_as_xyz
  1  'x, y, z'
loop_
 _atom_site_type_symbol
 _atom_site_label
 _atom_site_symmetry_multiplicity
 _atom_site_fract_x
 _atom_site_fract_y
 _atom_site_fract_z
 _atom_site_occupancy
  Tb  Tb0  1  0.000000  0.000000  0.000000  1
  Tb  Tb1  1  0.333333  0.666667  0.672267  1
  Tb  Tb2  1  0.666667  0.333333  0.327733  1
  Tl  Tl3  1  0.666667  0.333333  0.818671  1
  Tl  Tl4  1  0.333333  0.666667  0.181329  1
  Cd  Cd5  1  0.000000  0.000000  0.500000  1
