# generated using pymatgen
data_BaLaSi2(PtRh)2
_symmetry_space_group_name_H-M   'P 1'
_cell_length_a   9.36141400
_cell_length_b   9.36141358
_cell_length_c   4.29051000
_cell_angle_alpha   90.00000000
_cell_angle_beta   90.00000000
_cell_angle_gamma   154.19590290
_symmetry_Int_Tables_number   1
_chemical_formula_structural   BaLaSi2(PtRh)2
_chemical_formula_sum   'Ba1 La1 Si2 Pt2 Rh2'
_cell_volume   163.67259141
_cell_formula_units_Z   1
loop_
 _symmetry_equiv_pos_site_id
 _symmetry_equiv_pos_as_xyz
  1  'x, y, z'
loop_
 _atom_site_type_symbol
 _atom_site_label
 _atom_site_symmetry_multiplicity
 _atom_site_fract_x
 _atom_site_fract_y
 _atom_site_fract_z
 _atom_site_occupancy
  Ba  Ba0  1  0.900819  0.099181  0.250000  1
  La  La1  1  0.100849  0.899151  0.750000  1
  Si  Si2  1  0.314126  0.685874  0.750000  1
  Si  Si3  1  0.683194  0.316806  0.250000  1
  Pt  Pt4  1  0.553184  0.446816  0.250000  1
  Pt  Pt5  1  0.453319  0.546681  0.750000  1
  Rh  Rh6  1  0.246511  0.753489  0.250000  1
  Rh  Rh7  1  0.747998  0.252002  0.750000  1
