# generated using pymatgen
data_La7Re2Ru2C9
_symmetry_space_group_name_H-M   'P 1'
_cell_length_a   6.66669912
_cell_length_b   6.66669882
_cell_length_c   12.17988600
_cell_angle_alpha   71.48877626
_cell_angle_beta   71.48877710
_cell_angle_gamma   48.34335785
_symmetry_Int_Tables_number   1
_chemical_formula_structural   La7Re2Ru2C9
_chemical_formula_sum   'La7 Re2 Ru2 C9'
_cell_volume   379.17180959
_cell_formula_units_Z   1
loop_
 _symmetry_equiv_pos_site_id
 _symmetry_equiv_pos_as_xyz
  1  'x, y, z'
loop_
 _atom_site_type_symbol
 _atom_site_label
 _atom_site_symmetry_multiplicity
 _atom_site_fract_x
 _atom_site_fract_y
 _atom_site_fract_z
 _atom_site_occupancy
  La  La0  1  0.375559  0.375559  0.844243  1
  La  La1  1  0.141126  0.141126  0.686305  1
  La  La2  1  0.860137  0.860137  0.314047  1
  La  La3  1  0.140391  0.140391  0.379469  1
  La  La4  1  0.858805  0.858805  0.620621  1
  La  La5  1  0.003759  0.003759  0.999267  1
  La  La6  1  0.626074  0.626074  0.160633  1
  Re  Re7  1  0.359668  0.359668  0.138739  1
  Re  Re8  1  0.561839  0.561839  0.570328  1
  Ru  Ru9  1  0.432512  0.432512  0.427976  1
  Ru  Ru10  1  0.642487  0.642487  0.857617  1
  C  C11  1  0.385203  0.385203  0.287113  1
  C  C12  1  0.919001  0.919001  0.820352  1
  C  C13  1  0.392549  0.392549  0.612926  1
  C  C14  1  0.196248  0.196248  0.143549  1
  C  C15  1  0.802860  0.802860  0.854521  1
  C  C16  1  0.499577  0.499577  0.998992  1
  C  C17  1  0.079066  0.079066  0.182327  1
  C  C18  1  0.614195  0.614195  0.707632  1
  C  C19  1  0.608942  0.608942  0.393342  1
