# generated using pymatgen
data_YbPr6OsBr12
_symmetry_space_group_name_H-M   'P 1'
_cell_length_a   9.63656654
_cell_length_b   9.76778192
_cell_length_c   9.62624597
_cell_angle_alpha   107.11585520
_cell_angle_beta   106.91853601
_cell_angle_gamma   107.46393860
_symmetry_Int_Tables_number   1
_chemical_formula_structural   YbPr6OsBr12
_chemical_formula_sum   'Yb1 Pr6 Os1 Br12'
_cell_volume   751.14813687
_cell_formula_units_Z   1
loop_
 _symmetry_equiv_pos_site_id
 _symmetry_equiv_pos_as_xyz
  1  'x, y, z'
loop_
 _atom_site_type_symbol
 _atom_site_label
 _atom_site_symmetry_multiplicity
 _atom_site_fract_x
 _atom_site_fract_y
 _atom_site_fract_z
 _atom_site_occupancy
  Yb  Yb0  1  0.500000  0.500000  0.500000  1
  Pr  Pr1  1  0.312534  0.107587  0.025630  1
  Pr  Pr2  1  0.025732  0.320724  0.111610  1
  Pr  Pr3  1  0.107082  0.025046  0.311420  1
  Pr  Pr4  1  0.892918  0.974954  0.688581  1
  Pr  Pr5  1  0.974268  0.679277  0.888391  1
  Pr  Pr6  1  0.687467  0.892413  0.974371  1
  Os  Os7  1  0.000000  0.000000  0.000000  1
  Br  Br8  1  0.681878  0.215190  0.067315  1
  Br  Br9  1  0.378894  0.458667  0.170328  1
  Br  Br10  1  0.067636  0.683361  0.216053  1
  Br  Br11  1  0.782861  0.932468  0.317727  1
  Br  Br12  1  0.460005  0.172621  0.379895  1
  Br  Br13  1  0.170399  0.378284  0.460178  1
  Br  Br14  1  0.829601  0.621717  0.539822  1
  Br  Br15  1  0.539995  0.827380  0.620105  1
  Br  Br16  1  0.217140  0.067533  0.682273  1
  Br  Br17  1  0.932364  0.316639  0.783948  1
  Br  Br18  1  0.621107  0.541333  0.829672  1
  Br  Br19  1  0.318123  0.784810  0.932685  1
