# generated using pymatgen
data_La6SmEr3(Sn3Cl)2
_symmetry_space_group_name_H-M   'P 1'
_cell_length_a   9.47840100
_cell_length_b   9.47840020
_cell_length_c   6.75743000
_cell_angle_alpha   90.00000000
_cell_angle_beta   90.00000000
_cell_angle_gamma   119.99999231
_symmetry_Int_Tables_number   1
_chemical_formula_structural   La6SmEr3(Sn3Cl)2
_chemical_formula_sum   'La6 Sm1 Er3 Sn6 Cl2'
_cell_volume   525.75370406
_cell_formula_units_Z   1
loop_
 _symmetry_equiv_pos_site_id
 _symmetry_equiv_pos_as_xyz
  1  'x, y, z'
loop_
 _atom_site_type_symbol
 _atom_site_label
 _atom_site_symmetry_multiplicity
 _atom_site_fract_x
 _atom_site_fract_y
 _atom_site_fract_z
 _atom_site_occupancy
  La  La0  1  0.737525  0.000107  0.749567  1
  La  La1  1  0.737525  0.737418  0.250433  1
  La  La2  1  0.999893  0.262475  0.250433  1
  La  La3  1  0.999893  0.737418  0.749567  1
  La  La4  1  0.262582  0.262475  0.749567  1
  La  La5  1  0.262582  0.000107  0.250433  1
  Sm  Sm6  1  0.333333  0.666667  0.000000  1
  Er  Er7  1  0.666667  0.333333  0.000000  1
  Er  Er8  1  0.333333  0.666667  0.500000  1
  Er  Er9  1  0.666667  0.333333  0.500000  1
  Sn  Sn10  1  0.609075  0.607219  0.748436  1
  Sn  Sn11  1  0.998144  0.607219  0.251564  1
  Sn  Sn12  1  0.609075  0.001856  0.251564  1
  Sn  Sn13  1  0.392781  0.001856  0.748436  1
  Sn  Sn14  1  0.998144  0.390925  0.748436  1
  Sn  Sn15  1  0.392781  0.390925  0.251564  1
  Cl  Cl16  1  0.000000  0.000000  0.500000  1
  Cl  Cl17  1  0.000000  0.000000  0.000000  1
