# generated using pymatgen
data_Nd16Y3TmPb16
_symmetry_space_group_name_H-M   'P 1'
_cell_length_a   8.41591603
_cell_length_b   16.13746100
_cell_length_c   8.49648900
_cell_angle_alpha   90.00000000
_cell_angle_beta   90.00442522
_cell_angle_gamma   90.00000000
_symmetry_Int_Tables_number   1
_chemical_formula_structural   Nd16Y3TmPb16
_chemical_formula_sum   'Nd16 Y3 Tm1 Pb16'
_cell_volume   1153.92105372
_cell_formula_units_Z   1
loop_
 _symmetry_equiv_pos_site_id
 _symmetry_equiv_pos_as_xyz
  1  'x, y, z'
loop_
 _atom_site_type_symbol
 _atom_site_label
 _atom_site_symmetry_multiplicity
 _atom_site_fract_x
 _atom_site_fract_y
 _atom_site_fract_z
 _atom_site_occupancy
  Nd  Nd0  1  0.622390  0.619458  0.158633  1
  Nd  Nd1  1  0.122389  0.880406  0.341250  1
  Nd  Nd2  1  0.377912  0.119733  0.841567  1
  Nd  Nd3  1  0.877438  0.380286  0.658984  1
  Nd  Nd4  1  0.377912  0.380267  0.841567  1
  Nd  Nd5  1  0.877438  0.119714  0.658984  1
  Nd  Nd6  1  0.622390  0.880542  0.158633  1
  Nd  Nd7  1  0.122389  0.619594  0.341250  1
  Nd  Nd8  1  0.466337  0.600363  0.676787  1
  Nd  Nd9  1  0.966267  0.899689  0.823185  1
  Nd  Nd10  1  0.533801  0.100433  0.322974  1
  Nd  Nd11  1  0.033468  0.399516  0.176685  1
  Nd  Nd12  1  0.533801  0.399567  0.322974  1
  Nd  Nd13  1  0.033468  0.100484  0.176685  1
  Nd  Nd14  1  0.466337  0.899637  0.676787  1
  Nd  Nd15  1  0.966267  0.600311  0.823185  1
  Y  Y16  1  0.790726  0.750000  0.496822  1
  Y  Y17  1  0.290790  0.750000  0.003141  1
  Y  Y18  1  0.209389  0.250000  0.503128  1
  Tm  Tm19  1  0.709581  0.250000  0.996557  1
  Pb  Pb20  1  0.718621  0.454804  0.968359  1
  Pb  Pb21  1  0.218558  0.044720  0.531907  1
  Pb  Pb22  1  0.281350  0.955384  0.031712  1
  Pb  Pb23  1  0.781431  0.544589  0.468253  1
  Pb  Pb24  1  0.281350  0.544616  0.031712  1
  Pb  Pb25  1  0.781431  0.955411  0.468253  1
  Pb  Pb26  1  0.718621  0.045196  0.968359  1
  Pb  Pb27  1  0.218558  0.455280  0.531907  1
  Pb  Pb28  1  0.427705  0.750000  0.375000  1
  Pb  Pb29  1  0.927531  0.750000  0.124876  1
  Pb  Pb30  1  0.572645  0.250000  0.625430  1
  Pb  Pb31  1  0.071615  0.250000  0.875477  1
  Pb  Pb32  1  0.655295  0.750000  0.847720  1
  Pb  Pb33  1  0.155337  0.750000  0.652339  1
  Pb  Pb34  1  0.345182  0.250000  0.152194  1
  Pb  Pb35  1  0.844275  0.250000  0.346726  1
