# generated using pymatgen
data_Y3HoNbPd15
_symmetry_space_group_name_H-M   'P 1'
_cell_length_a   4.10032200
_cell_length_b   4.10032200
_cell_length_c   20.52422900
_cell_angle_alpha   90.00000000
_cell_angle_beta   90.00000000
_cell_angle_gamma   90.00000000
_symmetry_Int_Tables_number   1
_chemical_formula_structural   Y3HoNbPd15
_chemical_formula_sum   'Y3 Ho1 Nb1 Pd15'
_cell_volume   345.06648379
_cell_formula_units_Z   1
loop_
 _symmetry_equiv_pos_site_id
 _symmetry_equiv_pos_as_xyz
  1  'x, y, z'
loop_
 _atom_site_type_symbol
 _atom_site_label
 _atom_site_symmetry_multiplicity
 _atom_site_fract_x
 _atom_site_fract_y
 _atom_site_fract_z
 _atom_site_occupancy
  Y  Y0  1  0.000000  0.000000  0.398289  1
  Y  Y1  1  0.000000  0.000000  0.601677  1
  Y  Y2  1  0.000000  0.000000  0.801186  1
  Ho  Ho3  1  0.000000  0.000000  0.198935  1
  Nb  Nb4  1  0.000000  0.000000  0.000023  1
  Pd  Pd5  1  0.500000  0.500000  0.000063  1
  Pd  Pd6  1  0.500000  0.500000  0.193772  1
  Pd  Pd7  1  0.500000  0.500000  0.398076  1
  Pd  Pd8  1  0.500000  0.500000  0.601930  1
  Pd  Pd9  1  0.500000  0.500000  0.806200  1
  Pd  Pd10  1  0.500000  0.000000  0.091320  1
  Pd  Pd11  1  0.500000  0.000000  0.296276  1
  Pd  Pd12  1  0.500000  0.000000  0.500014  1
  Pd  Pd13  1  0.500000  0.000000  0.703344  1
  Pd  Pd14  1  0.500000  0.000000  0.908971  1
  Pd  Pd15  1  0.000000  0.500000  0.091320  1
  Pd  Pd16  1  0.000000  0.500000  0.296276  1
  Pd  Pd17  1  0.000000  0.500000  0.500014  1
  Pd  Pd18  1  0.000000  0.500000  0.703344  1
  Pd  Pd19  1  0.000000  0.500000  0.908971  1
