# generated using pymatgen
data_Dy3Sc3Sn6(RuPt2)2
_symmetry_space_group_name_H-M   'P 1'
_cell_length_a   7.67447000
_cell_length_b   7.67447002
_cell_length_c   7.22508200
_cell_angle_alpha   90.00000000
_cell_angle_beta   90.00000000
_cell_angle_gamma   119.99999993
_symmetry_Int_Tables_number   1
_chemical_formula_structural   Dy3Sc3Sn6(RuPt2)2
_chemical_formula_sum   'Dy3 Sc3 Sn6 Ru2 Pt4'
_cell_volume   368.52775275
_cell_formula_units_Z   1
loop_
 _symmetry_equiv_pos_site_id
 _symmetry_equiv_pos_as_xyz
  1  'x, y, z'
loop_
 _atom_site_type_symbol
 _atom_site_label
 _atom_site_symmetry_multiplicity
 _atom_site_fract_x
 _atom_site_fract_y
 _atom_site_fract_z
 _atom_site_occupancy
  Dy  Dy0  1  0.396485  0.997390  0.750000  1
  Dy  Dy1  1  0.600905  0.603515  0.750000  1
  Dy  Dy2  1  0.002610  0.399095  0.750000  1
  Sc  Sc3  1  0.392985  0.003251  0.250000  1
  Sc  Sc4  1  0.610266  0.607015  0.250000  1
  Sc  Sc5  1  0.996749  0.389734  0.250000  1
  Sn  Sn6  1  0.269915  0.270484  0.008943  1
  Sn  Sn7  1  0.000569  0.730085  0.008943  1
  Sn  Sn8  1  0.000569  0.730085  0.491057  1
  Sn  Sn9  1  0.729516  0.999431  0.491057  1
  Sn  Sn10  1  0.269915  0.270484  0.491057  1
  Sn  Sn11  1  0.729516  0.999431  0.008943  1
  Ru  Ru12  1  0.000000  0.000000  0.750000  1
  Ru  Ru13  1  0.000000  0.000000  0.250000  1
  Pt  Pt14  1  0.666667  0.333333  0.018932  1
  Pt  Pt15  1  0.333333  0.666667  0.471673  1
  Pt  Pt16  1  0.333333  0.666667  0.028327  1
  Pt  Pt17  1  0.666667  0.333333  0.481068  1
