# generated using pymatgen
data_Yb2Th(BPt2)3
_symmetry_space_group_name_H-M   'P 1'
_cell_length_a   5.51316203
_cell_length_b   5.42178601
_cell_length_c   7.72731000
_cell_angle_alpha   90.00000000
_cell_angle_beta   90.00000000
_cell_angle_gamma   119.45321729
_symmetry_Int_Tables_number   1
_chemical_formula_structural   Yb2Th(BPt2)3
_chemical_formula_sum   'Yb2 Th1 B3 Pt6'
_cell_volume   201.12621305
_cell_formula_units_Z   1
loop_
 _symmetry_equiv_pos_site_id
 _symmetry_equiv_pos_as_xyz
  1  'x, y, z'
loop_
 _atom_site_type_symbol
 _atom_site_label
 _atom_site_symmetry_multiplicity
 _atom_site_fract_x
 _atom_site_fract_y
 _atom_site_fract_z
 _atom_site_occupancy
  Yb  Yb0  1  0.500000  0.500000  0.823820  1
  Yb  Yb1  1  0.500000  0.000000  0.509513  1
  Th  Th2  1  0.000000  0.500000  0.166667  1
  B  B3  1  0.500000  0.500000  0.344771  1
  B  B4  1  0.500000  0.000000  0.988562  1
  B  B5  1  0.000000  0.500000  0.666667  1
  Pt  Pt6  1  0.143179  0.850161  0.833461  1
  Pt  Pt7  1  0.143179  0.293018  0.499872  1
  Pt  Pt8  1  0.686668  0.843334  0.166667  1
  Pt  Pt9  1  0.856821  0.149839  0.833461  1
  Pt  Pt10  1  0.856821  0.706982  0.499872  1
  Pt  Pt11  1  0.313332  0.156666  0.166667  1
