# generated using pymatgen
data_Y16MgIn3Ni4
_symmetry_space_group_name_H-M   'P 1'
_cell_length_a   9.64023494
_cell_length_b   9.61481186
_cell_length_c   9.61481100
_cell_angle_alpha   59.99999950
_cell_angle_beta   60.08719862
_cell_angle_gamma   60.08719879
_symmetry_Int_Tables_number   1
_chemical_formula_structural   Y16MgIn3Ni4
_chemical_formula_sum   'Y16 Mg1 In3 Ni4'
_cell_volume   630.99411475
_cell_formula_units_Z   1
loop_
 _symmetry_equiv_pos_site_id
 _symmetry_equiv_pos_as_xyz
  1  'x, y, z'
loop_
 _atom_site_type_symbol
 _atom_site_label
 _atom_site_symmetry_multiplicity
 _atom_site_fract_x
 _atom_site_fract_y
 _atom_site_fract_z
 _atom_site_occupancy
  Y  Y0  1  0.060031  0.439406  0.439406  1
  Y  Y1  1  0.437026  0.062582  0.062582  1
  Y  Y2  1  0.437026  0.062582  0.437810  1
  Y  Y3  1  0.060031  0.439406  0.061158  1
  Y  Y4  1  0.437026  0.437810  0.062582  1
  Y  Y5  1  0.060031  0.061158  0.439406  1
  Y  Y6  1  0.185326  0.814179  0.814179  1
  Y  Y7  1  0.814037  0.186637  0.186637  1
  Y  Y8  1  0.814037  0.186637  0.812690  1
  Y  Y9  1  0.185326  0.814179  0.186315  1
  Y  Y10  1  0.814037  0.812690  0.186637  1
  Y  Y11  1  0.185326  0.186315  0.814179  1
  Y  Y12  1  0.598203  0.596785  0.596785  1
  Y  Y13  1  0.598203  0.596785  0.208226  1
  Y  Y14  1  0.598203  0.208226  0.596785  1
  Y  Y15  1  0.205012  0.598329  0.598329  1
  Mg  Mg16  1  0.516539  0.827820  0.827820  1
  In  In17  1  0.831731  0.832783  0.832783  1
  In  In18  1  0.831731  0.832783  0.502702  1
  In  In19  1  0.831731  0.502702  0.832783  1
  Ni  Ni20  1  0.391638  0.391958  0.391958  1
  Ni  Ni21  1  0.391638  0.391958  0.824444  1
  Ni  Ni22  1  0.391638  0.824444  0.391958  1
  Ni  Ni23  1  0.824470  0.391843  0.391843  1
