# generated using pymatgen
data_Tb2YSn3Pd2Pt
_symmetry_space_group_name_H-M   'P 1'
_cell_length_a   7.55402912
_cell_length_b   7.55413070
_cell_length_c   4.03394200
_cell_angle_alpha   90.00000000
_cell_angle_beta   90.00000000
_cell_angle_gamma   120.01994784
_symmetry_Int_Tables_number   1
_chemical_formula_structural   Tb2YSn3Pd2Pt
_chemical_formula_sum   'Tb2 Y1 Sn3 Pd2 Pt1'
_cell_volume   199.31321710
_cell_formula_units_Z   1
loop_
 _symmetry_equiv_pos_site_id
 _symmetry_equiv_pos_as_xyz
  1  'x, y, z'
loop_
 _atom_site_type_symbol
 _atom_site_label
 _atom_site_symmetry_multiplicity
 _atom_site_fract_x
 _atom_site_fract_y
 _atom_site_fract_z
 _atom_site_occupancy
  Tb  Tb0  1  0.589851  0.996507  0.500000  1
  Tb  Tb1  1  0.003430  0.593313  0.500000  1
  Y  Y2  1  0.406401  0.409808  0.500000  1
  Sn  Sn3  1  0.744234  0.741339  0.000000  1
  Sn  Sn4  1  0.258596  0.003059  0.000000  1
  Sn  Sn5  1  0.997294  0.255717  0.000000  1
  Pd  Pd6  1  0.666786  0.333371  0.000000  1
  Pd  Pd7  1  0.000051  0.000050  0.500000  1
  Pt  Pt8  1  0.333355  0.666838  0.000000  1
