# generated using pymatgen
data_Ti8Al14GaTcPt6
_symmetry_space_group_name_H-M   'P 1'
_cell_length_a   8.70342603
_cell_length_b   8.70342623
_cell_length_c   8.70342713
_cell_angle_alpha   120.15507681
_cell_angle_beta   119.78602390
_cell_angle_gamma   90.05131708
_symmetry_Int_Tables_number   1
_chemical_formula_structural   Ti8Al14GaTcPt6
_chemical_formula_sum   'Ti8 Al14 Ga1 Tc1 Pt6'
_cell_volume   466.38356749
_cell_formula_units_Z   1
loop_
 _symmetry_equiv_pos_site_id
 _symmetry_equiv_pos_as_xyz
  1  'x, y, z'
loop_
 _atom_site_type_symbol
 _atom_site_label
 _atom_site_symmetry_multiplicity
 _atom_site_fract_x
 _atom_site_fract_y
 _atom_site_fract_z
 _atom_site_occupancy
  Ti  Ti0  1  0.790156  0.291247  0.078854  1
  Ti  Ti1  1  0.212392  0.291247  0.501091  1
  Ti  Ti2  1  0.210436  0.710436  0.500000  1
  Ti  Ti3  1  0.212392  0.711301  0.921146  1
  Ti  Ti4  1  0.790156  0.711301  0.498909  1
  Ti  Ti5  1  0.787803  0.287803  0.500000  1
  Ti  Ti6  1  0.381912  0.120260  0.738346  1
  Ti  Ti7  1  0.381912  0.643567  0.261654  1
  Al  Al8  1  0.157933  0.343903  0.185969  1
  Al  Al9  1  0.157933  0.971964  0.814031  1
  Al  Al10  1  0.157339  0.342011  0.815327  1
  Al  Al11  1  0.526684  0.342011  0.184673  1
  Al  Al12  1  0.843132  0.655860  0.812729  1
  Al  Al13  1  0.843132  0.030403  0.187271  1
  Al  Al14  1  0.841894  0.657163  0.184730  1
  Al  Al15  1  0.472433  0.657163  0.815270  1
  Al  Al16  1  0.382009  0.118980  0.263030  1
  Al  Al17  1  0.855951  0.118980  0.736970  1
  Al  Al18  1  0.619342  0.881348  0.262008  1
  Al  Al19  1  0.619342  0.357335  0.737992  1
  Al  Al20  1  0.620803  0.880411  0.740393  1
  Al  Al21  1  0.140017  0.880411  0.259607  1
  Ga  Ga22  1  0.998581  0.498581  0.500000  1
  Tc  Tc23  1  0.497078  0.997078  0.500000  1
  Pt  Pt24  1  0.998596  0.999358  0.499084  1
  Pt  Pt25  1  0.500273  0.999358  0.000762  1
  Pt  Pt26  1  0.500624  0.500624  0.000000  1
  Pt  Pt27  1  0.500273  0.499511  0.500916  1
  Pt  Pt28  1  0.998596  0.499511  0.999238  1
  Pt  Pt29  1  0.000876  0.000876  0.000000  1
