# generated using pymatgen
data_NdTh2Ga2PdPt3
_symmetry_space_group_name_H-M   'P 1'
_cell_length_a   7.40191420
_cell_length_b   7.40191508
_cell_length_c   3.92706900
_cell_angle_alpha   90.00000000
_cell_angle_beta   90.00000000
_cell_angle_gamma   116.59870135
_symmetry_Int_Tables_number   1
_chemical_formula_structural   NdTh2Ga2PdPt3
_chemical_formula_sum   'Nd1 Th2 Ga2 Pd1 Pt3'
_cell_volume   192.38625693
_cell_formula_units_Z   1
loop_
 _symmetry_equiv_pos_site_id
 _symmetry_equiv_pos_as_xyz
  1  'x, y, z'
loop_
 _atom_site_type_symbol
 _atom_site_label
 _atom_site_symmetry_multiplicity
 _atom_site_fract_x
 _atom_site_fract_y
 _atom_site_fract_z
 _atom_site_occupancy
  Nd  Nd0  1  0.409766  0.409766  0.500000  1
  Th  Th1  1  0.600443  0.983569  0.500000  1
  Th  Th2  1  0.983569  0.600443  0.500000  1
  Ga  Ga3  1  0.251608  0.006550  0.000000  1
  Ga  Ga4  1  0.006550  0.251608  0.000000  1
  Pd  Pd5  1  0.744521  0.744521  0.000000  1
  Pt  Pt6  1  0.668481  0.308323  0.000000  1
  Pt  Pt7  1  0.308323  0.668481  0.000000  1
  Pt  Pt8  1  0.026738  0.026738  0.500000  1
