# generated using pymatgen
data_Y2LuAlGa4Ni
_symmetry_space_group_name_H-M   'P 1'
_cell_length_a   6.81809466
_cell_length_b   6.91338719
_cell_length_c   4.22734900
_cell_angle_alpha   90.00000000
_cell_angle_beta   90.00000000
_cell_angle_gamma   120.03782015
_symmetry_Int_Tables_number   1
_chemical_formula_structural   Y2LuAlGa4Ni
_chemical_formula_sum   'Y2 Lu1 Al1 Ga4 Ni1'
_cell_volume   172.49916855
_cell_formula_units_Z   1
loop_
 _symmetry_equiv_pos_site_id
 _symmetry_equiv_pos_as_xyz
  1  'x, y, z'
loop_
 _atom_site_type_symbol
 _atom_site_label
 _atom_site_symmetry_multiplicity
 _atom_site_fract_x
 _atom_site_fract_y
 _atom_site_fract_z
 _atom_site_occupancy
  Y  Y0  1  0.593920  0.001223  0.500000  1
  Y  Y1  1  0.407612  0.409604  0.500000  1
  Lu  Lu2  1  0.999435  0.595032  0.500000  1
  Al  Al3  1  0.228032  0.998987  0.000000  1
  Ga  Ga4  1  0.002911  0.238280  0.000000  1
  Ga  Ga5  1  0.667826  0.332594  0.000000  1
  Ga  Ga6  1  0.329430  0.668406  0.000000  1
  Ga  Ga7  1  0.765756  0.761791  0.000000  1
  Ni  Ni8  1  0.005077  0.994082  0.500000  1
