# generated using pymatgen
data_Er4Al18OsPd3Pt2
_symmetry_space_group_name_H-M   'P 1'
_cell_length_a   7.60333393
_cell_length_b   7.60294493
_cell_length_c   9.43323016
_cell_angle_alpha   89.92649603
_cell_angle_beta   89.93602596
_cell_angle_gamma   119.50966411
_symmetry_Int_Tables_number   1
_chemical_formula_structural   Er4Al18OsPd3Pt2
_chemical_formula_sum   'Er4 Al18 Os1 Pd3 Pt2'
_cell_volume   474.57016257
_cell_formula_units_Z   1
loop_
 _symmetry_equiv_pos_site_id
 _symmetry_equiv_pos_as_xyz
  1  'x, y, z'
loop_
 _atom_site_type_symbol
 _atom_site_label
 _atom_site_symmetry_multiplicity
 _atom_site_fract_x
 _atom_site_fract_y
 _atom_site_fract_z
 _atom_site_occupancy
  Er  Er0  1  0.994337  0.670815  0.248497  1
  Er  Er1  1  0.005663  0.329185  0.751503  1
  Er  Er2  1  0.670756  0.994325  0.248546  1
  Er  Er3  1  0.329244  0.005675  0.751454  1
  Al  Al4  1  0.128687  0.128708  0.247064  1
  Al  Al5  1  0.871313  0.871292  0.752936  1
  Al  Al6  1  0.998705  0.329831  0.074974  1
  Al  Al7  1  0.001295  0.670169  0.925026  1
  Al  Al8  1  0.999398  0.664297  0.579580  1
  Al  Al9  1  0.335677  0.000562  0.420430  1
  Al  Al10  1  0.000602  0.335703  0.420420  1
  Al  Al11  1  0.664323  0.999438  0.579570  1
  Al  Al12  1  0.670213  0.001301  0.925052  1
  Al  Al13  1  0.329787  0.998699  0.074948  1
  Al  Al14  1  0.333661  0.333626  0.559827  1
  Al  Al15  1  0.666339  0.666374  0.440173  1
  Al  Al16  1  0.672105  0.672104  0.053689  1
  Al  Al17  1  0.327895  0.327896  0.946311  1
  Al  Al18  1  0.340664  0.548488  0.249481  1
  Al  Al19  1  0.659336  0.451512  0.750519  1
  Al  Al20  1  0.548365  0.340727  0.249570  1
  Al  Al21  1  0.451635  0.659273  0.750430  1
  Os  Os22  1  0.000000  0.000000  0.000000  1
  Pd  Pd23  1  0.327030  0.672821  0.500052  1
  Pd  Pd24  1  0.672970  0.327179  0.499948  1
  Pd  Pd25  1  0.000000  0.000000  0.500000  1
  Pt  Pt26  1  0.672056  0.327570  0.000180  1
  Pt  Pt27  1  0.327944  0.672430  0.999820  1
