# generated using pymatgen
data_BaHf(ZrS3)2
_symmetry_space_group_name_H-M   'P 1'
_cell_length_a   6.31166742
_cell_length_b   6.31166787
_cell_length_c   7.92041908
_cell_angle_alpha   97.59909652
_cell_angle_beta   97.59909811
_cell_angle_gamma   120.01658327
_symmetry_Int_Tables_number   1
_chemical_formula_structural   BaHf(ZrS3)2
_chemical_formula_sum   'Ba1 Hf1 Zr2 S6'
_cell_volume   263.47492126
_cell_formula_units_Z   1
loop_
 _symmetry_equiv_pos_site_id
 _symmetry_equiv_pos_as_xyz
  1  'x, y, z'
loop_
 _atom_site_type_symbol
 _atom_site_label
 _atom_site_symmetry_multiplicity
 _atom_site_fract_x
 _atom_site_fract_y
 _atom_site_fract_z
 _atom_site_occupancy
  Ba  Ba0  1  0.000000  0.000000  0.500000  1
  Hf  Hf1  1  0.500001  0.500001  0.000000  1
  Zr  Zr2  1  0.833714  0.166287  0.000000  1
  Zr  Zr3  1  0.166287  0.833714  0.000000  1
  S  S4  1  0.241325  0.241325  0.199177  1
  S  S5  1  0.894272  0.562846  0.198585  1
  S  S6  1  0.562846  0.894272  0.198585  1
  S  S7  1  0.437153  0.105728  0.801414  1
  S  S8  1  0.105728  0.437153  0.801414  1
  S  S9  1  0.758676  0.758676  0.800822  1
