# generated using pymatgen
data_Ba2NbRhO6
_symmetry_space_group_name_H-M   'P 1'
_cell_length_a   5.85269204
_cell_length_b   5.85269204
_cell_length_c   19.23891100
_cell_angle_alpha   90.00000000
_cell_angle_beta   90.00000000
_cell_angle_gamma   120.00000046
_symmetry_Int_Tables_number   1
_chemical_formula_structural   Ba2NbRhO6
_chemical_formula_sum   'Ba8 Nb4 Rh4 O24'
_cell_volume   570.71917075
_cell_formula_units_Z   4
loop_
 _symmetry_equiv_pos_site_id
 _symmetry_equiv_pos_as_xyz
  1  'x, y, z'
loop_
 _atom_site_type_symbol
 _atom_site_label
 _atom_site_symmetry_multiplicity
 _atom_site_fract_x
 _atom_site_fract_y
 _atom_site_fract_z
 _atom_site_occupancy
  Ba  Ba0  1  0.000000  0.000000  0.500000  1
  Ba  Ba1  1  0.000000  0.000000  0.000000  1
  Ba  Ba2  1  0.333333  0.666667  0.750000  1
  Ba  Ba3  1  0.666667  0.333333  0.250000  1
  Ba  Ba4  1  0.333333  0.666667  0.361551  1
  Ba  Ba5  1  0.666667  0.333333  0.638449  1
  Ba  Ba6  1  0.666667  0.333333  0.861551  1
  Ba  Ba7  1  0.333333  0.666667  0.138449  1
  Nb  Nb8  1  0.333333  0.666667  0.936913  1
  Nb  Nb9  1  0.666667  0.333333  0.063087  1
  Nb  Nb10  1  0.666667  0.333333  0.436913  1
  Nb  Nb11  1  0.333333  0.666667  0.563087  1
  Rh  Rh12  1  0.000000  0.000000  0.320793  1
  Rh  Rh13  1  0.000000  0.000000  0.679207  1
  Rh  Rh14  1  0.000000  0.000000  0.820793  1
  Rh  Rh15  1  0.000000  0.000000  0.179207  1
  O  O16  1  0.500000  0.500000  0.500000  1
  O  O17  1  0.500000  0.000000  0.500000  1
  O  O18  1  0.000000  0.500000  0.500000  1
  O  O19  1  0.500000  0.500000  0.000000  1
  O  O20  1  0.500000  0.000000  0.000000  1
  O  O21  1  0.000000  0.500000  0.000000  1
  O  O22  1  0.151446  0.848554  0.250000  1
  O  O23  1  0.151446  0.302893  0.250000  1
  O  O24  1  0.697107  0.848554  0.250000  1
  O  O25  1  0.848554  0.151446  0.750000  1
  O  O26  1  0.848554  0.697107  0.750000  1
  O  O27  1  0.302893  0.151446  0.750000  1
  O  O28  1  0.171033  0.828967  0.880461  1
  O  O29  1  0.171033  0.342065  0.880461  1
  O  O30  1  0.657935  0.828967  0.880461  1
  O  O31  1  0.828967  0.171033  0.119539  1
  O  O32  1  0.828967  0.657935  0.119539  1
  O  O33  1  0.342065  0.171033  0.119539  1
  O  O34  1  0.828967  0.171033  0.380461  1
  O  O35  1  0.828967  0.657935  0.380461  1
  O  O36  1  0.342065  0.171033  0.380461  1
  O  O37  1  0.171033  0.828967  0.619539  1
  O  O38  1  0.171033  0.342065  0.619539  1
  O  O39  1  0.657935  0.828967  0.619539  1
