# generated using pymatgen
data_Tb3YHo4(B6Os)4
_symmetry_space_group_name_H-M   'P 1'
_cell_length_a   3.65352000
_cell_length_b   9.15680501
_cell_length_c   11.54126601
_cell_angle_alpha   89.99540012
_cell_angle_beta   90.00000000
_cell_angle_gamma   90.00000000
_symmetry_Int_Tables_number   1
_chemical_formula_structural   Tb3YHo4(B6Os)4
_chemical_formula_sum   'Tb3 Y1 Ho4 B24 Os4'
_cell_volume   386.10809301
_cell_formula_units_Z   1
loop_
 _symmetry_equiv_pos_site_id
 _symmetry_equiv_pos_as_xyz
  1  'x, y, z'
loop_
 _atom_site_type_symbol
 _atom_site_label
 _atom_site_symmetry_multiplicity
 _atom_site_fract_x
 _atom_site_fract_y
 _atom_site_fract_z
 _atom_site_occupancy
  Tb  Tb0  1  0.000000  0.677606  0.586213  1
  Tb  Tb1  1  0.000000  0.822389  0.086244  1
  Tb  Tb2  1  0.000000  0.177629  0.913772  1
  Y  Y3  1  0.000000  0.322071  0.413842  1
  Ho  Ho4  1  0.000000  0.944128  0.372920  1
  Ho  Ho5  1  0.000000  0.055931  0.627055  1
  Ho  Ho6  1  0.000000  0.444084  0.127126  1
  Ho  Ho7  1  0.000000  0.555892  0.872894  1
  B  B8  1  0.500000  0.554137  0.432813  1
  B  B9  1  0.500000  0.445863  0.567189  1
  B  B10  1  0.500000  0.054206  0.067262  1
  B  B11  1  0.500000  0.945817  0.932741  1
  B  B12  1  0.500000  0.748123  0.419676  1
  B  B13  1  0.500000  0.251898  0.580243  1
  B  B14  1  0.500000  0.248163  0.080329  1
  B  B15  1  0.500000  0.751857  0.919680  1
  B  B16  1  0.500000  0.791161  0.266750  1
  B  B17  1  0.500000  0.208824  0.733213  1
  B  B18  1  0.500000  0.291252  0.233305  1
  B  B19  1  0.500000  0.708832  0.766747  1
  B  B20  1  0.500000  0.631691  0.185428  1
  B  B21  1  0.500000  0.368287  0.814573  1
  B  B22  1  0.500000  0.131754  0.314607  1
  B  B23  1  0.500000  0.868316  0.685400  1
  B  B24  1  0.500000  0.983562  0.213365  1
  B  B25  1  0.500000  0.016477  0.786651  1
  B  B26  1  0.500000  0.483416  0.286691  1
  B  B27  1  0.500000  0.516465  0.713312  1
  B  B28  1  0.500000  0.607439  0.029751  1
  B  B29  1  0.500000  0.392559  0.970259  1
  B  B30  1  0.500000  0.107718  0.470171  1
  B  B31  1  0.500000  0.892530  0.529763  1
  Os  Os32  1  0.000000  0.637627  0.321145  1
  Os  Os33  1  0.000000  0.362271  0.678874  1
  Os  Os34  1  0.000000  0.137757  0.178909  1
  Os  Os35  1  0.000000  0.862268  0.821087  1
