# generated using pymatgen
data_Tb3DyNi2(B8Ir)2
_symmetry_space_group_name_H-M   'P 1'
_cell_length_a   6.92502267
_cell_length_b   6.92503104
_cell_length_c   6.92502705
_cell_angle_alpha   111.24745927
_cell_angle_beta   113.24572217
_cell_angle_gamma   104.05940807
_symmetry_Int_Tables_number   1
_chemical_formula_structural   Tb3DyNi2(B8Ir)2
_chemical_formula_sum   'Tb3 Dy1 Ni2 B16 Ir2'
_cell_volume   253.87358994
_cell_formula_units_Z   1
loop_
 _symmetry_equiv_pos_site_id
 _symmetry_equiv_pos_as_xyz
  1  'x, y, z'
loop_
 _atom_site_type_symbol
 _atom_site_label
 _atom_site_symmetry_multiplicity
 _atom_site_fract_x
 _atom_site_fract_y
 _atom_site_fract_z
 _atom_site_occupancy
  Tb  Tb0  1  0.790495  0.790494  0.000000  1
  Tb  Tb1  1  0.209499  0.209499  0.000000  1
  Tb  Tb2  1  0.751690  0.251690  0.500000  1
  Dy  Dy3  1  0.248304  0.748301  0.499997  1
  Ni  Ni4  1  0.499926  0.745198  0.245270  1
  Ni  Ni5  1  0.499927  0.254665  0.754740  1
  B  B6  1  0.272973  0.108461  0.381473  1
  B  B7  1  0.726989  0.891501  0.618527  1
  B  B8  1  0.272974  0.891500  0.164513  1
  B  B9  1  0.726988  0.108462  0.835487  1
  B  B10  1  0.110772  0.730800  0.841560  1
  B  B11  1  0.889241  0.269213  0.158439  1
  B  B12  1  0.110773  0.269212  0.379970  1
  B  B13  1  0.889242  0.730801  0.620029  1
  B  B14  1  0.115286  0.109734  0.528909  1
  B  B15  1  0.580824  0.586375  0.471090  1
  B  B16  1  0.115286  0.586376  0.005551  1
  B  B17  1  0.580824  0.109734  0.994448  1
  B  B18  1  0.884773  0.890183  0.471086  1
  B  B19  1  0.419098  0.413686  0.528913  1
  B  B20  1  0.884772  0.413685  0.994589  1
  B  B21  1  0.419098  0.890183  0.005410  1
  Ir  Ir22  1  0.276415  0.500123  0.776291  1
  Ir  Ir23  1  0.723832  0.500123  0.223708  1
