# generated using pymatgen
data_TaNbBr2(OF3)4
_symmetry_space_group_name_H-M   'P 1'
_cell_length_a   6.06702400
_cell_length_b   7.23828874
_cell_length_c   10.37049593
_cell_angle_alpha   48.85624805
_cell_angle_beta   90.00000000
_cell_angle_gamma   90.00000000
_symmetry_Int_Tables_number   1
_chemical_formula_structural   TaNbBr2(OF3)4
_chemical_formula_sum   'Ta1 Nb1 Br2 O4 F12'
_cell_volume   342.95837187
_cell_formula_units_Z   1
loop_
 _symmetry_equiv_pos_site_id
 _symmetry_equiv_pos_as_xyz
  1  'x, y, z'
loop_
 _atom_site_type_symbol
 _atom_site_label
 _atom_site_symmetry_multiplicity
 _atom_site_fract_x
 _atom_site_fract_y
 _atom_site_fract_z
 _atom_site_occupancy
  Ta  Ta0  1  0.522113  0.000000  0.750000  1
  Nb  Nb1  1  0.477495  0.000000  0.250000  1
  Br  Br2  1  0.839941  0.500000  0.250000  1
  Br  Br3  1  0.158952  0.500000  0.750000  1
  O  O4  1  0.990566  0.641149  0.080147  1
  O  O5  1  0.008459  0.358449  0.920104  1
  O  O6  1  0.990566  0.358851  0.419853  1
  O  O7  1  0.008459  0.641551  0.579896  1
  F  F8  1  0.512170  0.728633  0.993017  1
  F  F9  1  0.282176  0.160371  0.775969  1
  F  F10  1  0.282176  0.839629  0.724031  1
  F  F11  1  0.487598  0.273214  0.005625  1
  F  F12  1  0.734750  0.841979  0.718991  1
  F  F13  1  0.512170  0.271367  0.506983  1
  F  F14  1  0.720388  0.161809  0.275804  1
  F  F15  1  0.264643  0.841686  0.218048  1
  F  F16  1  0.487598  0.726786  0.494375  1
  F  F17  1  0.734750  0.158021  0.781009  1
  F  F18  1  0.720388  0.838191  0.224196  1
  F  F19  1  0.264643  0.158314  0.281952  1
