# generated using pymatgen
data_Pr2Sm8C4Br15
_symmetry_space_group_name_H-M   'P 1'
_cell_length_a   9.12833951
_cell_length_b   10.11445257
_cell_length_c   11.10768999
_cell_angle_alpha   70.18194190
_cell_angle_beta   66.12301237
_cell_angle_gamma   70.48670215
_symmetry_Int_Tables_number   1
_chemical_formula_structural   Pr2Sm8C4Br15
_chemical_formula_sum   'Pr2 Sm8 C4 Br15'
_cell_volume   858.84656391
_cell_formula_units_Z   1
loop_
 _symmetry_equiv_pos_site_id
 _symmetry_equiv_pos_as_xyz
  1  'x, y, z'
loop_
 _atom_site_type_symbol
 _atom_site_label
 _atom_site_symmetry_multiplicity
 _atom_site_fract_x
 _atom_site_fract_y
 _atom_site_fract_z
 _atom_site_occupancy
  Pr  Pr0  1  0.028674  0.104430  0.263901  1
  Pr  Pr1  1  0.971326  0.895570  0.736099  1
  Sm  Sm2  1  0.330828  0.746932  0.832484  1
  Sm  Sm3  1  0.669172  0.253068  0.167516  1
  Sm  Sm4  1  0.167793  0.429914  0.045546  1
  Sm  Sm5  1  0.832207  0.570086  0.954454  1
  Sm  Sm6  1  0.077111  0.179516  0.890691  1
  Sm  Sm7  1  0.922889  0.820484  0.109309  1
  Sm  Sm8  1  0.247637  0.539080  0.648506  1
  Sm  Sm9  1  0.752363  0.460920  0.351494  1
  C  C10  1  0.879039  0.363741  0.169462  1
  C  C11  1  0.120961  0.636259  0.830538  1
  C  C12  1  0.956612  0.298478  0.058579  1
  C  C13  1  0.043388  0.701522  0.941421  1
  Br  Br14  1  0.500000  0.500000  0.000000  1
  Br  Br15  1  0.136467  0.808415  0.468957  1
  Br  Br16  1  0.863533  0.191585  0.531043  1
  Br  Br17  1  0.259711  0.025185  0.650889  1
  Br  Br18  1  0.740289  0.974815  0.349111  1
  Br  Br19  1  0.337849  0.172491  0.217998  1
  Br  Br20  1  0.662151  0.827509  0.782002  1
  Br  Br21  1  0.454512  0.369411  0.412639  1
  Br  Br22  1  0.545488  0.630589  0.587361  1
  Br  Br23  1  0.952368  0.441414  0.704606  1
  Br  Br24  1  0.047632  0.558586  0.295394  1
  Br  Br25  1  0.232774  0.905873  0.057471  1
  Br  Br26  1  0.767226  0.094127  0.942529  1
  Br  Br27  1  0.383805  0.270069  0.818405  1
  Br  Br28  1  0.616195  0.729931  0.181595  1
