# generated using pymatgen
data_MnCu3Se3S
_symmetry_space_group_name_H-M   'P 1'
_cell_length_a   5.58322713
_cell_length_b   5.58322745
_cell_length_c   5.58322732
_cell_angle_alpha   88.91420746
_cell_angle_beta   88.91421133
_cell_angle_gamma   88.91420857
_symmetry_Int_Tables_number   1
_chemical_formula_structural   MnCu3Se3S
_chemical_formula_sum   'Mn1 Cu3 Se3 S1'
_cell_volume   173.95016178
_cell_formula_units_Z   1
loop_
 _symmetry_equiv_pos_site_id
 _symmetry_equiv_pos_as_xyz
  1  'x, y, z'
loop_
 _atom_site_type_symbol
 _atom_site_label
 _atom_site_symmetry_multiplicity
 _atom_site_fract_x
 _atom_site_fract_y
 _atom_site_fract_z
 _atom_site_occupancy
  Mn  Mn0  1  0.999600  0.999600  0.999600  1
  Cu  Cu1  1  0.006594  0.496151  0.006594  1
  Cu  Cu2  1  0.006594  0.006594  0.496151  1
  Cu  Cu3  1  0.496151  0.006594  0.006594  1
  Se  Se4  1  0.248302  0.760176  0.760176  1
  Se  Se5  1  0.760176  0.760176  0.248302  1
  Se  Se6  1  0.760176  0.248302  0.760176  1
  S  S7  1  0.222407  0.222407  0.222407  1
