# generated using pymatgen
data_Li4Tm4Sn3Sb
_symmetry_space_group_name_H-M   'P 1'
_cell_length_a   9.31653640
_cell_length_b   9.31653709
_cell_length_c   7.10325408
_cell_angle_alpha   90.05438698
_cell_angle_beta   89.94561337
_cell_angle_gamma   119.96797358
_symmetry_Int_Tables_number   1
_chemical_formula_structural   Li4Tm4Sn3Sb
_chemical_formula_sum   'Li8 Tm8 Sn6 Sb2'
_cell_volume   534.11747546
_cell_formula_units_Z   2
loop_
 _symmetry_equiv_pos_site_id
 _symmetry_equiv_pos_as_xyz
  1  'x, y, z'
loop_
 _atom_site_type_symbol
 _atom_site_label
 _atom_site_symmetry_multiplicity
 _atom_site_fract_x
 _atom_site_fract_y
 _atom_site_fract_z
 _atom_site_occupancy
  Li  Li0  1  0.832908  0.666864  0.712877  1
  Li  Li1  1  0.833576  0.166424  0.713118  1
  Li  Li2  1  0.333686  0.666314  0.820880  1
  Li  Li3  1  0.666727  0.333273  0.320905  1
  Li  Li4  1  0.666353  0.833341  0.213049  1
  Li  Li5  1  0.166659  0.333647  0.213049  1
  Li  Li6  1  0.166830  0.833170  0.213234  1
  Li  Li7  1  0.333136  0.167092  0.712877  1
  Tm  Tm8  1  0.999298  0.000702  0.002505  1
  Tm  Tm9  1  0.999382  0.000618  0.499234  1
  Tm  Tm10  1  0.510513  0.489487  0.008417  1
  Tm  Tm11  1  0.023060  0.510618  0.503870  1
  Tm  Tm12  1  0.489382  0.976940  0.503870  1
  Tm  Tm13  1  0.512056  0.021453  0.009848  1
  Tm  Tm14  1  0.978547  0.487944  0.009848  1
  Tm  Tm15  1  0.487964  0.512036  0.505115  1
  Sn  Sn16  1  0.333132  0.666868  0.240748  1
  Sn  Sn17  1  0.833056  0.166944  0.268727  1
  Sn  Sn18  1  0.166500  0.333585  0.769132  1
  Sn  Sn19  1  0.333677  0.166483  0.268878  1
  Sn  Sn20  1  0.833517  0.666323  0.268878  1
  Sn  Sn21  1  0.666415  0.833500  0.769132  1
  Sb  Sb22  1  0.166812  0.833188  0.768474  1
  Sb  Sb23  1  0.666814  0.333186  0.741335  1
