# generated using pymatgen
data_KTm3F10
_symmetry_space_group_name_H-M   'P 1'
_cell_length_a   8.11585869
_cell_length_b   8.11585874
_cell_length_c   8.11585900
_cell_angle_alpha   60.00000301
_cell_angle_beta   60.00000282
_cell_angle_gamma   59.99999971
_symmetry_Int_Tables_number   1
_chemical_formula_structural   KTm3F10
_chemical_formula_sum   'K2 Tm6 F20'
_cell_volume   377.99710144
_cell_formula_units_Z   2
loop_
 _symmetry_equiv_pos_site_id
 _symmetry_equiv_pos_as_xyz
  1  'x, y, z'
loop_
 _atom_site_type_symbol
 _atom_site_label
 _atom_site_symmetry_multiplicity
 _atom_site_fract_x
 _atom_site_fract_y
 _atom_site_fract_z
 _atom_site_occupancy
  K  K0  1  0.250000  0.250000  0.250000  1
  K  K1  1  0.750000  0.750000  0.750000  1
  Tm  Tm2  1  0.759220  0.240780  0.240780  1
  Tm  Tm3  1  0.240780  0.759220  0.759220  1
  Tm  Tm4  1  0.240780  0.759220  0.240780  1
  Tm  Tm5  1  0.759220  0.240780  0.759220  1
  Tm  Tm6  1  0.240780  0.240780  0.759220  1
  Tm  Tm7  1  0.759220  0.759220  0.240780  1
  F  F8  1  0.830014  0.500000  0.500000  1
  F  F9  1  0.169986  0.500000  0.500000  1
  F  F10  1  0.500000  0.830014  0.169986  1
  F  F11  1  0.500000  0.169986  0.830014  1
  F  F12  1  0.500000  0.830014  0.500000  1
  F  F13  1  0.169986  0.500000  0.830014  1
  F  F14  1  0.500000  0.169986  0.500000  1
  F  F15  1  0.830014  0.500000  0.169986  1
  F  F16  1  0.500000  0.500000  0.830014  1
  F  F17  1  0.500000  0.500000  0.169986  1
  F  F18  1  0.169986  0.830014  0.500000  1
  F  F19  1  0.830014  0.169986  0.500000  1
  F  F20  1  0.111826  0.111826  0.111826  1
  F  F21  1  0.888174  0.888174  0.888174  1
  F  F22  1  0.111826  0.111826  0.664522  1
  F  F23  1  0.111826  0.664522  0.111826  1
  F  F24  1  0.888174  0.888174  0.335478  1
  F  F25  1  0.888174  0.335478  0.888174  1
  F  F26  1  0.664522  0.111826  0.111826  1
  F  F27  1  0.335478  0.888174  0.888174  1
