# generated using pymatgen
data_LiDyHo15In3Ir4
_symmetry_space_group_name_H-M   'P 1'
_cell_length_a   9.62867874
_cell_length_b   9.62867981
_cell_length_c   9.62472806
_cell_angle_alpha   59.84272044
_cell_angle_beta   59.84271575
_cell_angle_gamma   59.84049954
_symmetry_Int_Tables_number   1
_chemical_formula_structural   LiDyHo15In3Ir4
_chemical_formula_sum   'Li1 Dy1 Ho15 In3 Ir4'
_cell_volume   628.70455564
_cell_formula_units_Z   1
loop_
 _symmetry_equiv_pos_site_id
 _symmetry_equiv_pos_as_xyz
  1  'x, y, z'
loop_
 _atom_site_type_symbol
 _atom_site_label
 _atom_site_symmetry_multiplicity
 _atom_site_fract_x
 _atom_site_fract_y
 _atom_site_fract_z
 _atom_site_occupancy
  Li  Li0  1  0.427151  0.427151  0.427361  1
  Dy  Dy1  1  0.438449  0.438449  0.061107  1
  Ho  Ho2  1  0.651020  0.651020  0.045975  1
  Ho  Ho3  1  0.188333  0.813341  0.188487  1
  Ho  Ho4  1  0.059804  0.439848  0.059967  1
  Ho  Ho5  1  0.192091  0.808044  0.807828  1
  Ho  Ho6  1  0.060085  0.438793  0.439250  1
  Ho  Ho7  1  0.813341  0.188333  0.188487  1
  Ho  Ho8  1  0.650528  0.650528  0.650721  1
  Ho  Ho9  1  0.808044  0.192091  0.807828  1
  Ho  Ho10  1  0.188560  0.188560  0.812947  1
  Ho  Ho11  1  0.046365  0.651029  0.650727  1
  Ho  Ho12  1  0.439848  0.059804  0.059967  1
  Ho  Ho13  1  0.060144  0.060144  0.439806  1
  Ho  Ho14  1  0.651029  0.046365  0.650727  1
  Ho  Ho15  1  0.807935  0.807935  0.192130  1
  Ho  Ho16  1  0.438793  0.060085  0.439250  1
  In  In17  1  0.417220  0.417220  0.745422  1
  In  In18  1  0.417215  0.745656  0.417155  1
  In  In19  1  0.745656  0.417215  0.417155  1
  Ir  Ir20  1  0.423916  0.858477  0.857897  1
  Ir  Ir21  1  0.857976  0.857976  0.857832  1
  Ir  Ir22  1  0.858477  0.423916  0.857897  1
  Ir  Ir23  1  0.858020  0.858020  0.424080  1
