# generated using pymatgen
data_Na(Zn2Au)2
_symmetry_space_group_name_H-M   'P 1'
_cell_length_a   7.86363600
_cell_length_b   7.86363600
_cell_length_c   4.18544400
_cell_angle_alpha   90.00000000
_cell_angle_beta   90.00000000
_cell_angle_gamma   90.00000000
_symmetry_Int_Tables_number   1
_chemical_formula_structural   Na(Zn2Au)2
_chemical_formula_sum   'Na2 Zn8 Au4'
_cell_volume   258.81434275
_cell_formula_units_Z   2
loop_
 _symmetry_equiv_pos_site_id
 _symmetry_equiv_pos_as_xyz
  1  'x, y, z'
loop_
 _atom_site_type_symbol
 _atom_site_label
 _atom_site_symmetry_multiplicity
 _atom_site_fract_x
 _atom_site_fract_y
 _atom_site_fract_z
 _atom_site_occupancy
  Na  Na0  1  0.500000  0.500000  0.500000  1
  Na  Na1  1  0.000000  0.000000  0.000000  1
  Zn  Zn2  1  0.355230  0.092346  0.500000  1
  Zn  Zn3  1  0.644770  0.907654  0.500000  1
  Zn  Zn4  1  0.855230  0.407654  0.000000  1
  Zn  Zn5  1  0.144770  0.592346  0.000000  1
  Zn  Zn6  1  0.092346  0.355230  0.500000  1
  Zn  Zn7  1  0.907654  0.644770  0.500000  1
  Zn  Zn8  1  0.407654  0.855230  0.000000  1
  Zn  Zn9  1  0.592346  0.144770  0.000000  1
  Au  Au10  1  0.782867  0.217133  0.500000  1
  Au  Au11  1  0.217133  0.782867  0.500000  1
  Au  Au12  1  0.282867  0.282867  0.000000  1
  Au  Au13  1  0.717133  0.717133  0.000000  1
