# generated using pymatgen
data_Hf2ZrTi(PN3)4
_symmetry_space_group_name_H-M   'P 1'
_cell_length_a   6.54529361
_cell_length_b   6.54529383
_cell_length_c   5.23198069
_cell_angle_alpha   78.53051460
_cell_angle_beta   78.53050688
_cell_angle_gamma   83.08586728
_symmetry_Int_Tables_number   1
_chemical_formula_structural   Hf2ZrTi(PN3)4
_chemical_formula_sum   'Hf2 Zr1 Ti1 P4 N12'
_cell_volume   214.51611690
_cell_formula_units_Z   1
loop_
 _symmetry_equiv_pos_site_id
 _symmetry_equiv_pos_as_xyz
  1  'x, y, z'
loop_
 _atom_site_type_symbol
 _atom_site_label
 _atom_site_symmetry_multiplicity
 _atom_site_fract_x
 _atom_site_fract_y
 _atom_site_fract_z
 _atom_site_occupancy
  Hf  Hf0  1  0.904904  0.095096  0.250000  1
  Hf  Hf1  1  0.319692  0.680308  0.250000  1
  Zr  Zr2  1  0.676771  0.323229  0.750000  1
  Ti  Ti3  1  0.108692  0.891308  0.750000  1
  P  P4  1  0.194593  0.384317  0.758414  1
  P  P5  1  0.382231  0.196050  0.260268  1
  P  P6  1  0.803950  0.617769  0.239732  1
  P  P7  1  0.615683  0.805407  0.741586  1
  N  N8  1  0.322561  0.388387  0.007129  1
  N  N9  1  0.017611  0.220078  0.843338  1
  N  N10  1  0.990019  0.775217  0.140650  1
  N  N11  1  0.384995  0.332445  0.500973  1
  N  N12  1  0.616304  0.121093  0.139911  1
  N  N13  1  0.375541  0.876329  0.857433  1
  N  N14  1  0.878907  0.383696  0.360089  1
  N  N15  1  0.667555  0.615005  0.999027  1
  N  N16  1  0.779922  0.982389  0.656662  1
  N  N17  1  0.123671  0.624459  0.642567  1
  N  N18  1  0.224783  0.009981  0.359350  1
  N  N19  1  0.611613  0.677439  0.492871  1
