# generated using pymatgen
data_Pr4Y3Ho(SiO5)4
_symmetry_space_group_name_H-M   'P 1'
_cell_length_a   8.15034760
_cell_length_b   8.15388897
_cell_length_c   10.83059521
_cell_angle_alpha   61.12033538
_cell_angle_beta   61.10236668
_cell_angle_gamma   50.30736929
_symmetry_Int_Tables_number   1
_chemical_formula_structural   Pr4Y3Ho(SiO5)4
_chemical_formula_sum   'Pr4 Y3 Ho1 Si4 O20'
_cell_volume   468.36837040
_cell_formula_units_Z   1
loop_
 _symmetry_equiv_pos_site_id
 _symmetry_equiv_pos_as_xyz
  1  'x, y, z'
loop_
 _atom_site_type_symbol
 _atom_site_label
 _atom_site_symmetry_multiplicity
 _atom_site_fract_x
 _atom_site_fract_y
 _atom_site_fract_z
 _atom_site_occupancy
  Pr  Pr0  1  0.782806  0.291431  0.035633  1
  Pr  Pr1  1  0.708415  0.217133  0.464401  1
  Pr  Pr2  1  0.216914  0.708563  0.964733  1
  Pr  Pr3  1  0.291375  0.782770  0.535406  1
  Y  Y4  1  0.522061  0.763294  0.163308  1
  Y  Y5  1  0.763695  0.522457  0.662883  1
  Y  Y6  1  0.477607  0.236628  0.836830  1
  Ho  Ho7  1  0.237581  0.476989  0.336778  1
  Si  Si8  1  0.728397  0.903273  0.306873  1
  Si  Si9  1  0.096904  0.271923  0.193371  1
  Si  Si10  1  0.271718  0.096982  0.692833  1
  Si  Si11  1  0.903246  0.728328  0.806828  1
  O  O12  1  0.420607  0.611121  0.110374  1
  O  O13  1  0.387047  0.577931  0.390689  1
  O  O14  1  0.578429  0.388262  0.890752  1
  O  O15  1  0.611836  0.421651  0.609094  1
  O  O16  1  0.868810  0.723583  0.431829  1
  O  O17  1  0.275600  0.133220  0.067467  1
  O  O18  1  0.133911  0.276346  0.566411  1
  O  O19  1  0.724269  0.867020  0.932660  1
  O  O20  1  0.565464  0.842682  0.317375  1
  O  O21  1  0.157511  0.434392  0.183687  1
  O  O22  1  0.434723  0.157054  0.682771  1
  O  O23  1  0.842784  0.565411  0.817298  1
  O  O24  1  0.158546  0.588102  0.822878  1
  O  O25  1  0.411901  0.841607  0.676993  1
  O  O26  1  0.841592  0.412042  0.177168  1
  O  O27  1  0.586642  0.159138  0.323026  1
  O  O28  1  0.908503  0.905648  0.645693  1
  O  O29  1  0.094325  0.091627  0.854060  1
  O  O30  1  0.091459  0.094322  0.354339  1
  O  O31  1  0.905324  0.909071  0.145561  1
