# generated using pymatgen
data_Tb4Lu4Re(B8Ru)3
_symmetry_space_group_name_H-M   'P 1'
_cell_length_a   3.63693400
_cell_length_b   9.08761223
_cell_length_c   11.48740103
_cell_angle_alpha   90.10733800
_cell_angle_beta   90.00000000
_cell_angle_gamma   90.00000000
_symmetry_Int_Tables_number   1
_chemical_formula_structural   Tb4Lu4Re(B8Ru)3
_chemical_formula_sum   'Tb4 Lu4 Re1 B24 Ru3'
_cell_volume   379.66995229
_cell_formula_units_Z   1
loop_
 _symmetry_equiv_pos_site_id
 _symmetry_equiv_pos_as_xyz
  1  'x, y, z'
loop_
 _atom_site_type_symbol
 _atom_site_label
 _atom_site_symmetry_multiplicity
 _atom_site_fract_x
 _atom_site_fract_y
 _atom_site_fract_z
 _atom_site_occupancy
  Tb  Tb0  1  0.000000  0.322553  0.415067  1
  Tb  Tb1  1  0.000000  0.680248  0.587598  1
  Tb  Tb2  1  0.000000  0.821950  0.083695  1
  Tb  Tb3  1  0.000000  0.176874  0.913398  1
  Lu  Lu4  1  0.000000  0.943413  0.371424  1
  Lu  Lu5  1  0.000000  0.055998  0.627706  1
  Lu  Lu6  1  0.000000  0.442884  0.128090  1
  Lu  Lu7  1  0.000000  0.555890  0.872755  1
  Re  Re8  1  0.000000  0.861501  0.820207  1
  B  B9  1  0.500000  0.554835  0.432748  1
  B  B10  1  0.500000  0.445556  0.567567  1
  B  B11  1  0.500000  0.054447  0.067996  1
  B  B12  1  0.500000  0.946563  0.932752  1
  B  B13  1  0.500000  0.750148  0.418824  1
  B  B14  1  0.500000  0.250182  0.580897  1
  B  B15  1  0.500000  0.249962  0.081425  1
  B  B16  1  0.500000  0.749406  0.918797  1
  B  B17  1  0.500000  0.791239  0.265750  1
  B  B18  1  0.500000  0.208443  0.733235  1
  B  B19  1  0.500000  0.291678  0.234291  1
  B  B20  1  0.500000  0.707454  0.765846  1
  B  B21  1  0.500000  0.629991  0.184578  1
  B  B22  1  0.500000  0.369367  0.815067  1
  B  B23  1  0.500000  0.130753  0.315591  1
  B  B24  1  0.500000  0.869664  0.684704  1
  B  B25  1  0.500000  0.983138  0.213420  1
  B  B26  1  0.500000  0.018271  0.786416  1
  B  B27  1  0.500000  0.483067  0.287147  1
  B  B28  1  0.500000  0.516847  0.713515  1
  B  B29  1  0.500000  0.601818  0.028809  1
  B  B30  1  0.500000  0.396081  0.972042  1
  B  B31  1  0.500000  0.103510  0.471112  1
  B  B32  1  0.500000  0.897327  0.527512  1
  Ru  Ru33  1  0.000000  0.638808  0.319878  1
  Ru  Ru34  1  0.000000  0.361393  0.679584  1
  Ru  Ru35  1  0.000000  0.138744  0.180559  1
