# generated using pymatgen
data_DyEr3Sb10
_symmetry_space_group_name_H-M   'P 1'
_cell_length_a   4.20113000
_cell_length_b   13.18934220
_cell_length_c   14.63583919
_cell_angle_alpha   78.38990707
_cell_angle_beta   90.00000000
_cell_angle_gamma   90.00000000
_symmetry_Int_Tables_number   1
_chemical_formula_structural   DyEr3Sb10
_chemical_formula_sum   'Dy2 Er6 Sb20'
_cell_volume   794.38123826
_cell_formula_units_Z   2
loop_
 _symmetry_equiv_pos_site_id
 _symmetry_equiv_pos_as_xyz
  1  'x, y, z'
loop_
 _atom_site_type_symbol
 _atom_site_label
 _atom_site_symmetry_multiplicity
 _atom_site_fract_x
 _atom_site_fract_y
 _atom_site_fract_z
 _atom_site_occupancy
  Dy  Dy0  1  0.250000  0.953019  0.359508  1
  Dy  Dy1  1  0.750000  0.046981  0.640492  1
  Er  Er2  1  0.250000  0.394824  0.770399  1
  Er  Er3  1  0.750000  0.605176  0.229601  1
  Er  Er4  1  0.250000  0.661971  0.855910  1
  Er  Er5  1  0.750000  0.338029  0.144090  1
  Er  Er6  1  0.250000  0.668698  0.576403  1
  Er  Er7  1  0.750000  0.331302  0.423597  1
  Sb  Sb8  1  0.250000  0.143861  0.778423  1
  Sb  Sb9  1  0.750000  0.856139  0.221577  1
  Sb  Sb10  1  0.250000  0.144434  0.482226  1
  Sb  Sb11  1  0.750000  0.855566  0.517774  1
  Sb  Sb12  1  0.250000  0.152907  0.171748  1
  Sb  Sb13  1  0.750000  0.847093  0.828252  1
  Sb  Sb14  1  0.250000  0.420601  0.975319  1
  Sb  Sb15  1  0.750000  0.579399  0.024681  1
  Sb  Sb16  1  0.750000  0.028972  0.908417  1
  Sb  Sb17  1  0.250000  0.971028  0.091583  1
  Sb  Sb18  1  0.750000  0.139952  0.322179  1
  Sb  Sb19  1  0.250000  0.860048  0.677821  1
  Sb  Sb20  1  0.750000  0.279157  0.937573  1
  Sb  Sb21  1  0.250000  0.720843  0.062427  1
  Sb  Sb22  1  0.750000  0.285487  0.652587  1
  Sb  Sb23  1  0.250000  0.714513  0.347413  1
  Sb  Sb24  1  0.750000  0.575883  0.734442  1
  Sb  Sb25  1  0.250000  0.424117  0.265558  1
  Sb  Sb26  1  0.750000  0.572904  0.447639  1
  Sb  Sb27  1  0.250000  0.427096  0.552361  1
