# generated using pymatgen
data_Tm9Sc(Ga2Bi)2
_symmetry_space_group_name_H-M   'P 1'
_cell_length_a   8.60163704
_cell_length_b   8.62686283
_cell_length_c   6.41774137
_cell_angle_alpha   89.92497901
_cell_angle_beta   90.03762503
_cell_angle_gamma   120.09706260
_symmetry_Int_Tables_number   1
_chemical_formula_structural   Tm9Sc(Ga2Bi)2
_chemical_formula_sum   'Tm9 Sc1 Ga4 Bi2'
_cell_volume   412.02244511
_cell_formula_units_Z   1
loop_
 _symmetry_equiv_pos_site_id
 _symmetry_equiv_pos_as_xyz
  1  'x, y, z'
loop_
 _atom_site_type_symbol
 _atom_site_label
 _atom_site_symmetry_multiplicity
 _atom_site_fract_x
 _atom_site_fract_y
 _atom_site_fract_z
 _atom_site_occupancy
  Tm  Tm0  1  0.307251  0.653626  0.000000  1
  Tm  Tm1  1  0.671216  0.335608  0.500000  1
  Tm  Tm2  1  0.671558  0.335778  0.000000  1
  Tm  Tm3  1  0.231384  0.999913  0.251203  1
  Tm  Tm4  1  0.231384  0.231471  0.748797  1
  Tm  Tm5  1  0.018058  0.766358  0.747601  1
  Tm  Tm6  1  0.018058  0.251699  0.252399  1
  Tm  Tm7  1  0.766598  0.749101  0.249963  1
  Tm  Tm8  1  0.766598  0.017496  0.750037  1
  Sc  Sc9  1  0.306256  0.653129  0.500000  1
  Ga  Ga10  1  0.001167  0.400850  0.744736  1
  Ga  Ga11  1  0.001167  0.600317  0.255264  1
  Ga  Ga12  1  0.402982  0.399928  0.252179  1
  Ga  Ga13  1  0.402982  0.003054  0.747821  1
  Bi  Bi14  1  0.601671  0.990177  0.254221  1
  Bi  Bi15  1  0.601671  0.611494  0.745779  1
