# generated using pymatgen
data_Y3VFe5(CoP2)3
_symmetry_space_group_name_H-M   'P 1'
_cell_length_a   3.72327400
_cell_length_b   10.51455900
_cell_length_c   12.24073400
_cell_angle_alpha   90.00000000
_cell_angle_beta   90.00000000
_cell_angle_gamma   90.00000000
_symmetry_Int_Tables_number   1
_chemical_formula_structural   Y3VFe5(CoP2)3
_chemical_formula_sum   'Y6 V2 Fe10 Co6 P12'
_cell_volume   479.20740501
_cell_formula_units_Z   2
loop_
 _symmetry_equiv_pos_site_id
 _symmetry_equiv_pos_as_xyz
  1  'x, y, z'
loop_
 _atom_site_type_symbol
 _atom_site_label
 _atom_site_symmetry_multiplicity
 _atom_site_fract_x
 _atom_site_fract_y
 _atom_site_fract_z
 _atom_site_occupancy
  Y  Y0  1  0.000000  0.500000  0.524089  1
  Y  Y1  1  0.500000  0.000000  0.475911  1
  Y  Y2  1  0.500000  0.821604  0.207380  1
  Y  Y3  1  0.500000  0.178396  0.207380  1
  Y  Y4  1  0.000000  0.678396  0.792620  1
  Y  Y5  1  0.000000  0.321604  0.792620  1
  V  V6  1  0.500000  0.500000  0.151127  1
  V  V7  1  0.000000  0.000000  0.848873  1
  Fe  Fe8  1  0.000000  0.500000  0.988988  1
  Fe  Fe9  1  0.500000  0.000000  0.011012  1
  Fe  Fe10  1  0.500000  0.326598  0.997418  1
  Fe  Fe11  1  0.500000  0.673402  0.997418  1
  Fe  Fe12  1  0.000000  0.173402  0.002582  1
  Fe  Fe13  1  0.000000  0.826598  0.002582  1
  Fe  Fe14  1  0.500000  0.297913  0.430198  1
  Fe  Fe15  1  0.500000  0.702087  0.430198  1
  Fe  Fe16  1  0.000000  0.202087  0.569802  1
  Fe  Fe17  1  0.000000  0.797913  0.569802  1
  Co  Co18  1  0.500000  0.500000  0.700705  1
  Co  Co19  1  0.000000  0.000000  0.299295  1
  Co  Co20  1  0.500000  0.880458  0.706963  1
  Co  Co21  1  0.500000  0.119542  0.706963  1
  Co  Co22  1  0.000000  0.619542  0.293037  1
  Co  Co23  1  0.000000  0.380458  0.293037  1
  P  P24  1  0.500000  0.500000  0.886548  1
  P  P25  1  0.000000  0.000000  0.113452  1
  P  P26  1  0.500000  0.500000  0.346431  1
  P  P27  1  0.000000  0.000000  0.653569  1
  P  P28  1  0.500000  0.306654  0.613005  1
  P  P29  1  0.500000  0.693346  0.613005  1
  P  P30  1  0.000000  0.193346  0.386995  1
  P  P31  1  0.000000  0.806654  0.386995  1
  P  P32  1  0.500000  0.847611  0.888762  1
  P  P33  1  0.500000  0.152389  0.888762  1
  P  P34  1  0.000000  0.652389  0.111238  1
  P  P35  1  0.000000  0.347611  0.111238  1
