# generated using pymatgen
data_Lu16MgCd3Ni4
_symmetry_space_group_name_H-M   'P 1'
_cell_length_a   9.39668298
_cell_length_b   9.34467369
_cell_length_c   9.34467500
_cell_angle_alpha   59.99999890
_cell_angle_beta   60.18292220
_cell_angle_gamma   60.18291966
_symmetry_Int_Tables_number   1
_chemical_formula_structural   Lu16MgCd3Ni4
_chemical_formula_sum   'Lu16 Mg1 Cd3 Ni4'
_cell_volume   581.81264716
_cell_formula_units_Z   1
loop_
 _symmetry_equiv_pos_site_id
 _symmetry_equiv_pos_as_xyz
  1  'x, y, z'
loop_
 _atom_site_type_symbol
 _atom_site_label
 _atom_site_symmetry_multiplicity
 _atom_site_fract_x
 _atom_site_fract_y
 _atom_site_fract_z
 _atom_site_occupancy
  Lu  Lu0  1  0.597592  0.596268  0.596268  1
  Lu  Lu1  1  0.597592  0.596268  0.209871  1
  Lu  Lu2  1  0.597592  0.209871  0.596268  1
  Lu  Lu3  1  0.206680  0.597773  0.597773  1
  Lu  Lu4  1  0.060381  0.439110  0.439110  1
  Lu  Lu5  1  0.437813  0.062018  0.062018  1
  Lu  Lu6  1  0.437813  0.062018  0.438150  1
  Lu  Lu7  1  0.060381  0.439110  0.061398  1
  Lu  Lu8  1  0.437813  0.438150  0.062018  1
  Lu  Lu9  1  0.060381  0.061398  0.439110  1
  Lu  Lu10  1  0.183887  0.814123  0.814123  1
  Lu  Lu11  1  0.813933  0.186325  0.186325  1
  Lu  Lu12  1  0.813933  0.186325  0.813417  1
  Lu  Lu13  1  0.183887  0.814123  0.187866  1
  Lu  Lu14  1  0.813933  0.813417  0.186325  1
  Lu  Lu15  1  0.183887  0.187866  0.814123  1
  Mg  Mg16  1  0.519308  0.826897  0.826897  1
  Cd  Cd17  1  0.831530  0.831955  0.831955  1
  Cd  Cd18  1  0.831530  0.831955  0.504559  1
  Cd  Cd19  1  0.831530  0.504559  0.831955  1
  Ni  Ni20  1  0.391003  0.392001  0.392001  1
  Ni  Ni21  1  0.391003  0.392001  0.824995  1
  Ni  Ni22  1  0.391003  0.824995  0.392001  1
  Ni  Ni23  1  0.825592  0.391469  0.391469  1
