# generated using pymatgen
data_CeNb7S12
_symmetry_space_group_name_H-M   'P 1'
_cell_length_a   5.83028900
_cell_length_b   5.83028928
_cell_length_c   13.35057000
_cell_angle_alpha   90.00000000
_cell_angle_beta   90.00000000
_cell_angle_gamma   119.99999272
_symmetry_Int_Tables_number   1
_chemical_formula_structural   CeNb7S12
_chemical_formula_sum   'Ce1 Nb7 S12'
_cell_volume   393.01638641
_cell_formula_units_Z   1
loop_
 _symmetry_equiv_pos_site_id
 _symmetry_equiv_pos_as_xyz
  1  'x, y, z'
loop_
 _atom_site_type_symbol
 _atom_site_label
 _atom_site_symmetry_multiplicity
 _atom_site_fract_x
 _atom_site_fract_y
 _atom_site_fract_z
 _atom_site_occupancy
  Ce  Ce0  1  0.333333  0.666667  0.250000  1
  Nb  Nb1  1  0.000000  0.000000  0.518218  1
  Nb  Nb2  1  0.000000  0.000000  0.981782  1
  Nb  Nb3  1  0.333333  0.666667  0.982767  1
  Nb  Nb4  1  0.666667  0.333333  0.983479  1
  Nb  Nb5  1  0.666667  0.333333  0.516521  1
  Nb  Nb6  1  0.333333  0.666667  0.517233  1
  Nb  Nb7  1  0.666667  0.333333  0.750000  1
  S  S8  1  0.332198  0.327820  0.399560  1
  S  S9  1  0.672180  0.004379  0.399560  1
  S  S10  1  0.995621  0.667802  0.399560  1
  S  S11  1  0.330270  0.333345  0.634680  1
  S  S12  1  0.003074  0.669730  0.634680  1
  S  S13  1  0.666655  0.996926  0.634680  1
  S  S14  1  0.666655  0.669730  0.865320  1
  S  S15  1  0.330270  0.996926  0.865320  1
  S  S16  1  0.003074  0.333345  0.865320  1
  S  S17  1  0.672180  0.667802  0.100440  1
  S  S18  1  0.995621  0.327820  0.100440  1
  S  S19  1  0.332198  0.004379  0.100440  1
