# generated using pymatgen
data_Ba2PrGaS5
_symmetry_space_group_name_H-M   'P 1'
_cell_length_a   7.19283681
_cell_length_b   8.65588566
_cell_length_c   9.35369283
_cell_angle_alpha   104.06744699
_cell_angle_beta   102.91303251
_cell_angle_gamma   107.93037131
_symmetry_Int_Tables_number   1
_chemical_formula_structural   Ba2PrGaS5
_chemical_formula_sum   'Ba4 Pr2 Ga2 S10'
_cell_volume   508.61358733
_cell_formula_units_Z   2
loop_
 _symmetry_equiv_pos_site_id
 _symmetry_equiv_pos_as_xyz
  1  'x, y, z'
loop_
 _atom_site_type_symbol
 _atom_site_label
 _atom_site_symmetry_multiplicity
 _atom_site_fract_x
 _atom_site_fract_y
 _atom_site_fract_z
 _atom_site_occupancy
  Ba  Ba0  1  0.630429  0.977174  0.295318  1
  Ba  Ba1  1  0.369571  0.022826  0.704682  1
  Ba  Ba2  1  0.329517  0.507763  0.699225  1
  Ba  Ba3  1  0.670483  0.492237  0.300775  1
  Pr  Pr4  1  0.993759  0.729643  0.995088  1
  Pr  Pr5  1  0.006241  0.270357  0.004912  1
  Ga  Ga6  1  0.806050  0.870993  0.685152  1
  Ga  Ga7  1  0.193950  0.129007  0.314848  1
  S  S8  1  0.991570  0.695041  0.680345  1
  S  S9  1  0.008430  0.304959  0.319655  1
  S  S10  1  0.987827  0.142798  0.688045  1
  S  S11  1  0.012173  0.857202  0.311955  1
  S  S12  1  0.706464  0.902804  0.911567  1
  S  S13  1  0.293536  0.097196  0.088433  1
  S  S14  1  0.701917  0.407395  0.949505  1
  S  S15  1  0.298083  0.592605  0.050495  1
  S  S16  1  0.499095  0.741654  0.493773  1
  S  S17  1  0.500905  0.258346  0.506227  1
