# generated using pymatgen
data_Hf3Zr3Al2(Pd2N)2
_symmetry_space_group_name_H-M   'P 1'
_cell_length_a   8.60346230
_cell_length_b   8.60346298
_cell_length_c   8.60346300
_cell_angle_alpha   60.00000378
_cell_angle_beta   60.00000116
_cell_angle_gamma   59.99999452
_symmetry_Int_Tables_number   1
_chemical_formula_structural   Hf3Zr3Al2(Pd2N)2
_chemical_formula_sum   'Hf6 Zr6 Al4 Pd8 N4'
_cell_volume   450.30301031
_cell_formula_units_Z   2
loop_
 _symmetry_equiv_pos_site_id
 _symmetry_equiv_pos_as_xyz
  1  'x, y, z'
loop_
 _atom_site_type_symbol
 _atom_site_label
 _atom_site_symmetry_multiplicity
 _atom_site_fract_x
 _atom_site_fract_y
 _atom_site_fract_z
 _atom_site_occupancy
  Hf  Hf0  1  0.813351  0.813351  0.186649  1
  Hf  Hf1  1  0.186649  0.186649  0.813351  1
  Hf  Hf2  1  0.813351  0.186649  0.813351  1
  Hf  Hf3  1  0.186649  0.813351  0.186649  1
  Hf  Hf4  1  0.186649  0.813351  0.813351  1
  Hf  Hf5  1  0.813351  0.186649  0.186649  1
  Zr  Zr6  1  0.438626  0.438626  0.061374  1
  Zr  Zr7  1  0.061374  0.061374  0.438626  1
  Zr  Zr8  1  0.438626  0.061374  0.438626  1
  Zr  Zr9  1  0.061374  0.438626  0.061374  1
  Zr  Zr10  1  0.061374  0.438626  0.438626  1
  Zr  Zr11  1  0.438626  0.061374  0.061374  1
  Al  Al12  1  0.124945  0.625018  0.625018  1
  Al  Al13  1  0.625018  0.124945  0.625018  1
  Al  Al14  1  0.625018  0.625018  0.124945  1
  Al  Al15  1  0.625018  0.625018  0.625018  1
  Pd  Pd16  1  0.758898  0.413701  0.413701  1
  Pd  Pd17  1  0.413701  0.758898  0.413701  1
  Pd  Pd18  1  0.413701  0.413701  0.758898  1
  Pd  Pd19  1  0.413701  0.413701  0.413701  1
  Pd  Pd20  1  0.486907  0.837697  0.837697  1
  Pd  Pd21  1  0.837697  0.486907  0.837697  1
  Pd  Pd22  1  0.837697  0.837697  0.486907  1
  Pd  Pd23  1  0.837697  0.837697  0.837697  1
  N  N24  1  0.631670  0.122777  0.122777  1
  N  N25  1  0.122777  0.631670  0.122777  1
  N  N26  1  0.122777  0.122777  0.631670  1
  N  N27  1  0.122777  0.122777  0.122777  1
