# generated using pymatgen
data_Dy5V2Si12Ir17
_symmetry_space_group_name_H-M   'P 1'
_cell_length_a   12.83803600
_cell_length_b   12.83866534
_cell_length_c   3.99535500
_cell_angle_alpha   90.00000000
_cell_angle_beta   90.00000000
_cell_angle_gamma   119.99837848
_symmetry_Int_Tables_number   1
_chemical_formula_structural   Dy5V2Si12Ir17
_chemical_formula_sum   'Dy5 V2 Si12 Ir17'
_cell_volume   570.31076456
_cell_formula_units_Z   1
loop_
 _symmetry_equiv_pos_site_id
 _symmetry_equiv_pos_as_xyz
  1  'x, y, z'
loop_
 _atom_site_type_symbol
 _atom_site_label
 _atom_site_symmetry_multiplicity
 _atom_site_fract_x
 _atom_site_fract_y
 _atom_site_fract_z
 _atom_site_occupancy
  Dy  Dy0  1  0.332746  0.665822  0.500000  1
  Dy  Dy1  1  0.666925  0.334178  0.500000  1
  Dy  Dy2  1  0.001819  0.813494  0.000000  1
  Dy  Dy3  1  0.188325  0.186506  0.000000  1
  Dy  Dy4  1  0.814774  0.000000  0.000000  1
  V  V5  1  0.999426  0.438148  0.500000  1
  V  V6  1  0.561277  0.561852  0.500000  1
  Si  Si7  1  0.000911  0.630790  0.500000  1
  Si  Si8  1  0.370121  0.369210  0.500000  1
  Si  Si9  1  0.628900  0.000000  0.500000  1
  Si  Si10  1  0.517678  0.687631  0.000000  1
  Si  Si11  1  0.310712  0.830746  0.000000  1
  Si  Si12  1  0.170177  0.479572  0.000000  1
  Si  Si13  1  0.479967  0.169254  0.000000  1
  Si  Si14  1  0.690605  0.520428  0.000000  1
  Si  Si15  1  0.830047  0.312369  0.000000  1
  Si  Si16  1  0.999037  0.182523  0.500000  1
  Si  Si17  1  0.816514  0.817477  0.500000  1
  Si  Si18  1  0.180778  0.000000  0.500000  1
  Ir  Ir19  1  0.511698  0.874451  0.000000  1
  Ir  Ir20  1  0.128049  0.637346  0.000000  1
  Ir  Ir21  1  0.362732  0.486714  0.000000  1
  Ir  Ir22  1  0.490703  0.362654  0.000000  1
  Ir  Ir23  1  0.876018  0.513286  0.000000  1
  Ir  Ir24  1  0.637247  0.125549  0.000000  1
  Ir  Ir25  1  0.445010  0.000000  0.500000  1
  Ir  Ir26  1  0.998249  0.280670  0.000000  1
  Ir  Ir27  1  0.717579  0.719330  0.000000  1
  Ir  Ir28  1  0.282240  0.000000  0.000000  1
  Ir  Ir29  1  0.621760  0.805812  0.500000  1
  Ir  Ir30  1  0.192854  0.818350  0.500000  1
  Ir  Ir31  1  0.180876  0.374974  0.500000  1
  Ir  Ir32  1  0.374504  0.181650  0.500000  1
  Ir  Ir33  1  0.805901  0.625026  0.500000  1
  Ir  Ir34  1  0.815948  0.194188  0.500000  1
  Ir  Ir35  1  0.997895  0.000000  0.500000  1
