# generated using pymatgen
data_Li3Mn4Pd9
_symmetry_space_group_name_H-M   'P 1'
_cell_length_a   6.76889968
_cell_length_b   6.76889980
_cell_length_c   6.76889877
_cell_angle_alpha   105.00592858
_cell_angle_beta   105.00592190
_cell_angle_gamma   118.82670784
_symmetry_Int_Tables_number   1
_chemical_formula_structural   Li3Mn4Pd9
_chemical_formula_sum   'Li3 Mn4 Pd9'
_cell_volume   233.90085677
_cell_formula_units_Z   1
loop_
 _symmetry_equiv_pos_site_id
 _symmetry_equiv_pos_as_xyz
  1  'x, y, z'
loop_
 _atom_site_type_symbol
 _atom_site_label
 _atom_site_symmetry_multiplicity
 _atom_site_fract_x
 _atom_site_fract_y
 _atom_site_fract_z
 _atom_site_occupancy
  Li  Li0  1  0.500000  0.000000  0.500000  1
  Li  Li1  1  0.000000  0.500000  0.500000  1
  Li  Li2  1  0.500000  0.500000  0.000000  1
  Mn  Mn3  1  0.233519  0.233519  0.467041  1
  Mn  Mn4  1  0.766481  0.766481  0.532959  1
  Mn  Mn5  1  0.233519  0.766481  0.000000  1
  Mn  Mn6  1  0.766481  0.233519  0.000000  1
  Pd  Pd7  1  0.524557  0.272440  0.252116  1
  Pd  Pd8  1  0.475443  0.727560  0.747884  1
  Pd  Pd9  1  0.020324  0.272440  0.747884  1
  Pd  Pd10  1  0.272440  0.020324  0.747884  1
  Pd  Pd11  1  0.979676  0.727560  0.252116  1
  Pd  Pd12  1  0.727560  0.979676  0.252116  1
  Pd  Pd13  1  0.272440  0.524557  0.252116  1
  Pd  Pd14  1  0.727560  0.475443  0.747884  1
  Pd  Pd15  1  0.000000  0.000000  0.000000  1
