# generated using pymatgen
data_Er10AlGa2Sb3
_symmetry_space_group_name_H-M   'P 1'
_cell_length_a   8.72333673
_cell_length_b   8.71715718
_cell_length_c   6.41804000
_cell_angle_alpha   90.00000000
_cell_angle_beta   90.00000000
_cell_angle_gamma   119.99366450
_symmetry_Int_Tables_number   1
_chemical_formula_structural   Er10AlGa2Sb3
_chemical_formula_sum   'Er10 Al1 Ga2 Sb3'
_cell_volume   422.68641274
_cell_formula_units_Z   1
loop_
 _symmetry_equiv_pos_site_id
 _symmetry_equiv_pos_as_xyz
  1  'x, y, z'
loop_
 _atom_site_type_symbol
 _atom_site_label
 _atom_site_symmetry_multiplicity
 _atom_site_fract_x
 _atom_site_fract_y
 _atom_site_fract_z
 _atom_site_occupancy
  Er  Er0  1  0.013071  0.767946  0.750000  1
  Er  Er1  1  0.012481  0.242089  0.250000  1
  Er  Er2  1  0.755333  0.754355  0.250000  1
  Er  Er3  1  0.763572  0.010425  0.750000  1
  Er  Er4  1  0.235943  0.234030  0.750000  1
  Er  Er5  1  0.242052  0.011254  0.250000  1
  Er  Er6  1  0.329319  0.661881  0.502863  1
  Er  Er7  1  0.656338  0.324973  0.997165  1
  Er  Er8  1  0.656338  0.324973  0.502835  1
  Er  Er9  1  0.329319  0.661881  0.997137  1
  Al  Al10  1  0.998219  0.399135  0.750000  1
  Ga  Ga11  1  0.396368  0.998284  0.750000  1
  Ga  Ga12  1  0.398285  0.398928  0.250000  1
  Sb  Sb13  1  0.996984  0.602824  0.250000  1
  Sb  Sb14  1  0.610207  0.609491  0.750000  1
  Sb  Sb15  1  0.606172  0.997531  0.250000  1
