# generated using pymatgen
data_CaGd6SiCl12
_symmetry_space_group_name_H-M   'P 1'
_cell_length_a   8.89496042
_cell_length_b   8.83584299
_cell_length_c   8.89440600
_cell_angle_alpha   106.28131390
_cell_angle_beta   107.51754642
_cell_angle_gamma   107.07353053
_symmetry_Int_Tables_number   1
_chemical_formula_structural   CaGd6SiCl12
_chemical_formula_sum   'Ca1 Gd6 Si1 Cl12'
_cell_volume   582.79687241
_cell_formula_units_Z   1
loop_
 _symmetry_equiv_pos_site_id
 _symmetry_equiv_pos_as_xyz
  1  'x, y, z'
loop_
 _atom_site_type_symbol
 _atom_site_label
 _atom_site_symmetry_multiplicity
 _atom_site_fract_x
 _atom_site_fract_y
 _atom_site_fract_z
 _atom_site_occupancy
  Ca  Ca0  1  0.500000  0.500000  0.500000  1
  Gd  Gd1  1  0.328808  0.110402  0.026778  1
  Gd  Gd2  1  0.025448  0.328808  0.110843  1
  Gd  Gd3  1  0.109020  0.026703  0.329214  1
  Gd  Gd4  1  0.890980  0.973297  0.670787  1
  Gd  Gd5  1  0.974552  0.671193  0.889158  1
  Gd  Gd6  1  0.671193  0.889598  0.973223  1
  Si  Si7  1  0.000000  0.000000  0.000000  1
  Cl  Cl8  1  0.682063  0.222952  0.071432  1
  Cl  Cl9  1  0.375023  0.456467  0.160977  1
  Cl  Cl10  1  0.071867  0.682487  0.222673  1
  Cl  Cl11  1  0.776732  0.927697  0.317198  1
  Cl  Cl12  1  0.455308  0.160356  0.376683  1
  Cl  Cl13  1  0.161329  0.376495  0.456180  1
  Cl  Cl14  1  0.838671  0.623506  0.543820  1
  Cl  Cl15  1  0.544692  0.839645  0.623317  1
  Cl  Cl16  1  0.223269  0.072304  0.682802  1
  Cl  Cl17  1  0.928133  0.317513  0.777328  1
  Cl  Cl18  1  0.624978  0.543533  0.839023  1
  Cl  Cl19  1  0.317938  0.777048  0.928568  1
