# generated using pymatgen
data_Dy5Tm2GaP11Ir17
_symmetry_space_group_name_H-M   'P 1'
_cell_length_a   12.76978224
_cell_length_b   13.03743819
_cell_length_c   3.98731400
_cell_angle_alpha   90.00000000
_cell_angle_beta   90.00000000
_cell_angle_gamma   119.50557581
_symmetry_Int_Tables_number   1
_chemical_formula_structural   Dy5Tm2GaP11Ir17
_chemical_formula_sum   'Dy5 Tm2 Ga1 P11 Ir17'
_cell_volume   577.73549831
_cell_formula_units_Z   1
loop_
 _symmetry_equiv_pos_site_id
 _symmetry_equiv_pos_as_xyz
  1  'x, y, z'
loop_
 _atom_site_type_symbol
 _atom_site_label
 _atom_site_symmetry_multiplicity
 _atom_site_fract_x
 _atom_site_fract_y
 _atom_site_fract_z
 _atom_site_occupancy
  Dy  Dy0  1  0.330023  0.662106  0.500000  1
  Dy  Dy1  1  0.671113  0.338366  0.500000  1
  Dy  Dy2  1  0.001942  0.818995  0.000000  1
  Dy  Dy3  1  0.186532  0.181501  0.000000  1
  Dy  Dy4  1  0.807232  0.999944  0.000000  1
  Tm  Tm5  1  0.998299  0.440298  0.500000  1
  Tm  Tm6  1  0.549584  0.558126  0.500000  1
  Ga  Ga7  1  0.004415  0.652052  0.500000  1
  P  P8  1  0.353960  0.343586  0.500000  1
  P  P9  1  0.641628  0.001063  0.500000  1
  P  P10  1  0.514346  0.693017  0.000000  1
  P  P11  1  0.303472  0.816793  0.000000  1
  P  P12  1  0.168408  0.476362  0.000000  1
  P  P13  1  0.486631  0.178579  0.000000  1
  P  P14  1  0.688762  0.520157  0.000000  1
  P  P15  1  0.827174  0.311473  0.000000  1
  P  P16  1  0.998551  0.171973  0.500000  1
  P  P17  1  0.822366  0.824714  0.500000  1
  P  P18  1  0.183202  0.999306  0.500000  1
  Ir  Ir19  1  0.502225  0.869474  0.000000  1
  Ir  Ir20  1  0.129769  0.635376  0.000000  1
  Ir  Ir21  1  0.359197  0.500075  0.000000  1
  Ir  Ir22  1  0.479483  0.355718  0.000000  1
  Ir  Ir23  1  0.862611  0.504481  0.000000  1
  Ir  Ir24  1  0.638989  0.135866  0.000000  1
  Ir  Ir25  1  0.464533  0.005605  0.500000  1
  Ir  Ir26  1  0.996085  0.268958  0.000000  1
  Ir  Ir27  1  0.722899  0.734534  0.000000  1
  Ir  Ir28  1  0.293490  0.004263  0.000000  1
  Ir  Ir29  1  0.620152  0.812074  0.500000  1
  Ir  Ir30  1  0.217146  0.835125  0.500000  1
  Ir  Ir31  1  0.180500  0.361060  0.500000  1
  Ir  Ir32  1  0.380582  0.173549  0.500000  1
  Ir  Ir33  1  0.798404  0.630502  0.500000  1
  Ir  Ir34  1  0.813514  0.187876  0.500000  1
  Ir  Ir35  1  0.002780  0.997053  0.500000  1
