# generated using pymatgen
data_Ce4Ga18Ir3RuRh2
_symmetry_space_group_name_H-M   'P 1'
_cell_length_a   7.67162067
_cell_length_b   7.67162040
_cell_length_c   9.51156800
_cell_angle_alpha   90.03767682
_cell_angle_beta   90.03768322
_cell_angle_gamma   119.79482307
_symmetry_Int_Tables_number   1
_chemical_formula_structural   Ce4Ga18Ir3RuRh2
_chemical_formula_sum   'Ce4 Ga18 Ir3 Ru1 Rh2'
_cell_volume   485.79249069
_cell_formula_units_Z   1
loop_
 _symmetry_equiv_pos_site_id
 _symmetry_equiv_pos_as_xyz
  1  'x, y, z'
loop_
 _atom_site_type_symbol
 _atom_site_label
 _atom_site_symmetry_multiplicity
 _atom_site_fract_x
 _atom_site_fract_y
 _atom_site_fract_z
 _atom_site_occupancy
  Ce  Ce0  1  0.996742  0.666841  0.249811  1
  Ce  Ce1  1  0.001982  0.332722  0.749934  1
  Ce  Ce2  1  0.667278  0.998018  0.250066  1
  Ce  Ce3  1  0.333159  0.003258  0.750189  1
  Ga  Ga4  1  0.126305  0.126794  0.250114  1
  Ga  Ga5  1  0.873206  0.873695  0.749886  1
  Ga  Ga6  1  0.999778  0.333577  0.079566  1
  Ga  Ga7  1  0.997010  0.664788  0.920331  1
  Ga  Ga8  1  0.998723  0.666701  0.580066  1
  Ga  Ga9  1  0.333299  0.001277  0.419934  1
  Ga  Ga10  1  0.001319  0.333554  0.420201  1
  Ga  Ga11  1  0.666446  0.998681  0.579799  1
  Ga  Ga12  1  0.666423  0.000222  0.920434  1
  Ga  Ga13  1  0.335212  0.002990  0.079669  1
  Ga  Ga14  1  0.333004  0.333106  0.564789  1
  Ga  Ga15  1  0.666894  0.666996  0.435211  1
  Ga  Ga16  1  0.666764  0.664787  0.064082  1
  Ga  Ga17  1  0.335213  0.333236  0.935918  1
  Ga  Ga18  1  0.338657  0.544071  0.250056  1
  Ga  Ga19  1  0.661271  0.454477  0.751391  1
  Ga  Ga20  1  0.545523  0.338729  0.248609  1
  Ga  Ga21  1  0.455929  0.661343  0.749944  1
  Ir  Ir22  1  0.328204  0.671796  0.000000  1
  Ir  Ir23  1  0.328156  0.671844  0.500000  1
  Ir  Ir24  1  0.671523  0.328477  0.500000  1
  Ru  Ru25  1  0.672001  0.327999  0.000000  1
  Rh  Rh26  1  0.999922  0.000078  0.000000  1
  Rh  Rh27  1  0.000052  0.999948  0.500000  1
