# generated using pymatgen
data_Rb3LiAs2O7
_symmetry_space_group_name_H-M   'P 1'
_cell_length_a   5.97373340
_cell_length_b   5.97373322
_cell_length_c   14.46237500
_cell_angle_alpha   90.00000000
_cell_angle_beta   90.00000000
_cell_angle_gamma   113.37456195
_symmetry_Int_Tables_number   1
_chemical_formula_structural   Rb3LiAs2O7
_chemical_formula_sum   'Rb6 Li2 As4 O14'
_cell_volume   473.74130184
_cell_formula_units_Z   2
loop_
 _symmetry_equiv_pos_site_id
 _symmetry_equiv_pos_as_xyz
  1  'x, y, z'
loop_
 _atom_site_type_symbol
 _atom_site_label
 _atom_site_symmetry_multiplicity
 _atom_site_fract_x
 _atom_site_fract_y
 _atom_site_fract_z
 _atom_site_occupancy
  Rb  Rb0  1  0.134309  0.134309  0.000000  1
  Rb  Rb1  1  0.865691  0.865691  0.500000  1
  Rb  Rb2  1  0.777985  0.464224  0.124221  1
  Rb  Rb3  1  0.464224  0.777985  0.875779  1
  Rb  Rb4  1  0.222015  0.535776  0.624221  1
  Rb  Rb5  1  0.535776  0.222015  0.375779  1
  Li  Li6  1  0.014157  0.985843  0.250000  1
  Li  Li7  1  0.985843  0.014157  0.750000  1
  As  As8  1  0.445724  0.828129  0.155920  1
  As  As9  1  0.828129  0.445724  0.844080  1
  As  As10  1  0.554276  0.171871  0.655920  1
  As  As11  1  0.171871  0.554276  0.344080  1
  O  O12  1  0.331677  0.039835  0.184887  1
  O  O13  1  0.039835  0.331677  0.815113  1
  O  O14  1  0.668323  0.960165  0.684887  1
  O  O15  1  0.960165  0.668323  0.315113  1
  O  O16  1  0.757865  0.950745  0.149650  1
  O  O17  1  0.950745  0.757865  0.850350  1
  O  O18  1  0.242135  0.049255  0.649650  1
  O  O19  1  0.049255  0.242135  0.350350  1
  O  O20  1  0.305047  0.656741  0.062614  1
  O  O21  1  0.656741  0.305047  0.937386  1
  O  O22  1  0.694953  0.343259  0.562614  1
  O  O23  1  0.343259  0.694953  0.437386  1
  O  O24  1  0.390045  0.609955  0.250000  1
  O  O25  1  0.609955  0.390045  0.750000  1
