# generated using pymatgen
data_Pd4Se3Cl4
_symmetry_space_group_name_H-M   'P 1'
_cell_length_a   8.15043711
_cell_length_b   8.55980187
_cell_length_c   8.99117598
_cell_angle_alpha   110.80878120
_cell_angle_beta   98.77926821
_cell_angle_gamma   88.15278457
_symmetry_Int_Tables_number   1
_chemical_formula_structural   Pd4Se3Cl4
_chemical_formula_sum   'Pd8 Se6 Cl8'
_cell_volume   579.32869344
_cell_formula_units_Z   2
loop_
 _symmetry_equiv_pos_site_id
 _symmetry_equiv_pos_as_xyz
  1  'x, y, z'
loop_
 _atom_site_type_symbol
 _atom_site_label
 _atom_site_symmetry_multiplicity
 _atom_site_fract_x
 _atom_site_fract_y
 _atom_site_fract_z
 _atom_site_occupancy
  Pd  Pd0  1  0.212793  0.572427  0.996815  1
  Pd  Pd1  1  0.439487  0.222063  0.986538  1
  Pd  Pd2  1  0.560513  0.777937  0.013462  1
  Pd  Pd3  1  0.787207  0.427573  0.003185  1
  Pd  Pd4  1  0.922344  0.813255  0.335969  1
  Pd  Pd5  1  0.480137  0.407180  0.708598  1
  Pd  Pd6  1  0.077656  0.186745  0.664031  1
  Pd  Pd7  1  0.519863  0.592820  0.291402  1
  Se  Se8  1  0.149492  0.286835  0.959331  1
  Se  Se9  1  0.190105  0.465536  0.708631  1
  Se  Se10  1  0.809895  0.534464  0.291369  1
  Se  Se11  1  0.383022  0.142010  0.699146  1
  Se  Se12  1  0.616978  0.857990  0.300854  1
  Se  Se13  1  0.850508  0.713165  0.040669  1
  Cl  Cl14  1  0.460428  0.313294  0.276975  1
  Cl  Cl15  1  0.539572  0.686706  0.723025  1
  Cl  Cl16  1  0.272261  0.850726  0.008977  1
  Cl  Cl17  1  0.222058  0.663695  0.290717  1
  Cl  Cl18  1  0.020214  0.094674  0.369557  1
  Cl  Cl19  1  0.979786  0.905326  0.630443  1
  Cl  Cl20  1  0.727739  0.149274  0.991023  1
  Cl  Cl21  1  0.777942  0.336305  0.709283  1
