# generated using pymatgen
data_Tb2Y3(SiHg)2
_symmetry_space_group_name_H-M   'P 1'
_cell_length_a   8.82742958
_cell_length_b   8.82803105
_cell_length_c   7.58830513
_cell_angle_alpha   89.98161081
_cell_angle_beta   90.01960769
_cell_angle_gamma   129.24309734
_symmetry_Int_Tables_number   1
_chemical_formula_structural   Tb2Y3(SiHg)2
_chemical_formula_sum   'Tb4 Y6 Si4 Hg4'
_cell_volume   457.98033657
_cell_formula_units_Z   2
loop_
 _symmetry_equiv_pos_site_id
 _symmetry_equiv_pos_as_xyz
  1  'x, y, z'
loop_
 _atom_site_type_symbol
 _atom_site_label
 _atom_site_symmetry_multiplicity
 _atom_site_fract_x
 _atom_site_fract_y
 _atom_site_fract_z
 _atom_site_occupancy
  Tb  Tb0  1  0.055179  0.310340  0.324298  1
  Tb  Tb1  1  0.944959  0.689835  0.675633  1
  Tb  Tb2  1  0.444779  0.189726  0.824349  1
  Tb  Tb3  1  0.810328  0.555304  0.175668  1
  Y  Y4  1  0.555052  0.809967  0.175594  1
  Y  Y5  1  0.190000  0.444881  0.824386  1
  Y  Y6  1  0.689848  0.944677  0.675628  1
  Y  Y7  1  0.309963  0.055161  0.324445  1
  Y  Y8  1  0.000083  0.999924  0.999995  1
  Y  Y9  1  0.499942  0.500046  0.499997  1
  Si  Si10  1  0.381497  0.381578  0.121764  1
  Si  Si11  1  0.618382  0.618550  0.878223  1
  Si  Si12  1  0.118373  0.118541  0.621784  1
  Si  Si13  1  0.881445  0.881628  0.378231  1
  Hg  Hg14  1  0.781971  0.217994  0.999963  1
  Hg  Hg15  1  0.218175  0.781879  0.000034  1
  Hg  Hg16  1  0.717965  0.281775  0.500047  1
  Hg  Hg17  1  0.282060  0.718194  0.499962  1
