# generated using pymatgen
data_La6TlIn8P
_symmetry_space_group_name_H-M   'P 1'
_cell_length_a   8.69865216
_cell_length_b   8.69865145
_cell_length_c   8.69865200
_cell_angle_alpha   119.11099923
_cell_angle_beta   119.11100415
_cell_angle_gamma   91.54681638
_symmetry_Int_Tables_number   1
_chemical_formula_structural   La6TlIn8P
_chemical_formula_sum   'La6 Tl1 In8 P1'
_cell_volume   471.48344233
_cell_formula_units_Z   1
loop_
 _symmetry_equiv_pos_site_id
 _symmetry_equiv_pos_as_xyz
  1  'x, y, z'
loop_
 _atom_site_type_symbol
 _atom_site_label
 _atom_site_symmetry_multiplicity
 _atom_site_fract_x
 _atom_site_fract_y
 _atom_site_fract_z
 _atom_site_occupancy
  La  La0  1  0.731711  0.731711  0.000000  1
  La  La1  1  0.268289  0.268289  0.000000  1
  La  La2  1  0.358357  0.815055  0.173410  1
  La  La3  1  0.641643  0.184945  0.826590  1
  La  La4  1  0.815055  0.641643  0.456698  1
  La  La5  1  0.184945  0.358357  0.543302  1
  Tl  Tl6  1  0.000000  0.000000  0.000000  1
  In  In7  1  0.949677  0.468676  0.787627  1
  In  In8  1  0.681049  0.162049  0.212373  1
  In  In9  1  0.468676  0.681049  0.518999  1
  In  In10  1  0.162049  0.949677  0.481001  1
  In  In11  1  0.050323  0.531324  0.212373  1
  In  In12  1  0.318951  0.837951  0.787627  1
  In  In13  1  0.531324  0.318951  0.481001  1
  In  In14  1  0.837951  0.050323  0.518999  1
  P  P15  1  0.500000  0.500000  0.000000  1
