# generated using pymatgen
data_LaGd5(Er2Sn3)2
_symmetry_space_group_name_H-M   'P 1'
_cell_length_a   8.95650600
_cell_length_b   8.94882742
_cell_length_c   6.52432100
_cell_angle_alpha   90.00000000
_cell_angle_beta   90.00000000
_cell_angle_gamma   120.02838826
_symmetry_Int_Tables_number   1
_chemical_formula_structural   LaGd5(Er2Sn3)2
_chemical_formula_sum   'La1 Gd5 Er4 Sn6'
_cell_volume   452.73743003
_cell_formula_units_Z   1
loop_
 _symmetry_equiv_pos_site_id
 _symmetry_equiv_pos_as_xyz
  1  'x, y, z'
loop_
 _atom_site_type_symbol
 _atom_site_label
 _atom_site_symmetry_multiplicity
 _atom_site_fract_x
 _atom_site_fract_y
 _atom_site_fract_z
 _atom_site_occupancy
  La  La0  1  0.764202  0.000000  0.750000  1
  Gd  Gd1  1  0.238189  0.000000  0.250000  1
  Gd  Gd2  1  0.239671  0.238880  0.750000  1
  Gd  Gd3  1  0.000791  0.761120  0.750000  1
  Gd  Gd4  1  0.000275  0.240323  0.250000  1
  Gd  Gd5  1  0.759953  0.759677  0.250000  1
  Er  Er6  1  0.333005  0.666278  0.000586  1
  Er  Er7  1  0.666729  0.333722  0.499414  1
  Er  Er8  1  0.666729  0.333722  0.000586  1
  Er  Er9  1  0.333005  0.666278  0.499414  1
  Sn  Sn10  1  0.600842  0.000000  0.250000  1
  Sn  Sn11  1  0.599901  0.596171  0.750000  1
  Sn  Sn12  1  0.003730  0.403829  0.750000  1
  Sn  Sn13  1  0.999972  0.602974  0.250000  1
  Sn  Sn14  1  0.396998  0.397026  0.250000  1
  Sn  Sn15  1  0.396007  0.000000  0.750000  1
