# generated using pymatgen
data_Hf3Zr3Nb4Ge6C
_symmetry_space_group_name_H-M   'P 1'
_cell_length_a   7.91798700
_cell_length_b   7.91798685
_cell_length_c   5.46385900
_cell_angle_alpha   90.00000000
_cell_angle_beta   90.00000000
_cell_angle_gamma   119.99999646
_symmetry_Int_Tables_number   1
_chemical_formula_structural   Hf3Zr3Nb4Ge6C
_chemical_formula_sum   'Hf3 Zr3 Nb4 Ge6 C1'
_cell_volume   296.66047717
_cell_formula_units_Z   1
loop_
 _symmetry_equiv_pos_site_id
 _symmetry_equiv_pos_as_xyz
  1  'x, y, z'
loop_
 _atom_site_type_symbol
 _atom_site_label
 _atom_site_symmetry_multiplicity
 _atom_site_fract_x
 _atom_site_fract_y
 _atom_site_fract_z
 _atom_site_occupancy
  Hf  Hf0  1  0.000000  0.240889  0.743246  1
  Hf  Hf1  1  0.759111  0.759111  0.743246  1
  Hf  Hf2  1  0.240889  0.000000  0.743246  1
  Zr  Zr3  1  0.000000  0.757119  0.255069  1
  Zr  Zr4  1  0.242881  0.242881  0.255069  1
  Zr  Zr5  1  0.757119  0.000000  0.255069  1
  Nb  Nb6  1  0.333333  0.666667  0.999560  1
  Nb  Nb7  1  0.666667  0.333333  0.999560  1
  Nb  Nb8  1  0.666667  0.333333  0.500434  1
  Nb  Nb9  1  0.333333  0.666667  0.500434  1
  Ge  Ge10  1  0.000000  0.399274  0.244626  1
  Ge  Ge11  1  0.600726  0.600726  0.244626  1
  Ge  Ge12  1  0.399274  0.000000  0.244626  1
  Ge  Ge13  1  0.000000  0.600968  0.755166  1
  Ge  Ge14  1  0.399032  0.399032  0.755166  1
  Ge  Ge15  1  0.600968  0.000000  0.755166  1
  C  C16  1  0.000000  0.000000  0.505695  1
