# generated using pymatgen
data_Mg5Ta6Os12W
_symmetry_space_group_name_H-M   'P 1'
_cell_length_a   4.46427600
_cell_length_b   6.31210800
_cell_length_c   13.34420300
_cell_angle_alpha   89.99992934
_cell_angle_beta   89.99954142
_cell_angle_gamma   90.00007481
_symmetry_Int_Tables_number   1
_chemical_formula_structural   Mg5Ta6Os12W
_chemical_formula_sum   'Mg5 Ta6 Os12 W1'
_cell_volume   376.02619296
_cell_formula_units_Z   1
loop_
 _symmetry_equiv_pos_site_id
 _symmetry_equiv_pos_as_xyz
  1  'x, y, z'
loop_
 _atom_site_type_symbol
 _atom_site_label
 _atom_site_symmetry_multiplicity
 _atom_site_fract_x
 _atom_site_fract_y
 _atom_site_fract_z
 _atom_site_occupancy
  Mg  Mg0  1  0.499983  0.000000  0.167019  1
  Mg  Mg1  1  0.999984  0.500000  0.333675  1
  Mg  Mg2  1  0.500001  0.000000  0.500000  1
  Mg  Mg3  1  0.000016  0.500000  0.666325  1
  Mg  Mg4  1  0.500016  0.000000  0.832981  1
  Ta  Ta5  1  0.000000  0.000000  0.000000  1
  Ta  Ta6  1  0.499988  0.500000  0.174367  1
  Ta  Ta7  1  0.999987  0.000000  0.336474  1
  Ta  Ta8  1  0.500001  0.500000  0.500000  1
  Ta  Ta9  1  0.000013  0.000000  0.663526  1
  Ta  Ta10  1  0.500014  0.500000  0.825633  1
  Os  Os11  1  0.500001  0.256704  0.000000  1
  Os  Os12  1  0.500001  0.743296  0.000000  1
  Os  Os13  1  0.999986  0.253767  0.161333  1
  Os  Os14  1  0.999986  0.746232  0.161333  1
  Os  Os15  1  0.499985  0.247488  0.332518  1
  Os  Os16  1  0.499985  0.752514  0.332518  1
  Os  Os17  1  0.000000  0.250700  0.500000  1
  Os  Os18  1  0.000000  0.749301  0.500000  1
  Os  Os19  1  0.500014  0.247487  0.667482  1
  Os  Os20  1  0.500014  0.752513  0.667482  1
  Os  Os21  1  0.000014  0.253767  0.838666  1
  Os  Os22  1  0.000014  0.746232  0.838666  1
  W  W23  1  0.000000  0.500000  0.000000  1
