# generated using pymatgen
data_TbPaCo3Si5
_symmetry_space_group_name_H-M   'P 1'
_cell_length_a   7.83328446
_cell_length_b   7.89202350
_cell_length_c   7.89202437
_cell_angle_alpha   138.53747773
_cell_angle_beta   104.69900234
_cell_angle_gamma   89.92833264
_symmetry_Int_Tables_number   1
_chemical_formula_structural   TbPaCo3Si5
_chemical_formula_sum   'Tb2 Pa2 Co6 Si10'
_cell_volume   298.57257785
_cell_formula_units_Z   2
loop_
 _symmetry_equiv_pos_site_id
 _symmetry_equiv_pos_as_xyz
  1  'x, y, z'
loop_
 _atom_site_type_symbol
 _atom_site_label
 _atom_site_symmetry_multiplicity
 _atom_site_fract_x
 _atom_site_fract_y
 _atom_site_fract_z
 _atom_site_occupancy
  Tb  Tb0  1  0.399244  0.633312  0.765934  1
  Tb  Tb1  1  0.600756  0.366688  0.234066  1
  Pa  Pa2  1  0.867926  0.132590  0.735336  1
  Pa  Pa3  1  0.132074  0.867410  0.264664  1
  Co  Co4  1  0.000000  0.244699  0.244699  1
  Co  Co5  1  0.000000  0.755301  0.755301  1
  Co  Co6  1  0.240491  0.359259  0.881232  1
  Co  Co7  1  0.759509  0.640741  0.118768  1
  Co  Co8  1  0.478635  0.866548  0.612087  1
  Co  Co9  1  0.521365  0.133452  0.387913  1
  Si  Si10  1  0.500000  0.254144  0.754144  1
  Si  Si11  1  0.500000  0.745856  0.245856  1
  Si  Si12  1  0.233445  0.484960  0.254124  1
  Si  Si13  1  0.766555  0.020679  0.251515  1
  Si  Si14  1  0.766555  0.515040  0.745876  1
  Si  Si15  1  0.233445  0.979321  0.748485  1
  Si  Si16  1  0.048767  0.398356  0.650411  1
  Si  Si17  1  0.951233  0.601644  0.349589  1
  Si  Si18  1  0.739928  0.894845  0.845084  1
  Si  Si19  1  0.260072  0.105155  0.154916  1
