# generated using pymatgen
data_Pr(ThPt4)3
_symmetry_space_group_name_H-M   'P 1'
_cell_length_a   5.97857000
_cell_length_b   5.97856957
_cell_length_c   9.83361500
_cell_angle_alpha   90.00000000
_cell_angle_beta   90.00000000
_cell_angle_gamma   120.00000239
_symmetry_Int_Tables_number   1
_chemical_formula_structural   Pr(ThPt4)3
_chemical_formula_sum   'Pr1 Th3 Pt12'
_cell_volume   304.39564034
_cell_formula_units_Z   1
loop_
 _symmetry_equiv_pos_site_id
 _symmetry_equiv_pos_as_xyz
  1  'x, y, z'
loop_
 _atom_site_type_symbol
 _atom_site_label
 _atom_site_symmetry_multiplicity
 _atom_site_fract_x
 _atom_site_fract_y
 _atom_site_fract_z
 _atom_site_occupancy
  Pr  Pr0  1  0.000000  0.000000  0.500000  1
  Th  Th1  1  0.000000  0.000000  0.000000  1
  Th  Th2  1  0.333333  0.666667  0.252791  1
  Th  Th3  1  0.666667  0.333333  0.747209  1
  Pt  Pt4  1  0.500000  0.500000  0.500000  1
  Pt  Pt5  1  0.500000  0.000000  0.500000  1
  Pt  Pt6  1  0.000000  0.500000  0.500000  1
  Pt  Pt7  1  0.500000  0.500000  0.000000  1
  Pt  Pt8  1  0.500000  0.000000  0.000000  1
  Pt  Pt9  1  0.000000  0.500000  0.000000  1
  Pt  Pt10  1  0.823929  0.647858  0.247624  1
  Pt  Pt11  1  0.352142  0.176071  0.247624  1
  Pt  Pt12  1  0.823929  0.176071  0.247624  1
  Pt  Pt13  1  0.176071  0.352142  0.752376  1
  Pt  Pt14  1  0.647858  0.823929  0.752376  1
  Pt  Pt15  1  0.176071  0.823929  0.752376  1
