# generated using pymatgen
data_Tb5Ho(Sc2Sn3)2
_symmetry_space_group_name_H-M   'P 1'
_cell_length_a   8.82456900
_cell_length_b   8.81864326
_cell_length_c   6.29614000
_cell_angle_alpha   90.00000000
_cell_angle_beta   90.00000000
_cell_angle_gamma   120.02222686
_symmetry_Int_Tables_number   1
_chemical_formula_structural   Tb5Ho(Sc2Sn3)2
_chemical_formula_sum   'Tb5 Ho1 Sc4 Sn6'
_cell_volume   424.23155824
_cell_formula_units_Z   1
loop_
 _symmetry_equiv_pos_site_id
 _symmetry_equiv_pos_as_xyz
  1  'x, y, z'
loop_
 _atom_site_type_symbol
 _atom_site_label
 _atom_site_symmetry_multiplicity
 _atom_site_fract_x
 _atom_site_fract_y
 _atom_site_fract_z
 _atom_site_occupancy
  Tb  Tb0  1  0.000146  0.760791  0.750000  1
  Tb  Tb1  1  0.000111  0.239333  0.250000  1
  Tb  Tb2  1  0.760778  0.760667  0.250000  1
  Tb  Tb3  1  0.760441  0.000000  0.750000  1
  Tb  Tb4  1  0.239355  0.239209  0.750000  1
  Ho  Ho5  1  0.239477  0.000000  0.250000  1
  Sc  Sc6  1  0.333302  0.666680  0.499960  1
  Sc  Sc7  1  0.666623  0.333320  0.000040  1
  Sc  Sc8  1  0.666623  0.333320  0.499960  1
  Sc  Sc9  1  0.333302  0.666680  0.000040  1
  Sn  Sn10  1  0.400239  0.000000  0.750000  1
  Sn  Sn11  1  0.400058  0.399767  0.250000  1
  Sn  Sn12  1  0.000290  0.600233  0.250000  1
  Sn  Sn13  1  0.000034  0.400249  0.750000  1
  Sn  Sn14  1  0.599785  0.599751  0.750000  1
  Sn  Sn15  1  0.599436  0.000000  0.250000  1
