# generated using pymatgen
data_Pa4AlCo4Sb
_symmetry_space_group_name_H-M   'P 1'
_cell_length_a   7.15548400
_cell_length_b   7.15548400
_cell_length_c   3.52506000
_cell_angle_alpha   90.00000000
_cell_angle_beta   90.00000000
_cell_angle_gamma   90.00000000
_symmetry_Int_Tables_number   1
_chemical_formula_structural   Pa4AlCo4Sb
_chemical_formula_sum   'Pa4 Al1 Co4 Sb1'
_cell_volume   180.48642530
_cell_formula_units_Z   1
loop_
 _symmetry_equiv_pos_site_id
 _symmetry_equiv_pos_as_xyz
  1  'x, y, z'
loop_
 _atom_site_type_symbol
 _atom_site_label
 _atom_site_symmetry_multiplicity
 _atom_site_fract_x
 _atom_site_fract_y
 _atom_site_fract_z
 _atom_site_occupancy
  Pa  Pa0  1  0.666080  0.182843  0.500000  1
  Pa  Pa1  1  0.182843  0.333920  0.500000  1
  Pa  Pa2  1  0.817158  0.666080  0.500000  1
  Pa  Pa3  1  0.333920  0.817158  0.500000  1
  Al  Al4  1  0.500000  0.500000  0.000000  1
  Co  Co5  1  0.376335  0.140226  0.000000  1
  Co  Co6  1  0.859774  0.376335  0.000000  1
  Co  Co7  1  0.140226  0.623666  0.000000  1
  Co  Co8  1  0.623666  0.859774  0.000000  1
  Sb  Sb9  1  0.000000  0.000000  0.000000  1
