# generated using pymatgen
data_FeNi3Te4(PbO6)4
_symmetry_space_group_name_H-M   'P 1'
_cell_length_a   5.25223002
_cell_length_b   9.10408411
_cell_length_c   9.43651019
_cell_angle_alpha   89.99764837
_cell_angle_beta   89.99210405
_cell_angle_gamma   90.00522073
_symmetry_Int_Tables_number   1
_chemical_formula_structural   FeNi3Te4(PbO6)4
_chemical_formula_sum   'Fe1 Ni3 Te4 Pb4 O24'
_cell_volume   451.22318346
_cell_formula_units_Z   1
loop_
 _symmetry_equiv_pos_site_id
 _symmetry_equiv_pos_as_xyz
  1  'x, y, z'
loop_
 _atom_site_type_symbol
 _atom_site_label
 _atom_site_symmetry_multiplicity
 _atom_site_fract_x
 _atom_site_fract_y
 _atom_site_fract_z
 _atom_site_occupancy
  Fe  Fe0  1  0.000071  0.665597  0.249905  1
  Ni  Ni1  1  0.499295  0.832782  0.750019  1
  Ni  Ni2  1  0.499520  0.167346  0.250087  1
  Ni  Ni3  1  0.001081  0.333548  0.749883  1
  Te  Te4  1  0.500308  0.166378  0.749989  1
  Te  Te5  1  0.999799  0.667072  0.750033  1
  Te  Te6  1  0.999875  0.330141  0.250010  1
  Te  Te7  1  0.500028  0.836445  0.249997  1
  Pb  Pb8  1  0.001337  0.001885  0.504339  1
  Pb  Pb9  1  0.498638  0.498067  0.504411  1
  Pb  Pb10  1  0.998785  0.001894  0.995706  1
  Pb  Pb11  1  0.501284  0.498039  0.995561  1
  O  O12  1  0.641728  0.006516  0.635059  1
  O  O13  1  0.140364  0.507429  0.634513  1
  O  O14  1  0.669712  0.316916  0.634998  1
  O  O15  1  0.168590  0.817157  0.634401  1
  O  O16  1  0.190815  0.176539  0.634852  1
  O  O17  1  0.689071  0.675475  0.634537  1
  O  O18  1  0.168669  0.181869  0.133968  1
  O  O19  1  0.671847  0.683253  0.137520  1
  O  O20  1  0.139984  0.494653  0.136811  1
  O  O21  1  0.642557  0.993278  0.134985  1
  O  O22  1  0.689368  0.325544  0.135708  1
  O  O23  1  0.187528  0.821925  0.136145  1
  O  O24  1  0.859913  0.494742  0.363119  1
  O  O25  1  0.357467  0.993130  0.365120  1
  O  O26  1  0.831086  0.181799  0.366089  1
  O  O27  1  0.328234  0.683173  0.362285  1
  O  O28  1  0.310258  0.325587  0.364346  1
  O  O29  1  0.812526  0.821785  0.363898  1
  O  O30  1  0.330844  0.316766  0.865063  1
  O  O31  1  0.831069  0.817304  0.865542  1
  O  O32  1  0.358307  0.006658  0.864998  1
  O  O33  1  0.859746  0.507232  0.865420  1
  O  O34  1  0.809826  0.176641  0.865163  1
  O  O35  1  0.310467  0.675435  0.865525  1
