# generated using pymatgen
data_Tb3Dy2Ti2P12Ir17
_symmetry_space_group_name_H-M   'P 1'
_cell_length_a   12.61254300
_cell_length_b   12.80684233
_cell_length_c   3.97008700
_cell_angle_alpha   90.00000000
_cell_angle_beta   90.00000000
_cell_angle_gamma   119.49938372
_symmetry_Int_Tables_number   1
_chemical_formula_structural   Tb3Dy2Ti2P12Ir17
_chemical_formula_sum   'Tb3 Dy2 Ti2 P12 Ir17'
_cell_volume   558.14130738
_cell_formula_units_Z   1
loop_
 _symmetry_equiv_pos_site_id
 _symmetry_equiv_pos_as_xyz
  1  'x, y, z'
loop_
 _atom_site_type_symbol
 _atom_site_label
 _atom_site_symmetry_multiplicity
 _atom_site_fract_x
 _atom_site_fract_y
 _atom_site_fract_z
 _atom_site_occupancy
  Tb  Tb0  1  0.999582  0.811845  0.000000  1
  Tb  Tb1  1  0.187737  0.188155  0.000000  1
  Tb  Tb2  1  0.812847  0.000000  0.000000  1
  Dy  Dy3  1  0.330046  0.660282  0.500000  1
  Dy  Dy4  1  0.669765  0.339718  0.500000  1
  Ti  Ti5  1  0.998460  0.446834  0.500000  1
  Ti  Ti6  1  0.551626  0.553166  0.500000  1
  P  P7  1  0.001529  0.639107  0.500000  1
  P  P8  1  0.362422  0.360893  0.500000  1
  P  P9  1  0.644497  0.000000  0.500000  1
  P  P10  1  0.514320  0.682458  0.000000  1
  P  P11  1  0.308611  0.823461  0.000000  1
  P  P12  1  0.162700  0.480359  0.000000  1
  P  P13  1  0.485150  0.176539  0.000000  1
  P  P14  1  0.682341  0.519641  0.000000  1
  P  P15  1  0.831861  0.317542  0.000000  1
  P  P16  1  0.999746  0.175708  0.500000  1
  P  P17  1  0.824038  0.824292  0.500000  1
  P  P18  1  0.181230  0.000000  0.500000  1
  Ir  Ir19  1  0.504579  0.863507  0.000000  1
  Ir  Ir20  1  0.127049  0.640542  0.000000  1
  Ir  Ir21  1  0.355292  0.492386  0.000000  1
  Ir  Ir22  1  0.486508  0.359458  0.000000  1
  Ir  Ir23  1  0.862907  0.507614  0.000000  1
  Ir  Ir24  1  0.641073  0.136493  0.000000  1
  Ir  Ir25  1  0.463486  0.000000  0.500000  1
  Ir  Ir26  1  0.996989  0.281812  0.000000  1
  Ir  Ir27  1  0.715178  0.718188  0.000000  1
  Ir  Ir28  1  0.290317  0.000000  0.000000  1
  Ir  Ir29  1  0.622347  0.805210  0.500000  1
  Ir  Ir30  1  0.202301  0.823283  0.500000  1
  Ir  Ir31  1  0.176801  0.368998  0.500000  1
  Ir  Ir32  1  0.379020  0.176717  0.500000  1
  Ir  Ir33  1  0.807804  0.631002  0.500000  1
  Ir  Ir34  1  0.817137  0.194790  0.500000  1
  Ir  Ir35  1  0.002704  0.000000  0.500000  1
