# generated using pymatgen
data_Nd(DyS2)3
_symmetry_space_group_name_H-M   'P 1'
_cell_length_a   3.99195600
_cell_length_b   11.09305634
_cell_length_c   11.35215638
_cell_angle_alpha   71.31431602
_cell_angle_beta   90.00000000
_cell_angle_gamma   90.00000000
_symmetry_Int_Tables_number   1
_chemical_formula_structural   Nd(DyS2)3
_chemical_formula_sum   'Nd2 Dy6 S12'
_cell_volume   476.20992865
_cell_formula_units_Z   2
loop_
 _symmetry_equiv_pos_site_id
 _symmetry_equiv_pos_as_xyz
  1  'x, y, z'
loop_
 _atom_site_type_symbol
 _atom_site_label
 _atom_site_symmetry_multiplicity
 _atom_site_fract_x
 _atom_site_fract_y
 _atom_site_fract_z
 _atom_site_occupancy
  Nd  Nd0  1  0.750000  0.547820  0.806206  1
  Nd  Nd1  1  0.250000  0.452180  0.193794  1
  Dy  Dy2  1  0.750000  0.180371  0.997806  1
  Dy  Dy3  1  0.250000  0.819629  0.002194  1
  Dy  Dy4  1  0.750000  0.938402  0.667478  1
  Dy  Dy5  1  0.250000  0.061598  0.332522  1
  Dy  Dy6  1  0.750000  0.661279  0.413918  1
  Dy  Dy7  1  0.250000  0.338721  0.586082  1
  S  S8  1  0.750000  0.977684  0.888086  1
  S  S9  1  0.250000  0.022316  0.111914  1
  S  S10  1  0.750000  0.304915  0.748716  1
  S  S11  1  0.250000  0.695085  0.251284  1
  S  S12  1  0.750000  0.896281  0.439033  1
  S  S13  1  0.250000  0.103719  0.560967  1
  S  S14  1  0.750000  0.418126  0.405081  1
  S  S15  1  0.250000  0.581874  0.594919  1
  S  S16  1  0.750000  0.237675  0.227104  1
  S  S17  1  0.250000  0.762325  0.772896  1
  S  S18  1  0.750000  0.617506  0.036623  1
  S  S19  1  0.250000  0.382494  0.963377  1
