# generated using pymatgen
data_TlOsO4
_symmetry_space_group_name_H-M   'P 1'
_cell_length_a   10.28274300
_cell_length_b   6.10904100
_cell_length_c   8.00884700
_cell_angle_alpha   90.00000000
_cell_angle_beta   90.00000000
_cell_angle_gamma   90.00000000
_symmetry_Int_Tables_number   1
_chemical_formula_structural   TlOsO4
_chemical_formula_sum   'Tl4 Os4 O16'
_cell_volume   503.09733682
_cell_formula_units_Z   4
loop_
 _symmetry_equiv_pos_site_id
 _symmetry_equiv_pos_as_xyz
  1  'x, y, z'
loop_
 _atom_site_type_symbol
 _atom_site_label
 _atom_site_symmetry_multiplicity
 _atom_site_fract_x
 _atom_site_fract_y
 _atom_site_fract_z
 _atom_site_occupancy
  Tl  Tl0  1  0.797797  0.250000  0.170269  1
  Tl  Tl1  1  0.297796  0.250000  0.329732  1
  Tl  Tl2  1  0.702204  0.750001  0.670268  1
  Tl  Tl3  1  0.202203  0.750001  0.829731  1
  Os  Os4  1  0.530954  0.750001  0.199381  1
  Os  Os5  1  0.030954  0.750001  0.300619  1
  Os  Os6  1  0.969046  0.250000  0.699381  1
  Os  Os7  1  0.469046  0.250000  0.800619  1
  O  O8  1  0.609126  0.750001  0.002814  1
  O  O9  1  0.076386  0.509843  0.192079  1
  O  O10  1  0.076386  0.990157  0.192079  1
  O  O11  1  0.359588  0.750001  0.181412  1
  O  O12  1  0.859588  0.750001  0.318588  1
  O  O13  1  0.576386  0.509843  0.307922  1
  O  O14  1  0.576386  0.990157  0.307922  1
  O  O15  1  0.109125  0.750001  0.497187  1
  O  O16  1  0.890875  0.250000  0.502813  1
  O  O17  1  0.423614  0.009842  0.692078  1
  O  O18  1  0.423614  0.490158  0.692078  1
  O  O19  1  0.140412  0.250000  0.681412  1
  O  O20  1  0.640412  0.250000  0.818588  1
  O  O21  1  0.923614  0.009842  0.807921  1
  O  O22  1  0.923614  0.490158  0.807921  1
  O  O23  1  0.390874  0.250000  0.997187  1
