# generated using pymatgen
data_K4Li2ScInAs4
_symmetry_space_group_name_H-M   'P 1'
_cell_length_a   9.03142825
_cell_length_b   9.03142968
_cell_length_c   9.03143038
_cell_angle_alpha   137.66017704
_cell_angle_beta   137.52104598
_cell_angle_gamma   61.53064893
_symmetry_Int_Tables_number   1
_chemical_formula_structural   K4Li2ScInAs4
_chemical_formula_sum   'K4 Li2 Sc1 In1 As4'
_cell_volume   331.25086258
_cell_formula_units_Z   1
loop_
 _symmetry_equiv_pos_site_id
 _symmetry_equiv_pos_as_xyz
  1  'x, y, z'
loop_
 _atom_site_type_symbol
 _atom_site_label
 _atom_site_symmetry_multiplicity
 _atom_site_fract_x
 _atom_site_fract_y
 _atom_site_fract_z
 _atom_site_occupancy
  K  K0  1  0.098770  0.835706  0.284836  1
  K  K1  1  0.901230  0.186066  0.736935  1
  K  K2  1  0.449132  0.664294  0.763065  1
  K  K3  1  0.550868  0.313934  0.215164  1
  Li  Li4  1  0.500000  0.250000  0.750000  1
  Li  Li5  1  0.500000  0.750000  0.250000  1
  Sc  Sc6  1  0.000000  0.750000  0.750000  1
  In  In7  1  0.000000  0.250000  0.250000  1
  As  As8  1  0.664854  0.896567  0.754234  1
  As  As9  1  0.142333  0.410619  0.745766  1
  As  As10  1  0.857667  0.603433  0.268286  1
  As  As11  1  0.335146  0.089381  0.231714  1
