# generated using pymatgen
data_Dy7HoTi11Si16Pt
_symmetry_space_group_name_H-M   'P 1'
_cell_length_a   7.04840798
_cell_length_b   7.04793470
_cell_length_c   12.86314927
_cell_angle_alpha   89.83363431
_cell_angle_beta   90.16867979
_cell_angle_gamma   89.69914718
_symmetry_Int_Tables_number   1
_chemical_formula_structural   Dy7HoTi11Si16Pt
_chemical_formula_sum   'Dy7 Ho1 Ti11 Si16 Pt1'
_cell_volume   638.98475301
_cell_formula_units_Z   1
loop_
 _symmetry_equiv_pos_site_id
 _symmetry_equiv_pos_as_xyz
  1  'x, y, z'
loop_
 _atom_site_type_symbol
 _atom_site_label
 _atom_site_symmetry_multiplicity
 _atom_site_fract_x
 _atom_site_fract_y
 _atom_site_fract_z
 _atom_site_occupancy
  Dy  Dy0  1  0.001311  0.343247  0.531479  1
  Dy  Dy1  1  0.659935  0.996125  0.967064  1
  Dy  Dy2  1  0.158776  0.503195  0.782156  1
  Dy  Dy3  1  0.841800  0.498981  0.285458  1
  Dy  Dy4  1  0.503140  0.158854  0.217873  1
  Dy  Dy5  1  0.498966  0.841761  0.714515  1
  Dy  Dy6  1  0.343229  0.001297  0.468507  1
  Ho  Ho7  1  0.996519  0.659706  0.033023  1
  Ti  Ti8  1  0.345250  0.505903  0.375523  1
  Ti  Ti9  1  0.850870  0.995051  0.377095  1
  Ti  Ti10  1  0.006835  0.150624  0.125110  1
  Ti  Ti11  1  0.995111  0.850821  0.622906  1
  Ti  Ti12  1  0.505902  0.345304  0.624446  1
  Ti  Ti13  1  0.150638  0.006797  0.874919  1
  Ti  Ti14  1  0.824329  0.173444  0.748710  1
  Ti  Ti15  1  0.173409  0.824276  0.251272  1
  Ti  Ti16  1  0.326809  0.326976  0.000000  1
  Ti  Ti17  1  0.492562  0.650021  0.127417  1
  Ti  Ti18  1  0.650054  0.492663  0.872608  1
  Si  Si19  1  0.055529  0.714233  0.435295  1
  Si  Si20  1  0.952185  0.291690  0.934567  1
  Si  Si21  1  0.714254  0.055487  0.564712  1
  Si  Si22  1  0.208157  0.453017  0.184704  1
  Si  Si23  1  0.790329  0.549634  0.684732  1
  Si  Si24  1  0.452804  0.208341  0.815194  1
  Si  Si25  1  0.549612  0.790300  0.315271  1
  Si  Si26  1  0.291207  0.951921  0.065499  1
  Si  Si27  1  0.798588  0.867562  0.185559  1
  Si  Si28  1  0.291278  0.626592  0.567360  1
  Si  Si29  1  0.705110  0.369550  0.066148  1
  Si  Si30  1  0.626586  0.291309  0.432620  1
  Si  Si31  1  0.369015  0.704859  0.933906  1
  Si  Si32  1  0.131339  0.202763  0.316263  1
  Si  Si33  1  0.202727  0.131329  0.683742  1
  Si  Si34  1  0.867807  0.798317  0.814371  1
  Pt  Pt35  1  0.668026  0.668047  0.499977  1
