# generated using pymatgen
data_Li2Pr3(MgPb2)2
_symmetry_space_group_name_H-M   'P 1'
_cell_length_a   4.83141915
_cell_length_b   7.66537529
_cell_length_c   8.99549471
_cell_angle_alpha   113.65252385
_cell_angle_beta   105.57779188
_cell_angle_gamma   90.00001304
_symmetry_Int_Tables_number   1
_chemical_formula_structural   Li2Pr3(MgPb2)2
_chemical_formula_sum   'Li2 Pr3 Mg2 Pb4'
_cell_volume   291.75016612
_cell_formula_units_Z   1
loop_
 _symmetry_equiv_pos_site_id
 _symmetry_equiv_pos_as_xyz
  1  'x, y, z'
loop_
 _atom_site_type_symbol
 _atom_site_label
 _atom_site_symmetry_multiplicity
 _atom_site_fract_x
 _atom_site_fract_y
 _atom_site_fract_z
 _atom_site_occupancy
  Li  Li0  1  0.325602  0.636558  0.651204  1
  Li  Li1  1  0.674398  0.363442  0.348796  1
  Pr  Pr2  1  0.000000  0.000000  0.000000  1
  Pr  Pr3  1  0.121026  0.612202  0.242052  1
  Pr  Pr4  1  0.878974  0.387798  0.757948  1
  Mg  Mg5  1  0.671973  0.981815  0.343945  1
  Mg  Mg6  1  0.328027  0.018185  0.656055  1
  Pb  Pb7  1  0.495122  0.703365  0.990244  1
  Pb  Pb8  1  0.504878  0.296635  0.009756  1
  Pb  Pb9  1  0.782812  0.763172  0.565624  1
  Pb  Pb10  1  0.217188  0.236828  0.434376  1
