# generated using pymatgen
data_Nd3Ni7(P3Pd)2
_symmetry_space_group_name_H-M   'P 1'
_cell_length_a   3.79898700
_cell_length_b   7.88962469
_cell_length_c   9.51794394
_cell_angle_alpha   105.31728050
_cell_angle_beta   90.00000000
_cell_angle_gamma   103.93130293
_symmetry_Int_Tables_number   1
_chemical_formula_structural   Nd3Ni7(P3Pd)2
_chemical_formula_sum   'Nd3 Ni7 P6 Pd2'
_cell_volume   266.43328942
_cell_formula_units_Z   1
loop_
 _symmetry_equiv_pos_site_id
 _symmetry_equiv_pos_as_xyz
  1  'x, y, z'
loop_
 _atom_site_type_symbol
 _atom_site_label
 _atom_site_symmetry_multiplicity
 _atom_site_fract_x
 _atom_site_fract_y
 _atom_site_fract_z
 _atom_site_occupancy
  Nd  Nd0  1  0.849846  0.699691  0.307030  1
  Nd  Nd1  1  0.150154  0.300309  0.692970  1
  Nd  Nd2  1  0.000000  0.000000  0.000000  1
  Ni  Ni3  1  0.949157  0.898313  0.657443  1
  Ni  Ni4  1  0.050843  0.101687  0.342557  1
  Ni  Ni5  1  0.780652  0.561303  0.599092  1
  Ni  Ni6  1  0.219348  0.438697  0.400908  1
  Ni  Ni7  1  0.368392  0.736783  0.780896  1
  Ni  Ni8  1  0.631608  0.263217  0.219104  1
  Ni  Ni9  1  0.500000  0.000000  0.500000  1
  P  P10  1  0.802356  0.604712  0.849127  1
  P  P11  1  0.197644  0.395288  0.150873  1
  P  P12  1  0.522201  0.044402  0.769334  1
  P  P13  1  0.477799  0.955598  0.230666  1
  P  P14  1  0.640138  0.280278  0.453021  1
  P  P15  1  0.359862  0.719722  0.546979  1
  Pd  Pd16  1  0.672332  0.344663  0.964761  1
  Pd  Pd17  1  0.327668  0.655337  0.035239  1
