# generated using pymatgen
data_PmPa(NiP)2
_symmetry_space_group_name_H-M   'P 1'
_cell_length_a   5.51884662
_cell_length_b   5.51884718
_cell_length_c   5.51884700
_cell_angle_alpha   138.38698561
_cell_angle_beta   104.31408195
_cell_angle_gamma   90.29309819
_symmetry_Int_Tables_number   1
_chemical_formula_structural   PmPa(NiP)2
_chemical_formula_sum   'Pm1 Pa1 Ni2 P2'
_cell_volume   103.34262020
_cell_formula_units_Z   1
loop_
 _symmetry_equiv_pos_site_id
 _symmetry_equiv_pos_as_xyz
  1  'x, y, z'
loop_
 _atom_site_type_symbol
 _atom_site_label
 _atom_site_symmetry_multiplicity
 _atom_site_fract_x
 _atom_site_fract_y
 _atom_site_fract_z
 _atom_site_occupancy
  Pm  Pm0  1  0.001386  0.000000  0.001386  1
  Pa  Pa1  1  0.499329  0.500000  0.999329  1
  Ni  Ni2  1  0.908858  0.242057  0.666803  1
  Ni  Ni3  1  0.424747  0.757944  0.666804  1
  P  P4  1  0.574492  0.241653  0.332838  1
  P  P5  1  0.091187  0.758348  0.332839  1
