# generated using pymatgen
data_Sc8TcB24Ru2Rh
_symmetry_space_group_name_H-M   'P 1'
_cell_length_a   3.49304300
_cell_length_b   8.88277633
_cell_length_c   11.20139582
_cell_angle_alpha   90.08992671
_cell_angle_beta   90.00000000
_cell_angle_gamma   90.00000000
_symmetry_Int_Tables_number   1
_chemical_formula_structural   Sc8TcB24Ru2Rh
_chemical_formula_sum   'Sc8 Tc1 B24 Ru2 Rh1'
_cell_volume   347.55558176
_cell_formula_units_Z   1
loop_
 _symmetry_equiv_pos_site_id
 _symmetry_equiv_pos_as_xyz
  1  'x, y, z'
loop_
 _atom_site_type_symbol
 _atom_site_label
 _atom_site_symmetry_multiplicity
 _atom_site_fract_x
 _atom_site_fract_y
 _atom_site_fract_z
 _atom_site_occupancy
  Sc  Sc0  1  0.000000  0.946495  0.372998  1
  Sc  Sc1  1  0.000000  0.055603  0.627630  1
  Sc  Sc2  1  0.000000  0.555620  0.872921  1
  Sc  Sc3  1  0.000000  0.181392  0.916467  1
  Sc  Sc4  1  0.000000  0.823528  0.083498  1
  Sc  Sc5  1  0.000000  0.681472  0.588214  1
  Sc  Sc6  1  0.000000  0.313421  0.412517  1
  Sc  Sc7  1  0.000000  0.442905  0.125742  1
  Tc  Tc8  1  0.000000  0.138750  0.180021  1
  B  B9  1  0.500000  0.369915  0.817781  1
  B  B10  1  0.500000  0.979022  0.212762  1
  B  B11  1  0.500000  0.553534  0.435685  1
  B  B12  1  0.500000  0.295093  0.236454  1
  B  B13  1  0.500000  0.206097  0.736002  1
  B  B14  1  0.500000  0.101596  0.472625  1
  B  B15  1  0.500000  0.794301  0.264364  1
  B  B16  1  0.500000  0.446065  0.564566  1
  B  B17  1  0.500000  0.247668  0.578840  1
  B  B18  1  0.500000  0.479955  0.287086  1
  B  B19  1  0.500000  0.705458  0.764037  1
  B  B20  1  0.500000  0.752610  0.422569  1
  B  B21  1  0.500000  0.519992  0.712532  1
  B  B22  1  0.500000  0.897068  0.528169  1
  B  B23  1  0.500000  0.052919  0.064463  1
  B  B24  1  0.500000  0.603357  0.027952  1
  B  B25  1  0.500000  0.748308  0.921148  1
  B  B26  1  0.500000  0.020097  0.787182  1
  B  B27  1  0.500000  0.398452  0.971779  1
  B  B28  1  0.500000  0.946486  0.934445  1
  B  B29  1  0.500000  0.630599  0.180956  1
  B  B30  1  0.500000  0.252222  0.078567  1
  B  B31  1  0.500000  0.869429  0.682362  1
  B  B32  1  0.500000  0.130113  0.318047  1
  Ru  Ru33  1  0.000000  0.360959  0.679618  1
  Ru  Ru34  1  0.000000  0.860101  0.819357  1
  Rh  Rh35  1  0.000000  0.639398  0.320643  1
