# generated using pymatgen
data_Hf4Al4Mo3Au
_symmetry_space_group_name_H-M   'P 1'
_cell_length_a   5.29601862
_cell_length_b   5.29602015
_cell_length_c   8.72441500
_cell_angle_alpha   90.00000000
_cell_angle_beta   90.00000000
_cell_angle_gamma   119.55447144
_symmetry_Int_Tables_number   1
_chemical_formula_structural   Hf4Al4Mo3Au
_chemical_formula_sum   'Hf4 Al4 Mo3 Au1'
_cell_volume   212.86211085
_cell_formula_units_Z   1
loop_
 _symmetry_equiv_pos_site_id
 _symmetry_equiv_pos_as_xyz
  1  'x, y, z'
loop_
 _atom_site_type_symbol
 _atom_site_label
 _atom_site_symmetry_multiplicity
 _atom_site_fract_x
 _atom_site_fract_y
 _atom_site_fract_z
 _atom_site_occupancy
  Hf  Hf0  1  0.333883  0.666117  0.191296  1
  Hf  Hf1  1  0.665449  0.334551  0.318214  1
  Hf  Hf2  1  0.665449  0.334551  0.681786  1
  Hf  Hf3  1  0.333883  0.666117  0.808704  1
  Al  Al4  1  0.999784  0.000216  0.248286  1
  Al  Al5  1  0.999784  0.000216  0.751714  1
  Al  Al6  1  0.828583  0.653518  0.000000  1
  Al  Al7  1  0.346482  0.171417  0.000000  1
  Mo  Mo8  1  0.168554  0.342824  0.500000  1
  Mo  Mo9  1  0.657176  0.831446  0.500000  1
  Mo  Mo10  1  0.169931  0.830069  0.500000  1
  Au  Au11  1  0.831133  0.168867  0.000000  1
