# generated using pymatgen
data_Ho9Er(Bi2P)2
_symmetry_space_group_name_H-M   'P 1'
_cell_length_a   7.96091211
_cell_length_b   8.95899202
_cell_length_c   12.11274321
_cell_angle_alpha   90.00847673
_cell_angle_beta   90.01939148
_cell_angle_gamma   89.99976262
_symmetry_Int_Tables_number   1
_chemical_formula_structural   Ho9Er(Bi2P)2
_chemical_formula_sum   'Ho18 Er2 Bi8 P4'
_cell_volume   863.90196129
_cell_formula_units_Z   2
loop_
 _symmetry_equiv_pos_site_id
 _symmetry_equiv_pos_as_xyz
  1  'x, y, z'
loop_
 _atom_site_type_symbol
 _atom_site_label
 _atom_site_symmetry_multiplicity
 _atom_site_fract_x
 _atom_site_fract_y
 _atom_site_fract_z
 _atom_site_occupancy
  Ho  Ho0  1  0.850377  0.750041  0.793947  1
  Ho  Ho1  1  0.149623  0.249959  0.206053  1
  Ho  Ho2  1  0.350412  0.249957  0.705957  1
  Ho  Ho3  1  0.649588  0.750043  0.294043  1
  Ho  Ho4  1  0.376057  0.749997  0.699788  1
  Ho  Ho5  1  0.623943  0.250003  0.300212  1
  Ho  Ho6  1  0.876046  0.249894  0.800008  1
  Ho  Ho7  1  0.123954  0.750106  0.199992  1
  Ho  Ho8  1  0.958301  0.750087  0.501971  1
  Ho  Ho9  1  0.041699  0.249913  0.498029  1
  Ho  Ho10  1  0.458248  0.249946  0.997968  1
  Ho  Ho11  1  0.541752  0.750054  0.002032  1
  Ho  Ho12  1  0.182638  0.949374  0.935981  1
  Ho  Ho13  1  0.317470  0.550801  0.436003  1
  Ho  Ho14  1  0.817362  0.050626  0.064019  1
  Ho  Ho15  1  0.682530  0.449199  0.563997  1
  Ho  Ho16  1  0.817369  0.449361  0.063988  1
  Ho  Ho17  1  0.182631  0.550639  0.936012  1
  Er  Er18  1  0.682143  0.050956  0.563995  1
  Er  Er19  1  0.317857  0.949044  0.436005  1
  Bi  Bi20  1  0.577020  0.490487  0.826636  1
  Bi  Bi21  1  0.422980  0.509513  0.173364  1
  Bi  Bi22  1  0.077000  0.509545  0.673322  1
  Bi  Bi23  1  0.422924  0.990491  0.173471  1
  Bi  Bi24  1  0.923000  0.490455  0.326678  1
  Bi  Bi25  1  0.577076  0.009509  0.826529  1
  Bi  Bi26  1  0.923045  0.009528  0.326790  1
  Bi  Bi27  1  0.076955  0.990472  0.673210  1
  P  P28  1  0.575417  0.750966  0.513053  1
  P  P29  1  0.424583  0.249034  0.486947  1
  P  P30  1  0.075463  0.250009  0.986952  1
  P  P31  1  0.924537  0.749991  0.013048  1
