# generated using pymatgen
data_Zr6BeSi(As2Ru3)2
_symmetry_space_group_name_H-M   'P 1'
_cell_length_a   7.69002655
_cell_length_b   7.69037886
_cell_length_c   7.69002763
_cell_angle_alpha   128.09587701
_cell_angle_beta   122.19495177
_cell_angle_gamma   81.38453435
_symmetry_Int_Tables_number   1
_chemical_formula_structural   Zr6BeSi(As2Ru3)2
_chemical_formula_sum   'Zr6 Be1 Si1 As4 Ru6'
_cell_volume   291.73720498
_cell_formula_units_Z   1
loop_
 _symmetry_equiv_pos_site_id
 _symmetry_equiv_pos_as_xyz
  1  'x, y, z'
loop_
 _atom_site_type_symbol
 _atom_site_label
 _atom_site_symmetry_multiplicity
 _atom_site_fract_x
 _atom_site_fract_y
 _atom_site_fract_z
 _atom_site_occupancy
  Zr  Zr0  1  0.454416  0.661172  0.706757  1
  Zr  Zr1  1  0.548219  0.254230  0.206013  1
  Zr  Zr2  1  0.749944  0.853104  0.603160  1
  Zr  Zr3  1  0.250002  0.840154  0.090152  1
  Zr  Zr4  1  0.045972  0.252420  0.706448  1
  Zr  Zr5  1  0.951497  0.657281  0.205784  1
  Be  Be6  1  0.749629  0.252399  0.002771  1
  Si  Si7  1  0.250420  0.253732  0.503312  1
  As  As8  1  0.333503  0.586896  0.253513  1
  As  As9  1  0.666700  0.919958  0.253581  1
  As  As10  1  0.166378  0.919958  0.753258  1
  As  As11  1  0.833382  0.586896  0.753393  1
  Ru  Ru12  1  0.511836  0.490620  0.002542  1
  Ru  Ru13  1  0.988078  0.490620  0.478784  1
  Ru  Ru14  1  0.108670  0.253790  0.124964  1
  Ru  Ru15  1  0.872114  0.016290  0.125874  1
  Ru  Ru16  1  0.390416  0.016290  0.644177  1
  Ru  Ru17  1  0.628826  0.253790  0.645119  1
