# generated using pymatgen
data_DyHo3Mg2(B2Rh5)2
_symmetry_space_group_name_H-M   'P 1'
_cell_length_a   9.62710428
_cell_length_b   9.62710428
_cell_length_c   3.18571300
_cell_angle_alpha   90.00000000
_cell_angle_beta   90.00000000
_cell_angle_gamma   89.97240881
_symmetry_Int_Tables_number   1
_chemical_formula_structural   DyHo3Mg2(B2Rh5)2
_chemical_formula_sum   'Dy1 Ho3 Mg2 B4 Rh10'
_cell_volume   295.25546812
_cell_formula_units_Z   1
loop_
 _symmetry_equiv_pos_site_id
 _symmetry_equiv_pos_as_xyz
  1  'x, y, z'
loop_
 _atom_site_type_symbol
 _atom_site_label
 _atom_site_symmetry_multiplicity
 _atom_site_fract_x
 _atom_site_fract_y
 _atom_site_fract_z
 _atom_site_occupancy
  Dy  Dy0  1  0.675480  0.175480  0.000000  1
  Ho  Ho1  1  0.324505  0.824505  0.000000  1
  Ho  Ho2  1  0.175535  0.324481  0.000000  1
  Ho  Ho3  1  0.824481  0.675535  0.000000  1
  Mg  Mg4  1  0.000046  0.999979  0.000000  1
  Mg  Mg5  1  0.499979  0.500046  0.000000  1
  B  B6  1  0.122799  0.622799  0.000000  1
  B  B7  1  0.877363  0.377363  0.000000  1
  B  B8  1  0.622722  0.877129  0.000000  1
  B  B9  1  0.377129  0.122722  0.000000  1
  Rh  Rh10  1  0.499667  0.999667  0.500000  1
  Rh  Rh11  1  0.999984  0.499984  0.500000  1
  Rh  Rh12  1  0.224001  0.070589  0.500000  1
  Rh  Rh13  1  0.776110  0.929081  0.500000  1
  Rh  Rh14  1  0.070605  0.775954  0.500000  1
  Rh  Rh15  1  0.724161  0.429808  0.500000  1
  Rh  Rh16  1  0.929808  0.224161  0.500000  1
  Rh  Rh17  1  0.275954  0.570605  0.500000  1
  Rh  Rh18  1  0.570589  0.724001  0.500000  1
  Rh  Rh19  1  0.429081  0.276110  0.500000  1
