# generated using pymatgen
data_La12Tc2IrPtBr12
_symmetry_space_group_name_H-M   'P 1'
_cell_length_a   10.66913471
_cell_length_b   10.70175930
_cell_length_c   10.66913502
_cell_angle_alpha   110.15644560
_cell_angle_beta   107.81001996
_cell_angle_gamma   110.15645040
_symmetry_Int_Tables_number   1
_chemical_formula_structural   La12Tc2IrPtBr12
_chemical_formula_sum   'La12 Tc2 Ir1 Pt1 Br12'
_cell_volume   940.71728524
_cell_formula_units_Z   1
loop_
 _symmetry_equiv_pos_site_id
 _symmetry_equiv_pos_as_xyz
  1  'x, y, z'
loop_
 _atom_site_type_symbol
 _atom_site_label
 _atom_site_symmetry_multiplicity
 _atom_site_fract_x
 _atom_site_fract_y
 _atom_site_fract_z
 _atom_site_occupancy
  La  La0  1  0.266670  0.750000  0.233330  1
  La  La1  1  0.483180  0.750000  0.016820  1
  La  La2  1  0.235604  0.465433  0.479351  1
  La  La3  1  0.020649  0.034567  0.264396  1
  La  La4  1  0.241888  0.275889  0.768042  1
  La  La5  1  0.017315  0.485173  0.753750  1
  La  La6  1  0.490709  0.226997  0.467655  1
  La  La7  1  0.265535  0.019336  0.033117  1
  La  La8  1  0.731958  0.224111  0.258112  1
  La  La9  1  0.746250  0.014827  0.482685  1
  La  La10  1  0.466883  0.480664  0.234465  1
  La  La11  1  0.032345  0.273003  0.009291  1
  Tc  Tc12  1  0.512121  0.019336  0.259650  1
  Tc  Tc13  1  0.240350  0.480664  0.987879  1
  Ir  Ir14  1  0.248851  0.250000  0.251149  1
  Pt  Pt15  1  0.000929  0.250000  0.499071  1
  Br  Br16  1  0.246870  0.993114  0.498916  1
  Br  Br17  1  0.505971  0.506984  0.753666  1
  Br  Br18  1  0.252783  0.753896  0.749338  1
  Br  Br19  1  0.994234  0.746048  0.998669  1
  Br  Br20  1  0.001084  0.506886  0.253130  1
  Br  Br21  1  0.746334  0.993016  0.994029  1
  Br  Br22  1  0.750662  0.746104  0.247217  1
  Br  Br23  1  0.501331  0.753952  0.505766  1
  Br  Br24  1  0.506127  0.250000  0.993873  1
  Br  Br25  1  0.753874  0.508135  0.504157  1
  Br  Br26  1  0.743651  0.250000  0.756349  1
  Br  Br27  1  0.995843  0.991865  0.746126  1
