# generated using pymatgen
data_Yb12ZnAg11Ge12
_symmetry_space_group_name_H-M   'P 1'
_cell_length_a   4.55096000
_cell_length_b   7.81068332
_cell_length_c   21.28451700
_cell_angle_alpha   90.01648302
_cell_angle_beta   90.00000000
_cell_angle_gamma   90.00000000
_symmetry_Int_Tables_number   1
_chemical_formula_structural   Yb12ZnAg11Ge12
_chemical_formula_sum   'Yb12 Zn1 Ag11 Ge12'
_cell_volume   756.58169543
_cell_formula_units_Z   1
loop_
 _symmetry_equiv_pos_site_id
 _symmetry_equiv_pos_as_xyz
  1  'x, y, z'
loop_
 _atom_site_type_symbol
 _atom_site_label
 _atom_site_symmetry_multiplicity
 _atom_site_fract_x
 _atom_site_fract_y
 _atom_site_fract_z
 _atom_site_occupancy
  Yb  Yb0  1  0.250000  0.788446  0.166007  1
  Yb  Yb1  1  0.250000  0.777972  0.499701  1
  Yb  Yb2  1  0.250000  0.711258  0.332921  1
  Yb  Yb3  1  0.750000  0.222845  0.499846  1
  Yb  Yb4  1  0.750000  0.284174  0.665869  1
  Yb  Yb5  1  0.750000  0.278494  0.999522  1
  Yb  Yb6  1  0.250000  0.789042  0.834408  1
  Yb  Yb7  1  0.250000  0.723377  0.000375  1
  Yb  Yb8  1  0.750000  0.211243  0.166786  1
  Yb  Yb9  1  0.750000  0.288789  0.333717  1
  Yb  Yb10  1  0.250000  0.712360  0.665202  1
  Yb  Yb11  1  0.750000  0.212185  0.834514  1
  Zn  Zn12  1  0.750000  0.591070  0.765598  1
  Ag  Ag13  1  0.750000  0.583877  0.902863  1
  Ag  Ag14  1  0.250000  0.416482  0.434151  1
  Ag  Ag15  1  0.750000  0.584020  0.566063  1
  Ag  Ag16  1  0.750000  0.918491  0.406180  1
  Ag  Ag17  1  0.250000  0.418005  0.093569  1
  Ag  Ag18  1  0.250000  0.411785  0.237973  1
  Ag  Ag19  1  0.750000  0.912094  0.262083  1
  Ag  Ag20  1  0.250000  0.086907  0.738615  1
  Ag  Ag21  1  0.250000  0.083638  0.934178  1
  Ag  Ag22  1  0.750000  0.916095  0.065902  1
  Ag  Ag23  1  0.250000  0.081474  0.594084  1
  Ge  Ge24  1  0.250000  0.412606  0.897772  1
  Ge  Ge25  1  0.750000  0.912559  0.730036  1
  Ge  Ge26  1  0.750000  0.581019  0.228647  1
  Ge  Ge27  1  0.250000  0.089524  0.071550  1
  Ge  Ge28  1  0.750000  0.908869  0.926119  1
  Ge  Ge29  1  0.750000  0.912533  0.602720  1
  Ge  Ge30  1  0.250000  0.410822  0.573027  1
  Ge  Ge31  1  0.250000  0.086391  0.397521  1
  Ge  Ge32  1  0.250000  0.081746  0.271763  1
  Ge  Ge33  1  0.750000  0.588715  0.428164  1
  Ge  Ge34  1  0.250000  0.423839  0.769791  1
  Ge  Ge35  1  0.750000  0.587253  0.102765  1
