# generated using pymatgen
data_Ta4AlCr3Ga3Cu
_symmetry_space_group_name_H-M   'P 1'
_cell_length_a   4.91189849
_cell_length_b   4.92395420
_cell_length_c   8.28381500
_cell_angle_alpha   90.00000000
_cell_angle_beta   90.00000000
_cell_angle_gamma   60.97682847
_symmetry_Int_Tables_number   1
_chemical_formula_structural   Ta4AlCr3Ga3Cu
_chemical_formula_sum   'Ta4 Al1 Cr3 Ga3 Cu1'
_cell_volume   175.19254999
_cell_formula_units_Z   1
loop_
 _symmetry_equiv_pos_site_id
 _symmetry_equiv_pos_as_xyz
  1  'x, y, z'
loop_
 _atom_site_type_symbol
 _atom_site_label
 _atom_site_symmetry_multiplicity
 _atom_site_fract_x
 _atom_site_fract_y
 _atom_site_fract_z
 _atom_site_occupancy
  Ta  Ta0  1  0.333083  0.334409  0.555911  1
  Ta  Ta1  1  0.663301  0.665232  0.430942  1
  Ta  Ta2  1  0.663301  0.665232  0.069058  1
  Ta  Ta3  1  0.333083  0.334409  0.944089  1
  Al  Al4  1  0.349192  0.834325  0.750000  1
  Cr  Cr5  1  0.174935  0.645081  0.250000  1
  Cr  Cr6  1  0.646717  0.174061  0.250000  1
  Cr  Cr7  1  0.174451  0.174185  0.250000  1
  Ga  Ga8  1  0.995795  0.992846  0.494359  1
  Ga  Ga9  1  0.995795  0.992846  0.005641  1
  Ga  Ga10  1  0.834435  0.350108  0.750000  1
  Cu  Cu11  1  0.835913  0.837266  0.750000  1
