# generated using pymatgen
data_HfZrPa(Co3B2)3
_symmetry_space_group_name_H-M   'P 1'
_cell_length_a   5.73230337
_cell_length_b   5.73230322
_cell_length_c   5.73230283
_cell_angle_alpha   94.39427098
_cell_angle_beta   94.39427296
_cell_angle_gamma   94.39428303
_symmetry_Int_Tables_number   1
_chemical_formula_structural   HfZrPa(Co3B2)3
_chemical_formula_sum   'Hf1 Zr1 Pa1 Co9 B6'
_cell_volume   186.60794135
_cell_formula_units_Z   1
loop_
 _symmetry_equiv_pos_site_id
 _symmetry_equiv_pos_as_xyz
  1  'x, y, z'
loop_
 _atom_site_type_symbol
 _atom_site_label
 _atom_site_symmetry_multiplicity
 _atom_site_fract_x
 _atom_site_fract_y
 _atom_site_fract_z
 _atom_site_occupancy
  Hf  Hf0  1  0.666678  0.666678  0.666678  1
  Zr  Zr1  1  0.331912  0.331912  0.331912  1
  Pa  Pa2  1  0.001788  0.001788  0.001788  1
  Co  Co3  1  0.998147  0.998147  0.501701  1
  Co  Co4  1  0.501701  0.998147  0.998147  1
  Co  Co5  1  0.998147  0.501701  0.998147  1
  Co  Co6  1  0.691487  0.197994  0.691487  1
  Co  Co7  1  0.691487  0.691487  0.197994  1
  Co  Co8  1  0.197994  0.691487  0.691487  1
  Co  Co9  1  0.308256  0.803147  0.308256  1
  Co  Co10  1  0.308256  0.308256  0.803147  1
  Co  Co11  1  0.803147  0.308256  0.308256  1
  B  B12  1  0.624533  0.376681  0.999286  1
  B  B13  1  0.999286  0.624533  0.376681  1
  B  B14  1  0.376681  0.999286  0.624533  1
  B  B15  1  0.999286  0.376681  0.624533  1
  B  B16  1  0.624533  0.999286  0.376681  1
  B  B17  1  0.376681  0.624533  0.999286  1
