# generated using pymatgen
data_Ti3BeNb3Si2
_symmetry_space_group_name_H-M   'P 1'
_cell_length_a   6.83380000
_cell_length_b   6.83379965
_cell_length_c   3.46036600
_cell_angle_alpha   90.00000000
_cell_angle_beta   90.00000000
_cell_angle_gamma   120.00000170
_symmetry_Int_Tables_number   1
_chemical_formula_structural   Ti3BeNb3Si2
_chemical_formula_sum   'Ti3 Be1 Nb3 Si2'
_cell_volume   139.95137417
_cell_formula_units_Z   1
loop_
 _symmetry_equiv_pos_site_id
 _symmetry_equiv_pos_as_xyz
  1  'x, y, z'
loop_
 _atom_site_type_symbol
 _atom_site_label
 _atom_site_symmetry_multiplicity
 _atom_site_fract_x
 _atom_site_fract_y
 _atom_site_fract_z
 _atom_site_occupancy
  Ti  Ti0  1  0.244353  0.000000  0.500000  1
  Ti  Ti1  1  0.755647  0.755647  0.500000  1
  Ti  Ti2  1  0.000000  0.244353  0.500000  1
  Be  Be3  1  0.000000  0.000000  0.000000  1
  Nb  Nb4  1  0.589744  0.000000  0.000000  1
  Nb  Nb5  1  0.410256  0.410256  0.000000  1
  Nb  Nb6  1  0.000000  0.589744  0.000000  1
  Si  Si7  1  0.333333  0.666667  0.500000  1
  Si  Si8  1  0.666667  0.333333  0.500000  1
