# generated using pymatgen
data_CaYb19Ru4
_symmetry_space_group_name_H-M   'P 1'
_cell_length_a   6.63296508
_cell_length_b   7.45573602
_cell_length_c   15.60639326
_cell_angle_alpha   90.01325121
_cell_angle_beta   90.19758679
_cell_angle_gamma   89.96618569
_symmetry_Int_Tables_number   1
_chemical_formula_structural   CaYb19Ru4
_chemical_formula_sum   'Ca1 Yb19 Ru4'
_cell_volume   771.78815835
_cell_formula_units_Z   1
loop_
 _symmetry_equiv_pos_site_id
 _symmetry_equiv_pos_as_xyz
  1  'x, y, z'
loop_
 _atom_site_type_symbol
 _atom_site_label
 _atom_site_symmetry_multiplicity
 _atom_site_fract_x
 _atom_site_fract_y
 _atom_site_fract_z
 _atom_site_occupancy
  Ca  Ca0  1  0.858345  0.193055  0.934182  1
  Yb  Yb1  1  0.147610  0.097785  0.249919  1
  Yb  Yb2  1  0.860521  0.193124  0.567597  1
  Yb  Yb3  1  0.852208  0.902819  0.749879  1
  Yb  Yb4  1  0.822899  0.465646  0.146641  1
  Yb  Yb5  1  0.177046  0.535213  0.645881  1
  Yb  Yb6  1  0.360477  0.306745  0.068376  1
  Yb  Yb7  1  0.351878  0.597669  0.250337  1
  Yb  Yb8  1  0.823327  0.465521  0.353860  1
  Yb  Yb9  1  0.322846  0.034700  0.853567  1
  Yb  Yb10  1  0.139175  0.806312  0.068033  1
  Yb  Yb11  1  0.639193  0.693361  0.567723  1
  Yb  Yb12  1  0.676599  0.965633  0.353811  1
  Yb  Yb13  1  0.639364  0.693374  0.932062  1
  Yb  Yb14  1  0.323963  0.034080  0.646062  1
  Yb  Yb15  1  0.139541  0.806814  0.432022  1
  Yb  Yb16  1  0.648862  0.402214  0.749616  1
  Yb  Yb17  1  0.176874  0.533808  0.853321  1
  Yb  Yb18  1  0.360658  0.306439  0.432172  1
  Yb  Yb19  1  0.676504  0.964972  0.146546  1
  Ru  Ru20  1  0.036529  0.243266  0.747979  1
  Ru  Ru21  1  0.465245  0.742656  0.750007  1
  Ru  Ru22  1  0.535101  0.257345  0.250087  1
  Ru  Ru23  1  0.965235  0.757450  0.250324  1
