# generated using pymatgen
data_Y2Ho3Os2
_symmetry_space_group_name_H-M   'P 1'
_cell_length_a   6.34811636
_cell_length_b   7.38211196
_cell_length_c   8.43584255
_cell_angle_alpha   97.14841307
_cell_angle_beta   112.10212020
_cell_angle_gamma   89.99999412
_symmetry_Int_Tables_number   1
_chemical_formula_structural   Y2Ho3Os2
_chemical_formula_sum   'Y4 Ho6 Os4'
_cell_volume   362.95550690
_cell_formula_units_Z   2
loop_
 _symmetry_equiv_pos_site_id
 _symmetry_equiv_pos_as_xyz
  1  'x, y, z'
loop_
 _atom_site_type_symbol
 _atom_site_label
 _atom_site_symmetry_multiplicity
 _atom_site_fract_x
 _atom_site_fract_y
 _atom_site_fract_z
 _atom_site_occupancy
  Y  Y0  1  0.976872  0.916513  0.185186  1
  Y  Y1  1  0.791685  0.583487  0.814814  1
  Y  Y2  1  0.023128  0.083487  0.814814  1
  Y  Y3  1  0.208315  0.416513  0.185186  1
  Ho  Ho4  1  0.638098  0.816190  0.435423  1
  Ho  Ho5  1  0.202676  0.683810  0.564577  1
  Ho  Ho6  1  0.361902  0.183810  0.564577  1
  Ho  Ho7  1  0.797324  0.316190  0.435423  1
  Ho  Ho8  1  0.422535  0.750000  0.000000  1
  Ho  Ho9  1  0.577465  0.250000  0.000000  1
  Os  Os10  1  0.819241  0.576351  0.220923  1
  Os  Os11  1  0.598318  0.923649  0.779077  1
  Os  Os12  1  0.180759  0.423649  0.779077  1
  Os  Os13  1  0.401682  0.076351  0.220923  1
