# generated using pymatgen
data_Nd3Th11(TcOs2)2
_symmetry_space_group_name_H-M   'P 1'
_cell_length_a   9.91999548
_cell_length_b   10.05302074
_cell_length_c   6.42592188
_cell_angle_alpha   89.72420384
_cell_angle_beta   90.37793617
_cell_angle_gamma   120.30491099
_symmetry_Int_Tables_number   1
_chemical_formula_structural   Nd3Th11(TcOs2)2
_chemical_formula_sum   'Nd3 Th11 Tc2 Os4'
_cell_volume   553.25004161
_cell_formula_units_Z   1
loop_
 _symmetry_equiv_pos_site_id
 _symmetry_equiv_pos_as_xyz
  1  'x, y, z'
loop_
 _atom_site_type_symbol
 _atom_site_label
 _atom_site_symmetry_multiplicity
 _atom_site_fract_x
 _atom_site_fract_y
 _atom_site_fract_z
 _atom_site_occupancy
  Nd  Nd0  1  0.463712  0.536954  0.295428  1
  Nd  Nd1  1  0.072814  0.535446  0.295532  1
  Nd  Nd2  1  0.924704  0.460438  0.792717  1
  Th  Th3  1  0.251751  0.126979  0.510435  1
  Th  Th4  1  0.541234  0.078008  0.800406  1
  Th  Th5  1  0.750164  0.873872  0.011931  1
  Th  Th6  1  0.665791  0.333278  0.270634  1
  Th  Th7  1  0.124199  0.870936  0.006908  1
  Th  Th8  1  0.464854  0.924854  0.301207  1
  Th  Th9  1  0.537395  0.464466  0.798465  1
  Th  Th10  1  0.875864  0.127953  0.509190  1
  Th  Th11  1  0.122517  0.248844  0.009381  1
  Th  Th12  1  0.875605  0.751708  0.509842  1
  Th  Th13  1  0.333208  0.666359  0.771956  1
  Tc  Tc14  1  0.810005  0.636885  0.042785  1
  Tc  Tc15  1  0.806974  0.171397  0.050875  1
  Os  Os16  1  0.630072  0.818241  0.553842  1
  Os  Os17  1  0.369945  0.184704  0.043360  1
  Os  Os18  1  0.187127  0.366339  0.560730  1
  Os  Os19  1  0.192064  0.822339  0.548374  1
