# generated using pymatgen
data_Dy4Ho4Re(B8Ir)3
_symmetry_space_group_name_H-M   'P 1'
_cell_length_a   3.65925600
_cell_length_b   9.17985445
_cell_length_c   11.51294100
_cell_angle_alpha   90.12356970
_cell_angle_beta   90.00000000
_cell_angle_gamma   90.00000000
_symmetry_Int_Tables_number   1
_chemical_formula_structural   Dy4Ho4Re(B8Ir)3
_chemical_formula_sum   'Dy4 Ho4 Re1 B24 Ir3'
_cell_volume   386.73533845
_cell_formula_units_Z   1
loop_
 _symmetry_equiv_pos_site_id
 _symmetry_equiv_pos_as_xyz
  1  'x, y, z'
loop_
 _atom_site_type_symbol
 _atom_site_label
 _atom_site_symmetry_multiplicity
 _atom_site_fract_x
 _atom_site_fract_y
 _atom_site_fract_z
 _atom_site_occupancy
  Dy  Dy0  1  0.000000  0.321040  0.413589  1
  Dy  Dy1  1  0.000000  0.682620  0.590565  1
  Dy  Dy2  1  0.000000  0.821035  0.082903  1
  Dy  Dy3  1  0.000000  0.175606  0.912001  1
  Ho  Ho4  1  0.000000  0.943899  0.373088  1
  Ho  Ho5  1  0.000000  0.053688  0.626230  1
  Ho  Ho6  1  0.000000  0.443654  0.126154  1
  Ho  Ho7  1  0.000000  0.557162  0.875094  1
  Re  Re8  1  0.000000  0.862420  0.821343  1
  B  B9  1  0.500000  0.553399  0.433943  1
  B  B10  1  0.500000  0.447611  0.566850  1
  B  B11  1  0.500000  0.053376  0.066515  1
  B  B12  1  0.500000  0.946728  0.933072  1
  B  B13  1  0.500000  0.750283  0.420376  1
  B  B14  1  0.500000  0.250652  0.579212  1
  B  B15  1  0.500000  0.248899  0.079203  1
  B  B16  1  0.500000  0.752256  0.919912  1
  B  B17  1  0.500000  0.791911  0.265664  1
  B  B18  1  0.500000  0.207977  0.732943  1
  B  B19  1  0.500000  0.292695  0.234631  1
  B  B20  1  0.500000  0.708239  0.766447  1
  B  B21  1  0.500000  0.631216  0.184857  1
  B  B22  1  0.500000  0.368156  0.815426  1
  B  B23  1  0.500000  0.132361  0.315276  1
  B  B24  1  0.500000  0.868639  0.685687  1
  B  B25  1  0.500000  0.982191  0.212814  1
  B  B26  1  0.500000  0.016902  0.786466  1
  B  B27  1  0.500000  0.481591  0.287346  1
  B  B28  1  0.500000  0.517772  0.714356  1
  B  B29  1  0.500000  0.609390  0.031579  1
  B  B30  1  0.500000  0.388222  0.969914  1
  B  B31  1  0.500000  0.110221  0.468956  1
  B  B32  1  0.500000  0.890670  0.528938  1
  Ir  Ir33  1  0.000000  0.637232  0.322811  1
  Ir  Ir34  1  0.000000  0.362762  0.677707  1
  Ir  Ir35  1  0.000000  0.137526  0.178130  1
