# generated using pymatgen
data_Er16Mg2Cd2IrPd3
_symmetry_space_group_name_H-M   'P 1'
_cell_length_a   9.64687356
_cell_length_b   9.60279852
_cell_length_c   9.65209200
_cell_angle_alpha   59.83004796
_cell_angle_beta   59.98210402
_cell_angle_gamma   59.85990784
_symmetry_Int_Tables_number   1
_chemical_formula_structural   Er16Mg2Cd2IrPd3
_chemical_formula_sum   'Er16 Mg2 Cd2 Ir1 Pd3'
_cell_volume   630.68238130
_cell_formula_units_Z   1
loop_
 _symmetry_equiv_pos_site_id
 _symmetry_equiv_pos_as_xyz
  1  'x, y, z'
loop_
 _atom_site_type_symbol
 _atom_site_label
 _atom_site_symmetry_multiplicity
 _atom_site_fract_x
 _atom_site_fract_y
 _atom_site_fract_z
 _atom_site_occupancy
  Er  Er0  1  0.605078  0.598775  0.598340  1
  Er  Er1  1  0.605078  0.598775  0.197806  1
  Er  Er2  1  0.605017  0.198492  0.598245  1
  Er  Er3  1  0.190572  0.603390  0.603019  1
  Er  Er4  1  0.057454  0.437781  0.438757  1
  Er  Er5  1  0.439428  0.060450  0.061141  1
  Er  Er6  1  0.439428  0.060450  0.438981  1
  Er  Er7  1  0.057454  0.437781  0.066009  1
  Er  Er8  1  0.441549  0.440288  0.059081  1
  Er  Er9  1  0.059367  0.066600  0.437017  1
  Er  Er10  1  0.185776  0.816012  0.816175  1
  Er  Er11  1  0.817132  0.186894  0.183017  1
  Er  Er12  1  0.817132  0.186894  0.812958  1
  Er  Er13  1  0.185776  0.816012  0.182038  1
  Er  Er14  1  0.818857  0.814543  0.183300  1
  Er  Er15  1  0.184758  0.184952  0.815146  1
  Mg  Mg16  1  0.827690  0.827975  0.831033  1
  Mg  Mg17  1  0.827690  0.827975  0.513301  1
  Cd  Cd18  1  0.832079  0.503672  0.832124  1
  Cd  Cd19  1  0.504822  0.831923  0.831628  1
  Ir  Ir20  1  0.820787  0.393204  0.393005  1
  Pd  Pd21  1  0.392342  0.394441  0.394602  1
  Pd  Pd22  1  0.392342  0.394441  0.818613  1
  Pd  Pd23  1  0.392393  0.818281  0.394663  1
