# generated using pymatgen
data_Tm3Co2Sn3
_symmetry_space_group_name_H-M   'P 1'
_cell_length_a   5.73946405
_cell_length_b   5.73946360
_cell_length_c   14.68660500
_cell_angle_alpha   90.00000000
_cell_angle_beta   90.00000000
_cell_angle_gamma   134.65633740
_symmetry_Int_Tables_number   1
_chemical_formula_structural   Tm3Co2Sn3
_chemical_formula_sum   'Tm6 Co4 Sn6'
_cell_volume   344.14258616
_cell_formula_units_Z   2
loop_
 _symmetry_equiv_pos_site_id
 _symmetry_equiv_pos_as_xyz
  1  'x, y, z'
loop_
 _atom_site_type_symbol
 _atom_site_label
 _atom_site_symmetry_multiplicity
 _atom_site_fract_x
 _atom_site_fract_y
 _atom_site_fract_z
 _atom_site_occupancy
  Tm  Tm0  1  0.568583  0.431417  0.611873  1
  Tm  Tm1  1  0.431417  0.568583  0.388127  1
  Tm  Tm2  1  0.431417  0.568583  0.111873  1
  Tm  Tm3  1  0.568583  0.431417  0.888127  1
  Tm  Tm4  1  0.147186  0.852814  0.250000  1
  Tm  Tm5  1  0.852814  0.147186  0.750000  1
  Co  Co6  1  0.300178  0.699822  0.609304  1
  Co  Co7  1  0.699822  0.300178  0.390696  1
  Co  Co8  1  0.699822  0.300178  0.109304  1
  Co  Co9  1  0.300178  0.699822  0.890696  1
  Sn  Sn10  1  0.860564  0.139436  0.535039  1
  Sn  Sn11  1  0.139436  0.860564  0.464961  1
  Sn  Sn12  1  0.150564  0.849436  0.750000  1
  Sn  Sn13  1  0.849436  0.150564  0.250000  1
  Sn  Sn14  1  0.860564  0.139436  0.964961  1
  Sn  Sn15  1  0.139436  0.860564  0.035039  1
