# generated using pymatgen
data_Dy4Zr4Ir3Rh
_symmetry_space_group_name_H-M   'P 1'
_cell_length_a   4.57694500
_cell_length_b   7.09953168
_cell_length_c   8.32924226
_cell_angle_alpha   89.85837712
_cell_angle_beta   90.00000000
_cell_angle_gamma   90.00000000
_symmetry_Int_Tables_number   1
_chemical_formula_structural   Dy4Zr4Ir3Rh
_chemical_formula_sum   'Dy4 Zr4 Ir3 Rh1'
_cell_volume   270.65095401
_cell_formula_units_Z   1
loop_
 _symmetry_equiv_pos_site_id
 _symmetry_equiv_pos_as_xyz
  1  'x, y, z'
loop_
 _atom_site_type_symbol
 _atom_site_label
 _atom_site_symmetry_multiplicity
 _atom_site_fract_x
 _atom_site_fract_y
 _atom_site_fract_z
 _atom_site_occupancy
  Dy  Dy0  1  0.250000  0.515683  0.176479  1
  Dy  Dy1  1  0.750000  0.480897  0.821693  1
  Dy  Dy2  1  0.250000  0.016455  0.322905  1
  Dy  Dy3  1  0.750000  0.985839  0.675880  1
  Zr  Zr4  1  0.250000  0.142391  0.925567  1
  Zr  Zr5  1  0.750000  0.855929  0.076856  1
  Zr  Zr6  1  0.250000  0.644253  0.573912  1
  Zr  Zr7  1  0.750000  0.357623  0.424367  1
  Ir  Ir8  1  0.750000  0.733603  0.408292  1
  Ir  Ir9  1  0.250000  0.268213  0.592426  1
  Ir  Ir10  1  0.750000  0.231599  0.091396  1
  Rh  Rh11  1  0.250000  0.767517  0.910226  1
