# generated using pymatgen
data_Cs2Mn2CoSe4
_symmetry_space_group_name_H-M   'P 1'
_cell_length_a   9.93098283
_cell_length_b   9.93098227
_cell_length_c   9.93098221
_cell_angle_alpha   144.87926237
_cell_angle_beta   105.32913676
_cell_angle_gamma   85.27892473
_symmetry_Int_Tables_number   1
_chemical_formula_structural   Cs2Mn2CoSe4
_chemical_formula_sum   'Cs4 Mn4 Co2 Se8'
_cell_volume   527.35557717
_cell_formula_units_Z   2
loop_
 _symmetry_equiv_pos_site_id
 _symmetry_equiv_pos_as_xyz
  1  'x, y, z'
loop_
 _atom_site_type_symbol
 _atom_site_label
 _atom_site_symmetry_multiplicity
 _atom_site_fract_x
 _atom_site_fract_y
 _atom_site_fract_z
 _atom_site_occupancy
  Cs  Cs0  1  0.119547  0.232165  0.354802  1
  Cs  Cs1  1  0.380453  0.735255  0.112618  1
  Cs  Cs2  1  0.622636  0.267835  0.887382  1
  Cs  Cs3  1  0.877364  0.764745  0.645198  1
  Mn  Mn4  1  0.483290  0.250000  0.233290  1
  Mn  Mn5  1  0.750000  0.250000  0.500000  1
  Mn  Mn6  1  0.250000  0.750000  0.500000  1
  Mn  Mn7  1  0.016710  0.250000  0.766710  1
  Co  Co8  1  0.507753  0.750000  0.757753  1
  Co  Co9  1  0.992247  0.750000  0.242247  1
  Se  Se10  1  0.211718  0.064304  0.582703  1
  Se  Se11  1  0.288282  0.870986  0.852586  1
  Se  Se12  1  0.018400  0.435696  0.147414  1
  Se  Se13  1  0.481600  0.629014  0.417297  1
  Se  Se14  1  0.793733  0.918873  0.393986  1
  Se  Se15  1  0.706267  0.100252  0.125140  1
  Se  Se16  1  0.975111  0.581127  0.874860  1
  Se  Se17  1  0.524889  0.399748  0.606014  1
