# generated using pymatgen
data_SrZr3(Al8Pt3)3
_symmetry_space_group_name_H-M   'P 1'
_cell_length_a   7.51026971
_cell_length_b   7.51922755
_cell_length_c   13.06815201
_cell_angle_alpha   84.54557993
_cell_angle_beta   78.95846390
_cell_angle_gamma   59.95121002
_symmetry_Int_Tables_number   1
_chemical_formula_structural   SrZr3(Al8Pt3)3
_chemical_formula_sum   'Sr1 Zr3 Al24 Pt9'
_cell_volume   626.96729630
_cell_formula_units_Z   1
loop_
 _symmetry_equiv_pos_site_id
 _symmetry_equiv_pos_as_xyz
  1  'x, y, z'
loop_
 _atom_site_type_symbol
 _atom_site_label
 _atom_site_symmetry_multiplicity
 _atom_site_fract_x
 _atom_site_fract_y
 _atom_site_fract_z
 _atom_site_occupancy
  Sr  Sr0  1  0.266923  0.502034  0.188876  1
  Zr  Zr1  1  0.392800  0.168370  0.809448  1
  Zr  Zr2  1  0.606542  0.831693  0.189581  1
  Zr  Zr3  1  0.733651  0.498821  0.809121  1
  Al  Al4  1  0.682250  0.833649  0.939170  1
  Al  Al5  1  0.318843  0.162875  0.052598  1
  Al  Al6  1  0.145905  0.832595  0.564278  1
  Al  Al7  1  0.853844  0.166898  0.438403  1
  Al  Al8  1  0.479698  0.167147  0.561961  1
  Al  Al9  1  0.519457  0.833260  0.439897  1
  Al  Al10  1  0.220211  0.163792  0.330472  1
  Al  Al11  1  0.778167  0.834630  0.677684  1
  Al  Al12  1  0.436977  0.504614  0.677843  1
  Al  Al13  1  0.560906  0.496314  0.330413  1
  Al  Al14  1  0.107787  0.162061  0.675734  1
  Al  Al15  1  0.888112  0.838662  0.331574  1
  Al  Al16  1  0.357985  0.496609  0.937572  1
  Al  Al17  1  0.650152  0.502552  0.052574  1
  Al  Al18  1  0.017524  0.170325  0.946549  1
  Al  Al19  1  0.982010  0.834241  0.043464  1
  Al  Al20  1  0.186386  0.499462  0.441293  1
  Al  Al21  1  0.812716  0.500228  0.561773  1
  Al  Al22  1  0.739349  0.150525  0.183260  1
  Al  Al23  1  0.272823  0.836196  0.815765  1
  Al  Al24  1  0.061017  0.625955  0.814723  1
  Al  Al25  1  0.925553  0.376276  0.184572  1
  Al  Al26  1  0.850127  0.047027  0.815687  1
  Al  Al27  1  0.152233  0.964265  0.184313  1
  Pt  Pt28  1  0.120153  0.490129  0.639838  1
  Pt  Pt29  1  0.876728  0.507320  0.363469  1
  Pt  Pt30  1  0.657775  0.172159  0.997150  1
  Pt  Pt31  1  0.343817  0.828990  0.997725  1
  Pt  Pt32  1  0.539808  0.164674  0.363773  1
  Pt  Pt33  1  0.463540  0.833408  0.639224  1
  Pt  Pt34  1  0.777649  0.176362  0.638597  1
  Pt  Pt35  1  0.219020  0.827632  0.364873  1
  Pt  Pt36  1  0.001563  0.498252  0.996754  1
