# generated using pymatgen
data_Ho2Pa2Ge6Ir3Rh4
_symmetry_space_group_name_H-M   'P 1'
_cell_length_a   7.28597866
_cell_length_b   7.28597875
_cell_length_c   7.31874218
_cell_angle_alpha   109.43569849
_cell_angle_beta   109.43570279
_cell_angle_gamma   109.34361867
_symmetry_Int_Tables_number   1
_chemical_formula_structural   Ho2Pa2Ge6Ir3Rh4
_chemical_formula_sum   'Ho2 Pa2 Ge6 Ir3 Rh4'
_cell_volume   299.81281986
_cell_formula_units_Z   1
loop_
 _symmetry_equiv_pos_site_id
 _symmetry_equiv_pos_as_xyz
  1  'x, y, z'
loop_
 _atom_site_type_symbol
 _atom_site_label
 _atom_site_symmetry_multiplicity
 _atom_site_fract_x
 _atom_site_fract_y
 _atom_site_fract_z
 _atom_site_occupancy
  Ho  Ho0  1  0.000143  0.500127  0.000105  1
  Ho  Ho1  1  0.499873  0.999857  0.999895  1
  Pa  Pa2  1  0.999942  0.000058  0.500000  1
  Pa  Pa3  1  0.499998  0.500002  0.500000  1
  Ge  Ge4  1  0.683329  0.683068  0.000005  1
  Ge  Ge5  1  0.317696  0.995576  0.312844  1
  Ge  Ge6  1  0.994709  0.317400  0.312565  1
  Ge  Ge7  1  0.316932  0.316671  0.999995  1
  Ge  Ge8  1  0.682600  0.005291  0.687435  1
  Ge  Ge9  1  0.004424  0.682304  0.687156  1
  Ir  Ir10  1  0.250568  0.495628  0.746176  1
  Ir  Ir11  1  0.249960  0.750040  0.500000  1
  Ir  Ir12  1  0.504372  0.749432  0.253824  1
  Rh  Rh13  1  0.749956  0.250044  0.500000  1
  Rh  Rh14  1  0.749762  0.504152  0.253863  1
  Rh  Rh15  1  0.495848  0.250238  0.746137  1
  Rh  Rh16  1  0.999889  0.000111  0.000000  1
