# generated using pymatgen
data_YbEr(Ga4Ni)2
_symmetry_space_group_name_H-M   'P 1'
_cell_length_a   7.87875775
_cell_length_b   7.87875719
_cell_length_c   6.52275400
_cell_angle_alpha   90.00000000
_cell_angle_beta   90.00000000
_cell_angle_gamma   149.67096261
_symmetry_Int_Tables_number   1
_chemical_formula_structural   YbEr(Ga4Ni)2
_chemical_formula_sum   'Yb1 Er1 Ga8 Ni2'
_cell_volume   204.45976123
_cell_formula_units_Z   1
loop_
 _symmetry_equiv_pos_site_id
 _symmetry_equiv_pos_as_xyz
  1  'x, y, z'
loop_
 _atom_site_type_symbol
 _atom_site_label
 _atom_site_symmetry_multiplicity
 _atom_site_fract_x
 _atom_site_fract_y
 _atom_site_fract_z
 _atom_site_occupancy
  Yb  Yb0  1  0.375932  0.624068  0.250000  1
  Er  Er1  1  0.623126  0.376874  0.750000  1
  Ga  Ga2  1  0.185044  0.814956  0.449019  1
  Ga  Ga3  1  0.815673  0.184327  0.549397  1
  Ga  Ga4  1  0.000053  0.999947  0.000394  1
  Ga  Ga5  1  0.000053  0.999947  0.499606  1
  Ga  Ga6  1  0.568545  0.431455  0.250000  1
  Ga  Ga7  1  0.431001  0.568999  0.750000  1
  Ga  Ga8  1  0.185044  0.814956  0.050981  1
  Ga  Ga9  1  0.815673  0.184327  0.950603  1
  Ni  Ni10  1  0.722987  0.277013  0.250000  1
  Ni  Ni11  1  0.276871  0.723129  0.750000  1
