# generated using pymatgen
data_ErTm7In3Os
_symmetry_space_group_name_H-M   'P 1'
_cell_length_a   10.27525900
_cell_length_b   10.27525797
_cell_length_c   7.00164400
_cell_angle_alpha   90.00000000
_cell_angle_beta   90.00000000
_cell_angle_gamma   119.99999366
_symmetry_Int_Tables_number   1
_chemical_formula_structural   ErTm7In3Os
_chemical_formula_sum   'Er2 Tm14 In6 Os2'
_cell_volume   640.20077602
_cell_formula_units_Z   2
loop_
 _symmetry_equiv_pos_site_id
 _symmetry_equiv_pos_as_xyz
  1  'x, y, z'
loop_
 _atom_site_type_symbol
 _atom_site_label
 _atom_site_symmetry_multiplicity
 _atom_site_fract_x
 _atom_site_fract_y
 _atom_site_fract_z
 _atom_site_occupancy
  Er  Er0  1  0.000000  0.000000  0.778106  1
  Er  Er1  1  0.000000  0.000000  0.278106  1
  Tm  Tm2  1  0.532924  0.065847  0.793698  1
  Tm  Tm3  1  0.934153  0.467076  0.793698  1
  Tm  Tm4  1  0.532924  0.467076  0.793698  1
  Tm  Tm5  1  0.467076  0.934153  0.293698  1
  Tm  Tm6  1  0.065847  0.532924  0.293698  1
  Tm  Tm7  1  0.467076  0.532924  0.293698  1
  Tm  Tm8  1  0.822540  0.645081  0.499150  1
  Tm  Tm9  1  0.354919  0.177460  0.499150  1
  Tm  Tm10  1  0.822540  0.177460  0.499150  1
  Tm  Tm11  1  0.177460  0.354919  0.999150  1
  Tm  Tm12  1  0.645081  0.822540  0.999150  1
  Tm  Tm13  1  0.177460  0.822540  0.999150  1
  Tm  Tm14  1  0.666667  0.333333  0.172100  1
  Tm  Tm15  1  0.333333  0.666667  0.672100  1
  In  In16  1  0.836928  0.673856  0.039481  1
  In  In17  1  0.326144  0.163072  0.039481  1
  In  In18  1  0.836928  0.163072  0.039481  1
  In  In19  1  0.163072  0.326144  0.539481  1
  In  In20  1  0.673856  0.836928  0.539481  1
  In  In21  1  0.163072  0.836928  0.539481  1
  Os  Os22  1  0.666667  0.333333  0.570758  1
  Os  Os23  1  0.333333  0.666667  0.070758  1
