# generated using pymatgen
data_Tb10Th10(Ir3Ru)3
_symmetry_space_group_name_H-M   'P 1'
_cell_length_a   11.20583748
_cell_length_b   11.11470009
_cell_length_c   6.39599059
_cell_angle_alpha   90.03587563
_cell_angle_beta   89.47547758
_cell_angle_gamma   89.96410324
_symmetry_Int_Tables_number   1
_chemical_formula_structural   Tb10Th10(Ir3Ru)3
_chemical_formula_sum   'Tb10 Th10 Ir9 Ru3'
_cell_volume   796.58387970
_cell_formula_units_Z   1
loop_
 _symmetry_equiv_pos_site_id
 _symmetry_equiv_pos_as_xyz
  1  'x, y, z'
loop_
 _atom_site_type_symbol
 _atom_site_label
 _atom_site_symmetry_multiplicity
 _atom_site_fract_x
 _atom_site_fract_y
 _atom_site_fract_z
 _atom_site_occupancy
  Tb  Tb0  1  0.796024  0.412813  0.114845  1
  Tb  Tb1  1  0.795459  0.587130  0.615265  1
  Tb  Tb2  1  0.908487  0.705585  0.114180  1
  Tb  Tb3  1  0.908490  0.294146  0.615248  1
  Tb  Tb4  1  0.082532  0.711264  0.618495  1
  Tb  Tb5  1  0.082594  0.288702  0.117997  1
  Tb  Tb6  1  0.999333  0.001570  0.502142  1
  Tb  Tb7  1  0.999583  0.998242  0.002116  1
  Tb  Tb8  1  0.503598  0.498339  0.007768  1
  Tb  Tb9  1  0.503418  0.501229  0.507696  1
  Th  Th10  1  0.289318  0.091916  0.379446  1
  Th  Th11  1  0.289519  0.908837  0.879261  1
  Th  Th12  1  0.711942  0.091616  0.882996  1
  Th  Th13  1  0.711879  0.908059  0.382957  1
  Th  Th14  1  0.592383  0.788914  0.882035  1
  Th  Th15  1  0.592881  0.211069  0.382521  1
  Th  Th16  1  0.410043  0.788647  0.380422  1
  Th  Th17  1  0.410484  0.211087  0.881424  1
  Th  Th18  1  0.203668  0.410680  0.619643  1
  Th  Th19  1  0.203593  0.589410  0.114569  1
  Ir  Ir20  1  0.841317  0.149680  0.251686  1
  Ir  Ir21  1  0.841438  0.849877  0.751585  1
  Ir  Ir22  1  0.157176  0.151804  0.746061  1
  Ir  Ir23  1  0.157376  0.848349  0.246013  1
  Ir  Ir24  1  0.651724  0.341482  0.751660  1
  Ir  Ir25  1  0.650993  0.658904  0.251868  1
  Ir  Ir26  1  0.345493  0.344334  0.257710  1
  Ir  Ir27  1  0.346415  0.656293  0.756805  1
  Ir  Ir28  1  0.004899  0.501606  0.378438  1
  Ru  Ru29  1  0.499484  0.001398  0.113970  1
  Ru  Ru30  1  0.499432  0.998873  0.613952  1
  Ru  Ru31  1  0.009023  0.498143  0.879220  1
