# generated using pymatgen
data_Nd5Te2Br3O10
_symmetry_space_group_name_H-M   'P 1'
_cell_length_a   5.74484900
_cell_length_b   7.02055347
_cell_length_c   10.59599354
_cell_angle_alpha   91.02250032
_cell_angle_beta   90.00000000
_cell_angle_gamma   114.15113322
_symmetry_Int_Tables_number   1
_chemical_formula_structural   Nd5Te2Br3O10
_chemical_formula_sum   'Nd5 Te2 Br3 O10'
_cell_volume   389.87635399
_cell_formula_units_Z   1
loop_
 _symmetry_equiv_pos_site_id
 _symmetry_equiv_pos_as_xyz
  1  'x, y, z'
loop_
 _atom_site_type_symbol
 _atom_site_label
 _atom_site_symmetry_multiplicity
 _atom_site_fract_x
 _atom_site_fract_y
 _atom_site_fract_z
 _atom_site_occupancy
  Nd  Nd0  1  0.000000  0.000000  0.000000  1
  Nd  Nd1  1  0.292274  0.584547  0.099974  1
  Nd  Nd2  1  0.602643  0.205287  0.223341  1
  Nd  Nd3  1  0.397356  0.794712  0.776658  1
  Nd  Nd4  1  0.707726  0.415454  0.900026  1
  Te  Te5  1  0.917225  0.834450  0.318034  1
  Te  Te6  1  0.082775  0.165551  0.681967  1
  Br  Br7  1  0.167928  0.335857  0.355694  1
  Br  Br8  1  0.500000  0.000001  0.500000  1
  Br  Br9  1  0.832071  0.664142  0.644306  1
  O  O10  1  0.399398  0.292252  0.056855  1
  O  O11  1  0.892854  0.292252  0.056855  1
  O  O12  1  0.190259  0.897989  0.197400  1
  O  O13  1  0.707730  0.897989  0.197400  1
  O  O14  1  0.775918  0.551835  0.274094  1
  O  O15  1  0.224082  0.448166  0.725906  1
  O  O16  1  0.292272  0.102012  0.802600  1
  O  O17  1  0.809741  0.102012  0.802600  1
  O  O18  1  0.107147  0.707748  0.943145  1
  O  O19  1  0.600601  0.707748  0.943145  1
