# generated using pymatgen
data_Gd4Ho(SiB4)2
_symmetry_space_group_name_H-M   'P 1'
_cell_length_a   7.28793900
_cell_length_b   7.28793900
_cell_length_c   8.24221100
_cell_angle_alpha   90.00000000
_cell_angle_beta   90.00000000
_cell_angle_gamma   90.00000000
_symmetry_Int_Tables_number   1
_chemical_formula_structural   Gd4Ho(SiB4)2
_chemical_formula_sum   'Gd8 Ho2 Si4 B16'
_cell_volume   437.77724729
_cell_formula_units_Z   2
loop_
 _symmetry_equiv_pos_site_id
 _symmetry_equiv_pos_as_xyz
  1  'x, y, z'
loop_
 _atom_site_type_symbol
 _atom_site_label
 _atom_site_symmetry_multiplicity
 _atom_site_fract_x
 _atom_site_fract_y
 _atom_site_fract_z
 _atom_site_occupancy
  Gd  Gd0  1  0.680571  0.180571  0.224494  1
  Gd  Gd1  1  0.319429  0.819429  0.775506  1
  Gd  Gd2  1  0.319429  0.819429  0.224494  1
  Gd  Gd3  1  0.819429  0.680571  0.224494  1
  Gd  Gd4  1  0.819429  0.680571  0.775506  1
  Gd  Gd5  1  0.680571  0.180571  0.775506  1
  Gd  Gd6  1  0.180571  0.319429  0.775506  1
  Gd  Gd7  1  0.180571  0.319429  0.224494  1
  Ho  Ho8  1  0.000000  0.000000  0.500000  1
  Ho  Ho9  1  0.500000  0.500000  0.500000  1
  Si  Si10  1  0.114890  0.614890  0.500000  1
  Si  Si11  1  0.885110  0.385110  0.500000  1
  Si  Si12  1  0.385110  0.114890  0.500000  1
  Si  Si13  1  0.614890  0.885110  0.500000  1
  B  B14  1  0.172158  0.039294  0.000000  1
  B  B15  1  0.827842  0.960706  0.000000  1
  B  B16  1  0.960706  0.172158  0.000000  1
  B  B17  1  0.327842  0.539294  0.000000  1
  B  B18  1  0.039294  0.827842  0.000000  1
  B  B19  1  0.672158  0.460706  0.000000  1
  B  B20  1  0.539294  0.672158  0.000000  1
  B  B21  1  0.460706  0.327842  0.000000  1
  B  B22  1  0.090316  0.590316  0.000000  1
  B  B23  1  0.909684  0.409684  0.000000  1
  B  B24  1  0.409684  0.090316  0.000000  1
  B  B25  1  0.590316  0.909684  0.000000  1
  B  B26  1  0.000000  0.000000  0.158770  1
  B  B27  1  0.000000  0.000000  0.841230  1
  B  B28  1  0.500000  0.500000  0.841230  1
  B  B29  1  0.500000  0.500000  0.158770  1
