# generated using pymatgen
data_Yb3DyHo4(B6Os)4
_symmetry_space_group_name_H-M   'P 1'
_cell_length_a   3.64537100
_cell_length_b   9.15205021
_cell_length_c   11.54305301
_cell_angle_alpha   89.91586280
_cell_angle_beta   90.00000000
_cell_angle_gamma   90.00000000
_symmetry_Int_Tables_number   1
_chemical_formula_structural   Yb3DyHo4(B6Os)4
_chemical_formula_sum   'Yb3 Dy1 Ho4 B24 Os4'
_cell_volume   385.10605809
_cell_formula_units_Z   1
loop_
 _symmetry_equiv_pos_site_id
 _symmetry_equiv_pos_as_xyz
  1  'x, y, z'
loop_
 _atom_site_type_symbol
 _atom_site_label
 _atom_site_symmetry_multiplicity
 _atom_site_fract_x
 _atom_site_fract_y
 _atom_site_fract_z
 _atom_site_occupancy
  Yb  Yb0  1  0.000000  0.324636  0.414380  1
  Yb  Yb1  1  0.000000  0.675431  0.585163  1
  Yb  Yb2  1  0.000000  0.823233  0.086357  1
  Dy  Dy3  1  0.000000  0.175933  0.914765  1
  Ho  Ho4  1  0.000000  0.941214  0.367745  1
  Ho  Ho5  1  0.000000  0.057936  0.630497  1
  Ho  Ho6  1  0.000000  0.443120  0.132105  1
  Ho  Ho7  1  0.000000  0.558639  0.868701  1
  B  B8  1  0.500000  0.553053  0.433339  1
  B  B9  1  0.500000  0.446421  0.567424  1
  B  B10  1  0.500000  0.053434  0.066744  1
  B  B11  1  0.500000  0.946075  0.933522  1
  B  B12  1  0.500000  0.748056  0.417587  1
  B  B13  1  0.500000  0.251776  0.582374  1
  B  B14  1  0.500000  0.248650  0.081988  1
  B  B15  1  0.500000  0.752036  0.918014  1
  B  B16  1  0.500000  0.790527  0.264419  1
  B  B17  1  0.500000  0.208982  0.735557  1
  B  B18  1  0.500000  0.290806  0.234711  1
  B  B19  1  0.500000  0.710275  0.765096  1
  B  B20  1  0.500000  0.631184  0.186329  1
  B  B21  1  0.500000  0.368921  0.814625  1
  B  B22  1  0.500000  0.131159  0.313263  1
  B  B23  1  0.500000  0.869171  0.685599  1
  B  B24  1  0.500000  0.982714  0.210699  1
  B  B25  1  0.500000  0.017039  0.788388  1
  B  B26  1  0.500000  0.483521  0.289068  1
  B  B27  1  0.500000  0.516372  0.711668  1
  B  B28  1  0.500000  0.599654  0.027744  1
  B  B29  1  0.500000  0.399880  0.972406  1
  B  B30  1  0.500000  0.097639  0.472317  1
  B  B31  1  0.500000  0.902201  0.526640  1
  Os  Os32  1  0.000000  0.638377  0.321150  1
  Os  Os33  1  0.000000  0.360383  0.680336  1
  Os  Os34  1  0.000000  0.138175  0.178626  1
  Os  Os35  1  0.000000  0.863373  0.820657  1
