# generated using pymatgen
data_ErTh(Si2Ni)2
_symmetry_space_group_name_H-M   'P 1'
_cell_length_a   8.43539208
_cell_length_b   8.43539302
_cell_length_c   4.02363800
_cell_angle_alpha   90.00000000
_cell_angle_beta   90.00000000
_cell_angle_gamma   152.01531493
_symmetry_Int_Tables_number   1
_chemical_formula_structural   ErTh(Si2Ni)2
_chemical_formula_sum   'Er1 Th1 Si4 Ni2'
_cell_volume   134.34465521
_cell_formula_units_Z   1
loop_
 _symmetry_equiv_pos_site_id
 _symmetry_equiv_pos_as_xyz
  1  'x, y, z'
loop_
 _atom_site_type_symbol
 _atom_site_label
 _atom_site_symmetry_multiplicity
 _atom_site_fract_x
 _atom_site_fract_y
 _atom_site_fract_z
 _atom_site_occupancy
  Er  Er0  1  0.604513  0.395487  0.250000  1
  Th  Th1  1  0.394542  0.605458  0.750000  1
  Si  Si2  1  0.963488  0.036512  0.250000  1
  Si  Si3  1  0.042079  0.957921  0.750000  1
  Si  Si4  1  0.247723  0.752277  0.250000  1
  Si  Si5  1  0.746972  0.253028  0.750000  1
  Ni  Ni6  1  0.821266  0.178734  0.250000  1
  Ni  Ni7  1  0.179417  0.820583  0.750000  1
