# generated using pymatgen
data_ThNp7(Nb3Si4)4
_symmetry_space_group_name_H-M   'P 1'
_cell_length_a   7.07641553
_cell_length_b   7.07913641
_cell_length_c   13.06095826
_cell_angle_alpha   90.00618573
_cell_angle_beta   89.94743434
_cell_angle_gamma   89.96315920
_symmetry_Int_Tables_number   1
_chemical_formula_structural   ThNp7(Nb3Si4)4
_chemical_formula_sum   'Th1 Np7 Nb12 Si16'
_cell_volume   654.28712468
_cell_formula_units_Z   1
loop_
 _symmetry_equiv_pos_site_id
 _symmetry_equiv_pos_as_xyz
  1  'x, y, z'
loop_
 _atom_site_type_symbol
 _atom_site_label
 _atom_site_symmetry_multiplicity
 _atom_site_fract_x
 _atom_site_fract_y
 _atom_site_fract_z
 _atom_site_occupancy
  Th  Th0  1  0.993589  0.334378  0.218335  1
  Np  Np1  1  0.007092  0.666382  0.719004  1
  Np  Np2  1  0.168620  0.493725  0.471971  1
  Np  Np3  1  0.507619  0.831405  0.028609  1
  Np  Np4  1  0.831817  0.508079  0.966369  1
  Np  Np5  1  0.492798  0.167291  0.531887  1
  Np  Np6  1  0.332826  0.992669  0.780953  1
  Np  Np7  1  0.661459  0.003283  0.283576  1
  Nb  Nb8  1  0.169888  0.167460  0.998263  1
  Nb  Nb9  1  0.831020  0.831027  0.500991  1
  Nb  Nb10  1  0.330473  0.669506  0.250624  1
  Nb  Nb11  1  0.668932  0.330957  0.749817  1
  Nb  Nb12  1  0.157779  0.998108  0.376740  1
  Nb  Nb13  1  0.845044  0.002243  0.873428  1
  Nb  Nb14  1  0.503081  0.654362  0.624950  1
  Nb  Nb15  1  0.345826  0.496362  0.874104  1
  Nb  Nb16  1  0.496078  0.343804  0.124317  1
  Nb  Nb17  1  0.655613  0.505692  0.377237  1
  Nb  Nb18  1  0.996942  0.155008  0.625799  1
  Nb  Nb19  1  0.002889  0.843154  0.124752  1
  Si  Si20  1  0.299808  0.036705  0.183555  1
  Si  Si21  1  0.702954  0.958926  0.684562  1
  Si  Si22  1  0.457996  0.796285  0.436107  1
  Si  Si23  1  0.206771  0.544332  0.061826  1
  Si  Si24  1  0.540360  0.202484  0.933803  1
  Si  Si25  1  0.797602  0.459063  0.565890  1
  Si  Si26  1  0.040785  0.296795  0.814991  1
  Si  Si27  1  0.958810  0.709786  0.317545  1
  Si  Si28  1  0.374659  0.294510  0.317847  1
  Si  Si29  1  0.630528  0.706235  0.814706  1
  Si  Si30  1  0.206144  0.869737  0.566518  1
  Si  Si31  1  0.130752  0.794017  0.933323  1
  Si  Si32  1  0.790582  0.126713  0.062554  1
  Si  Si33  1  0.868693  0.205042  0.436210  1
  Si  Si34  1  0.293734  0.368999  0.684386  1
  Si  Si35  1  0.700433  0.635477  0.184453  1
