# generated using pymatgen
data_Y4U(B3Ru)2
_symmetry_space_group_name_H-M   'P 1'
_cell_length_a   5.58419618
_cell_length_b   5.58419470
_cell_length_c   8.04357800
_cell_angle_alpha   69.68865746
_cell_angle_beta   69.68865216
_cell_angle_gamma   59.99999426
_symmetry_Int_Tables_number   1
_chemical_formula_structural   Y4U(B3Ru)2
_chemical_formula_sum   'Y4 U1 B6 Ru2'
_cell_volume   199.00806398
_cell_formula_units_Z   1
loop_
 _symmetry_equiv_pos_site_id
 _symmetry_equiv_pos_as_xyz
  1  'x, y, z'
loop_
 _atom_site_type_symbol
 _atom_site_label
 _atom_site_symmetry_multiplicity
 _atom_site_fract_x
 _atom_site_fract_y
 _atom_site_fract_z
 _atom_site_occupancy
  Y  Y0  1  0.744967  0.744967  0.765098  1
  Y  Y1  1  0.255033  0.255033  0.234902  1
  Y  Y2  1  0.587473  0.587473  0.237582  1
  Y  Y3  1  0.412527  0.412527  0.762418  1
  U  U4  1  0.000000  0.000000  0.000000  1
  B  B5  1  0.500000  0.172353  0.500000  1
  B  B6  1  0.827647  0.500000  0.500000  1
  B  B7  1  0.172353  0.827647  0.500000  1
  B  B8  1  0.172353  0.500000  0.500000  1
  B  B9  1  0.827647  0.172353  0.500000  1
  B  B10  1  0.500000  0.827647  0.500000  1
  Ru  Ru11  1  0.893051  0.893051  0.320846  1
  Ru  Ru12  1  0.106949  0.106949  0.679154  1
