# generated using pymatgen
data_Zr4Fe3Co(SiP)2
_symmetry_space_group_name_H-M   'P 1'
_cell_length_a   3.83159400
_cell_length_b   6.38616002
_cell_length_c   7.11582086
_cell_angle_alpha   89.84174978
_cell_angle_beta   90.00000000
_cell_angle_gamma   90.00000000
_symmetry_Int_Tables_number   1
_chemical_formula_structural   Zr4Fe3Co(SiP)2
_chemical_formula_sum   'Zr4 Fe3 Co1 Si2 P2'
_cell_volume   174.11758345
_cell_formula_units_Z   1
loop_
 _symmetry_equiv_pos_site_id
 _symmetry_equiv_pos_as_xyz
  1  'x, y, z'
loop_
 _atom_site_type_symbol
 _atom_site_label
 _atom_site_symmetry_multiplicity
 _atom_site_fract_x
 _atom_site_fract_y
 _atom_site_fract_z
 _atom_site_occupancy
  Zr  Zr0  1  0.250000  0.506701  0.691696  1
  Zr  Zr1  1  0.250000  0.009740  0.808387  1
  Zr  Zr2  1  0.750000  0.988436  0.188077  1
  Zr  Zr3  1  0.750000  0.484931  0.313855  1
  Fe  Fe4  1  0.750000  0.354046  0.930326  1
  Fe  Fe5  1  0.250000  0.148256  0.438804  1
  Fe  Fe6  1  0.250000  0.652411  0.059375  1
  Co  Co7  1  0.750000  0.855190  0.567860  1
  Si  Si8  1  0.250000  0.782640  0.388834  1
  Si  Si9  1  0.250000  0.286753  0.109310  1
  P  P10  1  0.750000  0.216366  0.609755  1
  P  P11  1  0.750000  0.714529  0.893722  1
