# generated using pymatgen
data_Eu3Lu(Al3Pt)6
_symmetry_space_group_name_H-M   'P 1'
_cell_length_a   7.64564774
_cell_length_b   7.65012897
_cell_length_c   9.51814100
_cell_angle_alpha   90.00000000
_cell_angle_beta   90.00000000
_cell_angle_gamma   119.67368152
_symmetry_Int_Tables_number   1
_chemical_formula_structural   Eu3Lu(Al3Pt)6
_chemical_formula_sum   'Eu3 Lu1 Al18 Pt6'
_cell_volume   483.70935224
_cell_formula_units_Z   1
loop_
 _symmetry_equiv_pos_site_id
 _symmetry_equiv_pos_as_xyz
  1  'x, y, z'
loop_
 _atom_site_type_symbol
 _atom_site_label
 _atom_site_symmetry_multiplicity
 _atom_site_fract_x
 _atom_site_fract_y
 _atom_site_fract_z
 _atom_site_occupancy
  Eu  Eu0  1  0.003947  0.330950  0.750000  1
  Eu  Eu1  1  0.996534  0.669666  0.250000  1
  Eu  Eu2  1  0.329908  0.003634  0.750000  1
  Lu  Lu3  1  0.670283  0.996444  0.250000  1
  Al  Al4  1  0.665415  0.999926  0.925432  1
  Al  Al5  1  0.129089  0.131051  0.250000  1
  Al  Al6  1  0.999407  0.333537  0.422703  1
  Al  Al7  1  0.332995  0.333018  0.555679  1
  Al  Al8  1  0.343040  0.547618  0.250000  1
  Al  Al9  1  0.455345  0.660317  0.750000  1
  Al  Al10  1  0.867909  0.868979  0.750000  1
  Al  Al11  1  0.667111  0.667929  0.058913  1
  Al  Al12  1  0.667111  0.667929  0.441087  1
  Al  Al13  1  0.999464  0.665468  0.575230  1
  Al  Al14  1  0.999464  0.665468  0.924770  1
  Al  Al15  1  0.335743  0.000310  0.422658  1
  Al  Al16  1  0.659262  0.453870  0.750000  1
  Al  Al17  1  0.544984  0.337352  0.250000  1
  Al  Al18  1  0.332995  0.333018  0.944321  1
  Al  Al19  1  0.335743  0.000310  0.077342  1
  Al  Al20  1  0.665415  0.999926  0.574568  1
  Al  Al21  1  0.999407  0.333537  0.077297  1
  Pt  Pt22  1  0.331068  0.672150  0.498302  1
  Pt  Pt23  1  0.331068  0.672150  0.001698  1
  Pt  Pt24  1  0.670761  0.328133  0.498312  1
  Pt  Pt25  1  0.997886  0.999590  0.002016  1
  Pt  Pt26  1  0.997886  0.999590  0.497984  1
  Pt  Pt27  1  0.670761  0.328133  0.001688  1
