# generated using pymatgen
data_Dy12InCo4Cu
_symmetry_space_group_name_H-M   'P 1'
_cell_length_a   8.31918512
_cell_length_b   8.31918568
_cell_length_c   8.31918560
_cell_angle_alpha   110.99793393
_cell_angle_beta   110.76810360
_cell_angle_gamma   106.68317467
_symmetry_Int_Tables_number   1
_chemical_formula_structural   Dy12InCo4Cu
_chemical_formula_sum   'Dy12 In1 Co4 Cu1'
_cell_volume   442.43705398
_cell_formula_units_Z   1
loop_
 _symmetry_equiv_pos_site_id
 _symmetry_equiv_pos_as_xyz
  1  'x, y, z'
loop_
 _atom_site_type_symbol
 _atom_site_label
 _atom_site_symmetry_multiplicity
 _atom_site_fract_x
 _atom_site_fract_y
 _atom_site_fract_z
 _atom_site_occupancy
  Dy  Dy0  1  0.416638  0.218747  0.197892  1
  Dy  Dy1  1  0.583362  0.781253  0.802108  1
  Dy  Dy2  1  0.020855  0.218747  0.802108  1
  Dy  Dy3  1  0.979145  0.781253  0.197892  1
  Dy  Dy4  1  0.184511  0.289632  0.474144  1
  Dy  Dy5  1  0.815489  0.710368  0.525856  1
  Dy  Dy6  1  0.184511  0.710368  0.894879  1
  Dy  Dy7  1  0.815489  0.289632  0.105121  1
  Dy  Dy8  1  0.316698  0.623135  0.306436  1
  Dy  Dy9  1  0.683302  0.376865  0.693564  1
  Dy  Dy10  1  0.316698  0.010262  0.693564  1
  Dy  Dy11  1  0.683302  0.989738  0.306436  1
  In  In12  1  0.500000  0.500000  0.000000  1
  Co  Co13  1  0.374447  0.000000  0.374447  1
  Co  Co14  1  0.625553  0.000000  0.625553  1
  Co  Co15  1  0.112272  0.612272  0.500000  1
  Co  Co16  1  0.887728  0.387728  0.500000  1
  Cu  Cu17  1  0.000000  0.000000  0.000000  1
