# generated using pymatgen
data_Eu4TmTa3O14
_symmetry_space_group_name_H-M   'P 1'
_cell_length_a   7.62030500
_cell_length_b   7.54986749
_cell_length_c   7.62030700
_cell_angle_alpha   59.69089967
_cell_angle_beta   60.00000433
_cell_angle_gamma   59.69089567
_symmetry_Int_Tables_number   1
_chemical_formula_structural   Eu4TmTa3O14
_chemical_formula_sum   'Eu4 Tm1 Ta3 O14'
_cell_volume   308.54906160
_cell_formula_units_Z   1
loop_
 _symmetry_equiv_pos_site_id
 _symmetry_equiv_pos_as_xyz
  1  'x, y, z'
loop_
 _atom_site_type_symbol
 _atom_site_label
 _atom_site_symmetry_multiplicity
 _atom_site_fract_x
 _atom_site_fract_y
 _atom_site_fract_z
 _atom_site_occupancy
  Eu  Eu0  1  0.125000  0.625000  0.125000  1
  Eu  Eu1  1  0.125000  0.125000  0.625000  1
  Eu  Eu2  1  0.625000  0.125000  0.125000  1
  Eu  Eu3  1  0.125000  0.125000  0.125000  1
  Tm  Tm4  1  0.625000  0.125000  0.625000  1
  Ta  Ta5  1  0.625000  0.625000  0.625000  1
  Ta  Ta6  1  0.125000  0.625000  0.625000  1
  Ta  Ta7  1  0.625000  0.625000  0.125000  1
  O  O8  1  0.313964  0.672267  0.699806  1
  O  O9  1  0.539623  0.943877  0.976876  1
  O  O10  1  0.699806  0.672267  0.313964  1
  O  O11  1  0.273124  0.306123  0.710377  1
  O  O12  1  0.002741  0.991777  0.002741  1
  O  O13  1  0.313964  0.672267  0.313964  1
  O  O14  1  0.710377  0.306123  0.710377  1
  O  O15  1  0.936036  0.577733  0.936036  1
  O  O16  1  0.550194  0.577733  0.936036  1
  O  O17  1  0.976876  0.943877  0.539623  1
  O  O18  1  0.247259  0.258223  0.247259  1
  O  O19  1  0.539623  0.943877  0.539623  1
  O  O20  1  0.710377  0.306123  0.273124  1
  O  O21  1  0.936036  0.577733  0.550194  1
