# generated using pymatgen
data_YbDy2Ag(Pt2O7)2
_symmetry_space_group_name_H-M   'P 1'
_cell_length_a   7.30329569
_cell_length_b   7.30329460
_cell_length_c   7.19145059
_cell_angle_alpha   59.39504419
_cell_angle_beta   59.39504517
_cell_angle_gamma   60.08928508
_symmetry_Int_Tables_number   1
_chemical_formula_structural   YbDy2Ag(Pt2O7)2
_chemical_formula_sum   'Yb1 Dy2 Ag1 Pt4 O14'
_cell_volume   268.90175342
_cell_formula_units_Z   1
loop_
 _symmetry_equiv_pos_site_id
 _symmetry_equiv_pos_as_xyz
  1  'x, y, z'
loop_
 _atom_site_type_symbol
 _atom_site_label
 _atom_site_symmetry_multiplicity
 _atom_site_fract_x
 _atom_site_fract_y
 _atom_site_fract_z
 _atom_site_occupancy
  Yb  Yb0  1  0.125000  0.125000  0.125000  1
  Dy  Dy1  1  0.125000  0.625000  0.125000  1
  Dy  Dy2  1  0.625000  0.125000  0.125000  1
  Ag  Ag3  1  0.125000  0.125000  0.625000  1
  Pt  Pt4  1  0.625000  0.625000  0.625000  1
  Pt  Pt5  1  0.125000  0.625000  0.625000  1
  Pt  Pt6  1  0.625000  0.125000  0.625000  1
  Pt  Pt7  1  0.625000  0.625000  0.125000  1
  O  O8  1  0.293807  0.696621  0.717381  1
  O  O9  1  0.540442  0.962123  0.966543  1
  O  O10  1  0.696621  0.293807  0.717381  1
  O  O11  1  0.294567  0.294567  0.708920  1
  O  O12  1  0.717071  0.717071  0.280959  1
  O  O13  1  0.003349  0.003349  0.981619  1
  O  O14  1  0.287877  0.709558  0.283457  1
  O  O15  1  0.962123  0.540442  0.966543  1
  O  O16  1  0.955433  0.955433  0.541080  1
  O  O17  1  0.532929  0.532929  0.969041  1
  O  O18  1  0.246651  0.246651  0.268381  1
  O  O19  1  0.553379  0.956193  0.532619  1
  O  O20  1  0.709558  0.287877  0.283457  1
  O  O21  1  0.956193  0.553379  0.532619  1
