# generated using pymatgen
data_La4Pr12Mg3CdIr4
_symmetry_space_group_name_H-M   'P 1'
_cell_length_a   10.10417991
_cell_length_b   10.12454160
_cell_length_c   10.12454100
_cell_angle_alpha   60.00000524
_cell_angle_beta   59.93332138
_cell_angle_gamma   59.93331618
_symmetry_Int_Tables_number   1
_chemical_formula_structural   La4Pr12Mg3CdIr4
_chemical_formula_sum   'La4 Pr12 Mg3 Cd1 Ir4'
_cell_volume   731.64152626
_cell_formula_units_Z   1
loop_
 _symmetry_equiv_pos_site_id
 _symmetry_equiv_pos_as_xyz
  1  'x, y, z'
loop_
 _atom_site_type_symbol
 _atom_site_label
 _atom_site_symmetry_multiplicity
 _atom_site_fract_x
 _atom_site_fract_y
 _atom_site_fract_z
 _atom_site_occupancy
  La  La0  1  0.345330  0.345804  0.345804  1
  La  La1  1  0.345330  0.345804  0.963060  1
  La  La2  1  0.345330  0.963060  0.345804  1
  La  La3  1  0.964091  0.345303  0.345303  1
  Pr  Pr4  1  0.812370  0.187764  0.187764  1
  Pr  Pr5  1  0.188949  0.811027  0.811027  1
  Pr  Pr6  1  0.188949  0.811027  0.188999  1
  Pr  Pr7  1  0.812370  0.187764  0.812100  1
  Pr  Pr8  1  0.188949  0.188999  0.811027  1
  Pr  Pr9  1  0.812370  0.812100  0.187764  1
  Pr  Pr10  1  0.938661  0.562529  0.562529  1
  Pr  Pr11  1  0.563132  0.936795  0.936795  1
  Pr  Pr12  1  0.563132  0.936795  0.563278  1
  Pr  Pr13  1  0.938661  0.562529  0.936280  1
  Pr  Pr14  1  0.563132  0.563278  0.936795  1
  Pr  Pr15  1  0.938661  0.936280  0.562529  1
  Mg  Mg16  1  0.576676  0.578606  0.578606  1
  Mg  Mg17  1  0.576676  0.578606  0.266110  1
  Mg  Mg18  1  0.576676  0.266110  0.578606  1
  Cd  Cd19  1  0.260371  0.579876  0.579876  1
  Ir  Ir20  1  0.142011  0.141836  0.141836  1
  Ir  Ir21  1  0.142011  0.141836  0.574316  1
  Ir  Ir22  1  0.142011  0.574316  0.141836  1
  Ir  Ir23  1  0.574148  0.141951  0.141951  1
