# generated using pymatgen
data_La8Y2AlSn5
_symmetry_space_group_name_H-M   'P 1'
_cell_length_a   9.44485444
_cell_length_b   9.44481783
_cell_length_c   9.44485448
_cell_angle_alpha   96.35505081
_cell_angle_beta   96.35573229
_cell_angle_gamma   141.13375066
_symmetry_Int_Tables_number   1
_chemical_formula_structural   La8Y2AlSn5
_chemical_formula_sum   'La8 Y2 Al1 Sn5'
_cell_volume   498.56972350
_cell_formula_units_Z   1
loop_
 _symmetry_equiv_pos_site_id
 _symmetry_equiv_pos_as_xyz
  1  'x, y, z'
loop_
 _atom_site_type_symbol
 _atom_site_label
 _atom_site_symmetry_multiplicity
 _atom_site_fract_x
 _atom_site_fract_y
 _atom_site_fract_z
 _atom_site_occupancy
  La  La0  1  0.906592  0.216219  0.132780  1
  La  La1  1  0.216217  0.083443  0.309614  1
  La  La2  1  0.773830  0.906611  0.690391  1
  La  La3  1  0.083418  0.773816  0.867226  1
  La  La4  1  0.726172  0.416557  0.132774  1
  La  La5  1  0.283779  0.593389  0.867218  1
  La  La6  1  0.593410  0.726184  0.309601  1
  La  La7  1  0.416560  0.283781  0.690373  1
  Y  Y8  1  0.749997  0.250000  0.499997  1
  Y  Y9  1  0.250009  0.750000  0.500009  1
  Al  Al10  1  0.750002  0.750000  0.000002  1
  Sn  Sn11  1  0.250011  0.250000  0.000011  1
  Sn  Sn12  1  0.845349  0.654589  0.500007  1
  Sn  Sn13  1  0.654655  0.154661  0.809244  1
  Sn  Sn14  1  0.345418  0.845411  0.190759  1
  Sn  Sn15  1  0.154582  0.345339  0.499994  1
