# generated using pymatgen
data_Tb8Zr7Si16W5
_symmetry_space_group_name_H-M   'P 1'
_cell_length_a   7.16782329
_cell_length_b   7.15940755
_cell_length_c   13.16890379
_cell_angle_alpha   89.74669758
_cell_angle_beta   89.83870477
_cell_angle_gamma   90.09231377
_symmetry_Int_Tables_number   1
_chemical_formula_structural   Tb8Zr7Si16W5
_chemical_formula_sum   'Tb8 Zr7 Si16 W5'
_cell_volume   675.78331146
_cell_formula_units_Z   1
loop_
 _symmetry_equiv_pos_site_id
 _symmetry_equiv_pos_as_xyz
  1  'x, y, z'
loop_
 _atom_site_type_symbol
 _atom_site_label
 _atom_site_symmetry_multiplicity
 _atom_site_fract_x
 _atom_site_fract_y
 _atom_site_fract_z
 _atom_site_occupancy
  Tb  Tb0  1  0.998958  0.345107  0.218813  1
  Tb  Tb1  1  0.002105  0.655729  0.713245  1
  Tb  Tb2  1  0.153362  0.499155  0.465459  1
  Tb  Tb3  1  0.498789  0.846906  0.036571  1
  Tb  Tb4  1  0.845869  0.501838  0.965547  1
  Tb  Tb5  1  0.499543  0.153378  0.531880  1
  Tb  Tb6  1  0.347194  0.999593  0.784841  1
  Tb  Tb7  1  0.655298  0.000778  0.284213  1
  Zr  Zr8  1  0.852603  0.005285  0.874997  1
  Zr  Zr9  1  0.504246  0.649994  0.620679  1
  Zr  Zr10  1  0.352899  0.493781  0.876036  1
  Zr  Zr11  1  0.491558  0.349416  0.126664  1
  Zr  Zr12  1  0.646918  0.509623  0.376688  1
  Zr  Zr13  1  0.995750  0.148722  0.624863  1
  Zr  Zr14  1  0.003273  0.853123  0.124757  1
  Si  Si15  1  0.359117  0.287896  0.321431  1
  Si  Si16  1  0.641502  0.699477  0.814141  1
  Si  Si17  1  0.198013  0.862335  0.559671  1
  Si  Si18  1  0.141390  0.798861  0.933917  1
  Si  Si19  1  0.799043  0.142558  0.066804  1
  Si  Si20  1  0.868931  0.194641  0.429701  1
  Si  Si21  1  0.302712  0.358544  0.683661  1
  Si  Si22  1  0.699975  0.640091  0.183903  1
  Si  Si23  1  0.293298  0.045801  0.189823  1
  Si  Si24  1  0.706074  0.950122  0.683119  1
  Si  Si25  1  0.438369  0.797535  0.430388  1
  Si  Si26  1  0.203871  0.550011  0.067316  1
  Si  Si27  1  0.550366  0.204443  0.934513  1
  Si  Si28  1  0.794459  0.447568  0.566844  1
  Si  Si29  1  0.050302  0.295853  0.816356  1
  Si  Si30  1  0.956115  0.712599  0.317517  1
  W  W31  1  0.173911  0.174576  0.002190  1
  W  W32  1  0.830572  0.829121  0.498094  1
  W  W33  1  0.320547  0.677806  0.251219  1
  W  W34  1  0.676834  0.325115  0.749831  1
  W  W35  1  0.146236  0.992618  0.374306  1
