# generated using pymatgen
data_LuHf3Al17GaIr6
_symmetry_space_group_name_H-M   'P 1'
_cell_length_a   7.47672400
_cell_length_b   7.46959471
_cell_length_c   9.28173800
_cell_angle_alpha   90.00000000
_cell_angle_beta   90.00000000
_cell_angle_gamma   119.72280449
_symmetry_Int_Tables_number   1
_chemical_formula_structural   LuHf3Al17GaIr6
_chemical_formula_sum   'Lu1 Hf3 Al17 Ga1 Ir6'
_cell_volume   450.16801413
_cell_formula_units_Z   1
loop_
 _symmetry_equiv_pos_site_id
 _symmetry_equiv_pos_as_xyz
  1  'x, y, z'
loop_
 _atom_site_type_symbol
 _atom_site_label
 _atom_site_symmetry_multiplicity
 _atom_site_fract_x
 _atom_site_fract_y
 _atom_site_fract_z
 _atom_site_occupancy
  Lu  Lu0  1  0.326838  0.005963  0.750000  1
  Hf  Hf1  1  0.994673  0.671478  0.250000  1
  Hf  Hf2  1  0.006065  0.328666  0.750000  1
  Hf  Hf3  1  0.670998  0.994417  0.250000  1
  Al  Al4  1  0.124746  0.125769  0.250000  1
  Al  Al5  1  0.998097  0.334797  0.077299  1
  Al  Al6  1  0.000551  0.663237  0.924902  1
  Al  Al7  1  0.000551  0.663237  0.575098  1
  Al  Al8  1  0.335161  0.998800  0.420391  1
  Al  Al9  1  0.998097  0.334797  0.422701  1
  Al  Al10  1  0.667293  0.001808  0.575557  1
  Al  Al11  1  0.667293  0.001808  0.924443  1
  Al  Al12  1  0.335161  0.998800  0.079609  1
  Al  Al13  1  0.331751  0.333524  0.557602  1
  Al  Al14  1  0.668253  0.668157  0.437571  1
  Al  Al15  1  0.668253  0.668157  0.062429  1
  Al  Al16  1  0.331751  0.333524  0.942398  1
  Al  Al17  1  0.337886  0.552208  0.250000  1
  Al  Al18  1  0.666647  0.450474  0.750000  1
  Al  Al19  1  0.553360  0.338938  0.250000  1
  Al  Al20  1  0.446089  0.658861  0.750000  1
  Ga  Ga21  1  0.867479  0.869680  0.750000  1
  Ir  Ir22  1  0.673211  0.328183  0.000836  1
  Ir  Ir23  1  0.328526  0.673822  0.001240  1
  Ir  Ir24  1  0.328526  0.673822  0.498760  1
  Ir  Ir25  1  0.673211  0.328183  0.499164  1
  Ir  Ir26  1  0.999767  0.999442  0.003371  1
  Ir  Ir27  1  0.999767  0.999442  0.496629  1
