# generated using pymatgen
data_Tb4Bi3Sb
_symmetry_space_group_name_H-M   'P 1'
_cell_length_a   7.73508168
_cell_length_b   7.73508217
_cell_length_c   7.73508287
_cell_angle_alpha   131.78746218
_cell_angle_beta   131.78746776
_cell_angle_gamma   70.56490577
_symmetry_Int_Tables_number   1
_chemical_formula_structural   Tb4Bi3Sb
_chemical_formula_sum   'Tb4 Bi3 Sb1'
_cell_volume   252.08572511
_cell_formula_units_Z   1
loop_
 _symmetry_equiv_pos_site_id
 _symmetry_equiv_pos_as_xyz
  1  'x, y, z'
loop_
 _atom_site_type_symbol
 _atom_site_label
 _atom_site_symmetry_multiplicity
 _atom_site_fract_x
 _atom_site_fract_y
 _atom_site_fract_z
 _atom_site_occupancy
  Tb  Tb0  1  0.245854  0.245854  0.000000  1
  Tb  Tb1  1  0.754146  0.754146  0.000000  1
  Tb  Tb2  1  0.500000  0.000000  0.500000  1
  Tb  Tb3  1  0.000000  0.500000  0.500000  1
  Bi  Bi4  1  0.500000  0.500000  0.000000  1
  Bi  Bi5  1  0.750000  0.250000  0.500000  1
  Bi  Bi6  1  0.250000  0.750000  0.500000  1
  Sb  Sb7  1  0.000000  0.000000  0.000000  1
