# generated using pymatgen
data_Tb4DyRu2
_symmetry_space_group_name_H-M   'P 1'
_cell_length_a   8.53989787
_cell_length_b   8.53989774
_cell_length_c   7.28757525
_cell_angle_alpha   83.36725902
_cell_angle_beta   83.36725828
_cell_angle_gamma   43.90582917
_symmetry_Int_Tables_number   1
_chemical_formula_structural   Tb4DyRu2
_chemical_formula_sum   'Tb8 Dy2 Ru4'
_cell_volume   365.70019743
_cell_formula_units_Z   2
loop_
 _symmetry_equiv_pos_site_id
 _symmetry_equiv_pos_as_xyz
  1  'x, y, z'
loop_
 _atom_site_type_symbol
 _atom_site_label
 _atom_site_symmetry_multiplicity
 _atom_site_fract_x
 _atom_site_fract_y
 _atom_site_fract_z
 _atom_site_occupancy
  Tb  Tb0  1  0.206887  0.979131  0.584938  1
  Tb  Tb1  1  0.020869  0.793113  0.915062  1
  Tb  Tb2  1  0.206293  0.359764  0.314197  1
  Tb  Tb3  1  0.640236  0.793707  0.185803  1
  Tb  Tb4  1  0.793707  0.640236  0.685803  1
  Tb  Tb5  1  0.359764  0.206293  0.814197  1
  Tb  Tb6  1  0.979131  0.206887  0.084938  1
  Tb  Tb7  1  0.793113  0.020869  0.415062  1
  Dy  Dy8  1  0.578153  0.421847  0.750000  1
  Dy  Dy9  1  0.421847  0.578153  0.250000  1
  Ru  Ru10  1  0.175623  0.603264  0.575356  1
  Ru  Ru11  1  0.396736  0.824377  0.924644  1
  Ru  Ru12  1  0.824377  0.396736  0.424644  1
  Ru  Ru13  1  0.603264  0.175623  0.075356  1
