# generated using pymatgen
data_Pr2Y(SiIr)2
_symmetry_space_group_name_H-M   'P 1'
_cell_length_a   5.80986221
_cell_length_b   5.80986161
_cell_length_c   13.34133100
_cell_angle_alpha   90.00000000
_cell_angle_beta   90.00000000
_cell_angle_gamma   138.22679236
_symmetry_Int_Tables_number   1
_chemical_formula_structural   Pr2Y(SiIr)2
_chemical_formula_sum   'Pr4 Y2 Si4 Ir4'
_cell_volume   300.00248198
_cell_formula_units_Z   2
loop_
 _symmetry_equiv_pos_site_id
 _symmetry_equiv_pos_as_xyz
  1  'x, y, z'
loop_
 _atom_site_type_symbol
 _atom_site_label
 _atom_site_symmetry_multiplicity
 _atom_site_fract_x
 _atom_site_fract_y
 _atom_site_fract_z
 _atom_site_occupancy
  Pr  Pr0  1  0.772252  0.227748  0.603728  1
  Pr  Pr1  1  0.227748  0.772252  0.396272  1
  Pr  Pr2  1  0.772252  0.227748  0.896272  1
  Pr  Pr3  1  0.227748  0.772252  0.103728  1
  Y  Y4  1  0.515604  0.484396  0.250000  1
  Y  Y5  1  0.484396  0.515604  0.750000  1
  Si  Si6  1  0.057666  0.942334  0.589986  1
  Si  Si7  1  0.057666  0.942334  0.910014  1
  Si  Si8  1  0.942334  0.057666  0.410014  1
  Si  Si9  1  0.942334  0.057666  0.089986  1
  Ir  Ir10  1  0.820583  0.179417  0.250000  1
  Ir  Ir11  1  0.179417  0.820583  0.750000  1
  Ir  Ir12  1  0.500000  0.500000  0.000000  1
  Ir  Ir13  1  0.500000  0.500000  0.500000  1
