# generated using pymatgen
data_V12Ga5Pt3N4
_symmetry_space_group_name_H-M   'P 1'
_cell_length_a   6.65046891
_cell_length_b   6.65046891
_cell_length_c   6.65046891
_cell_angle_alpha   90.27683565
_cell_angle_beta   90.27683565
_cell_angle_gamma   90.27683565
_symmetry_Int_Tables_number   1
_chemical_formula_structural   V12Ga5Pt3N4
_chemical_formula_sum   'V12 Ga5 Pt3 N4'
_cell_volume   294.13150481
_cell_formula_units_Z   1
loop_
 _symmetry_equiv_pos_site_id
 _symmetry_equiv_pos_as_xyz
  1  'x, y, z'
loop_
 _atom_site_type_symbol
 _atom_site_label
 _atom_site_symmetry_multiplicity
 _atom_site_fract_x
 _atom_site_fract_y
 _atom_site_fract_z
 _atom_site_occupancy
  V  V0  1  0.785527  0.961092  0.382731  1
  V  V1  1  0.713096  0.038797  0.874285  1
  V  V2  1  0.214236  0.459335  0.121183  1
  V  V3  1  0.286314  0.539402  0.621941  1
  V  V4  1  0.961092  0.382731  0.785527  1
  V  V5  1  0.038797  0.874285  0.713096  1
  V  V6  1  0.459335  0.121183  0.214236  1
  V  V7  1  0.539402  0.621941  0.286314  1
  V  V8  1  0.382731  0.785527  0.961092  1
  V  V9  1  0.874285  0.713096  0.038797  1
  V  V10  1  0.121183  0.214236  0.459335  1
  V  V11  1  0.621941  0.286314  0.539402  1
  Ga  Ga12  1  0.678406  0.678406  0.678406  1
  Ga  Ga13  1  0.569730  0.429742  0.929900  1
  Ga  Ga14  1  0.429742  0.929900  0.569730  1
  Ga  Ga15  1  0.929900  0.569730  0.429742  1
  Ga  Ga16  1  0.068798  0.068798  0.068798  1
  Pt  Pt17  1  0.177435  0.821879  0.319237  1
  Pt  Pt18  1  0.319237  0.177435  0.821879  1
  Pt  Pt19  1  0.821879  0.319237  0.177435  1
  N  N20  1  0.877391  0.128282  0.627865  1
  N  N21  1  0.627865  0.877391  0.128282  1
  N  N22  1  0.128282  0.627865  0.877391  1
  N  N23  1  0.373398  0.373398  0.373398  1
