# generated using pymatgen
data_HoEr9In8(IrPd)2
_symmetry_space_group_name_H-M   'P 1'
_cell_length_a   3.59652800
_cell_length_b   8.10307435
_cell_length_c   18.17932976
_cell_angle_alpha   90.09877351
_cell_angle_beta   90.00000000
_cell_angle_gamma   90.00000000
_symmetry_Int_Tables_number   1
_chemical_formula_structural   HoEr9In8(IrPd)2
_chemical_formula_sum   'Ho1 Er9 In8 Ir2 Pd2'
_cell_volume   529.79821610
_cell_formula_units_Z   1
loop_
 _symmetry_equiv_pos_site_id
 _symmetry_equiv_pos_as_xyz
  1  'x, y, z'
loop_
 _atom_site_type_symbol
 _atom_site_label
 _atom_site_symmetry_multiplicity
 _atom_site_fract_x
 _atom_site_fract_y
 _atom_site_fract_z
 _atom_site_occupancy
  Ho  Ho0  1  0.000000  0.000000  0.000000  1
  Er  Er1  1  0.000000  0.500000  0.500000  1
  Er  Er2  1  0.000000  0.728229  0.277457  1
  Er  Er3  1  0.000000  0.271771  0.722543  1
  Er  Er4  1  0.000000  0.747319  0.779931  1
  Er  Er5  1  0.000000  0.252681  0.220069  1
  Er  Er6  1  0.000000  0.613310  0.087001  1
  Er  Er7  1  0.000000  0.386690  0.912999  1
  Er  Er8  1  0.000000  0.884924  0.584414  1
  Er  Er9  1  0.000000  0.115076  0.415586  1
  In  In10  1  0.500000  0.709802  0.932188  1
  In  In11  1  0.500000  0.290198  0.067812  1
  In  In12  1  0.500000  0.790399  0.432102  1
  In  In13  1  0.500000  0.209601  0.567898  1
  In  In14  1  0.500000  0.579238  0.648116  1
  In  In15  1  0.500000  0.420762  0.351884  1
  In  In16  1  0.500000  0.921894  0.149692  1
  In  In17  1  0.500000  0.078106  0.850308  1
  Ir  Ir18  1  0.500000  0.519536  0.195832  1
  Ir  Ir19  1  0.500000  0.480464  0.804168  1
  Pd  Pd20  1  0.500000  0.980271  0.696073  1
  Pd  Pd21  1  0.500000  0.019729  0.303927  1
