# generated using pymatgen
data_LaDy3(PPt)4
_symmetry_space_group_name_H-M   'P 1'
_cell_length_a   4.14752100
_cell_length_b   4.14752164
_cell_length_c   15.91457000
_cell_angle_alpha   90.00000000
_cell_angle_beta   90.00000000
_cell_angle_gamma   120.00000286
_symmetry_Int_Tables_number   1
_chemical_formula_structural   LaDy3(PPt)4
_chemical_formula_sum   'La1 Dy3 P4 Pt4'
_cell_volume   237.08429286
_cell_formula_units_Z   1
loop_
 _symmetry_equiv_pos_site_id
 _symmetry_equiv_pos_as_xyz
  1  'x, y, z'
loop_
 _atom_site_type_symbol
 _atom_site_label
 _atom_site_symmetry_multiplicity
 _atom_site_fract_x
 _atom_site_fract_y
 _atom_site_fract_z
 _atom_site_occupancy
  La  La0  1  0.000000  0.000000  0.500000  1
  Dy  Dy1  1  0.000000  0.000000  0.000000  1
  Dy  Dy2  1  0.000000  0.000000  0.243961  1
  Dy  Dy3  1  0.000000  0.000000  0.756039  1
  P  P4  1  0.333333  0.666667  0.884324  1
  P  P5  1  0.666667  0.333333  0.115676  1
  P  P6  1  0.666667  0.333333  0.370912  1
  P  P7  1  0.333333  0.666667  0.629088  1
  Pt  Pt8  1  0.333333  0.666667  0.360261  1
  Pt  Pt9  1  0.666667  0.333333  0.639739  1
  Pt  Pt10  1  0.666667  0.333333  0.871922  1
  Pt  Pt11  1  0.333333  0.666667  0.128078  1
