# generated using pymatgen
data_Lu12Ir2RhI16
_symmetry_space_group_name_H-M   'P 1'
_cell_length_a   9.46179702
_cell_length_b   12.10948023
_cell_length_c   12.79825938
_cell_angle_alpha   116.99683681
_cell_angle_beta   101.35698815
_cell_angle_gamma   100.93276117
_symmetry_Int_Tables_number   1
_chemical_formula_structural   Lu12Ir2RhI16
_chemical_formula_sum   'Lu12 Ir2 Rh1 I16'
_cell_volume   1213.90532918
_cell_formula_units_Z   1
loop_
 _symmetry_equiv_pos_site_id
 _symmetry_equiv_pos_as_xyz
  1  'x, y, z'
loop_
 _atom_site_type_symbol
 _atom_site_label
 _atom_site_symmetry_multiplicity
 _atom_site_fract_x
 _atom_site_fract_y
 _atom_site_fract_z
 _atom_site_occupancy
  Lu  Lu0  1  0.086037  0.267487  0.356229  1
  Lu  Lu1  1  0.913963  0.732513  0.643771  1
  Lu  Lu2  1  0.781592  0.534257  0.328356  1
  Lu  Lu3  1  0.218408  0.465743  0.671644  1
  Lu  Lu4  1  0.276320  0.733250  0.643321  1
  Lu  Lu5  1  0.723680  0.266750  0.356679  1
  Lu  Lu6  1  0.142833  0.534632  0.328172  1
  Lu  Lu7  1  0.857167  0.465368  0.671828  1
  Lu  Lu8  1  0.405146  0.357449  0.272428  1
  Lu  Lu9  1  0.594854  0.642551  0.727572  1
  Lu  Lu10  1  0.459036  0.311232  0.520444  1
  Lu  Lu11  1  0.540964  0.688768  0.479556  1
  Ir  Ir12  1  0.339852  0.500211  0.499627  1
  Ir  Ir13  1  0.660149  0.499789  0.500373  1
  Rh  Rh14  1  0.000000  0.500000  0.500000  1
  I  I15  1  0.396119  0.747329  0.894454  1
  I  I16  1  0.603881  0.252671  0.105546  1
  I  I17  1  0.192256  0.975533  0.788476  1
  I  I18  1  0.807744  0.024467  0.211524  1
  I  I19  1  0.333837  0.085555  0.246215  1
  I  I20  1  0.666163  0.914445  0.753785  1
  I  I21  1  0.559470  0.435866  0.805622  1
  I  I22  1  0.440530  0.564134  0.194378  1
  I  I23  1  0.306461  0.834864  0.461309  1
  I  I24  1  0.693539  0.165136  0.538691  1
  I  I25  1  0.161414  0.165210  0.535857  1
  I  I26  1  0.838586  0.834790  0.464143  1
  I  I27  1  0.925141  0.578949  0.154077  1
  I  I28  1  0.074859  0.421051  0.845923  1
  I  I29  1  0.932076  0.746065  0.895007  1
  I  I30  1  0.067924  0.253935  0.104993  1
