# generated using pymatgen
data_Lu4B12MoRu
_symmetry_space_group_name_H-M   'P 1'
_cell_length_a   3.58787600
_cell_length_b   9.09399482
_cell_length_c   11.47177243
_cell_angle_alpha   89.77328353
_cell_angle_beta   90.00000000
_cell_angle_gamma   90.00000000
_symmetry_Int_Tables_number   1
_chemical_formula_structural   Lu4B12MoRu
_chemical_formula_sum   'Lu8 B24 Mo2 Ru2'
_cell_volume   374.29950306
_cell_formula_units_Z   2
loop_
 _symmetry_equiv_pos_site_id
 _symmetry_equiv_pos_as_xyz
  1  'x, y, z'
loop_
 _atom_site_type_symbol
 _atom_site_label
 _atom_site_symmetry_multiplicity
 _atom_site_fract_x
 _atom_site_fract_y
 _atom_site_fract_z
 _atom_site_occupancy
  Lu  Lu0  1  0.000000  0.322264  0.414485  1
  Lu  Lu1  1  0.000000  0.677736  0.585515  1
  Lu  Lu2  1  0.000000  0.821632  0.086385  1
  Lu  Lu3  1  0.000000  0.178368  0.913615  1
  Lu  Lu4  1  0.000000  0.944842  0.371262  1
  Lu  Lu5  1  0.000000  0.055158  0.628738  1
  Lu  Lu6  1  0.000000  0.442470  0.128168  1
  Lu  Lu7  1  0.000000  0.557530  0.871832  1
  B  B8  1  0.500000  0.551565  0.434498  1
  B  B9  1  0.500000  0.448435  0.565502  1
  B  B10  1  0.500000  0.053692  0.066114  1
  B  B11  1  0.500000  0.946308  0.933886  1
  B  B12  1  0.500000  0.751700  0.421802  1
  B  B13  1  0.500000  0.248300  0.578198  1
  B  B14  1  0.500000  0.249309  0.080288  1
  B  B15  1  0.500000  0.750691  0.919712  1
  B  B16  1  0.500000  0.796341  0.263279  1
  B  B17  1  0.500000  0.203659  0.736721  1
  B  B18  1  0.500000  0.291248  0.234152  1
  B  B19  1  0.500000  0.708752  0.765848  1
  B  B20  1  0.500000  0.631460  0.181819  1
  B  B21  1  0.500000  0.368540  0.818181  1
  B  B22  1  0.500000  0.130549  0.314268  1
  B  B23  1  0.500000  0.869451  0.685732  1
  B  B24  1  0.500000  0.982442  0.211697  1
  B  B25  1  0.500000  0.017558  0.788303  1
  B  B26  1  0.500000  0.477305  0.286740  1
  B  B27  1  0.500000  0.522695  0.713260  1
  B  B28  1  0.500000  0.602398  0.027587  1
  B  B29  1  0.500000  0.397602  0.972413  1
  B  B30  1  0.500000  0.102362  0.470878  1
  B  B31  1  0.500000  0.897638  0.529122  1
  Mo  Mo32  1  0.000000  0.638946  0.319364  1
  Mo  Mo33  1  0.000000  0.361054  0.680636  1
  Ru  Ru34  1  0.000000  0.138072  0.178217  1
  Ru  Ru35  1  0.000000  0.861928  0.821783  1
