# generated using pymatgen
data_YbTm7(B6Ru)4
_symmetry_space_group_name_H-M   'P 1'
_cell_length_a   3.61702900
_cell_length_b   9.07185493
_cell_length_c   11.44898843
_cell_angle_alpha   89.92535804
_cell_angle_beta   90.00000000
_cell_angle_gamma   90.00000000
_symmetry_Int_Tables_number   1
_chemical_formula_structural   YbTm7(B6Ru)4
_chemical_formula_sum   'Yb1 Tm7 B24 Ru4'
_cell_volume   375.67719722
_cell_formula_units_Z   1
loop_
 _symmetry_equiv_pos_site_id
 _symmetry_equiv_pos_as_xyz
  1  'x, y, z'
loop_
 _atom_site_type_symbol
 _atom_site_label
 _atom_site_symmetry_multiplicity
 _atom_site_fract_x
 _atom_site_fract_y
 _atom_site_fract_z
 _atom_site_occupancy
  Yb  Yb0  1  0.000000  0.323527  0.413613  1
  Tm  Tm1  1  0.000000  0.676163  0.585035  1
  Tm  Tm2  1  0.000000  0.822313  0.086360  1
  Tm  Tm3  1  0.000000  0.178272  0.914643  1
  Tm  Tm4  1  0.000000  0.944081  0.371494  1
  Tm  Tm5  1  0.000000  0.057502  0.627891  1
  Tm  Tm6  1  0.000000  0.443352  0.129003  1
  Tm  Tm7  1  0.000000  0.555916  0.872325  1
  B  B8  1  0.500000  0.554045  0.432948  1
  B  B9  1  0.500000  0.446126  0.567175  1
  B  B10  1  0.500000  0.053178  0.066250  1
  B  B11  1  0.500000  0.946137  0.933097  1
  B  B12  1  0.500000  0.748747  0.419802  1
  B  B13  1  0.500000  0.251531  0.580807  1
  B  B14  1  0.500000  0.248204  0.080023  1
  B  B15  1  0.500000  0.751278  0.920059  1
  B  B16  1  0.500000  0.792225  0.265788  1
  B  B17  1  0.500000  0.208686  0.734515  1
  B  B18  1  0.500000  0.290791  0.233607  1
  B  B19  1  0.500000  0.708333  0.766001  1
  B  B20  1  0.500000  0.632090  0.185204  1
  B  B21  1  0.500000  0.368391  0.815551  1
  B  B22  1  0.500000  0.131127  0.314368  1
  B  B23  1  0.500000  0.868366  0.684763  1
  B  B24  1  0.500000  0.982632  0.212023  1
  B  B25  1  0.500000  0.017278  0.787283  1
  B  B26  1  0.500000  0.483563  0.287363  1
  B  B27  1  0.500000  0.517163  0.712779  1
  B  B28  1  0.500000  0.607437  0.029734  1
  B  B29  1  0.500000  0.392751  0.970657  1
  B  B30  1  0.500000  0.103585  0.471358  1
  B  B31  1  0.500000  0.894632  0.529080  1
  Ru  Ru32  1  0.000000  0.639867  0.320262  1
  Ru  Ru33  1  0.000000  0.361772  0.680458  1
  Ru  Ru34  1  0.000000  0.136941  0.177662  1
  Ru  Ru35  1  0.000000  0.862001  0.821019  1
