# generated using pymatgen
data_CeEr7(InRu)2
_symmetry_space_group_name_H-M   'P 1'
_cell_length_a   9.64203603
_cell_length_b   9.58821884
_cell_length_c   9.58821898
_cell_angle_alpha   59.79806487
_cell_angle_beta   59.81415792
_cell_angle_gamma   59.81415374
_symmetry_Int_Tables_number   1
_chemical_formula_structural   CeEr7(InRu)2
_chemical_formula_sum   'Ce2 Er14 In4 Ru4'
_cell_volume   624.08036782
_cell_formula_units_Z   2
loop_
 _symmetry_equiv_pos_site_id
 _symmetry_equiv_pos_as_xyz
  1  'x, y, z'
loop_
 _atom_site_type_symbol
 _atom_site_label
 _atom_site_symmetry_multiplicity
 _atom_site_fract_x
 _atom_site_fract_y
 _atom_site_fract_z
 _atom_site_occupancy
  Ce  Ce0  1  0.969018  0.342626  0.342626  1
  Ce  Ce1  1  0.345731  0.342626  0.342626  1
  Er  Er2  1  0.560124  0.561470  0.939578  1
  Er  Er3  1  0.938828  0.561470  0.939578  1
  Er  Er4  1  0.560123  0.939877  0.939877  1
  Er  Er5  1  0.938828  0.939578  0.561470  1
  Er  Er6  1  0.560124  0.939578  0.561470  1
  Er  Er7  1  0.938695  0.561305  0.561305  1
  Er  Er8  1  0.191100  0.188668  0.811416  1
  Er  Er9  1  0.808816  0.188668  0.811416  1
  Er  Er10  1  0.190305  0.809695  0.809694  1
  Er  Er11  1  0.808816  0.811417  0.188668  1
  Er  Er12  1  0.191099  0.811416  0.188667  1
  Er  Er13  1  0.810606  0.189394  0.189394  1
  Er  Er14  1  0.350176  0.349118  0.950530  1
  Er  Er15  1  0.350176  0.950530  0.349118  1
  In  In16  1  0.582859  0.581677  0.252602  1
  In  In17  1  0.582859  0.252602  0.581677  1
  In  In18  1  0.253169  0.581927  0.581927  1
  In  In19  1  0.582974  0.581927  0.581927  1
  Ru  Ru20  1  0.138560  0.151050  0.571829  1
  Ru  Ru21  1  0.138560  0.571829  0.151050  1
  Ru  Ru22  1  0.574615  0.145774  0.145774  1
  Ru  Ru23  1  0.133836  0.145774  0.145774  1
