# generated using pymatgen
data_NdLuFe4(CoB2)4
_symmetry_space_group_name_H-M   'P 1'
_cell_length_a   6.95348402
_cell_length_b   6.97779802
_cell_length_c   3.81411300
_cell_angle_alpha   90.00000000
_cell_angle_beta   90.00000000
_cell_angle_gamma   90.06192980
_symmetry_Int_Tables_number   1
_chemical_formula_structural   NdLuFe4(CoB2)4
_chemical_formula_sum   'Nd1 Lu1 Fe4 Co4 B8'
_cell_volume   185.06068131
_cell_formula_units_Z   1
loop_
 _symmetry_equiv_pos_site_id
 _symmetry_equiv_pos_as_xyz
  1  'x, y, z'
loop_
 _atom_site_type_symbol
 _atom_site_label
 _atom_site_symmetry_multiplicity
 _atom_site_fract_x
 _atom_site_fract_y
 _atom_site_fract_z
 _atom_site_occupancy
  Nd  Nd0  1  0.500000  0.500000  0.501386  1
  Lu  Lu1  1  0.000000  0.000000  0.002411  1
  Fe  Fe2  1  0.364658  0.113461  0.606960  1
  Fe  Fe3  1  0.635342  0.886539  0.606960  1
  Fe  Fe4  1  0.617115  0.130830  0.107361  1
  Fe  Fe5  1  0.382885  0.869170  0.107361  1
  Co  Co6  1  0.134568  0.380666  0.890197  1
  Co  Co7  1  0.865432  0.619334  0.890197  1
  Co  Co8  1  0.885186  0.359202  0.389989  1
  Co  Co9  1  0.114814  0.640798  0.389989  1
  B  B10  1  0.668131  0.807020  0.105324  1
  B  B11  1  0.331869  0.192980  0.105324  1
  B  B12  1  0.295273  0.837231  0.608391  1
  B  B13  1  0.704727  0.162769  0.608391  1
  B  B14  1  0.838365  0.707590  0.393769  1
  B  B15  1  0.161635  0.292410  0.393769  1
  B  B16  1  0.194660  0.667116  0.896112  1
  B  B17  1  0.805340  0.332884  0.896112  1
