# generated using pymatgen
data_Ho2Al9FeNi2
_symmetry_space_group_name_H-M   'P 1'
_cell_length_a   7.37978756
_cell_length_b   7.37978634
_cell_length_c   9.25987200
_cell_angle_alpha   90.00000000
_cell_angle_beta   90.00000000
_cell_angle_gamma   119.06832290
_symmetry_Int_Tables_number   1
_chemical_formula_structural   Ho2Al9FeNi2
_chemical_formula_sum   'Ho4 Al18 Fe2 Ni4'
_cell_volume   440.78257924
_cell_formula_units_Z   2
loop_
 _symmetry_equiv_pos_site_id
 _symmetry_equiv_pos_as_xyz
  1  'x, y, z'
loop_
 _atom_site_type_symbol
 _atom_site_label
 _atom_site_symmetry_multiplicity
 _atom_site_fract_x
 _atom_site_fract_y
 _atom_site_fract_z
 _atom_site_occupancy
  Ho  Ho0  1  0.992606  0.671533  0.250000  1
  Ho  Ho1  1  0.007394  0.328467  0.750000  1
  Ho  Ho2  1  0.671533  0.992606  0.250000  1
  Ho  Ho3  1  0.328467  0.007394  0.750000  1
  Al  Al4  1  0.123221  0.123221  0.250000  1
  Al  Al5  1  0.876779  0.876779  0.750000  1
  Al  Al6  1  0.329049  0.329049  0.545069  1
  Al  Al7  1  0.670951  0.670951  0.045069  1
  Al  Al8  1  0.329049  0.329049  0.954931  1
  Al  Al9  1  0.670951  0.670951  0.454931  1
  Al  Al10  1  0.340817  0.552840  0.250000  1
  Al  Al11  1  0.659183  0.447160  0.750000  1
  Al  Al12  1  0.552840  0.340817  0.250000  1
  Al  Al13  1  0.447160  0.659183  0.750000  1
  Al  Al14  1  0.997040  0.331368  0.072149  1
  Al  Al15  1  0.002960  0.668632  0.572149  1
  Al  Al16  1  0.331368  0.997040  0.427851  1
  Al  Al17  1  0.668632  0.002960  0.927851  1
  Al  Al18  1  0.002960  0.668632  0.927851  1
  Al  Al19  1  0.997040  0.331368  0.427851  1
  Al  Al20  1  0.668632  0.002960  0.572149  1
  Al  Al21  1  0.331368  0.997040  0.072149  1
  Fe  Fe22  1  0.000000  0.000000  0.000000  1
  Fe  Fe23  1  0.000000  0.000000  0.500000  1
  Ni  Ni24  1  0.670944  0.329056  0.000000  1
  Ni  Ni25  1  0.329056  0.670944  0.500000  1
  Ni  Ni26  1  0.329056  0.670944  0.000000  1
  Ni  Ni27  1  0.670944  0.329056  0.500000  1
