# generated using pymatgen
data_Tb16Y4Si15Pd
_symmetry_space_group_name_H-M   'P 1'
_cell_length_a   7.49524673
_cell_length_b   7.72553843
_cell_length_c   14.73929900
_cell_angle_alpha   90.21006294
_cell_angle_beta   90.63735515
_cell_angle_gamma   90.15601637
_symmetry_Int_Tables_number   1
_chemical_formula_structural   Tb16Y4Si15Pd
_chemical_formula_sum   'Tb16 Y4 Si15 Pd1'
_cell_volume   853.41460634
_cell_formula_units_Z   1
loop_
 _symmetry_equiv_pos_site_id
 _symmetry_equiv_pos_as_xyz
  1  'x, y, z'
loop_
 _atom_site_type_symbol
 _atom_site_label
 _atom_site_symmetry_multiplicity
 _atom_site_fract_x
 _atom_site_fract_y
 _atom_site_fract_z
 _atom_site_occupancy
  Tb  Tb0  1  0.680974  0.169494  0.620597  1
  Tb  Tb1  1  0.183400  0.321887  0.877383  1
  Tb  Tb2  1  0.317960  0.819857  0.121024  1
  Tb  Tb3  1  0.821663  0.683026  0.379824  1
  Tb  Tb4  1  0.322462  0.825646  0.378519  1
  Tb  Tb5  1  0.817259  0.680168  0.121965  1
  Tb  Tb6  1  0.681533  0.179393  0.877961  1
  Tb  Tb7  1  0.177571  0.320517  0.623006  1
  Tb  Tb8  1  0.524549  0.679609  0.600349  1
  Tb  Tb9  1  0.029378  0.816349  0.901064  1
  Tb  Tb10  1  0.469538  0.317076  0.099219  1
  Tb  Tb11  1  0.974434  0.181358  0.398995  1
  Tb  Tb12  1  0.472570  0.319297  0.400478  1
  Tb  Tb13  1  0.969138  0.183224  0.098844  1
  Tb  Tb14  1  0.531884  0.683407  0.899630  1
  Tb  Tb15  1  0.026069  0.816804  0.600291  1
  Y  Y16  1  0.850818  0.507279  0.749413  1
  Y  Y17  1  0.350539  0.989387  0.748223  1
  Y  Y18  1  0.149925  0.489842  0.250722  1
  Y  Y19  1  0.651977  0.011533  0.253108  1
  Si  Si20  1  0.143287  0.527485  0.040487  1
  Si  Si21  1  0.354583  0.029037  0.959698  1
  Si  Si22  1  0.850698  0.471048  0.540980  1
  Si  Si23  1  0.344685  0.027987  0.542188  1
  Si  Si24  1  0.856340  0.471851  0.959032  1
  Si  Si25  1  0.643248  0.971441  0.039295  1
  Si  Si26  1  0.148187  0.530656  0.460919  1
  Si  Si27  1  0.478073  0.393674  0.750088  1
  Si  Si28  1  0.976249  0.103115  0.752148  1
  Si  Si29  1  0.523912  0.606940  0.248488  1
  Si  Si30  1  0.026392  0.895620  0.247351  1
  Si  Si31  1  0.734850  0.871105  0.751824  1
  Si  Si32  1  0.233688  0.626695  0.751228  1
  Si  Si33  1  0.267107  0.126829  0.246957  1
  Si  Si34  1  0.766320  0.375808  0.248558  1
  Pd  Pd35  1  0.648740  0.975552  0.460140  1
