# generated using pymatgen
data_Sc12Mn(SnI8)2
_symmetry_space_group_name_H-M   'P 1'
_cell_length_a   9.54070902
_cell_length_b   12.05627676
_cell_length_c   12.74356235
_cell_angle_alpha   116.81268626
_cell_angle_beta   101.59269086
_cell_angle_gamma   101.05025188
_symmetry_Int_Tables_number   1
_chemical_formula_structural   Sc12Mn(SnI8)2
_chemical_formula_sum   'Sc12 Mn1 Sn2 I16'
_cell_volume   1212.89567648
_cell_formula_units_Z   1
loop_
 _symmetry_equiv_pos_site_id
 _symmetry_equiv_pos_as_xyz
  1  'x, y, z'
loop_
 _atom_site_type_symbol
 _atom_site_label
 _atom_site_symmetry_multiplicity
 _atom_site_fract_x
 _atom_site_fract_y
 _atom_site_fract_z
 _atom_site_occupancy
  Sc  Sc0  1  0.078919  0.262547  0.354820  1
  Sc  Sc1  1  0.891019  0.731134  0.641581  1
  Sc  Sc2  1  0.759931  0.536490  0.329018  1
  Sc  Sc3  1  0.214944  0.462350  0.675904  1
  Sc  Sc4  1  0.272226  0.737820  0.645254  1
  Sc  Sc5  1  0.702866  0.268495  0.358518  1
  Sc  Sc6  1  0.137217  0.537544  0.324428  1
  Sc  Sc7  1  0.834092  0.463479  0.670991  1
  Sc  Sc8  1  0.423599  0.361404  0.277556  1
  Sc  Sc9  1  0.609727  0.638651  0.722252  1
  Sc  Sc10  1  0.475671  0.309649  0.520585  1
  Sc  Sc11  1  0.557271  0.690273  0.478879  1
  Mn  Mn12  1  0.660887  0.499938  0.500265  1
  Sn  Sn13  1  0.985890  0.499912  0.500285  1
  Sn  Sn14  1  0.353838  0.500173  0.499850  1
  I  I15  1  0.398901  0.732755  0.872355  1
  I  I16  1  0.603183  0.259409  0.113939  1
  I  I17  1  0.178662  0.956446  0.778127  1
  I  I18  1  0.808706  0.043637  0.222211  1
  I  I19  1  0.347119  0.095843  0.252416  1
  I  I20  1  0.672647  0.903750  0.747093  1
  I  I21  1  0.569218  0.436510  0.798092  1
  I  I22  1  0.447453  0.563744  0.201347  1
  I  I23  1  0.311924  0.818973  0.464002  1
  I  I24  1  0.692731  0.169810  0.537812  1
  I  I25  1  0.175810  0.180356  0.534309  1
  I  I26  1  0.834592  0.830469  0.463957  1
  I  I27  1  0.921217  0.574240  0.164787  1
  I  I28  1  0.066631  0.425942  0.835394  1
  I  I29  1  0.925737  0.740064  0.886273  1
  I  I30  1  0.087375  0.268192  0.127699  1
