# generated using pymatgen
data_DyErGa6(NiAg)2
_symmetry_space_group_name_H-M   'P 1'
_cell_length_a   4.07375487
_cell_length_b   6.53307800
_cell_length_c   8.04630850
_cell_angle_alpha   90.00000000
_cell_angle_beta   104.66365226
_cell_angle_gamma   90.00000000
_symmetry_Int_Tables_number   1
_chemical_formula_structural   DyErGa6(NiAg)2
_chemical_formula_sum   'Dy1 Er1 Ga6 Ni2 Ag2'
_cell_volume   207.17068884
_cell_formula_units_Z   1
loop_
 _symmetry_equiv_pos_site_id
 _symmetry_equiv_pos_as_xyz
  1  'x, y, z'
loop_
 _atom_site_type_symbol
 _atom_site_label
 _atom_site_symmetry_multiplicity
 _atom_site_fract_x
 _atom_site_fract_y
 _atom_site_fract_z
 _atom_site_occupancy
  Dy  Dy0  1  0.626576  0.250000  0.253152  1
  Er  Er1  1  0.373342  0.750000  0.746684  1
  Ga  Ga2  1  0.568607  0.750000  0.137215  1
  Ga  Ga3  1  0.431197  0.250000  0.862394  1
  Ga  Ga4  1  0.185151  0.549911  0.370301  1
  Ga  Ga5  1  0.815174  0.450711  0.630348  1
  Ga  Ga6  1  0.185151  0.950089  0.370301  1
  Ga  Ga7  1  0.815174  0.049289  0.630348  1
  Ni  Ni8  1  0.723147  0.750000  0.446296  1
  Ni  Ni9  1  0.277145  0.250000  0.554288  1
  Ag  Ag10  1  0.999669  0.500582  0.999338  1
  Ag  Ag11  1  0.999669  0.999418  0.999338  1
