# generated using pymatgen
data_Sc12Fe3Sb2
_symmetry_space_group_name_H-M   'P 1'
_cell_length_a   7.79186827
_cell_length_b   7.79186819
_cell_length_c   7.79186775
_cell_angle_alpha   108.30168049
_cell_angle_beta   108.30167547
_cell_angle_gamma   111.83650694
_symmetry_Int_Tables_number   1
_chemical_formula_structural   Sc12Fe3Sb2
_chemical_formula_sum   'Sc12 Fe3 Sb2'
_cell_volume   363.70136606
_cell_formula_units_Z   1
loop_
 _symmetry_equiv_pos_site_id
 _symmetry_equiv_pos_as_xyz
  1  'x, y, z'
loop_
 _atom_site_type_symbol
 _atom_site_label
 _atom_site_symmetry_multiplicity
 _atom_site_fract_x
 _atom_site_fract_y
 _atom_site_fract_z
 _atom_site_occupancy
  Sc  Sc0  1  0.306161  0.306161  0.612322  1
  Sc  Sc1  1  0.693839  0.693839  0.387678  1
  Sc  Sc2  1  0.693839  0.306161  0.000000  1
  Sc  Sc3  1  0.306161  0.693839  0.000000  1
  Sc  Sc4  1  0.194913  0.427882  0.232969  1
  Sc  Sc5  1  0.805087  0.572118  0.767031  1
  Sc  Sc6  1  0.194913  0.961943  0.767031  1
  Sc  Sc7  1  0.961943  0.194913  0.767031  1
  Sc  Sc8  1  0.805087  0.038057  0.232969  1
  Sc  Sc9  1  0.038057  0.805087  0.232969  1
  Sc  Sc10  1  0.427882  0.194913  0.232969  1
  Sc  Sc11  1  0.572118  0.805087  0.767031  1
  Fe  Fe12  1  0.375077  0.375077  0.000000  1
  Fe  Fe13  1  0.624923  0.624923  0.000000  1
  Fe  Fe14  1  0.000000  0.000000  0.000000  1
  Sb  Sb15  1  0.000000  0.500000  0.500000  1
  Sb  Sb16  1  0.500000  0.000000  0.500000  1
