# generated using pymatgen
data_CsAc(SO4)2
_symmetry_space_group_name_H-M   'P 1'
_cell_length_a   5.49885311
_cell_length_b   5.50096783
_cell_length_c   9.29813818
_cell_angle_alpha   89.99641632
_cell_angle_beta   89.97957652
_cell_angle_gamma   119.98247280
_symmetry_Int_Tables_number   1
_chemical_formula_structural   CsAc(SO4)2
_chemical_formula_sum   'Cs1 Ac1 S2 O8'
_cell_volume   243.62086634
_cell_formula_units_Z   1
loop_
 _symmetry_equiv_pos_site_id
 _symmetry_equiv_pos_as_xyz
  1  'x, y, z'
loop_
 _atom_site_type_symbol
 _atom_site_label
 _atom_site_symmetry_multiplicity
 _atom_site_fract_x
 _atom_site_fract_y
 _atom_site_fract_z
 _atom_site_occupancy
  Cs  Cs0  1  0.000000  0.000000  0.000000  1
  Ac  Ac1  1  0.000000  0.000000  0.500001  1
  S  S2  1  0.333309  0.666654  0.274351  1
  S  S3  1  0.666691  0.333345  0.725649  1
  O  O4  1  0.333482  0.666728  0.117222  1
  O  O5  1  0.100889  0.707125  0.332456  1
  O  O6  1  0.292889  0.393883  0.332475  1
  O  O7  1  0.606137  0.898939  0.332472  1
  O  O8  1  0.393864  0.101063  0.667528  1
  O  O9  1  0.707112  0.606116  0.667525  1
  O  O10  1  0.899113  0.292877  0.667545  1
  O  O11  1  0.666520  0.333274  0.882778  1
