# generated using pymatgen
data_Zn10CoCuPd
_symmetry_space_group_name_H-M   'P 1'
_cell_length_a   7.80777009
_cell_length_b   7.80935360
_cell_length_c   7.78408432
_cell_angle_alpha   109.39179896
_cell_angle_beta   109.55070626
_cell_angle_gamma   109.30857186
_symmetry_Int_Tables_number   1
_chemical_formula_structural   Zn10CoCuPd
_chemical_formula_sum   'Zn20 Co2 Cu2 Pd2'
_cell_volume   366.09568517
_cell_formula_units_Z   2
loop_
 _symmetry_equiv_pos_site_id
 _symmetry_equiv_pos_as_xyz
  1  'x, y, z'
loop_
 _atom_site_type_symbol
 _atom_site_label
 _atom_site_symmetry_multiplicity
 _atom_site_fract_x
 _atom_site_fract_y
 _atom_site_fract_z
 _atom_site_occupancy
  Zn  Zn0  1  0.351142  0.995527  0.357417  1
  Zn  Zn1  1  0.995231  0.354284  0.359457  1
  Zn  Zn2  1  0.640045  0.996712  0.644282  1
  Zn  Zn3  1  0.641234  0.640642  0.001821  1
  Zn  Zn4  1  0.207371  0.207522  0.209971  1
  Zn  Zn5  1  0.997775  0.993029  0.794690  1
  Zn  Zn6  1  0.993496  0.777379  0.995808  1
  Zn  Zn7  1  0.774275  0.992857  0.000093  1
  Zn  Zn8  1  0.368840  0.722271  0.712014  1
  Zn  Zn9  1  0.660439  0.005111  0.284844  1
  Zn  Zn10  1  0.643868  0.279024  0.995933  1
  Zn  Zn11  1  0.008615  0.659972  0.284898  1
  Zn  Zn12  1  0.732877  0.382850  0.715168  1
  Zn  Zn13  1  0.270354  0.642629  0.990012  1
  Zn  Zn14  1  0.015149  0.259114  0.651274  1
  Zn  Zn15  1  0.254325  0.008667  0.650832  1
  Zn  Zn16  1  0.750172  0.744494  0.395694  1
  Zn  Zn17  1  0.615767  0.368846  0.351748  1
  Zn  Zn18  1  0.365522  0.609791  0.345623  1
  Zn  Zn19  1  0.355552  0.352345  0.612819  1
  Co  Co20  1  0.000648  0.000356  0.336974  1
  Co  Co21  1  0.657462  0.662244  0.662143  1
  Cu  Cu22  1  0.354428  0.356124  0.998593  1
  Cu  Cu23  1  0.995194  0.639171  0.641045  1
  Pd  Pd24  1  0.355528  0.000295  0.006323  1
  Pd  Pd25  1  0.994694  0.348746  0.000524  1
