# generated using pymatgen
data_Nd6Ho10Cd3AgIr4
_symmetry_space_group_name_H-M   'P 1'
_cell_length_a   9.72362808
_cell_length_b   9.72362952
_cell_length_c   9.72362906
_cell_angle_alpha   59.95533127
_cell_angle_beta   59.95532903
_cell_angle_gamma   59.95532998
_symmetry_Int_Tables_number   1
_chemical_formula_structural   Nd6Ho10Cd3AgIr4
_chemical_formula_sum   'Nd6 Ho10 Cd3 Ag1 Ir4'
_cell_volume   649.42639672
_cell_formula_units_Z   1
loop_
 _symmetry_equiv_pos_site_id
 _symmetry_equiv_pos_as_xyz
  1  'x, y, z'
loop_
 _atom_site_type_symbol
 _atom_site_label
 _atom_site_symmetry_multiplicity
 _atom_site_fract_x
 _atom_site_fract_y
 _atom_site_fract_z
 _atom_site_occupancy
  Nd  Nd0  1  0.937344  0.559521  0.559521  1
  Nd  Nd1  1  0.559114  0.939440  0.939440  1
  Nd  Nd2  1  0.559521  0.937344  0.559521  1
  Nd  Nd3  1  0.939440  0.559114  0.939440  1
  Nd  Nd4  1  0.559521  0.559521  0.937344  1
  Nd  Nd5  1  0.939440  0.939440  0.559114  1
  Ho  Ho6  1  0.347188  0.347188  0.347188  1
  Ho  Ho7  1  0.348673  0.348673  0.956495  1
  Ho  Ho8  1  0.348673  0.956495  0.348673  1
  Ho  Ho9  1  0.956495  0.348673  0.348673  1
  Ho  Ho10  1  0.811968  0.187448  0.187448  1
  Ho  Ho11  1  0.186253  0.812484  0.812484  1
  Ho  Ho12  1  0.187448  0.811968  0.187448  1
  Ho  Ho13  1  0.812484  0.186253  0.812484  1
  Ho  Ho14  1  0.187448  0.187448  0.811968  1
  Ho  Ho15  1  0.812484  0.812484  0.186253  1
  Cd  Cd16  1  0.579985  0.579985  0.262945  1
  Cd  Cd17  1  0.579985  0.262945  0.579985  1
  Cd  Cd18  1  0.262945  0.579985  0.579985  1
  Ag  Ag19  1  0.581292  0.581292  0.581292  1
  Ir  Ir20  1  0.141430  0.141430  0.141430  1
  Ir  Ir21  1  0.142165  0.142165  0.576539  1
  Ir  Ir22  1  0.142165  0.576539  0.142165  1
  Ir  Ir23  1  0.576539  0.142165  0.142165  1
