# generated using pymatgen
data_NaEr2Ga8Ag3
_symmetry_space_group_name_H-M   'P 1'
_cell_length_a   4.35186130
_cell_length_b   8.36776749
_cell_length_c   8.36776825
_cell_angle_alpha   71.00314817
_cell_angle_beta   74.92772285
_cell_angle_gamma   74.92772263
_symmetry_Int_Tables_number   1
_chemical_formula_structural   NaEr2Ga8Ag3
_chemical_formula_sum   'Na1 Er2 Ga8 Ag3'
_cell_volume   273.02608606
_cell_formula_units_Z   1
loop_
 _symmetry_equiv_pos_site_id
 _symmetry_equiv_pos_as_xyz
  1  'x, y, z'
loop_
 _atom_site_type_symbol
 _atom_site_label
 _atom_site_symmetry_multiplicity
 _atom_site_fract_x
 _atom_site_fract_y
 _atom_site_fract_z
 _atom_site_occupancy
  Na  Na0  1  0.500000  0.500000  0.500000  1
  Er  Er1  1  0.205071  0.794929  0.794929  1
  Er  Er2  1  0.794929  0.205071  0.205071  1
  Ga  Ga3  1  0.357026  0.362061  0.923886  1
  Ga  Ga4  1  0.642974  0.637939  0.076114  1
  Ga  Ga5  1  0.357026  0.923886  0.362061  1
  Ga  Ga6  1  0.642974  0.076114  0.637939  1
  Ga  Ga7  1  0.159645  0.473552  0.207160  1
  Ga  Ga8  1  0.840355  0.526448  0.792840  1
  Ga  Ga9  1  0.159645  0.207160  0.473552  1
  Ga  Ga10  1  0.840355  0.792840  0.526448  1
  Ag  Ag11  1  0.500000  0.000000  0.000000  1
  Ag  Ag12  1  0.000000  0.812083  0.187917  1
  Ag  Ag13  1  0.000000  0.187917  0.812083  1
