# generated using pymatgen
data_Ho5Er3(IrO6)4
_symmetry_space_group_name_H-M   'P 1'
_cell_length_a   5.25941303
_cell_length_b   9.13120601
_cell_length_c   9.83857106
_cell_angle_alpha   90.00274254
_cell_angle_beta   89.98756000
_cell_angle_gamma   89.99686274
_symmetry_Int_Tables_number   1
_chemical_formula_structural   Ho5Er3(IrO6)4
_chemical_formula_sum   'Ho5 Er3 Ir4 O24'
_cell_volume   472.49523644
_cell_formula_units_Z   1
loop_
 _symmetry_equiv_pos_site_id
 _symmetry_equiv_pos_as_xyz
  1  'x, y, z'
loop_
 _atom_site_type_symbol
 _atom_site_label
 _atom_site_symmetry_multiplicity
 _atom_site_fract_x
 _atom_site_fract_y
 _atom_site_fract_z
 _atom_site_occupancy
  Ho  Ho0  1  0.017569  0.398907  0.033338  1
  Ho  Ho1  1  0.042511  0.281165  0.628833  1
  Ho  Ho2  1  0.457288  0.718822  0.128978  1
  Ho  Ho3  1  0.482268  0.601438  0.533205  1
  Ho  Ho4  1  0.517834  0.101041  0.966838  1
  Er  Er5  1  0.542436  0.218473  0.371068  1
  Er  Er6  1  0.957556  0.781379  0.870933  1
  Er  Er7  1  0.982392  0.899314  0.466794  1
  Ir  Ir8  1  0.041988  0.003983  0.149093  1
  Ir  Ir9  1  0.458035  0.995719  0.648533  1
  Ir  Ir10  1  0.542230  0.496412  0.851291  1
  Ir  Ir11  1  0.957644  0.503796  0.351428  1
  O  O12  1  0.082632  0.657022  0.472972  1
  O  O13  1  0.164813  0.554702  0.199711  1
  O  O14  1  0.187679  0.856294  0.265987  1
  O  O15  1  0.168772  0.865618  0.682425  1
  O  O16  1  0.237590  0.384747  0.429546  1
  O  O17  1  0.252622  0.089117  0.501262  1
  O  O18  1  0.246819  0.910196  0.001725  1
  O  O19  1  0.262339  0.615454  0.929424  1
  O  O20  1  0.330851  0.134283  0.183358  1
  O  O21  1  0.311897  0.143623  0.765191  1
  O  O22  1  0.335154  0.445376  0.699685  1
  O  O23  1  0.417069  0.343808  0.973274  1
  O  O24  1  0.584930  0.843585  0.526713  1
  O  O25  1  0.665587  0.944787  0.800239  1
  O  O26  1  0.689301  0.644221  0.734981  1
  O  O27  1  0.669406  0.634118  0.317196  1
  O  O28  1  0.736740  0.114833  0.569713  1
  O  O29  1  0.751818  0.409942  0.498059  1
  O  O30  1  0.748035  0.590238  0.997987  1
  O  O31  1  0.763361  0.885022  0.069892  1
  O  O32  1  0.830361  0.365739  0.817266  1
  O  O33  1  0.810787  0.355752  0.235136  1
  O  O34  1  0.834495  0.054647  0.300908  1
  O  O35  1  0.917192  0.156429  0.027018  1
