# generated using pymatgen
data_Ce4ZnIn2RuRh2
_symmetry_space_group_name_H-M   'P 1'
_cell_length_a   7.71574924
_cell_length_b   7.73523767
_cell_length_c   3.76339300
_cell_angle_alpha   90.00000000
_cell_angle_beta   90.00000000
_cell_angle_gamma   89.05585147
_symmetry_Int_Tables_number   1
_chemical_formula_structural   Ce4ZnIn2RuRh2
_chemical_formula_sum   'Ce4 Zn1 In2 Ru1 Rh2'
_cell_volume   224.58066968
_cell_formula_units_Z   1
loop_
 _symmetry_equiv_pos_site_id
 _symmetry_equiv_pos_as_xyz
  1  'x, y, z'
loop_
 _atom_site_type_symbol
 _atom_site_label
 _atom_site_symmetry_multiplicity
 _atom_site_fract_x
 _atom_site_fract_y
 _atom_site_fract_z
 _atom_site_occupancy
  Ce  Ce0  1  0.675807  0.173611  0.500000  1
  Ce  Ce1  1  0.349024  0.844988  0.500000  1
  Ce  Ce2  1  0.163119  0.310057  0.500000  1
  Ce  Ce3  1  0.804047  0.672929  0.500000  1
  Zn  Zn4  1  0.124115  0.628152  0.000000  1
  In  In5  1  0.998455  0.993142  0.000000  1
  In  In6  1  0.491115  0.498069  0.000000  1
  Ru  Ru7  1  0.642371  0.857387  0.000000  1
  Rh  Rh8  1  0.884717  0.381446  0.000000  1
  Rh  Rh9  1  0.367229  0.140220  0.000000  1
