# generated using pymatgen
data_Li2CeDy3(ZnPt2)2
_symmetry_space_group_name_H-M   'P 1'
_cell_length_a   4.06872000
_cell_length_b   7.00917831
_cell_length_c   8.38461399
_cell_angle_alpha   90.35637108
_cell_angle_beta   90.00000000
_cell_angle_gamma   90.00000000
_symmetry_Int_Tables_number   1
_chemical_formula_structural   Li2CeDy3(ZnPt2)2
_chemical_formula_sum   'Li2 Ce1 Dy3 Zn2 Pt4'
_cell_volume   239.11101594
_cell_formula_units_Z   1
loop_
 _symmetry_equiv_pos_site_id
 _symmetry_equiv_pos_as_xyz
  1  'x, y, z'
loop_
 _atom_site_type_symbol
 _atom_site_label
 _atom_site_symmetry_multiplicity
 _atom_site_fract_x
 _atom_site_fract_y
 _atom_site_fract_z
 _atom_site_occupancy
  Li  Li0  1  0.250000  0.626176  0.559427  1
  Li  Li1  1  0.250000  0.127737  0.940419  1
  Ce  Ce2  1  0.250000  0.547097  0.183588  1
  Dy  Dy3  1  0.750000  0.453687  0.809839  1
  Dy  Dy4  1  0.250000  0.047947  0.319339  1
  Dy  Dy5  1  0.750000  0.952588  0.686156  1
  Zn  Zn6  1  0.750000  0.367539  0.441766  1
  Zn  Zn7  1  0.750000  0.875731  0.060170  1
  Pt  Pt8  1  0.250000  0.748595  0.878207  1
  Pt  Pt9  1  0.250000  0.244083  0.621711  1
  Pt  Pt10  1  0.750000  0.753701  0.377091  1
  Pt  Pt11  1  0.750000  0.255120  0.122286  1
