# generated using pymatgen
data_Lu12Fe(TcPb)2
_symmetry_space_group_name_H-M   'P 1'
_cell_length_a   8.29396658
_cell_length_b   8.29396776
_cell_length_c   8.29396747
_cell_angle_alpha   108.68385859
_cell_angle_beta   108.68385764
_cell_angle_gamma   111.05768170
_symmetry_Int_Tables_number   1
_chemical_formula_structural   Lu12Fe(TcPb)2
_chemical_formula_sum   'Lu12 Fe1 Tc2 Pb2'
_cell_volume   438.94946401
_cell_formula_units_Z   1
loop_
 _symmetry_equiv_pos_site_id
 _symmetry_equiv_pos_as_xyz
  1  'x, y, z'
loop_
 _atom_site_type_symbol
 _atom_site_label
 _atom_site_symmetry_multiplicity
 _atom_site_fract_x
 _atom_site_fract_y
 _atom_site_fract_z
 _atom_site_occupancy
  Lu  Lu0  1  0.306644  0.306644  0.614625  1
  Lu  Lu1  1  0.692018  0.692018  0.385375  1
  Lu  Lu2  1  0.692018  0.306644  0.000000  1
  Lu  Lu3  1  0.306644  0.692018  0.000000  1
  Lu  Lu4  1  0.190889  0.428011  0.237122  1
  Lu  Lu5  1  0.806970  0.573267  0.766297  1
  Lu  Lu6  1  0.190889  0.953767  0.762878  1
  Lu  Lu7  1  0.953767  0.190889  0.762878  1
  Lu  Lu8  1  0.806970  0.040674  0.233703  1
  Lu  Lu9  1  0.040674  0.806970  0.233703  1
  Lu  Lu10  1  0.428011  0.190889  0.237122  1
  Lu  Lu11  1  0.573267  0.806970  0.766297  1
  Fe  Fe12  1  0.630608  0.630608  0.000000  1
  Tc  Tc13  1  0.386760  0.386760  0.000000  1
  Tc  Tc14  1  0.001328  0.001328  0.000000  1
  Pb  Pb15  1  0.996271  0.496271  0.500000  1
  Pb  Pb16  1  0.496271  0.996271  0.500000  1
