# generated using pymatgen
data_Hf6ZrSc(Si4Mo3)4
_symmetry_space_group_name_H-M   'P 1'
_cell_length_a   6.58318664
_cell_length_b   6.77659278
_cell_length_c   12.65041569
_cell_angle_alpha   90.04145273
_cell_angle_beta   89.96546925
_cell_angle_gamma   90.03851230
_symmetry_Int_Tables_number   1
_chemical_formula_structural   Hf6ZrSc(Si4Mo3)4
_chemical_formula_sum   'Hf6 Zr1 Sc1 Si16 Mo12'
_cell_volume   564.35459149
_cell_formula_units_Z   1
loop_
 _symmetry_equiv_pos_site_id
 _symmetry_equiv_pos_as_xyz
  1  'x, y, z'
loop_
 _atom_site_type_symbol
 _atom_site_label
 _atom_site_symmetry_multiplicity
 _atom_site_fract_x
 _atom_site_fract_y
 _atom_site_fract_z
 _atom_site_occupancy
  Hf  Hf0  1  0.505884  0.671731  0.907335  1
  Hf  Hf1  1  0.005746  0.828412  0.592988  1
  Hf  Hf2  1  0.495515  0.328827  0.092626  1
  Hf  Hf3  1  0.995064  0.171945  0.407517  1
  Hf  Hf4  1  0.494236  0.328176  0.407754  1
  Hf  Hf5  1  0.505932  0.671769  0.592624  1
  Zr  Zr6  1  0.005450  0.826830  0.906909  1
  Sc  Sc7  1  0.994976  0.170814  0.091676  1
  Si  Si8  1  0.032178  0.122970  0.750467  1
  Si  Si9  1  0.967648  0.877758  0.249471  1
  Si  Si10  1  0.467228  0.622492  0.250200  1
  Si  Si11  1  0.531999  0.378350  0.749743  1
  Si  Si12  1  0.301138  0.862159  0.749589  1
  Si  Si13  1  0.700119  0.139188  0.249385  1
  Si  Si14  1  0.197897  0.360742  0.249343  1
  Si  Si15  1  0.800004  0.637758  0.749680  1
  Si  Si16  1  0.167361  0.459549  0.543220  1
  Si  Si17  1  0.832731  0.540578  0.457314  1
  Si  Si18  1  0.332519  0.959317  0.457367  1
  Si  Si19  1  0.833331  0.538928  0.043722  1
  Si  Si20  1  0.667532  0.040406  0.542996  1
  Si  Si21  1  0.167295  0.458455  0.956870  1
  Si  Si22  1  0.666467  0.040485  0.957086  1
  Si  Si23  1  0.332362  0.960940  0.043374  1
  Mo  Mo24  1  0.168442  0.514362  0.749814  1
  Mo  Mo25  1  0.831960  0.488417  0.251038  1
  Mo  Mo26  1  0.332810  0.013219  0.250820  1
  Mo  Mo27  1  0.667676  0.986150  0.749182  1
  Mo  Mo28  1  0.330898  0.164660  0.623098  1
  Mo  Mo29  1  0.668640  0.835569  0.376954  1
  Mo  Mo30  1  0.168958  0.664034  0.376933  1
  Mo  Mo31  1  0.666856  0.834150  0.123574  1
  Mo  Mo32  1  0.830626  0.335295  0.623074  1
  Mo  Mo33  1  0.333163  0.165331  0.876226  1
  Mo  Mo34  1  0.829808  0.336166  0.876157  1
  Mo  Mo35  1  0.169550  0.664071  0.123875  1
