# generated using pymatgen
data_Tm9Lu(Bi3C)2
_symmetry_space_group_name_H-M   'P 1'
_cell_length_a   9.04226589
_cell_length_b   9.04226503
_cell_length_c   6.40577600
_cell_angle_alpha   90.00000000
_cell_angle_beta   90.00000000
_cell_angle_gamma   120.05098236
_symmetry_Int_Tables_number   1
_chemical_formula_structural   Tm9Lu(Bi3C)2
_chemical_formula_sum   'Tm9 Lu1 Bi6 C2'
_cell_volume   453.34992181
_cell_formula_units_Z   1
loop_
 _symmetry_equiv_pos_site_id
 _symmetry_equiv_pos_as_xyz
  1  'x, y, z'
loop_
 _atom_site_type_symbol
 _atom_site_label
 _atom_site_symmetry_multiplicity
 _atom_site_fract_x
 _atom_site_fract_y
 _atom_site_fract_z
 _atom_site_occupancy
  Tm  Tm0  1  0.666676  0.333345  0.000024  1
  Tm  Tm1  1  0.333345  0.666676  0.000024  1
  Tm  Tm2  1  0.333345  0.666676  0.499976  1
  Tm  Tm3  1  0.666676  0.333345  0.499976  1
  Tm  Tm4  1  0.205769  0.999824  0.750000  1
  Tm  Tm5  1  0.999824  0.205769  0.750000  1
  Tm  Tm6  1  0.205907  0.205907  0.250000  1
  Tm  Tm7  1  0.793803  0.999797  0.250000  1
  Tm  Tm8  1  0.999797  0.793803  0.250000  1
  Lu  Lu9  1  0.796033  0.796033  0.750000  1
  Bi  Bi10  1  0.401841  0.401841  0.750000  1
  Bi  Bi11  1  0.598539  0.999677  0.750000  1
  Bi  Bi12  1  0.999677  0.598539  0.750000  1
  Bi  Bi13  1  0.598456  0.598456  0.250000  1
  Bi  Bi14  1  0.401565  0.000033  0.250000  1
  Bi  Bi15  1  0.000033  0.401565  0.250000  1
  C  C16  1  0.999357  0.999357  0.999344  1
  C  C17  1  0.999357  0.999357  0.500656  1
