# generated using pymatgen
data_Er4Tc3Os4W
_symmetry_space_group_name_H-M   'P 1'
_cell_length_a   5.24057805
_cell_length_b   5.24057731
_cell_length_c   9.00389900
_cell_angle_alpha   90.00000000
_cell_angle_beta   90.00000000
_cell_angle_gamma   117.30858103
_symmetry_Int_Tables_number   1
_chemical_formula_structural   Er4Tc3Os4W
_chemical_formula_sum   'Er4 Tc3 Os4 W1'
_cell_volume   219.72025509
_cell_formula_units_Z   1
loop_
 _symmetry_equiv_pos_site_id
 _symmetry_equiv_pos_as_xyz
  1  'x, y, z'
loop_
 _atom_site_type_symbol
 _atom_site_label
 _atom_site_symmetry_multiplicity
 _atom_site_fract_x
 _atom_site_fract_y
 _atom_site_fract_z
 _atom_site_occupancy
  Er  Er0  1  0.329398  0.670602  0.435940  1
  Er  Er1  1  0.667276  0.332724  0.563513  1
  Er  Er2  1  0.667276  0.332724  0.936487  1
  Er  Er3  1  0.329398  0.670602  0.064060  1
  Tc  Tc4  1  0.173337  0.826663  0.750000  1
  Tc  Tc5  1  0.170106  0.341302  0.750000  1
  Tc  Tc6  1  0.658698  0.829894  0.750000  1
  Os  Os7  1  0.995776  0.004224  0.501197  1
  Os  Os8  1  0.995776  0.004224  0.998803  1
  Os  Os9  1  0.825283  0.650506  0.250000  1
  Os  Os10  1  0.349494  0.174717  0.250000  1
  W  W11  1  0.838179  0.161821  0.250000  1
