# generated using pymatgen
data_TbLu3(AlRh)4
_symmetry_space_group_name_H-M   'P 1'
_cell_length_a   4.22972600
_cell_length_b   6.75989089
_cell_length_c   7.88183101
_cell_angle_alpha   90.41340847
_cell_angle_beta   90.00000000
_cell_angle_gamma   90.00000000
_symmetry_Int_Tables_number   1
_chemical_formula_structural   TbLu3(AlRh)4
_chemical_formula_sum   'Tb1 Lu3 Al4 Rh4'
_cell_volume   225.35527834
_cell_formula_units_Z   1
loop_
 _symmetry_equiv_pos_site_id
 _symmetry_equiv_pos_as_xyz
  1  'x, y, z'
loop_
 _atom_site_type_symbol
 _atom_site_label
 _atom_site_symmetry_multiplicity
 _atom_site_fract_x
 _atom_site_fract_y
 _atom_site_fract_z
 _atom_site_occupancy
  Tb  Tb0  1  0.250000  0.034837  0.321132  1
  Lu  Lu1  1  0.250000  0.536398  0.177851  1
  Lu  Lu2  1  0.750000  0.464287  0.820785  1
  Lu  Lu3  1  0.750000  0.963126  0.680362  1
  Al  Al4  1  0.250000  0.636826  0.560867  1
  Al  Al5  1  0.750000  0.362853  0.441127  1
  Al  Al6  1  0.750000  0.861120  0.058769  1
  Al  Al7  1  0.250000  0.139084  0.938395  1
  Rh  Rh8  1  0.250000  0.763950  0.878590  1
  Rh  Rh9  1  0.750000  0.240828  0.118659  1
  Rh  Rh10  1  0.750000  0.732332  0.378491  1
  Rh  Rh11  1  0.250000  0.264359  0.624969  1
