# generated using pymatgen
data_Er4Zr4Ir3Pt
_symmetry_space_group_name_H-M   'P 1'
_cell_length_a   4.61248400
_cell_length_b   7.09345693
_cell_length_c   8.23209894
_cell_angle_alpha   90.29797988
_cell_angle_beta   90.00215709
_cell_angle_gamma   89.99861732
_symmetry_Int_Tables_number   1
_chemical_formula_structural   Er4Zr4Ir3Pt
_chemical_formula_sum   'Er4 Zr4 Ir3 Pt1'
_cell_volume   269.33792898
_cell_formula_units_Z   1
loop_
 _symmetry_equiv_pos_site_id
 _symmetry_equiv_pos_as_xyz
  1  'x, y, z'
loop_
 _atom_site_type_symbol
 _atom_site_label
 _atom_site_symmetry_multiplicity
 _atom_site_fract_x
 _atom_site_fract_y
 _atom_site_fract_z
 _atom_site_occupancy
  Er  Er0  1  0.250019  0.483372  0.176896  1
  Er  Er1  1  0.750005  0.521029  0.822122  1
  Er  Er2  1  0.749999  0.015800  0.674179  1
  Er  Er3  1  0.250006  0.981508  0.326396  1
  Zr  Zr4  1  0.249983  0.851872  0.926590  1
  Zr  Zr5  1  0.749996  0.143239  0.078991  1
  Zr  Zr6  1  0.749995  0.643879  0.424959  1
  Zr  Zr7  1  0.250002  0.356263  0.573562  1
  Ir  Ir8  1  0.250005  0.733608  0.595541  1
  Ir  Ir9  1  0.749993  0.266835  0.404642  1
  Ir  Ir10  1  0.749998  0.768007  0.093938  1
  Pt  Pt11  1  0.250000  0.234587  0.902185  1
