# generated using pymatgen
data_Li8TbDy7(SnBi3)2
_symmetry_space_group_name_H-M   'P 1'
_cell_length_a   9.68912100
_cell_length_b   9.69097274
_cell_length_c   7.04474300
_cell_angle_alpha   89.99941254
_cell_angle_beta   89.99946552
_cell_angle_gamma   119.99739962
_symmetry_Int_Tables_number   1
_chemical_formula_structural   Li8TbDy7(SnBi3)2
_chemical_formula_sum   'Li8 Tb1 Dy7 Sn2 Bi6'
_cell_volume   572.87374244
_cell_formula_units_Z   1
loop_
 _symmetry_equiv_pos_site_id
 _symmetry_equiv_pos_as_xyz
  1  'x, y, z'
loop_
 _atom_site_type_symbol
 _atom_site_label
 _atom_site_symmetry_multiplicity
 _atom_site_fract_x
 _atom_site_fract_y
 _atom_site_fract_z
 _atom_site_occupancy
  Li  Li0  1  0.169728  0.339468  0.279685  1
  Li  Li1  1  0.169555  0.830172  0.279438  1
  Li  Li2  1  0.660613  0.830169  0.279431  1
  Li  Li3  1  0.830307  0.660622  0.779756  1
  Li  Li4  1  0.830321  0.169788  0.779849  1
  Li  Li5  1  0.339456  0.169783  0.779846  1
  Li  Li6  1  0.333207  0.666413  0.679429  1
  Li  Li7  1  0.666685  0.333371  0.179208  1
  Tb  Tb8  1  0.509587  0.019180  0.494120  1
  Dy  Dy9  1  0.509665  0.490324  0.494135  1
  Dy  Dy10  1  0.980663  0.490323  0.494128  1
  Dy  Dy11  1  0.490337  0.980681  0.994148  1
  Dy  Dy12  1  0.490343  0.509627  0.994106  1
  Dy  Dy13  1  0.019291  0.509629  0.994111  1
  Dy  Dy14  1  0.000041  0.000076  0.503365  1
  Dy  Dy15  1  0.999977  0.999959  0.003349  1
  Sn  Sn16  1  0.333190  0.666390  0.254562  1
  Sn  Sn17  1  0.666964  0.333920  0.755714  1
  Bi  Bi18  1  0.166206  0.332399  0.737148  1
  Bi  Bi19  1  0.165926  0.833686  0.737761  1
  Bi  Bi20  1  0.667759  0.833672  0.737755  1
  Bi  Bi21  1  0.833796  0.667590  0.237459  1
  Bi  Bi22  1  0.834141  0.166382  0.236746  1
  Bi  Bi23  1  0.332238  0.166378  0.236749  1
