# generated using pymatgen
data_TbEr3(Sc4Bi3)4
_symmetry_space_group_name_H-M   'P 1'
_cell_length_a   7.87685812
_cell_length_b   9.05467900
_cell_length_c   11.53977517
_cell_angle_alpha   90.00000000
_cell_angle_beta   89.98028088
_cell_angle_gamma   90.00000000
_symmetry_Int_Tables_number   1
_chemical_formula_structural   TbEr3(Sc4Bi3)4
_chemical_formula_sum   'Tb1 Er3 Sc16 Bi12'
_cell_volume   823.04466318
_cell_formula_units_Z   1
loop_
 _symmetry_equiv_pos_site_id
 _symmetry_equiv_pos_as_xyz
  1  'x, y, z'
loop_
 _atom_site_type_symbol
 _atom_site_label
 _atom_site_symmetry_multiplicity
 _atom_site_fract_x
 _atom_site_fract_y
 _atom_site_fract_z
 _atom_site_occupancy
  Tb  Tb0  1  0.315783  0.250000  0.218645  1
  Er  Er1  1  0.815503  0.250000  0.281999  1
  Er  Er2  1  0.684605  0.750000  0.781884  1
  Er  Er3  1  0.184644  0.750000  0.718007  1
  Sc  Sc4  1  0.349072  0.750000  0.220190  1
  Sc  Sc5  1  0.848911  0.750000  0.279910  1
  Sc  Sc6  1  0.651026  0.250000  0.779782  1
  Sc  Sc7  1  0.150900  0.250000  0.720195  1
  Sc  Sc8  1  0.692515  0.567704  0.061624  1
  Sc  Sc9  1  0.192675  0.932247  0.438493  1
  Sc  Sc10  1  0.307387  0.067715  0.938200  1
  Sc  Sc11  1  0.807277  0.432285  0.561623  1
  Sc  Sc12  1  0.307387  0.432285  0.938200  1
  Sc  Sc13  1  0.807277  0.067715  0.561623  1
  Sc  Sc14  1  0.692515  0.932296  0.061624  1
  Sc  Sc15  1  0.192675  0.567753  0.438493  1
  Sc  Sc16  1  0.482324  0.250000  0.489210  1
  Sc  Sc17  1  0.981854  0.250000  0.010717  1
  Sc  Sc18  1  0.518036  0.750000  0.511022  1
  Sc  Sc19  1  0.017734  0.750000  0.988925  1
  Bi  Bi20  1  0.401236  0.750000  0.965780  1
  Bi  Bi21  1  0.901396  0.750000  0.534241  1
  Bi  Bi22  1  0.599869  0.250000  0.033235  1
  Bi  Bi23  1  0.098088  0.250000  0.466341  1
  Bi  Bi24  1  0.564576  0.990158  0.328224  1
  Bi  Bi25  1  0.062564  0.510107  0.171862  1
  Bi  Bi26  1  0.436199  0.490936  0.672080  1
  Bi  Bi27  1  0.936317  0.009025  0.827853  1
  Bi  Bi28  1  0.436199  0.009064  0.672080  1
  Bi  Bi29  1  0.936317  0.490975  0.827853  1
  Bi  Bi30  1  0.564576  0.509842  0.328224  1
  Bi  Bi31  1  0.062564  0.989893  0.171862  1
