# generated using pymatgen
data_TiNbCo4P3
_symmetry_space_group_name_H-M   'P 1'
_cell_length_a   11.83549515
_cell_length_b   11.83460907
_cell_length_c   3.57856200
_cell_angle_alpha   90.00000000
_cell_angle_beta   90.00000000
_cell_angle_gamma   119.98979115
_symmetry_Int_Tables_number   1
_chemical_formula_structural   TiNbCo4P3
_chemical_formula_sum   'Ti4 Nb4 Co16 P12'
_cell_volume   434.13439313
_cell_formula_units_Z   4
loop_
 _symmetry_equiv_pos_site_id
 _symmetry_equiv_pos_as_xyz
  1  'x, y, z'
loop_
 _atom_site_type_symbol
 _atom_site_label
 _atom_site_symmetry_multiplicity
 _atom_site_fract_x
 _atom_site_fract_y
 _atom_site_fract_z
 _atom_site_occupancy
  Ti  Ti0  1  0.556437  0.000330  0.000000  1
  Ti  Ti1  1  0.666724  0.333308  0.000000  1
  Ti  Ti2  1  0.444012  0.443714  0.000000  1
  Ti  Ti3  1  0.999743  0.556036  0.000000  1
  Nb  Nb4  1  0.333315  0.666619  0.000000  1
  Nb  Nb5  1  0.179865  0.000739  0.500000  1
  Nb  Nb6  1  0.999281  0.179238  0.500000  1
  Nb  Nb7  1  0.820763  0.820058  0.500000  1
  Co  Co8  1  0.999987  0.000011  0.000000  1
  Co  Co9  1  0.805710  0.179485  0.000000  1
  Co  Co10  1  0.373778  0.194331  0.000000  1
  Co  Co11  1  0.193234  0.372726  0.000000  1
  Co  Co12  1  0.820488  0.626188  0.000000  1
  Co  Co13  1  0.179407  0.806731  0.000000  1
  Co  Co14  1  0.627312  0.820559  0.000000  1
  Co  Co15  1  0.722985  0.001308  0.500000  1
  Co  Co16  1  0.483262  0.127546  0.500000  1
  Co  Co17  1  0.278364  0.277088  0.500000  1
  Co  Co18  1  0.872452  0.355702  0.500000  1
  Co  Co19  1  0.126171  0.482586  0.500000  1
  Co  Co20  1  0.644300  0.516734  0.500000  1
  Co  Co21  1  0.517371  0.643581  0.500000  1
  Co  Co22  1  0.998669  0.721627  0.500000  1
  Co  Co23  1  0.356422  0.873791  0.500000  1
  P  P24  1  0.353574  0.000312  0.000000  1
  P  P25  1  0.824311  0.000043  0.000000  1
  P  P26  1  0.175771  0.175776  0.000000  1
  P  P27  1  0.999657  0.353247  0.000000  1
  P  P28  1  0.646757  0.646438  0.000000  1
  P  P29  1  0.999916  0.824206  0.000000  1
  P  P30  1  0.686646  0.172014  0.500000  1
  P  P31  1  0.485377  0.313390  0.500000  1
  P  P32  1  0.312925  0.483306  0.500000  1
  P  P33  1  0.828013  0.514626  0.500000  1
  P  P34  1  0.170364  0.687062  0.500000  1
  P  P35  1  0.516703  0.829612  0.500000  1
