# generated using pymatgen
data_Tm2Si2RuRh
_symmetry_space_group_name_H-M   'P 1'
_cell_length_a   4.28769600
_cell_length_b   6.87331565
_cell_length_c   7.19615158
_cell_angle_alpha   89.95205082
_cell_angle_beta   90.00000000
_cell_angle_gamma   90.00000000
_symmetry_Int_Tables_number   1
_chemical_formula_structural   Tm2Si2RuRh
_chemical_formula_sum   'Tm4 Si4 Ru2 Rh2'
_cell_volume   212.07546393
_cell_formula_units_Z   2
loop_
 _symmetry_equiv_pos_site_id
 _symmetry_equiv_pos_as_xyz
  1  'x, y, z'
loop_
 _atom_site_type_symbol
 _atom_site_label
 _atom_site_symmetry_multiplicity
 _atom_site_fract_x
 _atom_site_fract_y
 _atom_site_fract_z
 _atom_site_occupancy
  Tm  Tm0  1  0.250000  0.987942  0.810693  1
  Tm  Tm1  1  0.750000  0.012058  0.189307  1
  Tm  Tm2  1  0.250000  0.495115  0.687195  1
  Tm  Tm3  1  0.750000  0.504885  0.312805  1
  Si  Si4  1  0.250000  0.299975  0.099954  1
  Si  Si5  1  0.750000  0.700025  0.900046  1
  Si  Si6  1  0.250000  0.797906  0.384536  1
  Si  Si7  1  0.750000  0.202094  0.615464  1
  Ru  Ru8  1  0.750000  0.344755  0.933678  1
  Ru  Ru9  1  0.250000  0.655245  0.066322  1
  Rh  Rh10  1  0.750000  0.844921  0.565242  1
  Rh  Rh11  1  0.250000  0.155079  0.434758  1
