# generated using pymatgen
data_CaLaEu2Al6O14
_symmetry_space_group_name_H-M   'P 1'
_cell_length_a   7.88327429
_cell_length_b   7.88327510
_cell_length_c   5.20824048
_cell_angle_alpha   89.61661058
_cell_angle_beta   90.38338637
_cell_angle_gamma   89.90174426
_symmetry_Int_Tables_number   1
_chemical_formula_structural   CaLaEu2Al6O14
_chemical_formula_sum   'Ca1 La1 Eu2 Al6 O14'
_cell_volume   323.65642371
_cell_formula_units_Z   1
loop_
 _symmetry_equiv_pos_site_id
 _symmetry_equiv_pos_as_xyz
  1  'x, y, z'
loop_
 _atom_site_type_symbol
 _atom_site_label
 _atom_site_symmetry_multiplicity
 _atom_site_fract_x
 _atom_site_fract_y
 _atom_site_fract_z
 _atom_site_occupancy
  Ca  Ca0  1  0.668941  0.331059  0.513595  1
  La  La1  1  0.342691  0.657309  0.512342  1
  Eu  Eu2  1  0.159091  0.164410  0.486292  1
  Eu  Eu3  1  0.835590  0.840909  0.486292  1
  Al  Al4  1  0.499035  0.998586  0.999137  1
  Al  Al5  1  0.001414  0.500965  0.999137  1
  Al  Al6  1  0.141720  0.858280  0.961877  1
  Al  Al7  1  0.359397  0.354425  0.039696  1
  Al  Al8  1  0.854663  0.145337  0.960494  1
  Al  Al9  1  0.645575  0.640603  0.039696  1
  O  O10  1  0.336454  0.907966  0.806552  1
  O  O11  1  0.167296  0.416365  0.195349  1
  O  O12  1  0.660069  0.089761  0.808300  1
  O  O13  1  0.843763  0.598184  0.187997  1
  O  O14  1  0.583635  0.832704  0.195349  1
  O  O15  1  0.910239  0.339931  0.808300  1
  O  O16  1  0.401816  0.156237  0.187997  1
  O  O17  1  0.092034  0.663546  0.806552  1
  O  O18  1  0.141506  0.858494  0.297699  1
  O  O19  1  0.353261  0.365730  0.704040  1
  O  O20  1  0.859992  0.140008  0.297038  1
  O  O21  1  0.634270  0.646739  0.704040  1
  O  O22  1  0.509122  0.490878  0.183442  1
  O  O23  1  0.998427  0.001573  0.818815  1
