# generated using pymatgen
data_La7Pr3(GaSi)3
_symmetry_space_group_name_H-M   'P 1'
_cell_length_a   7.98052430
_cell_length_b   7.95235207
_cell_length_c   14.58020903
_cell_angle_alpha   90.11515777
_cell_angle_beta   89.99431833
_cell_angle_gamma   89.96920182
_symmetry_Int_Tables_number   1
_chemical_formula_structural   La7Pr3(GaSi)3
_chemical_formula_sum   'La14 Pr6 Ga6 Si6'
_cell_volume   925.31548850
_cell_formula_units_Z   2
loop_
 _symmetry_equiv_pos_site_id
 _symmetry_equiv_pos_as_xyz
  1  'x, y, z'
loop_
 _atom_site_type_symbol
 _atom_site_label
 _atom_site_symmetry_multiplicity
 _atom_site_fract_x
 _atom_site_fract_y
 _atom_site_fract_z
 _atom_site_occupancy
  La  La0  1  0.667307  0.684687  0.105656  1
  La  La1  1  0.005695  0.499553  0.719186  1
  La  La2  1  0.816913  0.838333  0.604979  1
  La  La3  1  0.314965  0.330789  0.393408  1
  La  La4  1  0.182990  0.838609  0.104538  1
  La  La5  1  0.184867  0.164139  0.606844  1
  La  La6  1  0.814599  0.163793  0.106409  1
  La  La7  1  0.332099  0.684503  0.605782  1
  La  La8  1  0.501802  0.004919  0.280785  1
  La  La9  1  0.684969  0.330876  0.894020  1
  La  La10  1  0.667336  0.312071  0.607536  1
  La  La11  1  0.311786  0.666599  0.893607  1
  La  La12  1  0.160657  0.816364  0.395485  1
  La  La13  1  0.687706  0.666647  0.393220  1
  Pr  Pr14  1  0.498093  0.004628  0.779897  1
  Pr  Pr15  1  0.333818  0.311670  0.108342  1
  Pr  Pr16  1  0.840584  0.816522  0.894353  1
  Pr  Pr17  1  0.994279  0.499470  0.220342  1
  Pr  Pr18  1  0.835739  0.185267  0.392034  1
  Pr  Pr19  1  0.163820  0.185224  0.892414  1
  Ga  Ga20  1  0.499290  0.998808  0.497057  1
  Ga  Ga21  1  0.000914  0.497280  0.003554  1
  Ga  Ga22  1  0.381887  0.616878  0.249328  1
  Ga  Ga23  1  0.618441  0.619022  0.750455  1
  Ga  Ga24  1  0.500203  0.999338  0.995869  1
  Ga  Ga25  1  0.999008  0.496493  0.502262  1
  Si  Si26  1  0.616900  0.382784  0.249704  1
  Si  Si27  1  0.886717  0.113435  0.751481  1
  Si  Si28  1  0.885965  0.886584  0.249548  1
  Si  Si29  1  0.113880  0.886619  0.750738  1
  Si  Si30  1  0.383167  0.382751  0.750733  1
  Si  Si31  1  0.113602  0.115343  0.250432  1
