# generated using pymatgen
data_CePa2Al3IrRh2
_symmetry_space_group_name_H-M   'P 1'
_cell_length_a   7.10762209
_cell_length_b   7.06268881
_cell_length_c   4.05902300
_cell_angle_alpha   90.00000000
_cell_angle_beta   90.00000000
_cell_angle_gamma   119.85804100
_symmetry_Int_Tables_number   1
_chemical_formula_structural   CePa2Al3IrRh2
_chemical_formula_sum   'Ce1 Pa2 Al3 Ir1 Rh2'
_cell_volume   176.71198862
_cell_formula_units_Z   1
loop_
 _symmetry_equiv_pos_site_id
 _symmetry_equiv_pos_as_xyz
  1  'x, y, z'
loop_
 _atom_site_type_symbol
 _atom_site_label
 _atom_site_symmetry_multiplicity
 _atom_site_fract_x
 _atom_site_fract_y
 _atom_site_fract_z
 _atom_site_occupancy
  Ce  Ce0  1  0.999691  0.581476  0.500000  1
  Pa  Pa1  1  0.420518  0.419290  0.500000  1
  Pa  Pa2  1  0.579140  0.998507  0.500000  1
  Al  Al3  1  0.769627  0.766835  0.000000  1
  Al  Al4  1  0.229871  0.995277  0.000000  1
  Al  Al5  1  0.001345  0.242141  0.000000  1
  Ir  Ir6  1  0.354326  0.668201  0.000000  1
  Rh  Rh7  1  0.645754  0.313029  0.000000  1
  Rh  Rh8  1  0.999726  0.015245  0.500000  1
