# generated using pymatgen
data_La8HoLuIr6
_symmetry_space_group_name_H-M   'P 1'
_cell_length_a   11.36352100
_cell_length_b   11.36352100
_cell_length_c   6.53625100
_cell_angle_alpha   90.00000000
_cell_angle_beta   90.00000000
_cell_angle_gamma   90.00000000
_symmetry_Int_Tables_number   1
_chemical_formula_structural   La8HoLuIr6
_chemical_formula_sum   'La16 Ho2 Lu2 Ir12'
_cell_volume   844.02353934
_cell_formula_units_Z   2
loop_
 _symmetry_equiv_pos_site_id
 _symmetry_equiv_pos_as_xyz
  1  'x, y, z'
loop_
 _atom_site_type_symbol
 _atom_site_label
 _atom_site_symmetry_multiplicity
 _atom_site_fract_x
 _atom_site_fract_y
 _atom_site_fract_z
 _atom_site_occupancy
  La  La0  1  0.286285  0.087547  0.391155  1
  La  La1  1  0.286285  0.912453  0.891155  1
  La  La2  1  0.713715  0.087547  0.891155  1
  La  La3  1  0.713715  0.912453  0.391155  1
  La  La4  1  0.587766  0.787592  0.890934  1
  La  La5  1  0.587766  0.212408  0.390934  1
  La  La6  1  0.412234  0.787592  0.390934  1
  La  La7  1  0.412234  0.212408  0.890934  1
  La  La8  1  0.212408  0.412234  0.609066  1
  La  La9  1  0.212408  0.587766  0.109066  1
  La  La10  1  0.787592  0.412234  0.109066  1
  La  La11  1  0.787592  0.587766  0.609066  1
  La  La12  1  0.912453  0.713715  0.108845  1
  La  La13  1  0.912453  0.286285  0.608845  1
  La  La14  1  0.087547  0.713715  0.608845  1
  La  La15  1  0.087547  0.286285  0.108845  1
  Ho  Ho16  1  0.500000  0.500000  0.000000  1
  Ho  Ho17  1  0.500000  0.500000  0.500000  1
  Lu  Lu18  1  0.000000  0.000000  0.500000  1
  Lu  Lu19  1  0.000000  0.000000  0.000000  1
  Ir  Ir20  1  0.854090  0.145910  0.250000  1
  Ir  Ir21  1  0.854090  0.854090  0.750000  1
  Ir  Ir22  1  0.145910  0.145910  0.750000  1
  Ir  Ir23  1  0.145910  0.854090  0.250000  1
  Ir  Ir24  1  0.648172  0.351828  0.750000  1
  Ir  Ir25  1  0.648172  0.648172  0.250000  1
  Ir  Ir26  1  0.351828  0.351828  0.250000  1
  Ir  Ir27  1  0.351828  0.648172  0.750000  1
  Ir  Ir28  1  0.500000  0.000000  0.123376  1
  Ir  Ir29  1  0.500000  0.000000  0.623376  1
  Ir  Ir30  1  0.000000  0.500000  0.876624  1
  Ir  Ir31  1  0.000000  0.500000  0.376624  1
