# generated using pymatgen
data_La7Nd(SiBr6)2
_symmetry_space_group_name_H-M   'P 1'
_cell_length_a   4.30937600
_cell_length_b   13.95766177
_cell_length_c   14.79870325
_cell_angle_alpha   89.73958268
_cell_angle_beta   90.00000000
_cell_angle_gamma   90.00000000
_symmetry_Int_Tables_number   1
_chemical_formula_structural   La7Nd(SiBr6)2
_chemical_formula_sum   'La7 Nd1 Si2 Br12'
_cell_volume   890.11523511
_cell_formula_units_Z   1
loop_
 _symmetry_equiv_pos_site_id
 _symmetry_equiv_pos_as_xyz
  1  'x, y, z'
loop_
 _atom_site_type_symbol
 _atom_site_label
 _atom_site_symmetry_multiplicity
 _atom_site_fract_x
 _atom_site_fract_y
 _atom_site_fract_z
 _atom_site_occupancy
  La  La0  1  0.500000  0.120839  0.338069  1
  La  La1  1  0.500000  0.880192  0.660740  1
  La  La2  1  0.500000  0.618200  0.161135  1
  La  La3  1  0.500000  0.379353  0.840424  1
  La  La4  1  0.000000  0.120842  0.579806  1
  La  La5  1  0.000000  0.879277  0.419927  1
  La  La6  1  0.000000  0.619689  0.920617  1
  Nd  Nd7  1  0.000000  0.381995  0.078250  1
  Si  Si8  1  0.500000  0.000365  0.499406  1
  Si  Si9  1  0.500000  0.499325  0.000424  1
  Br  Br10  1  0.500000  0.248367  0.161453  1
  Br  Br11  1  0.500000  0.755412  0.837415  1
  Br  Br12  1  0.500000  0.743503  0.336783  1
  Br  Br13  1  0.500000  0.256061  0.663507  1
  Br  Br14  1  0.000000  0.254090  0.410870  1
  Br  Br15  1  0.000000  0.746120  0.588917  1
  Br  Br16  1  0.000000  0.752953  0.088765  1
  Br  Br17  1  0.000000  0.247023  0.915098  1
  Br  Br18  1  0.000000  0.002782  0.244491  1
  Br  Br19  1  0.000000  0.997605  0.755215  1
  Br  Br20  1  0.000000  0.498565  0.253219  1
  Br  Br21  1  0.000000  0.497438  0.745468  1
