# generated using pymatgen
data_Mg5In7Ir4
_symmetry_space_group_name_H-M   'P 1'
_cell_length_a   5.35190901
_cell_length_b   7.47710519
_cell_length_c   8.31286514
_cell_angle_alpha   89.90270925
_cell_angle_beta   89.97957418
_cell_angle_gamma   89.90448763
_symmetry_Int_Tables_number   1
_chemical_formula_structural   Mg5In7Ir4
_chemical_formula_sum   'Mg5 In7 Ir4'
_cell_volume   332.65318796
_cell_formula_units_Z   1
loop_
 _symmetry_equiv_pos_site_id
 _symmetry_equiv_pos_as_xyz
  1  'x, y, z'
loop_
 _atom_site_type_symbol
 _atom_site_label
 _atom_site_symmetry_multiplicity
 _atom_site_fract_x
 _atom_site_fract_y
 _atom_site_fract_z
 _atom_site_occupancy
  Mg  Mg0  1  0.624288  0.334265  0.556655  1
  Mg  Mg1  1  0.098371  0.478763  0.747279  1
  Mg  Mg2  1  0.896370  0.520021  0.251114  1
  Mg  Mg3  1  0.403132  0.979573  0.747478  1
  Mg  Mg4  1  0.599897  0.023087  0.253574  1
  In  In5  1  0.870959  0.832761  0.950330  1
  In  In6  1  0.126404  0.167614  0.052063  1
  In  In7  1  0.373896  0.658988  0.449306  1
  In  In8  1  0.872494  0.833450  0.549980  1
  In  In9  1  0.625296  0.331269  0.942851  1
  In  In10  1  0.127880  0.173438  0.450476  1
  In  In11  1  0.372483  0.667146  0.051349  1
  Ir  Ir12  1  0.414722  0.368453  0.247925  1
  Ir  Ir13  1  0.587158  0.632691  0.750050  1
  Ir  Ir14  1  0.917624  0.129381  0.748491  1
  Ir  Ir15  1  0.089026  0.869101  0.251079  1
