# generated using pymatgen
data_Dy2Pa2Ge6Os7
_symmetry_space_group_name_H-M   'P 1'
_cell_length_a   7.26528277
_cell_length_b   7.27618103
_cell_length_c   7.27618061
_cell_angle_alpha   109.42003446
_cell_angle_beta   109.52723872
_cell_angle_gamma   109.52726088
_symmetry_Int_Tables_number   1
_chemical_formula_structural   Dy2Pa2Ge6Os7
_chemical_formula_sum   'Dy2 Pa2 Ge6 Os7'
_cell_volume   295.87653747
_cell_formula_units_Z   1
loop_
 _symmetry_equiv_pos_site_id
 _symmetry_equiv_pos_as_xyz
  1  'x, y, z'
loop_
 _atom_site_type_symbol
 _atom_site_label
 _atom_site_symmetry_multiplicity
 _atom_site_fract_x
 _atom_site_fract_y
 _atom_site_fract_z
 _atom_site_occupancy
  Dy  Dy0  1  0.500000  0.000000  0.000000  1
  Dy  Dy1  1  0.500000  0.500000  0.500000  1
  Pa  Pa2  1  0.000000  0.000000  0.500000  1
  Pa  Pa3  1  0.000000  0.500000  0.000000  1
  Ge  Ge4  1  0.684964  0.689703  0.995261  1
  Ge  Ge5  1  0.315036  0.004739  0.310297  1
  Ge  Ge6  1  0.000000  0.311911  0.311911  1
  Ge  Ge7  1  0.315036  0.310297  0.004739  1
  Ge  Ge8  1  0.684964  0.995261  0.689703  1
  Ge  Ge9  1  0.000000  0.688089  0.688089  1
  Os  Os10  1  0.755197  0.248784  0.506413  1
  Os  Os11  1  0.755197  0.506413  0.248784  1
  Os  Os12  1  0.500000  0.250000  0.750000  1
  Os  Os13  1  0.244803  0.493587  0.751216  1
  Os  Os14  1  0.244803  0.751216  0.493587  1
  Os  Os15  1  0.500000  0.750000  0.250000  1
  Os  Os16  1  0.000000  0.000000  0.000000  1
