# generated using pymatgen
data_MnNb2Co3
_symmetry_space_group_name_H-M   'P 1'
_cell_length_a   4.82336200
_cell_length_b   4.82336148
_cell_length_c   7.72996800
_cell_angle_alpha   90.00000000
_cell_angle_beta   90.00000000
_cell_angle_gamma   119.99998985
_symmetry_Int_Tables_number   1
_chemical_formula_structural   MnNb2Co3
_chemical_formula_sum   'Mn2 Nb4 Co6'
_cell_volume   155.74282225
_cell_formula_units_Z   2
loop_
 _symmetry_equiv_pos_site_id
 _symmetry_equiv_pos_as_xyz
  1  'x, y, z'
loop_
 _atom_site_type_symbol
 _atom_site_label
 _atom_site_symmetry_multiplicity
 _atom_site_fract_x
 _atom_site_fract_y
 _atom_site_fract_z
 _atom_site_occupancy
  Mn  Mn0  1  0.000000  0.000000  0.500000  1
  Mn  Mn1  1  0.000000  0.000000  0.000000  1
  Nb  Nb2  1  0.666667  0.333333  0.936093  1
  Nb  Nb3  1  0.333333  0.666667  0.436093  1
  Nb  Nb4  1  0.666667  0.333333  0.563907  1
  Nb  Nb5  1  0.333333  0.666667  0.063907  1
  Co  Co6  1  0.168800  0.831200  0.750000  1
  Co  Co7  1  0.662401  0.831200  0.750000  1
  Co  Co8  1  0.831200  0.168800  0.250000  1
  Co  Co9  1  0.168800  0.337599  0.750000  1
  Co  Co10  1  0.831200  0.662401  0.250000  1
  Co  Co11  1  0.337599  0.168800  0.250000  1
