# generated using pymatgen
data_Nd2Dy14Cd3AgIrPt3
_symmetry_space_group_name_H-M   'P 1'
_cell_length_a   9.72530341
_cell_length_b   9.69608614
_cell_length_c   9.67946400
_cell_angle_alpha   60.05669288
_cell_angle_beta   60.15579649
_cell_angle_gamma   59.95406007
_symmetry_Int_Tables_number   1
_chemical_formula_structural   Nd2Dy14Cd3AgIrPt3
_chemical_formula_sum   'Nd2 Dy14 Cd3 Ag1 Ir1 Pt3'
_cell_volume   646.21845739
_cell_formula_units_Z   1
loop_
 _symmetry_equiv_pos_site_id
 _symmetry_equiv_pos_as_xyz
  1  'x, y, z'
loop_
 _atom_site_type_symbol
 _atom_site_label
 _atom_site_symmetry_multiplicity
 _atom_site_fract_x
 _atom_site_fract_y
 _atom_site_fract_z
 _atom_site_occupancy
  Nd  Nd0  1  0.568751  0.566174  0.929787  1
  Nd  Nd1  1  0.933629  0.933638  0.565955  1
  Dy  Dy2  1  0.353590  0.349361  0.346203  1
  Dy  Dy3  1  0.353348  0.349342  0.950583  1
  Dy  Dy4  1  0.354426  0.945084  0.350422  1
  Dy  Dy5  1  0.937640  0.354565  0.354331  1
  Dy  Dy6  1  0.808509  0.189143  0.188878  1
  Dy  Dy7  1  0.190623  0.810419  0.809530  1
  Dy  Dy8  1  0.190960  0.810708  0.189226  1
  Dy  Dy9  1  0.808560  0.188662  0.813671  1
  Dy  Dy10  1  0.191901  0.189404  0.809819  1
  Dy  Dy11  1  0.808822  0.813932  0.188963  1
  Dy  Dy12  1  0.937789  0.560562  0.561165  1
  Dy  Dy13  1  0.562548  0.939074  0.939037  1
  Dy  Dy14  1  0.562777  0.936749  0.558687  1
  Dy  Dy15  1  0.939700  0.560368  0.938149  1
  Cd  Cd16  1  0.581413  0.582037  0.258129  1
  Cd  Cd17  1  0.577687  0.257195  0.583492  1
  Cd  Cd18  1  0.258465  0.577887  0.582866  1
  Ag  Ag19  1  0.583650  0.584456  0.579658  1
  Ir  Ir20  1  0.572604  0.138959  0.143992  1
  Pt  Pt21  1  0.142350  0.145653  0.142596  1
  Pt  Pt22  1  0.141988  0.145546  0.569690  1
  Pt  Pt23  1  0.138269  0.571079  0.145166  1
