# generated using pymatgen
data_TmIn(Ni7P2)3
_symmetry_space_group_name_H-M   'P 1'
_cell_length_a   7.85849052
_cell_length_b   7.85849013
_cell_length_c   7.85849000
_cell_angle_alpha   59.99999214
_cell_angle_beta   59.99999378
_cell_angle_gamma   59.99999908
_symmetry_Int_Tables_number   1
_chemical_formula_structural   TmIn(Ni7P2)3
_chemical_formula_sum   'Tm1 In1 Ni21 P6'
_cell_volume   343.16446008
_cell_formula_units_Z   1
loop_
 _symmetry_equiv_pos_site_id
 _symmetry_equiv_pos_as_xyz
  1  'x, y, z'
loop_
 _atom_site_type_symbol
 _atom_site_label
 _atom_site_symmetry_multiplicity
 _atom_site_fract_x
 _atom_site_fract_y
 _atom_site_fract_z
 _atom_site_occupancy
  Tm  Tm0  1  0.750000  0.750000  0.750000  1
  In  In1  1  0.250000  0.250000  0.250000  1
  Ni  Ni2  1  0.383760  0.848719  0.383760  1
  Ni  Ni3  1  0.383760  0.383760  0.848719  1
  Ni  Ni4  1  0.348810  0.999593  0.652005  1
  Ni  Ni5  1  0.999593  0.348810  0.652005  1
  Ni  Ni6  1  0.163679  0.612107  0.612107  1
  Ni  Ni7  1  0.652005  0.999593  0.999593  1
  Ni  Ni8  1  0.848719  0.383760  0.383760  1
  Ni  Ni9  1  0.652005  0.348810  0.999593  1
  Ni  Ni10  1  0.999593  0.348810  0.999593  1
  Ni  Ni11  1  0.348810  0.652005  0.999593  1
  Ni  Ni12  1  0.999593  0.999593  0.348810  1
  Ni  Ni13  1  0.612107  0.163679  0.612107  1
  Ni  Ni14  1  0.652005  0.999593  0.348810  1
  Ni  Ni15  1  0.999593  0.652005  0.999593  1
  Ni  Ni16  1  0.612107  0.612107  0.163679  1
  Ni  Ni17  1  0.000000  0.000000  0.000000  1
  Ni  Ni18  1  0.999593  0.652005  0.348810  1
  Ni  Ni19  1  0.348810  0.999593  0.999593  1
  Ni  Ni20  1  0.999593  0.999593  0.652005  1
  Ni  Ni21  1  0.383760  0.383760  0.383760  1
  Ni  Ni22  1  0.612107  0.612107  0.612107  1
  P  P23  1  0.261280  0.261280  0.738720  1
  P  P24  1  0.261280  0.738720  0.261280  1
  P  P25  1  0.738720  0.261280  0.261280  1
  P  P26  1  0.261280  0.738720  0.738720  1
  P  P27  1  0.738720  0.261280  0.738720  1
  P  P28  1  0.738720  0.738720  0.261280  1
