# generated using pymatgen
data_SmSc11(Si3Os)4
_symmetry_space_group_name_H-M   'P 1'
_cell_length_a   4.02672000
_cell_length_b   10.37136472
_cell_length_c   11.79787456
_cell_angle_alpha   89.73952744
_cell_angle_beta   90.00000000
_cell_angle_gamma   90.00000000
_symmetry_Int_Tables_number   1
_chemical_formula_structural   SmSc11(Si3Os)4
_chemical_formula_sum   'Sm1 Sc11 Si12 Os4'
_cell_volume   492.70460939
_cell_formula_units_Z   1
loop_
 _symmetry_equiv_pos_site_id
 _symmetry_equiv_pos_as_xyz
  1  'x, y, z'
loop_
 _atom_site_type_symbol
 _atom_site_label
 _atom_site_symmetry_multiplicity
 _atom_site_fract_x
 _atom_site_fract_y
 _atom_site_fract_z
 _atom_site_occupancy
  Sm  Sm0  1  0.250000  0.878196  0.017791  1
  Sc  Sc1  1  0.250000  0.621257  0.518723  1
  Sc  Sc2  1  0.750000  0.126533  0.981131  1
  Sc  Sc3  1  0.750000  0.377668  0.481716  1
  Sc  Sc4  1  0.250000  0.919958  0.603780  1
  Sc  Sc5  1  0.250000  0.575611  0.106638  1
  Sc  Sc6  1  0.750000  0.080727  0.396809  1
  Sc  Sc7  1  0.750000  0.419610  0.894052  1
  Sc  Sc8  1  0.250000  0.656458  0.794953  1
  Sc  Sc9  1  0.250000  0.841092  0.301353  1
  Sc  Sc10  1  0.750000  0.340298  0.203109  1
  Sc  Sc11  1  0.750000  0.161598  0.700807  1
  Si  Si12  1  0.250000  0.019108  0.814161  1
  Si  Si13  1  0.250000  0.484775  0.323337  1
  Si  Si14  1  0.750000  0.989827  0.182250  1
  Si  Si15  1  0.750000  0.513714  0.677519  1
  Si  Si16  1  0.250000  0.252441  0.841520  1
  Si  Si17  1  0.250000  0.250516  0.345698  1
  Si  Si18  1  0.750000  0.744744  0.161549  1
  Si  Si19  1  0.750000  0.749208  0.654971  1
  Si  Si20  1  0.250000  0.196059  0.546500  1
  Si  Si21  1  0.250000  0.304609  0.046466  1
  Si  Si22  1  0.750000  0.804082  0.454188  1
  Si  Si23  1  0.750000  0.686585  0.951461  1
  Os  Os24  1  0.250000  0.390514  0.676155  1
  Os  Os25  1  0.250000  0.114779  0.181824  1
  Os  Os26  1  0.750000  0.608583  0.326479  1
  Os  Os27  1  0.750000  0.891450  0.815062  1
