# generated using pymatgen
data_YbAg3Ru3PtO14
_symmetry_space_group_name_H-M   'P 1'
_cell_length_a   7.23860552
_cell_length_b   7.12814923
_cell_length_c   7.12814931
_cell_angle_alpha   60.75130070
_cell_angle_beta   60.86662131
_cell_angle_gamma   60.86662972
_symmetry_Int_Tables_number   1
_chemical_formula_structural   YbAg3Ru3PtO14
_chemical_formula_sum   'Yb1 Ag3 Ru3 Pt1 O14'
_cell_volume   264.92841896
_cell_formula_units_Z   1
loop_
 _symmetry_equiv_pos_site_id
 _symmetry_equiv_pos_as_xyz
  1  'x, y, z'
loop_
 _atom_site_type_symbol
 _atom_site_label
 _atom_site_symmetry_multiplicity
 _atom_site_fract_x
 _atom_site_fract_y
 _atom_site_fract_z
 _atom_site_occupancy
  Yb  Yb0  1  0.625000  0.125000  0.125000  1
  Ag  Ag1  1  0.125000  0.125000  0.125000  1
  Ag  Ag2  1  0.125000  0.125000  0.625000  1
  Ag  Ag3  1  0.125000  0.625000  0.125000  1
  Ru  Ru4  1  0.125000  0.625000  0.625000  1
  Ru  Ru5  1  0.625000  0.625000  0.125000  1
  Ru  Ru6  1  0.625000  0.125000  0.625000  1
  Pt  Pt7  1  0.625000  0.625000  0.625000  1
  O  O8  1  0.023487  0.993146  0.993146  1
  O  O9  1  0.226513  0.256854  0.256854  1
  O  O10  1  0.316449  0.313999  0.694080  1
  O  O11  1  0.544276  0.538184  0.962141  1
  O  O12  1  0.705724  0.287859  0.711816  1
  O  O13  1  0.700924  0.307259  0.307259  1
  O  O14  1  0.290888  0.706282  0.706282  1
  O  O15  1  0.316449  0.694080  0.313999  1
  O  O16  1  0.705724  0.711816  0.287859  1
  O  O17  1  0.959112  0.543718  0.543718  1
  O  O18  1  0.549076  0.942741  0.942741  1
  O  O19  1  0.933551  0.936001  0.555920  1
  O  O20  1  0.933551  0.555920  0.936001  1
  O  O21  1  0.544276  0.962141  0.538184  1
