# generated using pymatgen
data_YAgPt2O7
_symmetry_space_group_name_H-M   'P 1'
_cell_length_a   7.24322301
_cell_length_b   7.40062381
_cell_length_c   7.24322302
_cell_angle_alpha   59.27851002
_cell_angle_beta   59.28329852
_cell_angle_gamma   59.27850952
_symmetry_Int_Tables_number   1
_chemical_formula_structural   YAgPt2O7
_chemical_formula_sum   'Y2 Ag2 Pt4 O14'
_cell_volume   270.04628940
_cell_formula_units_Z   2
loop_
 _symmetry_equiv_pos_site_id
 _symmetry_equiv_pos_as_xyz
  1  'x, y, z'
loop_
 _atom_site_type_symbol
 _atom_site_label
 _atom_site_symmetry_multiplicity
 _atom_site_fract_x
 _atom_site_fract_y
 _atom_site_fract_z
 _atom_site_occupancy
  Y  Y0  1  0.125000  0.625000  0.125000  1
  Y  Y1  1  0.125000  0.125000  0.125000  1
  Ag  Ag2  1  0.125000  0.125000  0.625000  1
  Ag  Ag3  1  0.625000  0.125000  0.125000  1
  Pt  Pt4  1  0.625000  0.625000  0.625000  1
  Pt  Pt5  1  0.125000  0.625000  0.625000  1
  Pt  Pt6  1  0.625000  0.625000  0.125000  1
  Pt  Pt7  1  0.625000  0.125000  0.625000  1
  O  O8  1  0.289219  0.695935  0.720819  1
  O  O9  1  0.529181  0.955973  0.960781  1
  O  O10  1  0.720819  0.695935  0.289219  1
  O  O11  1  0.289219  0.294027  0.720819  1
  O  O12  1  0.987796  0.012204  0.987796  1
  O  O13  1  0.281199  0.718801  0.281199  1
  O  O14  1  0.703974  0.296026  0.703974  1
  O  O15  1  0.968801  0.531199  0.968801  1
  O  O16  1  0.529181  0.554065  0.960781  1
  O  O17  1  0.960781  0.955973  0.529181  1
  O  O18  1  0.262204  0.237796  0.262204  1
  O  O19  1  0.546026  0.953974  0.546026  1
  O  O20  1  0.720819  0.294027  0.289219  1
  O  O21  1  0.960781  0.554065  0.529181  1
