# generated using pymatgen
data_CsVNi2Se3S
_symmetry_space_group_name_H-M   'P 1'
_cell_length_a   10.35690587
_cell_length_b   10.35690460
_cell_length_c   7.52493586
_cell_angle_alpha   89.91563063
_cell_angle_beta   89.91563198
_cell_angle_gamma   149.16726088
_symmetry_Int_Tables_number   1
_chemical_formula_structural   CsVNi2Se3S
_chemical_formula_sum   'Cs2 V2 Ni4 Se6 S2'
_cell_volume   413.69329509
_cell_formula_units_Z   2
loop_
 _symmetry_equiv_pos_site_id
 _symmetry_equiv_pos_as_xyz
  1  'x, y, z'
loop_
 _atom_site_type_symbol
 _atom_site_label
 _atom_site_symmetry_multiplicity
 _atom_site_fract_x
 _atom_site_fract_y
 _atom_site_fract_z
 _atom_site_occupancy
  Cs  Cs0  1  0.170316  0.537335  0.746196  1
  Cs  Cs1  1  0.537335  0.170316  0.246196  1
  V  V2  1  0.706356  0.506262  0.751556  1
  V  V3  1  0.506262  0.706356  0.251556  1
  Ni  Ni4  1  0.619162  0.623022  0.501887  1
  Ni  Ni5  1  0.001365  0.198940  0.259318  1
  Ni  Ni6  1  0.198940  0.001365  0.759318  1
  Ni  Ni7  1  0.623022  0.619162  0.001887  1
  Se  Se8  1  0.759557  0.952004  0.001428  1
  Se  Se9  1  0.364344  0.357045  0.752470  1
  Se  Se10  1  0.357045  0.364344  0.252470  1
  Se  Se11  1  0.952004  0.759557  0.501428  1
  Se  Se12  1  0.549551  0.162728  0.752923  1
  Se  Se13  1  0.162728  0.549551  0.252923  1
  S  S14  1  0.935857  0.747957  0.984221  1
  S  S15  1  0.747957  0.935857  0.484221  1
