# generated using pymatgen
data_Rb2NpBr5
_symmetry_space_group_name_H-M   'P 1'
_cell_length_a   8.82833500
_cell_length_b   9.37387700
_cell_length_c   14.25488200
_cell_angle_alpha   90.00000000
_cell_angle_beta   90.00000000
_cell_angle_gamma   90.00000000
_symmetry_Int_Tables_number   1
_chemical_formula_structural   Rb2NpBr5
_chemical_formula_sum   'Rb8 Np4 Br20'
_cell_volume   1179.67311472
_cell_formula_units_Z   4
loop_
 _symmetry_equiv_pos_site_id
 _symmetry_equiv_pos_as_xyz
  1  'x, y, z'
loop_
 _atom_site_type_symbol
 _atom_site_label
 _atom_site_symmetry_multiplicity
 _atom_site_fract_x
 _atom_site_fract_y
 _atom_site_fract_z
 _atom_site_occupancy
  Rb  Rb0  1  0.537473  0.500088  0.826197  1
  Rb  Rb1  1  0.462527  0.499912  0.173803  1
  Rb  Rb2  1  0.037473  0.499912  0.673803  1
  Rb  Rb3  1  0.462527  0.000088  0.173803  1
  Rb  Rb4  1  0.962527  0.500088  0.326197  1
  Rb  Rb5  1  0.537473  0.999912  0.826197  1
  Rb  Rb6  1  0.962527  0.999912  0.326197  1
  Rb  Rb7  1  0.037473  0.000088  0.673803  1
  Np  Np8  1  0.569231  0.750000  0.501372  1
  Np  Np9  1  0.430769  0.250000  0.498628  1
  Np  Np10  1  0.069231  0.250000  0.998628  1
  Np  Np11  1  0.930769  0.750000  0.001372  1
  Br  Br12  1  0.831699  0.750000  0.803756  1
  Br  Br13  1  0.168301  0.250000  0.196244  1
  Br  Br14  1  0.331699  0.250000  0.696244  1
  Br  Br15  1  0.668301  0.750000  0.303756  1
  Br  Br16  1  0.368184  0.750000  0.666721  1
  Br  Br17  1  0.631816  0.250000  0.333279  1
  Br  Br18  1  0.868184  0.250000  0.833279  1
  Br  Br19  1  0.131816  0.750000  0.166721  1
  Br  Br20  1  0.907671  0.750000  0.512151  1
  Br  Br21  1  0.092329  0.250000  0.487849  1
  Br  Br22  1  0.407671  0.250000  0.987849  1
  Br  Br23  1  0.592329  0.750000  0.012151  1
  Br  Br24  1  0.653282  0.039794  0.579851  1
  Br  Br25  1  0.346718  0.960206  0.420149  1
  Br  Br26  1  0.153282  0.960206  0.920149  1
  Br  Br27  1  0.346718  0.539794  0.420149  1
  Br  Br28  1  0.846718  0.039794  0.079851  1
  Br  Br29  1  0.653282  0.460206  0.579851  1
  Br  Br30  1  0.846718  0.460206  0.079851  1
  Br  Br31  1  0.153282  0.539794  0.920149  1
