# generated using pymatgen
data_Li3Y4P12Ir17
_symmetry_space_group_name_H-M   'P 1'
_cell_length_a   3.99744300
_cell_length_b   10.78117663
_cell_length_c   12.65063507
_cell_angle_alpha   89.60091181
_cell_angle_beta   90.00000000
_cell_angle_gamma   90.00000000
_symmetry_Int_Tables_number   1
_chemical_formula_structural   Li3Y4P12Ir17
_chemical_formula_sum   'Li3 Y4 P12 Ir17'
_cell_volume   545.19295321
_cell_formula_units_Z   1
loop_
 _symmetry_equiv_pos_site_id
 _symmetry_equiv_pos_as_xyz
  1  'x, y, z'
loop_
 _atom_site_type_symbol
 _atom_site_label
 _atom_site_symmetry_multiplicity
 _atom_site_fract_x
 _atom_site_fract_y
 _atom_site_fract_z
 _atom_site_occupancy
  Li  Li0  1  0.250000  0.788512  0.493214  1
  Li  Li1  1  0.750000  0.207314  0.506368  1
  Li  Li2  1  0.750000  0.292622  0.008285  1
  Y  Y3  1  0.250000  0.926088  0.203127  1
  Y  Y4  1  0.750000  0.078894  0.795140  1
  Y  Y5  1  0.750000  0.420646  0.294404  1
  Y  Y6  1  0.250000  0.575338  0.699750  1
  P  P7  1  0.250000  0.071569  0.617483  1
  P  P8  1  0.750000  0.924697  0.385674  1
  P  P9  1  0.750000  0.567543  0.880312  1
  P  P10  1  0.250000  0.424521  0.114984  1
  P  P11  1  0.250000  0.237238  0.360876  1
  P  P12  1  0.750000  0.758745  0.640247  1
  P  P13  1  0.750000  0.741447  0.138546  1
  P  P14  1  0.250000  0.261350  0.861466  1
  P  P15  1  0.250000  0.905627  0.889562  1
  P  P16  1  0.750000  0.106518  0.110590  1
  P  P17  1  0.750000  0.394187  0.606169  1
  P  P18  1  0.250000  0.600922  0.390887  1
  Ir  Ir19  1  0.250000  0.730215  0.994104  1
  Ir  Ir20  1  0.250000  0.092318  0.977166  1
  Ir  Ir21  1  0.750000  0.911598  0.025013  1
  Ir  Ir22  1  0.750000  0.592687  0.523350  1
  Ir  Ir23  1  0.250000  0.405017  0.475694  1
  Ir  Ir24  1  0.250000  0.268873  0.674753  1
  Ir  Ir25  1  0.750000  0.730001  0.322717  1
  Ir  Ir26  1  0.750000  0.764942  0.828807  1
  Ir  Ir27  1  0.250000  0.227560  0.174276  1
  Ir  Ir28  1  0.250000  0.612297  0.204467  1
  Ir  Ir29  1  0.750000  0.379105  0.795701  1
  Ir  Ir30  1  0.750000  0.117397  0.298993  1
  Ir  Ir31  1  0.250000  0.877688  0.707724  1
  Ir  Ir32  1  0.250000  0.036774  0.434552  1
  Ir  Ir33  1  0.750000  0.958458  0.570163  1
  Ir  Ir34  1  0.750000  0.547876  0.064038  1
  Ir  Ir35  1  0.250000  0.463415  0.931397  1
