# generated using pymatgen
data_Sc4TiAl(B2Rh5)2
_symmetry_space_group_name_H-M   'P 1'
_cell_length_a   9.34568900
_cell_length_b   3.09921500
_cell_length_c   9.34568900
_cell_angle_alpha   90.00000000
_cell_angle_beta   90.00000000
_cell_angle_gamma   90.00000000
_symmetry_Int_Tables_number   1
_chemical_formula_structural   Sc4TiAl(B2Rh5)2
_chemical_formula_sum   'Sc4 Ti1 Al1 B4 Rh10'
_cell_volume   270.69133555
_cell_formula_units_Z   1
loop_
 _symmetry_equiv_pos_site_id
 _symmetry_equiv_pos_as_xyz
  1  'x, y, z'
loop_
 _atom_site_type_symbol
 _atom_site_label
 _atom_site_symmetry_multiplicity
 _atom_site_fract_x
 _atom_site_fract_y
 _atom_site_fract_z
 _atom_site_occupancy
  Sc  Sc0  1  0.673217  0.000000  0.176486  1
  Sc  Sc1  1  0.176486  0.000000  0.326781  1
  Sc  Sc2  1  0.823514  0.000000  0.673217  1
  Sc  Sc3  1  0.326781  0.000000  0.823514  1
  Ti  Ti4  1  0.000000  0.000000  0.000000  1
  Al  Al5  1  0.500000  0.000000  0.500000  1
  B  B6  1  0.379096  0.000000  0.124582  1
  B  B7  1  0.875418  0.000000  0.379096  1
  B  B8  1  0.124582  0.000000  0.620904  1
  B  B9  1  0.620904  0.000000  0.875418  1
  Rh  Rh10  1  0.500000  0.500000  0.000000  1
  Rh  Rh11  1  0.216816  0.500000  0.070656  1
  Rh  Rh12  1  0.929344  0.500000  0.216816  1
  Rh  Rh13  1  0.428956  0.500000  0.283768  1
  Rh  Rh14  1  0.716230  0.500000  0.428956  1
  Rh  Rh15  1  0.000000  0.500000  0.500000  1
  Rh  Rh16  1  0.283768  0.500000  0.571044  1
  Rh  Rh17  1  0.571044  0.500000  0.716230  1
  Rh  Rh18  1  0.070656  0.500000  0.783183  1
  Rh  Rh19  1  0.783183  0.500000  0.929344  1
