# generated using pymatgen
data_Nd3CdHg4
_symmetry_space_group_name_H-M   'P 1'
_cell_length_a   6.51534685
_cell_length_b   6.51534782
_cell_length_c   10.66737100
_cell_angle_alpha   90.00000000
_cell_angle_beta   90.00000000
_cell_angle_gamma   106.14532399
_symmetry_Int_Tables_number   1
_chemical_formula_structural   Nd3CdHg4
_chemical_formula_sum   'Nd6 Cd2 Hg8'
_cell_volume   434.96750110
_cell_formula_units_Z   2
loop_
 _symmetry_equiv_pos_site_id
 _symmetry_equiv_pos_as_xyz
  1  'x, y, z'
loop_
 _atom_site_type_symbol
 _atom_site_label
 _atom_site_symmetry_multiplicity
 _atom_site_fract_x
 _atom_site_fract_y
 _atom_site_fract_z
 _atom_site_occupancy
  Nd  Nd0  1  0.582002  0.582002  0.250000  1
  Nd  Nd1  1  0.417998  0.417998  0.750000  1
  Nd  Nd2  1  0.209513  0.790487  0.500000  1
  Nd  Nd3  1  0.209513  0.790487  0.000000  1
  Nd  Nd4  1  0.790487  0.209513  0.500000  1
  Nd  Nd5  1  0.790487  0.209513  0.000000  1
  Cd  Cd6  1  0.005774  0.005773  0.250000  1
  Cd  Cd7  1  0.994227  0.994226  0.750000  1
  Hg  Hg8  1  0.296642  0.296642  0.030635  1
  Hg  Hg9  1  0.703358  0.703358  0.969365  1
  Hg  Hg10  1  0.296642  0.296642  0.469365  1
  Hg  Hg11  1  0.703358  0.703358  0.530635  1
  Hg  Hg12  1  0.487248  0.044952  0.250000  1
  Hg  Hg13  1  0.955048  0.512752  0.750000  1
  Hg  Hg14  1  0.512752  0.955048  0.750000  1
  Hg  Hg15  1  0.044952  0.487248  0.250000  1
