# generated using pymatgen
data_Er17Tm3(Bi2Rh)4
_symmetry_space_group_name_H-M   'P 1'
_cell_length_a   7.93288230
_cell_length_b   8.95970411
_cell_length_c   12.36323749
_cell_angle_alpha   89.98680095
_cell_angle_beta   90.02936502
_cell_angle_gamma   89.98819121
_symmetry_Int_Tables_number   1
_chemical_formula_structural   Er17Tm3(Bi2Rh)4
_chemical_formula_sum   'Er17 Tm3 Bi8 Rh4'
_cell_volume   878.73274909
_cell_formula_units_Z   1
loop_
 _symmetry_equiv_pos_site_id
 _symmetry_equiv_pos_as_xyz
  1  'x, y, z'
loop_
 _atom_site_type_symbol
 _atom_site_label
 _atom_site_symmetry_multiplicity
 _atom_site_fract_x
 _atom_site_fract_y
 _atom_site_fract_z
 _atom_site_occupancy
  Er  Er0  1  0.662751  0.749837  0.707356  1
  Er  Er1  1  0.337119  0.250102  0.292639  1
  Er  Er2  1  0.162672  0.250204  0.792665  1
  Er  Er3  1  0.837373  0.749882  0.207269  1
  Er  Er4  1  0.124836  0.749755  0.809133  1
  Er  Er5  1  0.875295  0.250237  0.190825  1
  Er  Er6  1  0.624704  0.250099  0.690927  1
  Er  Er7  1  0.375016  0.749858  0.309086  1
  Er  Er8  1  0.549610  0.749680  0.998675  1
  Er  Er9  1  0.450247  0.250306  0.001334  1
  Er  Er10  1  0.049731  0.250199  0.501287  1
  Er  Er11  1  0.950672  0.749846  0.498776  1
  Er  Er12  1  0.175551  0.956214  0.066384  1
  Er  Er13  1  0.675512  0.456009  0.433616  1
  Er  Er14  1  0.824515  0.043627  0.933605  1
  Er  Er15  1  0.675626  0.043755  0.433582  1
  Er  Er16  1  0.324488  0.956116  0.566447  1
  Tm  Tm17  1  0.825278  0.455998  0.933712  1
  Tm  Tm18  1  0.174748  0.544055  0.066308  1
  Tm  Tm19  1  0.325139  0.544064  0.566341  1
  Bi  Bi20  1  0.933843  0.008893  0.673282  1
  Bi  Bi21  1  0.066214  0.991103  0.326728  1
  Bi  Bi22  1  0.433812  0.991128  0.826730  1
  Bi  Bi23  1  0.066143  0.508963  0.326595  1
  Bi  Bi24  1  0.566154  0.008885  0.173292  1
  Bi  Bi25  1  0.934023  0.491123  0.673303  1
  Bi  Bi26  1  0.565802  0.491143  0.173247  1
  Bi  Bi27  1  0.434134  0.508909  0.826662  1
  Rh  Rh28  1  0.925705  0.749097  0.990358  1
  Rh  Rh29  1  0.074311  0.250936  0.009595  1
  Rh  Rh30  1  0.424932  0.250522  0.509787  1
  Rh  Rh31  1  0.574044  0.749451  0.490456  1
