# generated using pymatgen
data_ErTm(NiB2)3
_symmetry_space_group_name_H-M   'P 1'
_cell_length_a   5.76587745
_cell_length_b   5.76587768
_cell_length_c   3.45167200
_cell_angle_alpha   90.00000000
_cell_angle_beta   90.00000000
_cell_angle_gamma   96.77334093
_symmetry_Int_Tables_number   1
_chemical_formula_structural   ErTm(NiB2)3
_chemical_formula_sum   'Er1 Tm1 Ni3 B6'
_cell_volume   113.95111075
_cell_formula_units_Z   1
loop_
 _symmetry_equiv_pos_site_id
 _symmetry_equiv_pos_as_xyz
  1  'x, y, z'
loop_
 _atom_site_type_symbol
 _atom_site_label
 _atom_site_symmetry_multiplicity
 _atom_site_fract_x
 _atom_site_fract_y
 _atom_site_fract_z
 _atom_site_occupancy
  Er  Er0  1  0.724505  0.275494  0.000000  1
  Tm  Tm1  1  0.275831  0.724169  0.000000  1
  Ni  Ni2  1  0.227031  0.227114  0.000000  1
  Ni  Ni3  1  0.772886  0.772969  0.000000  1
  Ni  Ni4  1  0.000836  0.999164  0.500000  1
  B  B5  1  0.612500  0.613056  0.500000  1
  B  B6  1  0.386944  0.387500  0.500000  1
  B  B7  1  0.613637  0.915414  0.500000  1
  B  B8  1  0.385360  0.084117  0.500000  1
  B  B9  1  0.915883  0.614640  0.500000  1
  B  B10  1  0.084586  0.386363  0.500000  1
