# generated using pymatgen
data_YbAl12PbSe20
_symmetry_space_group_name_H-M   'P 1'
_cell_length_a   9.76397894
_cell_length_b   9.77656942
_cell_length_c   9.66482100
_cell_angle_alpha   89.90759714
_cell_angle_beta   90.64669928
_cell_angle_gamma   89.70140642
_symmetry_Int_Tables_number   1
_chemical_formula_structural   YbAl12PbSe20
_chemical_formula_sum   'Yb1 Al12 Pb1 Se20'
_cell_volume   922.51400649
_cell_formula_units_Z   1
loop_
 _symmetry_equiv_pos_site_id
 _symmetry_equiv_pos_as_xyz
  1  'x, y, z'
loop_
 _atom_site_type_symbol
 _atom_site_label
 _atom_site_symmetry_multiplicity
 _atom_site_fract_x
 _atom_site_fract_y
 _atom_site_fract_z
 _atom_site_occupancy
  Yb  Yb0  1  0.257121  0.004695  0.750237  1
  Al  Al1  1  0.572774  0.840360  0.882378  1
  Al  Al2  1  0.875560  0.567031  0.836431  1
  Al  Al3  1  0.260591  0.648035  0.831440  1
  Al  Al4  1  0.164208  0.347562  0.739859  1
  Al  Al5  1  0.833462  0.258245  0.660952  1
  Al  Al6  1  0.837987  0.881745  0.576915  1
  Al  Al7  1  0.119429  0.163072  0.426504  1
  Al  Al8  1  0.739428  0.169174  0.340423  1
  Al  Al9  1  0.651678  0.837784  0.260335  1
  Al  Al10  1  0.351706  0.741641  0.164541  1
  Al  Al11  1  0.433989  0.124024  0.162209  1
  Al  Al12  1  0.161665  0.423261  0.116702  1
  Pb  Pb13  1  0.995109  0.740056  0.246685  1
  Se  Se14  1  0.185330  0.818192  0.993121  1
  Se  Se15  1  0.324541  0.424193  0.924979  1
  Se  Se16  1  0.498754  0.072738  0.924923  1
  Se  Se17  1  0.821065  0.818232  0.824995  1
  Se  Se18  1  0.006261  0.184689  0.825749  1
  Se  Se19  1  0.695195  0.437753  0.741336  1
  Se  Se20  1  0.431243  0.754878  0.694512  1
  Se  Se21  1  0.073356  0.573959  0.677760  1
  Se  Se22  1  0.681526  0.075013  0.573345  1
  Se  Se23  1  0.305481  0.246657  0.567472  1
  Se  Se24  1  0.074511  0.929611  0.507944  1
  Se  Se25  1  0.753409  0.695425  0.436927  1
  Se  Se26  1  0.924958  0.318300  0.427777  1
  Se  Se27  1  0.424669  0.924745  0.321447  1
  Se  Se28  1  0.250288  0.565640  0.302490  1
  Se  Se29  1  0.558655  0.306885  0.258499  1
  Se  Se30  1  0.808544  0.001954  0.174410  1
  Se  Se31  1  0.181344  0.176794  0.177600  1
  Se  Se32  1  0.926601  0.493859  0.072859  1
  Se  Se33  1  0.576060  0.677302  0.076241  1
