# generated using pymatgen
data_TbEr5(P2Ir3)6
_symmetry_space_group_name_H-M   'P 1'
_cell_length_a   3.96884700
_cell_length_b   11.17676900
_cell_length_c   12.77149500
_cell_angle_alpha   90.00000000
_cell_angle_beta   90.00000000
_cell_angle_gamma   90.00000000
_symmetry_Int_Tables_number   1
_chemical_formula_structural   TbEr5(P2Ir3)6
_chemical_formula_sum   'Tb1 Er5 P12 Ir18'
_cell_volume   566.52929223
_cell_formula_units_Z   1
loop_
 _symmetry_equiv_pos_site_id
 _symmetry_equiv_pos_as_xyz
  1  'x, y, z'
loop_
 _atom_site_type_symbol
 _atom_site_label
 _atom_site_symmetry_multiplicity
 _atom_site_fract_x
 _atom_site_fract_y
 _atom_site_fract_z
 _atom_site_occupancy
  Tb  Tb0  1  0.750000  0.250000  0.477199  1
  Er  Er1  1  0.250000  0.750000  0.522727  1
  Er  Er2  1  0.250000  0.934848  0.795600  1
  Er  Er3  1  0.250000  0.565152  0.795600  1
  Er  Er4  1  0.750000  0.065196  0.204371  1
  Er  Er5  1  0.750000  0.434804  0.204371  1
  P  P6  1  0.250000  0.250000  0.124657  1
  P  P7  1  0.750000  0.750000  0.875209  1
  P  P8  1  0.250000  0.250000  0.640472  1
  P  P9  1  0.750000  0.750000  0.360090  1
  P  P10  1  0.250000  0.434839  0.381879  1
  P  P11  1  0.250000  0.065161  0.381879  1
  P  P12  1  0.750000  0.565275  0.617899  1
  P  P13  1  0.750000  0.934725  0.617899  1
  P  P14  1  0.250000  0.905186  0.106460  1
  P  P15  1  0.250000  0.594814  0.106460  1
  P  P16  1  0.750000  0.094820  0.893594  1
  P  P17  1  0.750000  0.405180  0.893594  1
  Ir  Ir18  1  0.250000  0.250000  0.818925  1
  Ir  Ir19  1  0.750000  0.750000  0.181265  1
  Ir  Ir20  1  0.250000  0.250000  0.300325  1
  Ir  Ir21  1  0.750000  0.750000  0.698814  1
  Ir  Ir22  1  0.750000  0.250000  0.029249  1
  Ir  Ir23  1  0.250000  0.750000  0.970729  1
  Ir  Ir24  1  0.250000  0.413505  0.999072  1
  Ir  Ir25  1  0.250000  0.086495  0.999072  1
  Ir  Ir26  1  0.750000  0.586554  0.000948  1
  Ir  Ir27  1  0.750000  0.913446  0.000948  1
  Ir  Ir28  1  0.250000  0.455259  0.569801  1
  Ir  Ir29  1  0.250000  0.044741  0.569801  1
  Ir  Ir30  1  0.750000  0.545559  0.430433  1
  Ir  Ir31  1  0.750000  0.954441  0.430433  1
  Ir  Ir32  1  0.250000  0.880971  0.286031  1
  Ir  Ir33  1  0.250000  0.619029  0.286031  1
  Ir  Ir34  1  0.750000  0.118929  0.714081  1
  Ir  Ir35  1  0.750000  0.381071  0.714081  1
