# generated using pymatgen
data_Er8Sc2IrPt5
_symmetry_space_group_name_H-M   'P 1'
_cell_length_a   10.86700400
_cell_length_b   10.86700400
_cell_length_c   6.24426300
_cell_angle_alpha   90.00000000
_cell_angle_beta   90.00000000
_cell_angle_gamma   90.00000000
_symmetry_Int_Tables_number   1
_chemical_formula_structural   Er8Sc2IrPt5
_chemical_formula_sum   'Er16 Sc4 Ir2 Pt10'
_cell_volume   737.39610708
_cell_formula_units_Z   2
loop_
 _symmetry_equiv_pos_site_id
 _symmetry_equiv_pos_as_xyz
  1  'x, y, z'
loop_
 _atom_site_type_symbol
 _atom_site_label
 _atom_site_symmetry_multiplicity
 _atom_site_fract_x
 _atom_site_fract_y
 _atom_site_fract_z
 _atom_site_occupancy
  Er  Er0  1  0.288208  0.087457  0.376857  1
  Er  Er1  1  0.288208  0.912543  0.876857  1
  Er  Er2  1  0.711792  0.087457  0.876857  1
  Er  Er3  1  0.711792  0.912543  0.376857  1
  Er  Er4  1  0.587457  0.788208  0.876857  1
  Er  Er5  1  0.587457  0.211792  0.376857  1
  Er  Er6  1  0.412543  0.788208  0.376857  1
  Er  Er7  1  0.412543  0.211792  0.876857  1
  Er  Er8  1  0.207295  0.414479  0.623353  1
  Er  Er9  1  0.207295  0.585521  0.123353  1
  Er  Er10  1  0.792705  0.414479  0.123353  1
  Er  Er11  1  0.792705  0.585521  0.623353  1
  Er  Er12  1  0.914479  0.707295  0.123353  1
  Er  Er13  1  0.914479  0.292705  0.623353  1
  Er  Er14  1  0.085521  0.707295  0.623353  1
  Er  Er15  1  0.085521  0.292705  0.123353  1
  Sc  Sc16  1  0.000000  0.000000  0.500734  1
  Sc  Sc17  1  0.000000  0.000000  0.000734  1
  Sc  Sc18  1  0.500000  0.500000  0.000734  1
  Sc  Sc19  1  0.500000  0.500000  0.500734  1
  Ir  Ir20  1  0.000000  0.500000  0.878544  1
  Ir  Ir21  1  0.000000  0.500000  0.378544  1
  Pt  Pt22  1  0.850792  0.148191  0.250162  1
  Pt  Pt23  1  0.850792  0.851809  0.750162  1
  Pt  Pt24  1  0.149208  0.148191  0.750162  1
  Pt  Pt25  1  0.149208  0.851809  0.250162  1
  Pt  Pt26  1  0.648191  0.350792  0.750162  1
  Pt  Pt27  1  0.648191  0.649208  0.250162  1
  Pt  Pt28  1  0.351809  0.350792  0.250162  1
  Pt  Pt29  1  0.351809  0.649208  0.750162  1
  Pt  Pt30  1  0.500000  0.000000  0.118500  1
  Pt  Pt31  1  0.500000  0.000000  0.618500  1
