# generated using pymatgen
data_HfTa4Ga3C
_symmetry_space_group_name_H-M   'P 1'
_cell_length_a   7.76031895
_cell_length_b   7.76031899
_cell_length_c   5.42437000
_cell_angle_alpha   90.00000000
_cell_angle_beta   90.00000000
_cell_angle_gamma   119.39838324
_symmetry_Int_Tables_number   1
_chemical_formula_structural   HfTa4Ga3C
_chemical_formula_sum   'Hf2 Ta8 Ga6 C2'
_cell_volume   284.60341467
_cell_formula_units_Z   2
loop_
 _symmetry_equiv_pos_site_id
 _symmetry_equiv_pos_as_xyz
  1  'x, y, z'
loop_
 _atom_site_type_symbol
 _atom_site_label
 _atom_site_symmetry_multiplicity
 _atom_site_fract_x
 _atom_site_fract_y
 _atom_site_fract_z
 _atom_site_occupancy
  Hf  Hf0  1  0.759896  0.759896  0.250000  1
  Hf  Hf1  1  0.240104  0.240104  0.750000  1
  Ta  Ta2  1  0.226344  0.997212  0.250000  1
  Ta  Ta3  1  0.773656  0.002788  0.750000  1
  Ta  Ta4  1  0.997212  0.226344  0.250000  1
  Ta  Ta5  1  0.002788  0.773656  0.750000  1
  Ta  Ta6  1  0.332640  0.667360  0.000000  1
  Ta  Ta7  1  0.667360  0.332640  0.000000  1
  Ta  Ta8  1  0.667360  0.332640  0.500000  1
  Ta  Ta9  1  0.332640  0.667360  0.500000  1
  Ga  Ga10  1  0.588901  0.999692  0.250000  1
  Ga  Ga11  1  0.411099  0.000308  0.750000  1
  Ga  Ga12  1  0.999692  0.588901  0.250000  1
  Ga  Ga13  1  0.000308  0.411099  0.750000  1
  Ga  Ga14  1  0.400214  0.400214  0.250000  1
  Ga  Ga15  1  0.599786  0.599786  0.750000  1
  C  C16  1  0.000000  0.000000  0.000000  1
  C  C17  1  0.000000  0.000000  0.500000  1
