# generated using pymatgen
data_Hf3VFe2N
_symmetry_space_group_name_H-M   'P 1'
_cell_length_a   8.24689523
_cell_length_b   8.24696295
_cell_length_c   8.24691700
_cell_angle_alpha   60.00008403
_cell_angle_beta   59.99983646
_cell_angle_gamma   60.00015521
_symmetry_Int_Tables_number   1
_chemical_formula_structural   Hf3VFe2N
_chemical_formula_sum   'Hf12 V4 Fe8 N4'
_cell_volume   396.60793127
_cell_formula_units_Z   4
loop_
 _symmetry_equiv_pos_site_id
 _symmetry_equiv_pos_as_xyz
  1  'x, y, z'
loop_
 _atom_site_type_symbol
 _atom_site_label
 _atom_site_symmetry_multiplicity
 _atom_site_fract_x
 _atom_site_fract_y
 _atom_site_fract_z
 _atom_site_occupancy
  Hf  Hf0  1  0.808434  0.808412  0.191614  1
  Hf  Hf1  1  0.191576  0.191573  0.808426  1
  Hf  Hf2  1  0.808417  0.191550  0.808422  1
  Hf  Hf3  1  0.191502  0.808420  0.191635  1
  Hf  Hf4  1  0.191543  0.808413  0.808439  1
  Hf  Hf5  1  0.808420  0.191516  0.191642  1
  Hf  Hf6  1  0.441550  0.441547  0.058417  1
  Hf  Hf7  1  0.058403  0.058424  0.441587  1
  Hf  Hf8  1  0.441575  0.058415  0.441569  1
  Hf  Hf9  1  0.058446  0.441567  0.058425  1
  Hf  Hf10  1  0.058411  0.441564  0.441562  1
  Hf  Hf11  1  0.441573  0.058454  0.058408  1
  V  V12  1  0.124945  0.625039  0.625013  1
  V  V13  1  0.625058  0.124993  0.624978  1
  V  V14  1  0.625015  0.624983  0.125074  1
  V  V15  1  0.625001  0.624956  0.624935  1
  Fe  Fe16  1  0.734250  0.421940  0.421910  1
  Fe  Fe17  1  0.421928  0.734278  0.421901  1
  Fe  Fe18  1  0.421917  0.421897  0.734325  1
  Fe  Fe19  1  0.421945  0.421916  0.421920  1
  Fe  Fe20  1  0.515991  0.828042  0.827971  1
  Fe  Fe21  1  0.828038  0.516007  0.827969  1
  Fe  Fe22  1  0.828055  0.828054  0.515881  1
  Fe  Fe23  1  0.828033  0.828028  0.827977  1
  N  N24  1  0.624974  0.124999  0.125014  1
  N  N25  1  0.124992  0.624993  0.125010  1
  N  N26  1  0.125008  0.125014  0.624953  1
  N  N27  1  0.125001  0.125006  0.125020  1
