# generated using pymatgen
data_YErAl9Os2Pt
_symmetry_space_group_name_H-M   'P 1'
_cell_length_a   7.58947767
_cell_length_b   7.58940234
_cell_length_c   9.51728100
_cell_angle_alpha   90.00000000
_cell_angle_beta   90.00000000
_cell_angle_gamma   119.63977450
_symmetry_Int_Tables_number   1
_chemical_formula_structural   YErAl9Os2Pt
_chemical_formula_sum   'Y2 Er2 Al18 Os4 Pt2'
_cell_volume   476.46170860
_cell_formula_units_Z   2
loop_
 _symmetry_equiv_pos_site_id
 _symmetry_equiv_pos_as_xyz
  1  'x, y, z'
loop_
 _atom_site_type_symbol
 _atom_site_label
 _atom_site_symmetry_multiplicity
 _atom_site_fract_x
 _atom_site_fract_y
 _atom_site_fract_z
 _atom_site_occupancy
  Y  Y0  1  0.670463  0.997415  0.250000  1
  Y  Y1  1  0.329537  0.002585  0.750000  1
  Er  Er2  1  0.998050  0.669901  0.250000  1
  Er  Er3  1  0.001950  0.330099  0.750000  1
  Al  Al4  1  0.133444  0.132970  0.250000  1
  Al  Al5  1  0.866556  0.867030  0.750000  1
  Al  Al6  1  0.002382  0.339996  0.072356  1
  Al  Al7  1  0.997618  0.660004  0.927644  1
  Al  Al8  1  0.997618  0.660004  0.572356  1
  Al  Al9  1  0.339299  0.002169  0.427185  1
  Al  Al10  1  0.002382  0.339996  0.427644  1
  Al  Al11  1  0.660701  0.997831  0.572815  1
  Al  Al12  1  0.660701  0.997831  0.927185  1
  Al  Al13  1  0.339299  0.002169  0.072815  1
  Al  Al14  1  0.338048  0.338335  0.548744  1
  Al  Al15  1  0.661952  0.661665  0.451256  1
  Al  Al16  1  0.661952  0.661665  0.048744  1
  Al  Al17  1  0.338048  0.338335  0.951256  1
  Al  Al18  1  0.336093  0.548979  0.250000  1
  Al  Al19  1  0.663907  0.451021  0.750000  1
  Al  Al20  1  0.549839  0.337380  0.250000  1
  Al  Al21  1  0.450161  0.662620  0.750000  1
  Os  Os22  1  0.672253  0.327907  0.999979  1
  Os  Os23  1  0.327747  0.672093  0.000021  1
  Os  Os24  1  0.327747  0.672093  0.499979  1
  Os  Os25  1  0.672253  0.327907  0.500021  1
  Pt  Pt26  1  0.000000  0.000000  0.000000  1
  Pt  Pt27  1  0.000000  0.000000  0.500000  1
