# generated using pymatgen
data_CsRb2BiSe3
_symmetry_space_group_name_H-M   'P 1'
_cell_length_a   10.49324300
_cell_length_b   10.49324300
_cell_length_c   10.49324300
_cell_angle_alpha   90.00000000
_cell_angle_beta   90.00000000
_cell_angle_gamma   90.00000000
_symmetry_Int_Tables_number   1
_chemical_formula_structural   CsRb2BiSe3
_chemical_formula_sum   'Cs4 Rb8 Bi4 Se12'
_cell_volume   1155.39156014
_cell_formula_units_Z   4
loop_
 _symmetry_equiv_pos_site_id
 _symmetry_equiv_pos_as_xyz
  1  'x, y, z'
loop_
 _atom_site_type_symbol
 _atom_site_label
 _atom_site_symmetry_multiplicity
 _atom_site_fract_x
 _atom_site_fract_y
 _atom_site_fract_z
 _atom_site_occupancy
  Cs  Cs0  1  0.929229  0.429229  0.070771  1
  Cs  Cs1  1  0.429229  0.070771  0.929229  1
  Cs  Cs2  1  0.070771  0.929229  0.429229  1
  Cs  Cs3  1  0.570771  0.570771  0.570771  1
  Rb  Rb4  1  0.181255  0.681255  0.818745  1
  Rb  Rb5  1  0.681255  0.818745  0.181255  1
  Rb  Rb6  1  0.818745  0.181255  0.681255  1
  Rb  Rb7  1  0.318745  0.318745  0.318745  1
  Rb  Rb8  1  0.688148  0.188148  0.311852  1
  Rb  Rb9  1  0.188148  0.311852  0.688148  1
  Rb  Rb10  1  0.311852  0.688148  0.188148  1
  Rb  Rb11  1  0.811852  0.811852  0.811852  1
  Bi  Bi12  1  0.472197  0.972197  0.527803  1
  Bi  Bi13  1  0.972197  0.527803  0.472197  1
  Bi  Bi14  1  0.527803  0.472197  0.972197  1
  Bi  Bi15  1  0.027803  0.027803  0.027803  1
  Se  Se16  1  0.002936  0.783030  0.100546  1
  Se  Se17  1  0.899454  0.502936  0.716970  1
  Se  Se18  1  0.283030  0.399454  0.997064  1
  Se  Se19  1  0.502936  0.716970  0.899454  1
  Se  Se20  1  0.399454  0.997064  0.283030  1
  Se  Se21  1  0.783030  0.100546  0.002936  1
  Se  Se22  1  0.997064  0.283030  0.399454  1
  Se  Se23  1  0.100546  0.002936  0.783030  1
  Se  Se24  1  0.716970  0.899454  0.502936  1
  Se  Se25  1  0.497064  0.216970  0.600546  1
  Se  Se26  1  0.600546  0.497064  0.216970  1
  Se  Se27  1  0.216970  0.600546  0.497064  1
