# generated using pymatgen
data_Th8Ti5Si16Mo7
_symmetry_space_group_name_H-M   'P 1'
_cell_length_a   7.09831382
_cell_length_b   7.09596990
_cell_length_c   13.19047931
_cell_angle_alpha   89.94612333
_cell_angle_beta   90.12184935
_cell_angle_gamma   90.00135164
_symmetry_Int_Tables_number   1
_chemical_formula_structural   Th8Ti5Si16Mo7
_chemical_formula_sum   'Th8 Ti5 Si16 Mo7'
_cell_volume   664.39501149
_cell_formula_units_Z   1
loop_
 _symmetry_equiv_pos_site_id
 _symmetry_equiv_pos_as_xyz
  1  'x, y, z'
loop_
 _atom_site_type_symbol
 _atom_site_label
 _atom_site_symmetry_multiplicity
 _atom_site_fract_x
 _atom_site_fract_y
 _atom_site_fract_z
 _atom_site_occupancy
  Th  Th0  1  0.337751  0.000807  0.468249  1
  Th  Th1  1  0.498570  0.836901  0.719651  1
  Th  Th2  1  0.499178  0.162916  0.219067  1
  Th  Th3  1  0.837507  0.498970  0.279681  1
  Th  Th4  1  0.164367  0.499410  0.782031  1
  Th  Th5  1  0.661760  0.000021  0.970416  1
  Th  Th6  1  0.001392  0.337563  0.530723  1
  Th  Th7  1  0.999947  0.662726  0.030662  1
  Ti  Ti8  1  0.330581  0.331556  0.000338  1
  Ti  Ti9  1  0.169805  0.829999  0.249535  1
  Ti  Ti10  1  0.830239  0.170934  0.751183  1
  Ti  Ti11  1  0.667588  0.667744  0.498718  1
  Ti  Ti12  1  0.995851  0.834712  0.624395  1
  Si  Si13  1  0.197872  0.120523  0.687575  1
  Si  Si14  1  0.381418  0.695094  0.938375  1
  Si  Si15  1  0.620730  0.303341  0.437741  1
  Si  Si16  1  0.694152  0.381457  0.061852  1
  Si  Si17  1  0.306615  0.619333  0.561337  1
  Si  Si18  1  0.803601  0.881232  0.187982  1
  Si  Si19  1  0.117980  0.194750  0.311850  1
  Si  Si20  1  0.880874  0.802439  0.812886  1
  Si  Si21  1  0.282048  0.967381  0.063422  1
  Si  Si22  1  0.535251  0.782403  0.314067  1
  Si  Si23  1  0.466024  0.216416  0.813374  1
  Si  Si24  1  0.783833  0.534812  0.686813  1
  Si  Si25  1  0.216668  0.465191  0.186397  1
  Si  Si26  1  0.714767  0.038067  0.564206  1
  Si  Si27  1  0.965386  0.283636  0.937171  1
  Si  Si28  1  0.037326  0.715650  0.435299  1
  Mo  Mo29  1  0.166106  0.004209  0.874927  1
  Mo  Mo30  1  0.496569  0.667905  0.125988  1
  Mo  Mo31  1  0.502988  0.333058  0.624562  1
  Mo  Mo32  1  0.667716  0.495849  0.874312  1
  Mo  Mo33  1  0.335244  0.500488  0.373902  1
  Mo  Mo34  1  0.831512  0.995052  0.376420  1
  Mo  Mo35  1  0.000788  0.167458  0.124894  1
