# generated using pymatgen
data_PrZr2Al7Cu2
_symmetry_space_group_name_H-M   'P 1'
_cell_length_a   8.96193831
_cell_length_b   8.96193870
_cell_length_c   8.96193805
_cell_angle_alpha   34.83044700
_cell_angle_beta   34.83044251
_cell_angle_gamma   34.83044131
_symmetry_Int_Tables_number   1
_chemical_formula_structural   PrZr2Al7Cu2
_chemical_formula_sum   'Pr1 Zr2 Al7 Cu2'
_cell_volume   209.59156287
_cell_formula_units_Z   1
loop_
 _symmetry_equiv_pos_site_id
 _symmetry_equiv_pos_as_xyz
  1  'x, y, z'
loop_
 _atom_site_type_symbol
 _atom_site_label
 _atom_site_symmetry_multiplicity
 _atom_site_fract_x
 _atom_site_fract_y
 _atom_site_fract_z
 _atom_site_occupancy
  Pr  Pr0  1  0.000000  0.000000  0.000000  1
  Zr  Zr1  1  0.855949  0.855949  0.855949  1
  Zr  Zr2  1  0.144051  0.144051  0.144051  1
  Al  Al3  1  0.414272  0.414272  0.923784  1
  Al  Al4  1  0.923784  0.414272  0.414272  1
  Al  Al5  1  0.414272  0.923784  0.414272  1
  Al  Al6  1  0.500000  0.500000  0.500000  1
  Al  Al7  1  0.585728  0.076216  0.585728  1
  Al  Al8  1  0.076216  0.585728  0.585728  1
  Al  Al9  1  0.585728  0.585728  0.076216  1
  Cu  Cu10  1  0.665421  0.665421  0.665421  1
  Cu  Cu11  1  0.334579  0.334579  0.334579  1
