# generated using pymatgen
data_La(YbBi)3
_symmetry_space_group_name_H-M   'P 1'
_cell_length_a   8.45450490
_cell_length_b   8.41713008
_cell_length_c   8.46831570
_cell_angle_alpha   109.50728301
_cell_angle_beta   109.67792888
_cell_angle_gamma   109.44062997
_symmetry_Int_Tables_number   1
_chemical_formula_structural   La(YbBi)3
_chemical_formula_sum   'La2 Yb6 Bi6'
_cell_volume   462.68286071
_cell_formula_units_Z   2
loop_
 _symmetry_equiv_pos_site_id
 _symmetry_equiv_pos_as_xyz
  1  'x, y, z'
loop_
 _atom_site_type_symbol
 _atom_site_label
 _atom_site_symmetry_multiplicity
 _atom_site_fract_x
 _atom_site_fract_y
 _atom_site_fract_z
 _atom_site_occupancy
  La  La0  1  0.853829  0.854223  0.854377  1
  La  La1  1  0.999606  0.145777  0.500154  1
  Yb  Yb2  1  0.147195  0.502064  0.002488  1
  Yb  Yb3  1  0.356473  0.355923  0.353746  1
  Yb  Yb4  1  0.645131  0.497936  0.000424  1
  Yb  Yb5  1  0.498212  0.000857  0.645210  1
  Yb  Yb6  1  0.497354  0.999143  0.144353  1
  Yb  Yb7  1  0.000551  0.644077  0.497824  1
  Bi  Bi8  1  0.252872  0.126536  0.876364  1
  Bi  Bi9  1  0.126336  0.873464  0.249828  1
  Bi  Bi10  1  0.750363  0.374949  0.625025  1
  Bi  Bi11  1  0.873774  0.250886  0.125508  1
  Bi  Bi12  1  0.622888  0.749114  0.374622  1
  Bi  Bi13  1  0.375415  0.625051  0.750077  1
