# generated using pymatgen
data_TbHo9(Cd2Pd)4
_symmetry_space_group_name_H-M   'P 1'
_cell_length_a   3.64114200
_cell_length_b   7.94690448
_cell_length_c   18.31401110
_cell_angle_alpha   90.03972918
_cell_angle_beta   90.00000000
_cell_angle_gamma   90.00000000
_symmetry_Int_Tables_number   1
_chemical_formula_structural   TbHo9(Cd2Pd)4
_chemical_formula_sum   'Tb1 Ho9 Cd8 Pd4'
_cell_volume   529.93057536
_cell_formula_units_Z   1
loop_
 _symmetry_equiv_pos_site_id
 _symmetry_equiv_pos_as_xyz
  1  'x, y, z'
loop_
 _atom_site_type_symbol
 _atom_site_label
 _atom_site_symmetry_multiplicity
 _atom_site_fract_x
 _atom_site_fract_y
 _atom_site_fract_z
 _atom_site_occupancy
  Tb  Tb0  1  0.000000  0.500000  0.500000  1
  Ho  Ho1  1  0.000000  0.000000  0.000000  1
  Ho  Ho2  1  0.000000  0.739899  0.281188  1
  Ho  Ho3  1  0.000000  0.260101  0.718812  1
  Ho  Ho4  1  0.000000  0.760031  0.781186  1
  Ho  Ho5  1  0.000000  0.239969  0.218814  1
  Ho  Ho6  1  0.000000  0.613731  0.083897  1
  Ho  Ho7  1  0.000000  0.386269  0.916103  1
  Ho  Ho8  1  0.000000  0.886283  0.583917  1
  Ho  Ho9  1  0.000000  0.113717  0.416083  1
  Cd  Cd10  1  0.500000  0.715040  0.932164  1
  Cd  Cd11  1  0.500000  0.284960  0.067836  1
  Cd  Cd12  1  0.500000  0.785766  0.431930  1
  Cd  Cd13  1  0.500000  0.214234  0.568070  1
  Cd  Cd14  1  0.500000  0.576629  0.648336  1
  Cd  Cd15  1  0.500000  0.423371  0.351664  1
  Cd  Cd16  1  0.500000  0.923512  0.148055  1
  Cd  Cd17  1  0.500000  0.076488  0.851945  1
  Pd  Pd18  1  0.500000  0.525434  0.195389  1
  Pd  Pd19  1  0.500000  0.474566  0.804611  1
  Pd  Pd20  1  0.500000  0.974713  0.695460  1
  Pd  Pd21  1  0.500000  0.025287  0.304540  1
