# generated using pymatgen
data_BaPr6OsI12
_symmetry_space_group_name_H-M   'P 1'
_cell_length_a   10.18822047
_cell_length_b   10.18822056
_cell_length_c   10.18822036
_cell_angle_alpha   105.81282999
_cell_angle_beta   105.81284047
_cell_angle_gamma   105.81283354
_symmetry_Int_Tables_number   1
_chemical_formula_structural   BaPr6OsI12
_chemical_formula_sum   'Ba1 Pr6 Os1 I12'
_cell_volume   907.73917153
_cell_formula_units_Z   1
loop_
 _symmetry_equiv_pos_site_id
 _symmetry_equiv_pos_as_xyz
  1  'x, y, z'
loop_
 _atom_site_type_symbol
 _atom_site_label
 _atom_site_symmetry_multiplicity
 _atom_site_fract_x
 _atom_site_fract_y
 _atom_site_fract_z
 _atom_site_occupancy
  Ba  Ba0  1  0.500000  0.500000  0.500000  1
  Pr  Pr1  1  0.092700  0.296017  0.016565  1
  Pr  Pr2  1  0.296016  0.016564  0.092700  1
  Pr  Pr3  1  0.016564  0.092700  0.296017  1
  Pr  Pr4  1  0.983435  0.907300  0.703983  1
  Pr  Pr5  1  0.703984  0.983435  0.907299  1
  Pr  Pr6  1  0.907300  0.703983  0.983435  1
  Os  Os7  1  0.000000  0.000000  0.000000  1
  I  I8  1  0.224575  0.679152  0.074179  1
  I  I9  1  0.443063  0.360535  0.130156  1
  I  I10  1  0.679152  0.074180  0.224575  1
  I  I11  1  0.925821  0.775426  0.320849  1
  I  I12  1  0.130156  0.443063  0.360535  1
  I  I13  1  0.360535  0.130156  0.443064  1
  I  I14  1  0.639465  0.869844  0.556936  1
  I  I15  1  0.869843  0.556937  0.639465  1
  I  I16  1  0.074180  0.224575  0.679152  1
  I  I17  1  0.320849  0.925821  0.775425  1
  I  I18  1  0.556936  0.639464  0.869844  1
  I  I19  1  0.775425  0.320849  0.925821  1
