# generated using pymatgen
data_Tb6PdPt
_symmetry_space_group_name_H-M   'P 1'
_cell_length_a   6.52988716
_cell_length_b   7.07346226
_cell_length_c   9.70277800
_cell_angle_alpha   90.00000000
_cell_angle_beta   90.00000000
_cell_angle_gamma   89.93162038
_symmetry_Int_Tables_number   1
_chemical_formula_structural   Tb6PdPt
_chemical_formula_sum   'Tb12 Pd2 Pt2'
_cell_volume   448.16042453
_cell_formula_units_Z   2
loop_
 _symmetry_equiv_pos_site_id
 _symmetry_equiv_pos_as_xyz
  1  'x, y, z'
loop_
 _atom_site_type_symbol
 _atom_site_label
 _atom_site_symmetry_multiplicity
 _atom_site_fract_x
 _atom_site_fract_y
 _atom_site_fract_z
 _atom_site_occupancy
  Tb  Tb0  1  0.636267  0.026367  0.250000  1
  Tb  Tb1  1  0.363733  0.973633  0.750000  1
  Tb  Tb2  1  0.134252  0.470603  0.750000  1
  Tb  Tb3  1  0.865748  0.529397  0.250000  1
  Tb  Tb4  1  0.175401  0.178792  0.060267  1
  Tb  Tb5  1  0.824599  0.821208  0.939733  1
  Tb  Tb6  1  0.677377  0.319301  0.938712  1
  Tb  Tb7  1  0.824599  0.821208  0.560267  1
  Tb  Tb8  1  0.322623  0.680699  0.061288  1
  Tb  Tb9  1  0.175401  0.178792  0.439733  1
  Tb  Tb10  1  0.322623  0.680699  0.438712  1
  Tb  Tb11  1  0.677377  0.319301  0.561288  1
  Pd  Pd12  1  0.442966  0.389098  0.250000  1
  Pd  Pd13  1  0.557034  0.610902  0.750000  1
  Pt  Pt14  1  0.942399  0.111827  0.750000  1
  Pt  Pt15  1  0.057601  0.888173  0.250000  1
