# generated using pymatgen
data_La7SmSnPd24
_symmetry_space_group_name_H-M   'P 1'
_cell_length_a   8.59387508
_cell_length_b   8.59387508
_cell_length_c   8.59387508
_cell_angle_alpha   89.88215944
_cell_angle_beta   89.88215944
_cell_angle_gamma   89.88215944
_symmetry_Int_Tables_number   1
_chemical_formula_structural   La7SmSnPd24
_chemical_formula_sum   'La7 Sm1 Sn1 Pd24'
_cell_volume   634.69394845
_cell_formula_units_Z   1
loop_
 _symmetry_equiv_pos_site_id
 _symmetry_equiv_pos_as_xyz
  1  'x, y, z'
loop_
 _atom_site_type_symbol
 _atom_site_label
 _atom_site_symmetry_multiplicity
 _atom_site_fract_x
 _atom_site_fract_y
 _atom_site_fract_z
 _atom_site_occupancy
  La  La0  1  0.747464  0.747464  0.747464  1
  La  La1  1  0.747490  0.747490  0.252284  1
  La  La2  1  0.747490  0.252284  0.747490  1
  La  La3  1  0.252831  0.252831  0.747361  1
  La  La4  1  0.252831  0.747361  0.252831  1
  La  La5  1  0.252284  0.747490  0.747490  1
  La  La6  1  0.747361  0.252831  0.252831  1
  Sm  Sm7  1  0.252169  0.252169  0.252169  1
  Sn  Sn8  1  0.999797  0.999797  0.999797  1
  Pd  Pd9  1  0.266457  0.498817  0.002002  1
  Pd  Pd10  1  0.733545  0.499617  0.000033  1
  Pd  Pd11  1  0.002002  0.266457  0.498817  1
  Pd  Pd12  1  0.498817  0.266457  0.002002  1
  Pd  Pd13  1  0.000033  0.733545  0.499617  1
  Pd  Pd14  1  0.499617  0.733545  0.000033  1
  Pd  Pd15  1  0.498817  0.002002  0.266457  1
  Pd  Pd16  1  0.266457  0.002002  0.498817  1
  Pd  Pd17  1  0.499617  0.000033  0.733545  1
  Pd  Pd18  1  0.733545  0.000033  0.499617  1
  Pd  Pd19  1  0.002002  0.498817  0.266457  1
  Pd  Pd20  1  0.000033  0.499617  0.733545  1
  Pd  Pd21  1  0.255199  0.498483  0.498483  1
  Pd  Pd22  1  0.744898  0.499760  0.499760  1
  Pd  Pd23  1  0.498483  0.255199  0.498483  1
  Pd  Pd24  1  0.499760  0.744898  0.499760  1
  Pd  Pd25  1  0.498483  0.498483  0.255199  1
  Pd  Pd26  1  0.499760  0.499760  0.744898  1
  Pd  Pd27  1  0.311847  0.001707  0.001707  1
  Pd  Pd28  1  0.687436  0.000030  0.000030  1
  Pd  Pd29  1  0.001707  0.311847  0.001707  1
  Pd  Pd30  1  0.000030  0.687436  0.000030  1
  Pd  Pd31  1  0.001707  0.001707  0.311847  1
  Pd  Pd32  1  0.000030  0.000030  0.687436  1
