# generated using pymatgen
data_Sr3TlP8(PdO7)4
_symmetry_space_group_name_H-M   'P 1'
_cell_length_a   5.93717900
_cell_length_b   7.55121662
_cell_length_c   13.99646036
_cell_angle_alpha   88.89800635
_cell_angle_beta   90.00000000
_cell_angle_gamma   90.00000000
_symmetry_Int_Tables_number   1
_chemical_formula_structural   Sr3TlP8(PdO7)4
_chemical_formula_sum   'Sr3 Tl1 P8 Pd4 O28'
_cell_volume   627.38619301
_cell_formula_units_Z   1
loop_
 _symmetry_equiv_pos_site_id
 _symmetry_equiv_pos_as_xyz
  1  'x, y, z'
loop_
 _atom_site_type_symbol
 _atom_site_label
 _atom_site_symmetry_multiplicity
 _atom_site_fract_x
 _atom_site_fract_y
 _atom_site_fract_z
 _atom_site_occupancy
  Sr  Sr0  1  0.750000  0.253337  0.756457  1
  Sr  Sr1  1  0.750000  0.245685  0.254286  1
  Sr  Sr2  1  0.250000  0.753881  0.743769  1
  Tl  Tl3  1  0.250000  0.744077  0.242580  1
  P  P4  1  0.250000  0.267829  0.112153  1
  P  P5  1  0.750000  0.706142  0.877880  1
  P  P6  1  0.750000  0.801124  0.393456  1
  P  P7  1  0.250000  0.212714  0.618712  1
  P  P8  1  0.250000  0.200502  0.411859  1
  P  P9  1  0.750000  0.822962  0.597864  1
  P  P10  1  0.750000  0.672192  0.082090  1
  P  P11  1  0.250000  0.316940  0.906865  1
  Pd  Pd12  1  0.997857  0.992602  0.992596  1
  Pd  Pd13  1  0.997911  0.508162  0.506831  1
  Pd  Pd14  1  0.502143  0.992602  0.992596  1
  Pd  Pd15  1  0.502089  0.508162  0.506831  1
  O  O16  1  0.250000  0.061840  0.338108  1
  O  O17  1  0.750000  0.963191  0.671948  1
  O  O18  1  0.750000  0.525340  0.154918  1
  O  O19  1  0.250000  0.466912  0.835544  1
  O  O20  1  0.250000  0.391029  0.014725  1
  O  O21  1  0.750000  0.587460  0.974860  1
  O  O22  1  0.750000  0.913695  0.492360  1
  O  O23  1  0.250000  0.108807  0.519251  1
  O  O24  1  0.250000  0.379740  0.198846  1
  O  O25  1  0.750000  0.583734  0.794676  1
  O  O26  1  0.750000  0.929338  0.310871  1
  O  O27  1  0.250000  0.081639  0.700637  1
  O  O28  1  0.029840  0.315033  0.407695  1
  O  O29  1  0.967739  0.706668  0.604297  1
  O  O30  1  0.967204  0.787254  0.085782  1
  O  O31  1  0.532261  0.706668  0.604297  1
  O  O32  1  0.032066  0.202198  0.897716  1
  O  O33  1  0.470160  0.315033  0.407695  1
  O  O34  1  0.467934  0.202198  0.897716  1
  O  O35  1  0.532796  0.787254  0.085782  1
  O  O36  1  0.030787  0.153186  0.107435  1
  O  O37  1  0.965190  0.825742  0.878628  1
  O  O38  1  0.965615  0.683190  0.396924  1
  O  O39  1  0.534810  0.825742  0.878628  1
  O  O40  1  0.033849  0.330908  0.619740  1
  O  O41  1  0.469213  0.153186  0.107435  1
  O  O42  1  0.466151  0.330908  0.619740  1
  O  O43  1  0.534385  0.683190  0.396924  1
