# generated using pymatgen
data_Lu8Ta12Si15Ge
_symmetry_space_group_name_H-M   'P 1'
_cell_length_a   6.80417172
_cell_length_b   6.98953867
_cell_length_c   13.30689515
_cell_angle_alpha   90.04817851
_cell_angle_beta   90.08893777
_cell_angle_gamma   89.98581502
_symmetry_Int_Tables_number   1
_chemical_formula_structural   Lu8Ta12Si15Ge
_chemical_formula_sum   'Lu8 Ta12 Si15 Ge1'
_cell_volume   632.84859831
_cell_formula_units_Z   1
loop_
 _symmetry_equiv_pos_site_id
 _symmetry_equiv_pos_as_xyz
  1  'x, y, z'
loop_
 _atom_site_type_symbol
 _atom_site_label
 _atom_site_symmetry_multiplicity
 _atom_site_fract_x
 _atom_site_fract_y
 _atom_site_fract_z
 _atom_site_occupancy
  Lu  Lu0  1  0.501424  0.673805  0.596198  1
  Lu  Lu1  1  0.000630  0.827611  0.905253  1
  Lu  Lu2  1  0.499098  0.328152  0.094732  1
  Lu  Lu3  1  0.999157  0.171016  0.404626  1
  Lu  Lu4  1  0.502967  0.325479  0.404060  1
  Lu  Lu5  1  0.999269  0.172246  0.094570  1
  Lu  Lu6  1  0.500537  0.671861  0.904979  1
  Lu  Lu7  1  0.999492  0.828571  0.595609  1
  Ta  Ta8  1  0.661381  0.174510  0.625375  1
  Ta  Ta9  1  0.161792  0.324823  0.875284  1
  Ta  Ta10  1  0.338352  0.825094  0.124706  1
  Ta  Ta11  1  0.836693  0.675336  0.374657  1
  Ta  Ta12  1  0.341016  0.829125  0.373714  1
  Ta  Ta13  1  0.838118  0.675257  0.124635  1
  Ta  Ta14  1  0.660554  0.175422  0.875306  1
  Ta  Ta15  1  0.159467  0.322152  0.626623  1
  Ta  Ta16  1  0.835269  0.491454  0.750147  1
  Ta  Ta17  1  0.334999  0.007907  0.750248  1
  Ta  Ta18  1  0.164503  0.509205  0.247931  1
  Ta  Ta19  1  0.664632  0.992020  0.249748  1
  Si  Si20  1  0.667804  0.964434  0.460366  1
  Si  Si21  1  0.166574  0.534998  0.039953  1
  Si  Si22  1  0.332822  0.034658  0.959877  1
  Si  Si23  1  0.828937  0.464478  0.540640  1
  Si  Si24  1  0.332623  0.035386  0.540028  1
  Si  Si25  1  0.833354  0.465076  0.959676  1
  Si  Si26  1  0.666658  0.965186  0.040088  1
  Si  Si27  1  0.457027  0.380016  0.750006  1
  Si  Si28  1  0.956395  0.119227  0.751209  1
  Si  Si29  1  0.542457  0.619735  0.249637  1
  Si  Si30  1  0.042385  0.879972  0.249882  1
  Si  Si31  1  0.702968  0.868215  0.750609  1
  Si  Si32  1  0.202773  0.631467  0.750408  1
  Si  Si33  1  0.296451  0.133018  0.249275  1
  Si  Si34  1  0.797663  0.368385  0.249721  1
  Ge  Ge35  1  0.173760  0.534706  0.460227  1
