# generated using pymatgen
data_Mg3Mn4Zn(AsO5)4
_symmetry_space_group_name_H-M   'P 1'
_cell_length_a   5.95897500
_cell_length_b   8.67855755
_cell_length_c   8.61593463
_cell_angle_alpha   90.12148368
_cell_angle_beta   90.00000000
_cell_angle_gamma   90.00000000
_symmetry_Int_Tables_number   1
_chemical_formula_structural   Mg3Mn4Zn(AsO5)4
_chemical_formula_sum   'Mg3 Mn4 Zn1 As4 O20'
_cell_volume   445.57470736
_cell_formula_units_Z   1
loop_
 _symmetry_equiv_pos_site_id
 _symmetry_equiv_pos_as_xyz
  1  'x, y, z'
loop_
 _atom_site_type_symbol
 _atom_site_label
 _atom_site_symmetry_multiplicity
 _atom_site_fract_x
 _atom_site_fract_y
 _atom_site_fract_z
 _atom_site_occupancy
  Mg  Mg0  1  0.000000  0.124651  0.642969  1
  Mg  Mg1  1  0.500000  0.375573  0.142877  1
  Mg  Mg2  1  0.500000  0.625202  0.857420  1
  Mn  Mn3  1  0.737551  0.499659  0.500450  1
  Mn  Mn4  1  0.761683  0.000256  0.999163  1
  Mn  Mn5  1  0.262449  0.499659  0.500450  1
  Mn  Mn6  1  0.238317  0.000256  0.999163  1
  Zn  Zn7  1  0.000000  0.875110  0.353880  1
  As  As8  1  0.500000  0.744524  0.236907  1
  As  As9  1  0.500000  0.257275  0.763284  1
  As  As10  1  0.000000  0.243026  0.262852  1
  As  As11  1  0.000000  0.756830  0.736443  1
  O  O12  1  0.000000  0.927277  0.124286  1
  O  O13  1  0.000000  0.071350  0.873224  1
  O  O14  1  0.500000  0.428872  0.373431  1
  O  O15  1  0.500000  0.570277  0.627244  1
  O  O16  1  0.500000  0.920478  0.130880  1
  O  O17  1  0.500000  0.080948  0.869599  1
  O  O18  1  0.000000  0.419025  0.370178  1
  O  O19  1  0.000000  0.579897  0.630808  1
  O  O20  1  0.500000  0.606266  0.096217  1
  O  O21  1  0.500000  0.394996  0.904422  1
  O  O22  1  0.000000  0.105800  0.404538  1
  O  O23  1  0.000000  0.895303  0.596318  1
  O  O24  1  0.733776  0.732653  0.351909  1
  O  O25  1  0.734339  0.266102  0.650107  1
  O  O26  1  0.765628  0.233544  0.149829  1
  O  O27  1  0.765515  0.766445  0.849655  1
  O  O28  1  0.265661  0.266102  0.650107  1
  O  O29  1  0.266224  0.732653  0.351909  1
  O  O30  1  0.234485  0.766445  0.849655  1
  O  O31  1  0.234372  0.233544  0.149829  1
