# generated using pymatgen
data_EuFeCoP2
_symmetry_space_group_name_H-M   'P 1'
_cell_length_a   6.12015421
_cell_length_b   6.12015450
_cell_length_c   6.12015485
_cell_angle_alpha   144.28455991
_cell_angle_beta   144.28456608
_cell_angle_gamma   51.40198229
_symmetry_Int_Tables_number   1
_chemical_formula_structural   EuFeCoP2
_chemical_formula_sum   'Eu1 Fe1 Co1 P2'
_cell_volume   77.69688015
_cell_formula_units_Z   1
loop_
 _symmetry_equiv_pos_site_id
 _symmetry_equiv_pos_as_xyz
  1  'x, y, z'
loop_
 _atom_site_type_symbol
 _atom_site_label
 _atom_site_symmetry_multiplicity
 _atom_site_fract_x
 _atom_site_fract_y
 _atom_site_fract_z
 _atom_site_occupancy
  Eu  Eu0  1  0.000000  0.000000  0.000000  1
  Fe  Fe1  1  0.250000  0.750000  0.500000  1
  Co  Co2  1  0.750000  0.250000  0.500000  1
  P  P3  1  0.644898  0.644898  0.000000  1
  P  P4  1  0.355102  0.355102  0.000000  1
