# generated using pymatgen
data_SrThSi7Ir12
_symmetry_space_group_name_H-M   'P 1'
_cell_length_a   9.84020600
_cell_length_b   9.84020704
_cell_length_c   3.92241600
_cell_angle_alpha   90.00000000
_cell_angle_beta   90.00000000
_cell_angle_gamma   119.99999740
_symmetry_Int_Tables_number   1
_chemical_formula_structural   SrThSi7Ir12
_chemical_formula_sum   'Sr1 Th1 Si7 Ir12'
_cell_volume   328.92184782
_cell_formula_units_Z   1
loop_
 _symmetry_equiv_pos_site_id
 _symmetry_equiv_pos_as_xyz
  1  'x, y, z'
loop_
 _atom_site_type_symbol
 _atom_site_label
 _atom_site_symmetry_multiplicity
 _atom_site_fract_x
 _atom_site_fract_y
 _atom_site_fract_z
 _atom_site_occupancy
  Sr  Sr0  1  0.666667  0.333333  0.250588  1
  Th  Th1  1  0.333333  0.666667  0.750607  1
  Si  Si2  1  0.000000  0.000000  0.495650  1
  Si  Si3  1  0.290869  0.892436  0.248256  1
  Si  Si4  1  0.601568  0.709131  0.248256  1
  Si  Si5  1  0.107564  0.398432  0.248256  1
  Si  Si6  1  0.711697  0.114712  0.751741  1
  Si  Si7  1  0.403015  0.288303  0.751741  1
  Si  Si8  1  0.885288  0.596985  0.751741  1
  Ir  Ir9  1  0.261229  0.118716  0.254509  1
  Ir  Ir10  1  0.857488  0.738771  0.254509  1
  Ir  Ir11  1  0.881284  0.142512  0.254509  1
  Ir  Ir12  1  0.739995  0.885271  0.746036  1
  Ir  Ir13  1  0.145275  0.260005  0.746036  1
  Ir  Ir14  1  0.114729  0.854725  0.746036  1
  Ir  Ir15  1  0.066676  0.622207  0.249007  1
  Ir  Ir16  1  0.555532  0.933324  0.249007  1
  Ir  Ir17  1  0.377793  0.444468  0.249007  1
  Ir  Ir18  1  0.944970  0.385009  0.751503  1
  Ir  Ir19  1  0.440038  0.055030  0.751503  1
  Ir  Ir20  1  0.614991  0.559962  0.751503  1
