# generated using pymatgen
data_ThGa6Cu7
_symmetry_space_group_name_H-M   'P 1'
_cell_length_a   8.42958366
_cell_length_b   8.42958399
_cell_length_c   8.42958338
_cell_angle_alpha   122.16965276
_cell_angle_beta   118.77841318
_cell_angle_gamma   89.20633480
_symmetry_Int_Tables_number   1
_chemical_formula_structural   ThGa6Cu7
_chemical_formula_sum   'Th2 Ga12 Cu14'
_cell_volume   420.00189139
_cell_formula_units_Z   2
loop_
 _symmetry_equiv_pos_site_id
 _symmetry_equiv_pos_as_xyz
  1  'x, y, z'
loop_
 _atom_site_type_symbol
 _atom_site_label
 _atom_site_symmetry_multiplicity
 _atom_site_fract_x
 _atom_site_fract_y
 _atom_site_fract_z
 _atom_site_occupancy
  Th  Th0  1  0.250000  0.750000  0.500000  1
  Th  Th1  1  0.750000  0.250000  0.500000  1
  Ga  Ga2  1  0.552100  0.543183  0.355273  1
  Ga  Ga3  1  0.447900  0.456817  0.644727  1
  Ga  Ga4  1  0.187910  0.196825  0.644727  1
  Ga  Ga5  1  0.312090  0.956817  0.008915  1
  Ga  Ga6  1  0.812090  0.803175  0.355273  1
  Ga  Ga7  1  0.687910  0.043183  0.991085  1
  Ga  Ga8  1  0.947900  0.303175  0.991085  1
  Ga  Ga9  1  0.052100  0.696825  0.008915  1
  Ga  Ga10  1  0.053491  0.310806  0.364298  1
  Ga  Ga11  1  0.946509  0.689194  0.635702  1
  Ga  Ga12  1  0.553491  0.189194  0.742684  1
  Ga  Ga13  1  0.446509  0.810806  0.257316  1
  Cu  Cu14  1  0.287137  0.298795  0.235964  1
  Cu  Cu15  1  0.712863  0.701205  0.764036  1
  Cu  Cu16  1  0.062831  0.051173  0.764036  1
  Cu  Cu17  1  0.437169  0.201205  0.988342  1
  Cu  Cu18  1  0.937169  0.948827  0.235964  1
  Cu  Cu19  1  0.562831  0.798795  0.011658  1
  Cu  Cu20  1  0.212863  0.448827  0.011658  1
  Cu  Cu21  1  0.787137  0.551173  0.988342  1
  Cu  Cu22  1  0.000000  0.000000  0.000000  1
  Cu  Cu23  1  0.500000  0.500000  0.000000  1
  Cu  Cu24  1  0.287091  0.067591  0.354682  1
  Cu  Cu25  1  0.712909  0.932409  0.645318  1
  Cu  Cu26  1  0.787091  0.432409  0.219501  1
  Cu  Cu27  1  0.212909  0.567591  0.780499  1
