# generated using pymatgen
data_Ho5Mg2P12Ir17
_symmetry_space_group_name_H-M   'P 1'
_cell_length_a   12.70944600
_cell_length_b   12.70944475
_cell_length_c   3.95722400
_cell_angle_alpha   90.00000000
_cell_angle_beta   90.00000000
_cell_angle_gamma   120.52037181
_symmetry_Int_Tables_number   1
_chemical_formula_structural   Ho5Mg2P12Ir17
_chemical_formula_sum   'Ho5 Mg2 P12 Ir17'
_cell_volume   550.64693469
_cell_formula_units_Z   1
loop_
 _symmetry_equiv_pos_site_id
 _symmetry_equiv_pos_as_xyz
  1  'x, y, z'
loop_
 _atom_site_type_symbol
 _atom_site_label
 _atom_site_symmetry_multiplicity
 _atom_site_fract_x
 _atom_site_fract_y
 _atom_site_fract_z
 _atom_site_occupancy
  Ho  Ho0  1  0.330492  0.667455  0.000000  1
  Ho  Ho1  1  0.667455  0.330492  0.000000  1
  Ho  Ho2  1  0.811404  0.997333  0.500000  1
  Ho  Ho3  1  0.997333  0.811404  0.500000  1
  Ho  Ho4  1  0.189884  0.189884  0.500000  1
  Mg  Mg5  1  0.445792  0.002575  0.000000  1
  Mg  Mg6  1  0.002575  0.445792  0.000000  1
  P  P7  1  0.176638  0.001966  0.000000  1
  P  P8  1  0.001966  0.176638  0.000000  1
  P  P9  1  0.820436  0.820436  0.000000  1
  P  P10  1  0.171960  0.486732  0.500000  1
  P  P11  1  0.514646  0.691620  0.500000  1
  P  P12  1  0.313167  0.832295  0.500000  1
  P  P13  1  0.691620  0.514646  0.500000  1
  P  P14  1  0.832295  0.313167  0.500000  1
  P  P15  1  0.486732  0.171960  0.500000  1
  P  P16  1  0.640455  0.997673  0.000000  1
  P  P17  1  0.997673  0.640455  0.000000  1
  P  P18  1  0.358020  0.358020  0.000000  1
  Ir  Ir19  1  0.539520  0.539520  0.000000  1
  Ir  Ir20  1  0.361252  0.494916  0.500000  1
  Ir  Ir21  1  0.511519  0.872389  0.500000  1
  Ir  Ir22  1  0.134428  0.643527  0.500000  1
  Ir  Ir23  1  0.872389  0.511519  0.500000  1
  Ir  Ir24  1  0.643527  0.134428  0.500000  1
  Ir  Ir25  1  0.494916  0.361252  0.500000  1
  Ir  Ir26  1  0.184505  0.376616  0.000000  1
  Ir  Ir27  1  0.623066  0.799011  0.000000  1
  Ir  Ir28  1  0.189923  0.822954  0.000000  1
  Ir  Ir29  1  0.799011  0.623066  0.000000  1
  Ir  Ir30  1  0.822954  0.189923  0.000000  1
  Ir  Ir31  1  0.376616  0.184505  0.000000  1
  Ir  Ir32  1  0.282523  0.003974  0.500000  1
  Ir  Ir33  1  0.003974  0.282523  0.500000  1
  Ir  Ir34  1  0.711483  0.711483  0.500000  1
  Ir  Ir35  1  0.997852  0.997852  0.000000  1
