# generated using pymatgen
data_TbYbLu8(In2Pt)4
_symmetry_space_group_name_H-M   'P 1'
_cell_length_a   3.61106800
_cell_length_b   8.04697022
_cell_length_c   18.05050010
_cell_angle_alpha   89.91364929
_cell_angle_beta   90.00000000
_cell_angle_gamma   90.00000000
_symmetry_Int_Tables_number   1
_chemical_formula_structural   TbYbLu8(In2Pt)4
_chemical_formula_sum   'Tb1 Yb1 Lu8 In8 Pt4'
_cell_volume   524.51366417
_cell_formula_units_Z   1
loop_
 _symmetry_equiv_pos_site_id
 _symmetry_equiv_pos_as_xyz
  1  'x, y, z'
loop_
 _atom_site_type_symbol
 _atom_site_label
 _atom_site_symmetry_multiplicity
 _atom_site_fract_x
 _atom_site_fract_y
 _atom_site_fract_z
 _atom_site_occupancy
  Tb  Tb0  1  0.000000  0.500000  0.500000  1
  Yb  Yb1  1  0.000000  0.000000  0.000000  1
  Lu  Lu2  1  0.000000  0.117610  0.413109  1
  Lu  Lu3  1  0.000000  0.882390  0.586891  1
  Lu  Lu4  1  0.000000  0.381599  0.913558  1
  Lu  Lu5  1  0.000000  0.618401  0.086442  1
  Lu  Lu6  1  0.000000  0.243443  0.221032  1
  Lu  Lu7  1  0.000000  0.756557  0.778968  1
  Lu  Lu8  1  0.000000  0.256285  0.721683  1
  Lu  Lu9  1  0.000000  0.743715  0.278317  1
  In  In10  1  0.500000  0.423574  0.350867  1
  In  In11  1  0.500000  0.576426  0.649133  1
  In  In12  1  0.500000  0.074406  0.851515  1
  In  In13  1  0.500000  0.925594  0.148485  1
  In  In14  1  0.500000  0.294641  0.066745  1
  In  In15  1  0.500000  0.705359  0.933255  1
  In  In16  1  0.500000  0.205459  0.566752  1
  In  In17  1  0.500000  0.794541  0.433248  1
  Pt  Pt18  1  0.500000  0.024749  0.304505  1
  Pt  Pt19  1  0.500000  0.975251  0.695495  1
  Pt  Pt20  1  0.500000  0.476230  0.803713  1
  Pt  Pt21  1  0.500000  0.523770  0.196287  1
