# generated using pymatgen
data_YSb3(AuCl6)4
_symmetry_space_group_name_H-M   'P 1'
_cell_length_a   8.26745535
_cell_length_b   10.09877784
_cell_length_c   14.19305461
_cell_angle_alpha   102.39780284
_cell_angle_beta   97.80929752
_cell_angle_gamma   113.12778635
_symmetry_Int_Tables_number   1
_chemical_formula_structural   YSb3(AuCl6)4
_chemical_formula_sum   'Y1 Sb3 Au4 Cl24'
_cell_volume   1031.86268040
_cell_formula_units_Z   1
loop_
 _symmetry_equiv_pos_site_id
 _symmetry_equiv_pos_as_xyz
  1  'x, y, z'
loop_
 _atom_site_type_symbol
 _atom_site_label
 _atom_site_symmetry_multiplicity
 _atom_site_fract_x
 _atom_site_fract_y
 _atom_site_fract_z
 _atom_site_occupancy
  Y  Y0  1  0.027491  0.690790  0.131964  1
  Sb  Sb1  1  0.628372  0.942052  0.625718  1
  Sb  Sb2  1  0.385091  0.059841  0.379840  1
  Sb  Sb3  1  0.971541  0.338163  0.881464  1
  Au  Au4  1  0.286184  0.631762  0.770139  1
  Au  Au5  1  0.715924  0.370764  0.229551  1
  Au  Au6  1  0.495728  0.495703  0.497462  1
  Au  Au7  1  0.002390  0.999117  0.002599  1
  Cl  Cl8  1  0.584660  0.722468  0.761600  1
  Cl  Cl9  1  0.417553  0.280278  0.239077  1
  Cl  Cl10  1  0.273299  0.844374  0.743022  1
  Cl  Cl11  1  0.729112  0.159686  0.258412  1
  Cl  Cl12  1  0.983206  0.538595  0.780634  1
  Cl  Cl13  1  0.018910  0.468806  0.221239  1
  Cl  Cl14  1  0.290590  0.412627  0.796645  1
  Cl  Cl15  1  0.710491  0.589573  0.199911  1
  Cl  Cl16  1  0.688937  0.381096  0.507557  1
  Cl  Cl17  1  0.303061  0.610147  0.489933  1
  Cl  Cl18  1  0.743341  0.726106  0.528692  1
  Cl  Cl19  1  0.248430  0.263814  0.465180  1
  Cl  Cl20  1  0.800290  0.102448  0.977675  1
  Cl  Cl21  1  0.203307  0.893260  0.029520  1
  Cl  Cl22  1  0.788094  0.796384  0.039867  1
  Cl  Cl23  1  0.217280  0.195108  0.964258  1
  Cl  Cl24  1  0.638744  0.188011  0.738864  1
  Cl  Cl25  1  0.362268  0.810847  0.258300  1
  Cl  Cl26  1  0.942164  0.041390  0.717992  1
  Cl  Cl27  1  0.061753  0.948010  0.270932  1
  Cl  Cl28  1  0.723060  0.056282  0.493017  1
  Cl  Cl29  1  0.263795  0.938504  0.501175  1
  Cl  Cl30  1  0.776431  0.440934  0.969567  1
  Cl  Cl31  1  0.218502  0.563059  0.028195  1
