# generated using pymatgen
data_Dy12Ir3Pd
_symmetry_space_group_name_H-M   'P 1'
_cell_length_a   6.39971497
_cell_length_b   7.19574238
_cell_length_c   9.38142200
_cell_angle_alpha   90.00000000
_cell_angle_beta   90.00000000
_cell_angle_gamma   90.11073854
_symmetry_Int_Tables_number   1
_chemical_formula_structural   Dy12Ir3Pd
_chemical_formula_sum   'Dy12 Ir3 Pd1'
_cell_volume   432.02024537
_cell_formula_units_Z   1
loop_
 _symmetry_equiv_pos_site_id
 _symmetry_equiv_pos_as_xyz
  1  'x, y, z'
loop_
 _atom_site_type_symbol
 _atom_site_label
 _atom_site_symmetry_multiplicity
 _atom_site_fract_x
 _atom_site_fract_y
 _atom_site_fract_z
 _atom_site_occupancy
  Dy  Dy0  1  0.333912  0.674603  0.059704  1
  Dy  Dy1  1  0.173569  0.183100  0.440389  1
  Dy  Dy2  1  0.673904  0.321592  0.563274  1
  Dy  Dy3  1  0.824458  0.822312  0.933999  1
  Dy  Dy4  1  0.673904  0.321592  0.936726  1
  Dy  Dy5  1  0.824458  0.822312  0.566001  1
  Dy  Dy6  1  0.333912  0.674603  0.440296  1
  Dy  Dy7  1  0.173569  0.183100  0.059611  1
  Dy  Dy8  1  0.863701  0.525084  0.250000  1
  Dy  Dy9  1  0.625754  0.037571  0.250000  1
  Dy  Dy10  1  0.131044  0.466060  0.750000  1
  Dy  Dy11  1  0.368018  0.965425  0.750000  1
  Ir  Ir12  1  0.448076  0.384054  0.250000  1
  Ir  Ir13  1  0.952280  0.117047  0.750000  1
  Ir  Ir14  1  0.547143  0.616193  0.750000  1
  Pd  Pd15  1  0.052297  0.885353  0.250000  1
