# generated using pymatgen
data_Ho11In9Co3Ag
_symmetry_space_group_name_H-M   'P 1'
_cell_length_a   12.97534464
_cell_length_b   12.95525437
_cell_length_c   3.64586200
_cell_angle_alpha   90.00000000
_cell_angle_beta   90.00000000
_cell_angle_gamma   110.64095096
_symmetry_Int_Tables_number   1
_chemical_formula_structural   Ho11In9Co3Ag
_chemical_formula_sum   'Ho11 In9 Co3 Ag1'
_cell_volume   573.52419658
_cell_formula_units_Z   1
loop_
 _symmetry_equiv_pos_site_id
 _symmetry_equiv_pos_as_xyz
  1  'x, y, z'
loop_
 _atom_site_type_symbol
 _atom_site_label
 _atom_site_symmetry_multiplicity
 _atom_site_fract_x
 _atom_site_fract_y
 _atom_site_fract_z
 _atom_site_occupancy
  Ho  Ho0  1  0.062082  0.414483  0.000000  1
  Ho  Ho1  1  0.914260  0.581070  0.000000  1
  Ho  Ho2  1  0.420069  0.078913  0.000000  1
  Ho  Ho3  1  0.582357  0.918691  0.000000  1
  Ho  Ho4  1  0.626247  0.377320  0.000000  1
  Ho  Ho5  1  0.392985  0.644205  0.000000  1
  Ho  Ho6  1  0.836766  0.158361  0.000000  1
  Ho  Ho7  1  0.160692  0.841720  0.000000  1
  Ho  Ho8  1  0.999227  0.998354  0.000000  1
  Ho  Ho9  1  0.323857  0.301137  0.000000  1
  Ho  Ho10  1  0.687793  0.685534  0.000000  1
  In  In11  1  0.835744  0.368588  0.500000  1
  In  In12  1  0.153374  0.631991  0.500000  1
  In  In13  1  0.368386  0.842724  0.500000  1
  In  In14  1  0.630308  0.159774  0.500000  1
  In  In15  1  0.072044  0.216512  0.500000  1
  In  In16  1  0.922273  0.779477  0.500000  1
  In  In17  1  0.219427  0.076018  0.500000  1
  In  In18  1  0.780436  0.922428  0.500000  1
  In  In19  1  0.503102  0.500675  0.500000  1
  Co  Co20  1  0.753529  0.552578  0.500000  1
  Co  Co21  1  0.449805  0.241519  0.500000  1
  Co  Co22  1  0.552164  0.755193  0.500000  1
  Ag  Ag23  1  0.253072  0.452734  0.500000  1
