# generated using pymatgen
data_La9Tb3(YbSn2)8
_symmetry_space_group_name_H-M   'P 1'
_cell_length_a   8.03279523
_cell_length_b   8.50580513
_cell_length_c   16.04431600
_cell_angle_alpha   90.00980773
_cell_angle_beta   89.98639075
_cell_angle_gamma   90.00276412
_symmetry_Int_Tables_number   1
_chemical_formula_structural   La9Tb3(YbSn2)8
_chemical_formula_sum   'La9 Tb3 Yb8 Sn16'
_cell_volume   1096.23411389
_cell_formula_units_Z   1
loop_
 _symmetry_equiv_pos_site_id
 _symmetry_equiv_pos_as_xyz
  1  'x, y, z'
loop_
 _atom_site_type_symbol
 _atom_site_label
 _atom_site_symmetry_multiplicity
 _atom_site_fract_x
 _atom_site_fract_y
 _atom_site_fract_z
 _atom_site_occupancy
  La  La0  1  0.828574  0.672400  0.876318  1
  La  La1  1  0.491281  0.316704  0.903174  1
  La  La2  1  0.993565  0.183553  0.595734  1
  La  La3  1  0.507704  0.683268  0.404211  1
  La  La4  1  0.009937  0.814956  0.098172  1
  La  La5  1  0.508435  0.681835  0.097324  1
  La  La6  1  0.009656  0.815710  0.404855  1
  La  La7  1  0.490170  0.316576  0.595147  1
  La  La8  1  0.991883  0.183442  0.903550  1
  Tb  Tb9  1  0.327762  0.829692  0.875080  1
  Tb  Tb10  1  0.829388  0.670139  0.623704  1
  Tb  Tb11  1  0.668790  0.171890  0.375693  1
  Yb  Yb12  1  0.171879  0.328824  0.124885  1
  Yb  Yb13  1  0.670609  0.169301  0.124831  1
  Yb  Yb14  1  0.171821  0.329485  0.377816  1
  Yb  Yb15  1  0.326523  0.832568  0.621772  1
  Yb  Yb16  1  0.160715  0.499953  0.749205  1
  Yb  Yb17  1  0.659375  0.000460  0.747250  1
  Yb  Yb18  1  0.842889  0.496760  0.250550  1
  Yb  Yb19  1  0.339078  0.003083  0.248791  1
  Sn  Sn20  1  0.328074  0.035578  0.038063  1
  Sn  Sn21  1  0.826233  0.460940  0.462214  1
  Sn  Sn22  1  0.673844  0.961172  0.536999  1
  Sn  Sn23  1  0.175102  0.538107  0.962397  1
  Sn  Sn24  1  0.661601  0.965305  0.961080  1
  Sn  Sn25  1  0.163893  0.537560  0.539985  1
  Sn  Sn26  1  0.336005  0.037617  0.459152  1
  Sn  Sn27  1  0.833106  0.460268  0.041441  1
  Sn  Sn28  1  0.525579  0.612605  0.745779  1
  Sn  Sn29  1  0.029786  0.889429  0.749067  1
  Sn  Sn30  1  0.472004  0.389457  0.251329  1
  Sn  Sn31  1  0.968548  0.109813  0.253763  1
  Sn  Sn32  1  0.288394  0.137368  0.749773  1
  Sn  Sn33  1  0.786602  0.363309  0.747769  1
  Sn  Sn34  1  0.714717  0.863602  0.251827  1
  Sn  Sn35  1  0.216474  0.637267  0.251299  1
