# generated using pymatgen
data_AcHo2BiO7
_symmetry_space_group_name_H-M   'P 1'
_cell_length_a   6.63455700
_cell_length_b   6.63455877
_cell_length_c   7.80243500
_cell_angle_alpha   90.00000000
_cell_angle_beta   90.00000000
_cell_angle_gamma   109.02379415
_symmetry_Int_Tables_number   1
_chemical_formula_structural   AcHo2BiO7
_chemical_formula_sum   'Ac2 Ho4 Bi2 O14'
_cell_volume   324.68487371
_cell_formula_units_Z   2
loop_
 _symmetry_equiv_pos_site_id
 _symmetry_equiv_pos_as_xyz
  1  'x, y, z'
loop_
 _atom_site_type_symbol
 _atom_site_label
 _atom_site_symmetry_multiplicity
 _atom_site_fract_x
 _atom_site_fract_y
 _atom_site_fract_z
 _atom_site_occupancy
  Ac  Ac0  1  0.500000  0.500000  0.500000  1
  Ac  Ac1  1  0.500000  0.500000  0.000000  1
  Ho  Ho2  1  0.530623  0.002740  0.750000  1
  Ho  Ho3  1  0.002740  0.530623  0.250000  1
  Ho  Ho4  1  0.469377  0.997260  0.250000  1
  Ho  Ho5  1  0.997260  0.469377  0.750000  1
  Bi  Bi6  1  0.000000  0.000000  0.500000  1
  Bi  Bi7  1  0.000000  0.000000  0.000000  1
  O  O8  1  0.666915  0.929245  0.469215  1
  O  O9  1  0.929245  0.666915  0.530785  1
  O  O10  1  0.666915  0.929245  0.030785  1
  O  O11  1  0.929245  0.666915  0.969215  1
  O  O12  1  0.333085  0.070755  0.530785  1
  O  O13  1  0.070755  0.333085  0.469215  1
  O  O14  1  0.333085  0.070755  0.969215  1
  O  O15  1  0.070755  0.333085  0.030785  1
  O  O16  1  0.916455  0.083545  0.750000  1
  O  O17  1  0.083545  0.916455  0.250000  1
  O  O18  1  0.354988  0.645012  0.750000  1
  O  O19  1  0.645012  0.354988  0.250000  1
  O  O20  1  0.648190  0.351810  0.750000  1
  O  O21  1  0.351810  0.648190  0.250000  1
