# generated using pymatgen
data_Tm8Nb9Si16Mo3
_symmetry_space_group_name_H-M   'P 1'
_cell_length_a   6.76865303
_cell_length_b   7.01548088
_cell_length_c   13.28985100
_cell_angle_alpha   90.00000000
_cell_angle_beta   90.00000000
_cell_angle_gamma   89.96314810
_symmetry_Int_Tables_number   1
_chemical_formula_structural   Tm8Nb9Si16Mo3
_chemical_formula_sum   'Tm8 Nb9 Si16 Mo3'
_cell_volume   631.07317352
_cell_formula_units_Z   1
loop_
 _symmetry_equiv_pos_site_id
 _symmetry_equiv_pos_as_xyz
  1  'x, y, z'
loop_
 _atom_site_type_symbol
 _atom_site_label
 _atom_site_symmetry_multiplicity
 _atom_site_fract_x
 _atom_site_fract_y
 _atom_site_fract_z
 _atom_site_occupancy
  Tm  Tm0  1  0.501304  0.327780  0.094689  1
  Tm  Tm1  1  0.001280  0.172375  0.405166  1
  Tm  Tm2  1  0.498312  0.672543  0.594927  1
  Tm  Tm3  1  0.997983  0.827607  0.905438  1
  Tm  Tm4  1  0.498312  0.672543  0.905073  1
  Tm  Tm5  1  0.997983  0.827607  0.594562  1
  Tm  Tm6  1  0.501304  0.327780  0.405311  1
  Tm  Tm7  1  0.001280  0.172375  0.094834  1
  Nb  Nb8  1  0.834660  0.329430  0.625570  1
  Nb  Nb9  1  0.334266  0.171209  0.874620  1
  Nb  Nb10  1  0.165766  0.670078  0.126313  1
  Nb  Nb11  1  0.666328  0.829816  0.373086  1
  Nb  Nb12  1  0.165766  0.670078  0.373687  1
  Nb  Nb13  1  0.666328  0.829816  0.126914  1
  Nb  Nb14  1  0.834660  0.329430  0.874430  1
  Nb  Nb15  1  0.334266  0.171209  0.625380  1
  Nb  Nb16  1  0.660662  0.007160  0.750000  1
  Si  Si17  1  0.664776  0.037024  0.541048  1
  Si  Si18  1  0.164624  0.462401  0.957657  1
  Si  Si19  1  0.335809  0.962400  0.043001  1
  Si  Si20  1  0.835492  0.537594  0.457329  1
  Si  Si21  1  0.335809  0.962400  0.456999  1
  Si  Si22  1  0.835492  0.537594  0.042671  1
  Si  Si23  1  0.664776  0.037024  0.958952  1
  Si  Si24  1  0.164624  0.462401  0.542343  1
  Si  Si25  1  0.533262  0.382217  0.750000  1
  Si  Si26  1  0.038031  0.120692  0.750000  1
  Si  Si27  1  0.465454  0.619542  0.250000  1
  Si  Si28  1  0.966570  0.880807  0.250000  1
  Si  Si29  1  0.798087  0.630937  0.750000  1
  Si  Si30  1  0.293150  0.864404  0.750000  1
  Si  Si31  1  0.202013  0.365797  0.250000  1
  Si  Si32  1  0.702181  0.134648  0.250000  1
  Mo  Mo33  1  0.160988  0.493112  0.750000  1
  Mo  Mo34  1  0.339654  0.993823  0.250000  1
  Mo  Mo35  1  0.838752  0.506353  0.250000  1
