# generated using pymatgen
data_RbSiBiSe4
_symmetry_space_group_name_H-M   'P 1'
_cell_length_a   7.22449300
_cell_length_b   6.92223773
_cell_length_c   18.95533901
_cell_angle_alpha   71.94314269
_cell_angle_beta   90.00000000
_cell_angle_gamma   90.00000000
_symmetry_Int_Tables_number   1
_chemical_formula_structural   RbSiBiSe4
_chemical_formula_sum   'Rb4 Si4 Bi4 Se16'
_cell_volume   901.26291006
_cell_formula_units_Z   4
loop_
 _symmetry_equiv_pos_site_id
 _symmetry_equiv_pos_as_xyz
  1  'x, y, z'
loop_
 _atom_site_type_symbol
 _atom_site_label
 _atom_site_symmetry_multiplicity
 _atom_site_fract_x
 _atom_site_fract_y
 _atom_site_fract_z
 _atom_site_occupancy
  Rb  Rb0  1  0.757161  0.285748  0.465322  1
  Rb  Rb1  1  0.257161  0.714252  0.034678  1
  Rb  Rb2  1  0.242839  0.714252  0.534678  1
  Rb  Rb3  1  0.742839  0.285748  0.965322  1
  Si  Si4  1  0.228927  0.205136  0.340377  1
  Si  Si5  1  0.728927  0.794864  0.159623  1
  Si  Si6  1  0.771073  0.794864  0.659623  1
  Si  Si7  1  0.271073  0.205136  0.840377  1
  Bi  Bi8  1  0.807582  0.238658  0.222575  1
  Bi  Bi9  1  0.692418  0.238658  0.722575  1
  Bi  Bi10  1  0.307582  0.761342  0.277425  1
  Bi  Bi11  1  0.192418  0.761342  0.777425  1
  Se  Se12  1  0.514634  0.985931  0.866287  1
  Se  Se13  1  0.759916  0.587790  0.086828  1
  Se  Se14  1  0.011135  0.005403  0.854054  1
  Se  Se15  1  0.488865  0.005403  0.354054  1
  Se  Se16  1  0.988865  0.994597  0.145946  1
  Se  Se17  1  0.326728  0.408404  0.719775  1
  Se  Se18  1  0.240084  0.412210  0.913172  1
  Se  Se19  1  0.985366  0.985931  0.366287  1
  Se  Se20  1  0.259916  0.412210  0.413172  1
  Se  Se21  1  0.014634  0.014069  0.633713  1
  Se  Se22  1  0.740084  0.587790  0.586828  1
  Se  Se23  1  0.673272  0.591596  0.280225  1
  Se  Se24  1  0.511135  0.994597  0.645946  1
  Se  Se25  1  0.826728  0.591596  0.780225  1
  Se  Se26  1  0.173272  0.408404  0.219775  1
  Se  Se27  1  0.485366  0.014069  0.133713  1
