# generated using pymatgen
data_Tb4YbEr2FeI12
_symmetry_space_group_name_H-M   'P 1'
_cell_length_a   9.73912613
_cell_length_b   9.72799448
_cell_length_c   9.82350265
_cell_angle_alpha   106.79972364
_cell_angle_beta   107.25442876
_cell_angle_gamma   106.73668549
_symmetry_Int_Tables_number   1
_chemical_formula_structural   Tb4YbEr2FeI12
_chemical_formula_sum   'Tb4 Yb1 Er2 Fe1 I12'
_cell_volume   776.55059529
_cell_formula_units_Z   1
loop_
 _symmetry_equiv_pos_site_id
 _symmetry_equiv_pos_as_xyz
  1  'x, y, z'
loop_
 _atom_site_type_symbol
 _atom_site_label
 _atom_site_symmetry_multiplicity
 _atom_site_fract_x
 _atom_site_fract_y
 _atom_site_fract_z
 _atom_site_occupancy
  Tb  Tb0  1  0.286767  0.024243  0.093886  1
  Tb  Tb1  1  0.907114  0.712874  0.975909  1
  Tb  Tb2  1  0.975306  0.903416  0.698333  1
  Tb  Tb3  1  0.713631  0.976135  0.907765  1
  Yb  Yb4  1  0.499415  0.500313  0.499903  1
  Er  Er5  1  0.092039  0.282952  0.023738  1
  Er  Er6  1  0.024849  0.096333  0.297002  1
  Fe  Fe7  1  0.999854  0.998559  0.999792  1
  I  I8  1  0.452214  0.378507  0.149568  1
  I  I9  1  0.148598  0.453891  0.374492  1
  I  I10  1  0.376700  0.150769  0.457116  1
  I  I11  1  0.544260  0.621349  0.849096  1
  I  I12  1  0.848658  0.542620  0.621239  1
  I  I13  1  0.620011  0.850089  0.543720  1
  I  I14  1  0.780009  0.317437  0.927642  1
  I  I15  1  0.926962  0.776886  0.318341  1
  I  I16  1  0.319120  0.927621  0.777534  1
  I  I17  1  0.224295  0.682960  0.074215  1
  I  I18  1  0.075019  0.228563  0.684801  1
  I  I19  1  0.685178  0.074483  0.225908  1
