# generated using pymatgen
data_CeLu11Tc4
_symmetry_space_group_name_H-M   'P 1'
_cell_length_a   6.13975620
_cell_length_b   7.31378138
_cell_length_c   8.99801300
_cell_angle_alpha   90.00000000
_cell_angle_beta   90.00000000
_cell_angle_gamma   88.58046211
_symmetry_Int_Tables_number   1
_chemical_formula_structural   CeLu11Tc4
_chemical_formula_sum   'Ce1 Lu11 Tc4'
_cell_volume   403.93028154
_cell_formula_units_Z   1
loop_
 _symmetry_equiv_pos_site_id
 _symmetry_equiv_pos_as_xyz
  1  'x, y, z'
loop_
 _atom_site_type_symbol
 _atom_site_label
 _atom_site_symmetry_multiplicity
 _atom_site_fract_x
 _atom_site_fract_y
 _atom_site_fract_z
 _atom_site_occupancy
  Ce  Ce0  1  0.636078  0.057912  0.250000  1
  Lu  Lu1  1  0.126232  0.459920  0.750000  1
  Lu  Lu2  1  0.660154  0.325667  0.933667  1
  Lu  Lu3  1  0.377486  0.963784  0.750000  1
  Lu  Lu4  1  0.879533  0.537243  0.250000  1
  Lu  Lu5  1  0.157639  0.173025  0.440910  1
  Lu  Lu6  1  0.839703  0.822989  0.565444  1
  Lu  Lu7  1  0.157639  0.173025  0.059090  1
  Lu  Lu8  1  0.839703  0.822989  0.934556  1
  Lu  Lu9  1  0.660154  0.325667  0.566333  1
  Lu  Lu10  1  0.342704  0.679278  0.061131  1
  Lu  Lu11  1  0.342704  0.679278  0.438869  1
  Tc  Tc12  1  0.538001  0.617549  0.750000  1
  Tc  Tc13  1  0.962200  0.117050  0.750000  1
  Tc  Tc14  1  0.004763  0.885308  0.250000  1
  Tc  Tc15  1  0.475309  0.359319  0.250000  1
