# generated using pymatgen
data_LaCe(CuSb2)2
_symmetry_space_group_name_H-M   'P 1'
_cell_length_a   4.39161100
_cell_length_b   4.39161100
_cell_length_c   10.08309500
_cell_angle_alpha   90.00000000
_cell_angle_beta   90.00000000
_cell_angle_gamma   90.00000000
_symmetry_Int_Tables_number   1
_chemical_formula_structural   LaCe(CuSb2)2
_chemical_formula_sum   'La1 Ce1 Cu2 Sb4'
_cell_volume   194.46506246
_cell_formula_units_Z   1
loop_
 _symmetry_equiv_pos_site_id
 _symmetry_equiv_pos_as_xyz
  1  'x, y, z'
loop_
 _atom_site_type_symbol
 _atom_site_label
 _atom_site_symmetry_multiplicity
 _atom_site_fract_x
 _atom_site_fract_y
 _atom_site_fract_z
 _atom_site_occupancy
  La  La0  1  0.500000  0.000000  0.247435  1
  Ce  Ce1  1  0.000000  0.500000  0.745840  1
  Cu  Cu2  1  0.500000  0.500000  0.504205  1
  Cu  Cu3  1  0.000000  0.000000  0.504205  1
  Sb  Sb4  1  0.500000  0.500000  0.991711  1
  Sb  Sb5  1  0.000000  0.000000  0.991711  1
  Sb  Sb6  1  0.000000  0.500000  0.354231  1
  Sb  Sb7  1  0.500000  0.000000  0.660662  1
