# generated using pymatgen
data_Dy10Os3Rh
_symmetry_space_group_name_H-M   'P 1'
_cell_length_a   6.42081870
_cell_length_b   7.34376050
_cell_length_c   8.48128680
_cell_angle_alpha   96.65680494
_cell_angle_beta   112.40092586
_cell_angle_gamma   90.15994977
_symmetry_Int_Tables_number   1
_chemical_formula_structural   Dy10Os3Rh
_chemical_formula_sum   'Dy10 Os3 Rh1'
_cell_volume   366.76656535
_cell_formula_units_Z   1
loop_
 _symmetry_equiv_pos_site_id
 _symmetry_equiv_pos_as_xyz
  1  'x, y, z'
loop_
 _atom_site_type_symbol
 _atom_site_label
 _atom_site_symmetry_multiplicity
 _atom_site_fract_x
 _atom_site_fract_y
 _atom_site_fract_z
 _atom_site_occupancy
  Dy  Dy0  1  0.792751  0.085703  0.818645  1
  Dy  Dy1  1  0.975743  0.416158  0.183145  1
  Dy  Dy2  1  0.208262  0.916319  0.187852  1
  Dy  Dy3  1  0.024237  0.582157  0.818902  1
  Dy  Dy4  1  0.208655  0.185267  0.561964  1
  Dy  Dy5  1  0.646936  0.316944  0.436941  1
  Dy  Dy6  1  0.787061  0.815654  0.433435  1
  Dy  Dy7  1  0.356312  0.680798  0.561157  1
  Dy  Dy8  1  0.425630  0.252293  0.001960  1
  Dy  Dy9  1  0.577629  0.749095  0.000738  1
  Os  Os10  1  0.605115  0.423882  0.781112  1
  Os  Os11  1  0.824679  0.074426  0.219442  1
  Os  Os12  1  0.393063  0.577006  0.217769  1
  Rh  Rh13  1  0.173926  0.924298  0.776940  1
