# generated using pymatgen
data_Tb16Sc3Si16Mo
_symmetry_space_group_name_H-M   'P 1'
_cell_length_a   7.22025553
_cell_length_b   7.69512829
_cell_length_c   14.38658300
_cell_angle_alpha   90.00000000
_cell_angle_beta   90.00000000
_cell_angle_gamma   89.88722187
_symmetry_Int_Tables_number   1
_chemical_formula_structural   Tb16Sc3Si16Mo
_chemical_formula_sum   'Tb16 Sc3 Si16 Mo1'
_cell_volume   799.32840583
_cell_formula_units_Z   1
loop_
 _symmetry_equiv_pos_site_id
 _symmetry_equiv_pos_as_xyz
  1  'x, y, z'
loop_
 _atom_site_type_symbol
 _atom_site_label
 _atom_site_symmetry_multiplicity
 _atom_site_fract_x
 _atom_site_fract_y
 _atom_site_fract_z
 _atom_site_occupancy
  Tb  Tb0  1  0.986287  0.688612  0.600351  1
  Tb  Tb1  1  0.019699  0.316115  0.405974  1
  Tb  Tb2  1  0.520679  0.185372  0.404068  1
  Tb  Tb3  1  0.019699  0.316115  0.094026  1
  Tb  Tb4  1  0.477877  0.817255  0.597074  1
  Tb  Tb5  1  0.986287  0.688612  0.899649  1
  Tb  Tb6  1  0.477877  0.817255  0.902926  1
  Tb  Tb7  1  0.520679  0.185372  0.095932  1
  Tb  Tb8  1  0.322097  0.317410  0.628853  1
  Tb  Tb9  1  0.679348  0.678788  0.374193  1
  Tb  Tb10  1  0.179040  0.824562  0.375713  1
  Tb  Tb11  1  0.679348  0.678788  0.125807  1
  Tb  Tb12  1  0.818503  0.172220  0.629538  1
  Tb  Tb13  1  0.322097  0.317410  0.871147  1
  Tb  Tb14  1  0.818503  0.172220  0.870462  1
  Tb  Tb15  1  0.179040  0.824562  0.124287  1
  Sc  Sc16  1  0.846626  0.017887  0.250000  1
  Sc  Sc17  1  0.344718  0.481998  0.250000  1
  Sc  Sc18  1  0.654135  0.524711  0.750000  1
  Si  Si19  1  0.018273  0.409796  0.750000  1
  Si  Si20  1  0.984009  0.589707  0.250000  1
  Si  Si21  1  0.482288  0.910832  0.250000  1
  Si  Si22  1  0.504578  0.073303  0.750000  1
  Si  Si23  1  0.275082  0.646912  0.750000  1
  Si  Si24  1  0.724120  0.363442  0.250000  1
  Si  Si25  1  0.221658  0.136770  0.250000  1
  Si  Si26  1  0.784867  0.864990  0.750000  1
  Si  Si27  1  0.149905  0.026103  0.548146  1
  Si  Si28  1  0.848301  0.971253  0.462308  1
  Si  Si29  1  0.348949  0.529872  0.462809  1
  Si  Si30  1  0.848301  0.971253  0.037692  1
  Si  Si31  1  0.654994  0.470346  0.540137  1
  Si  Si32  1  0.149905  0.026103  0.951854  1
  Si  Si33  1  0.654994  0.470346  0.959863  1
  Si  Si34  1  0.348949  0.529872  0.037191  1
  Mo  Mo35  1  0.148288  0.983830  0.750000  1
