# generated using pymatgen
data_Er20Ir8Os3Pd
_symmetry_space_group_name_H-M   'P 1'
_cell_length_a   10.78903092
_cell_length_b   10.78879288
_cell_length_c   6.38166380
_cell_angle_alpha   90.03990231
_cell_angle_beta   90.04098176
_cell_angle_gamma   89.89854416
_symmetry_Int_Tables_number   1
_chemical_formula_structural   Er20Ir8Os3Pd
_chemical_formula_sum   'Er20 Ir8 Os3 Pd1'
_cell_volume   742.82808795
_cell_formula_units_Z   1
loop_
 _symmetry_equiv_pos_site_id
 _symmetry_equiv_pos_as_xyz
  1  'x, y, z'
loop_
 _atom_site_type_symbol
 _atom_site_label
 _atom_site_symmetry_multiplicity
 _atom_site_fract_x
 _atom_site_fract_y
 _atom_site_fract_z
 _atom_site_occupancy
  Er  Er0  1  0.293356  0.085811  0.377123  1
  Er  Er1  1  0.294396  0.914149  0.876708  1
  Er  Er2  1  0.703476  0.084266  0.870812  1
  Er  Er3  1  0.704298  0.909731  0.378691  1
  Er  Er4  1  0.585621  0.793612  0.877686  1
  Er  Er5  1  0.581501  0.206689  0.377382  1
  Er  Er6  1  0.413194  0.793595  0.377145  1
  Er  Er7  1  0.413950  0.206190  0.877788  1
  Er  Er8  1  0.208328  0.413461  0.624265  1
  Er  Er9  1  0.207632  0.587726  0.120673  1
  Er  Er10  1  0.791848  0.417995  0.119965  1
  Er  Er11  1  0.791911  0.587024  0.624231  1
  Er  Er12  1  0.913342  0.707922  0.120666  1
  Er  Er13  1  0.914783  0.294673  0.631931  1
  Er  Er14  1  0.086875  0.707582  0.625568  1
  Er  Er15  1  0.091533  0.294524  0.118525  1
  Er  Er16  1  0.001939  0.997517  0.501009  1
  Er  Er17  1  0.002361  0.998002  0.997661  1
  Er  Er18  1  0.499695  0.500087  0.998880  1
  Er  Er19  1  0.499960  0.500213  0.499419  1
  Ir  Ir20  1  0.848478  0.848454  0.749981  1
  Ir  Ir21  1  0.150398  0.152476  0.749502  1
  Ir  Ir22  1  0.151529  0.846950  0.250151  1
  Ir  Ir23  1  0.654040  0.347020  0.749805  1
  Ir  Ir24  1  0.653240  0.651338  0.250155  1
  Ir  Ir25  1  0.346958  0.348447  0.249978  1
  Ir  Ir26  1  0.347109  0.652026  0.749686  1
  Ir  Ir27  1  0.999824  0.499070  0.377636  1
  Os  Os28  1  0.500679  0.000153  0.125522  1
  Os  Os29  1  0.500339  0.999933  0.623910  1
  Os  Os30  1  0.000029  0.499536  0.877249  1
  Pd  Pd31  1  0.847378  0.153826  0.250294  1
