# generated using pymatgen
data_Dy6Er10In3AgRh4
_symmetry_space_group_name_H-M   'P 1'
_cell_length_a   9.59019144
_cell_length_b   9.59019065
_cell_length_c   9.59019200
_cell_angle_alpha   59.94029018
_cell_angle_beta   59.94029288
_cell_angle_gamma   59.94028376
_symmetry_Int_Tables_number   1
_chemical_formula_structural   Dy6Er10In3AgRh4
_chemical_formula_sum   'Dy6 Er10 In3 Ag1 Rh4'
_cell_volume   622.84252294
_cell_formula_units_Z   1
loop_
 _symmetry_equiv_pos_site_id
 _symmetry_equiv_pos_as_xyz
  1  'x, y, z'
loop_
 _atom_site_type_symbol
 _atom_site_label
 _atom_site_symmetry_multiplicity
 _atom_site_fract_x
 _atom_site_fract_y
 _atom_site_fract_z
 _atom_site_occupancy
  Dy  Dy0  1  0.184137  0.812094  0.812094  1
  Dy  Dy1  1  0.810645  0.188634  0.188634  1
  Dy  Dy2  1  0.812094  0.184137  0.812094  1
  Dy  Dy3  1  0.188634  0.810645  0.188634  1
  Dy  Dy4  1  0.812094  0.812094  0.184137  1
  Dy  Dy5  1  0.188634  0.188634  0.810645  1
  Er  Er6  1  0.599122  0.599122  0.599122  1
  Er  Er7  1  0.600600  0.600600  0.200429  1
  Er  Er8  1  0.600600  0.200429  0.600600  1
  Er  Er9  1  0.200429  0.600600  0.600600  1
  Er  Er10  1  0.059078  0.440738  0.440738  1
  Er  Er11  1  0.437342  0.060855  0.060855  1
  Er  Er12  1  0.440738  0.059078  0.440738  1
  Er  Er13  1  0.060855  0.437342  0.060855  1
  Er  Er14  1  0.440738  0.440738  0.059078  1
  Er  Er15  1  0.060855  0.060855  0.437342  1
  In  In16  1  0.832327  0.832327  0.504411  1
  In  In17  1  0.832327  0.504411  0.832327  1
  In  In18  1  0.504411  0.832327  0.832327  1
  Ag  Ag19  1  0.833062  0.833062  0.833062  1
  Rh  Rh20  1  0.392764  0.392764  0.392764  1
  Rh  Rh21  1  0.392034  0.392034  0.824451  1
  Rh  Rh22  1  0.392034  0.824451  0.392034  1
  Rh  Rh23  1  0.824451  0.392034  0.392034  1
