# generated using pymatgen
data_Dy4Sn5AsIr7
_symmetry_space_group_name_H-M   'P 1'
_cell_length_a   7.55401271
_cell_length_b   7.55401325
_cell_length_c   7.55401241
_cell_angle_alpha   109.40470539
_cell_angle_beta   109.50449581
_cell_angle_gamma   109.50448735
_symmetry_Int_Tables_number   1
_chemical_formula_structural   Dy4Sn5AsIr7
_chemical_formula_sum   'Dy4 Sn5 As1 Ir7'
_cell_volume   331.82628487
_cell_formula_units_Z   1
loop_
 _symmetry_equiv_pos_site_id
 _symmetry_equiv_pos_as_xyz
  1  'x, y, z'
loop_
 _atom_site_type_symbol
 _atom_site_label
 _atom_site_symmetry_multiplicity
 _atom_site_fract_x
 _atom_site_fract_y
 _atom_site_fract_z
 _atom_site_occupancy
  Dy  Dy0  1  0.000000  0.990922  0.527854  1
  Dy  Dy1  1  0.000000  0.527854  0.990922  1
  Dy  Dy2  1  0.463068  0.990922  0.990922  1
  Dy  Dy3  1  0.536932  0.527854  0.527854  1
  Sn  Sn4  1  0.685693  0.700593  0.014899  1
  Sn  Sn5  1  0.314307  0.014899  0.329205  1
  Sn  Sn6  1  0.000000  0.290996  0.290996  1
  Sn  Sn7  1  0.314307  0.329205  0.014899  1
  Sn  Sn8  1  0.685693  0.014899  0.700593  1
  As  As9  1  0.000000  0.654069  0.654069  1
  Ir  Ir10  1  0.754421  0.247263  0.492842  1
  Ir  Ir11  1  0.754421  0.492842  0.247263  1
  Ir  Ir12  1  0.500000  0.260550  0.760550  1
  Ir  Ir13  1  0.245579  0.492842  0.738421  1
  Ir  Ir14  1  0.245579  0.738421  0.492842  1
  Ir  Ir15  1  0.500000  0.760550  0.260550  1
  Ir  Ir16  1  0.000000  0.965323  0.965323  1
