# generated using pymatgen
data_Cs8ZnCo3Br16
_symmetry_space_group_name_H-M   'P 1'
_cell_length_a   7.86598900
_cell_length_b   10.34529192
_cell_length_c   14.00890313
_cell_angle_alpha   89.87030525
_cell_angle_beta   90.00000000
_cell_angle_gamma   90.00000000
_symmetry_Int_Tables_number   1
_chemical_formula_structural   Cs8ZnCo3Br16
_chemical_formula_sum   'Cs8 Zn1 Co3 Br16'
_cell_volume   1139.98491487
_cell_formula_units_Z   1
loop_
 _symmetry_equiv_pos_site_id
 _symmetry_equiv_pos_as_xyz
  1  'x, y, z'
loop_
 _atom_site_type_symbol
 _atom_site_label
 _atom_site_symmetry_multiplicity
 _atom_site_fract_x
 _atom_site_fract_y
 _atom_site_fract_z
 _atom_site_occupancy
  Cs  Cs0  1  0.250000  0.984606  0.172037  1
  Cs  Cs1  1  0.750000  0.017490  0.829041  1
  Cs  Cs2  1  0.750000  0.515129  0.673492  1
  Cs  Cs3  1  0.250000  0.482715  0.325305  1
  Cs  Cs4  1  0.250000  0.636246  0.916099  1
  Cs  Cs5  1  0.750000  0.363762  0.086435  1
  Cs  Cs6  1  0.750000  0.865715  0.411790  1
  Cs  Cs7  1  0.250000  0.134326  0.586564  1
  Zn  Zn8  1  0.250000  0.731613  0.577629  1
  Co  Co9  1  0.750000  0.267122  0.422632  1
  Co  Co10  1  0.750000  0.765875  0.077249  1
  Co  Co11  1  0.250000  0.234087  0.922590  1
  Br  Br12  1  0.998281  0.821694  0.653902  1
  Br  Br13  1  0.998454  0.180102  0.346812  1
  Br  Br14  1  0.999154  0.679241  0.152495  1
  Br  Br15  1  0.501546  0.180102  0.346812  1
  Br  Br16  1  0.000913  0.321404  0.847770  1
  Br  Br17  1  0.501719  0.821694  0.653902  1
  Br  Br18  1  0.499087  0.321404  0.847770  1
  Br  Br19  1  0.500846  0.679241  0.152495  1
  Br  Br20  1  0.250000  0.497147  0.589902  1
  Br  Br21  1  0.750000  0.498644  0.409169  1
  Br  Br22  1  0.750000  0.997278  0.092186  1
  Br  Br23  1  0.250000  0.002714  0.908591  1
  Br  Br24  1  0.250000  0.316853  0.083717  1
  Br  Br25  1  0.750000  0.683339  0.916267  1
  Br  Br26  1  0.750000  0.184019  0.583837  1
  Br  Br27  1  0.250000  0.816438  0.413511  1
