# generated using pymatgen
data_Sc6Zn16PPt7
_symmetry_space_group_name_H-M   'P 1'
_cell_length_a   8.76542381
_cell_length_b   8.76558205
_cell_length_c   8.76485700
_cell_angle_alpha   59.99656594
_cell_angle_beta   60.00101067
_cell_angle_gamma   60.00066965
_symmetry_Int_Tables_number   1
_chemical_formula_structural   Sc6Zn16PPt7
_chemical_formula_sum   'Sc6 Zn16 P1 Pt7'
_cell_volume   476.18724412
_cell_formula_units_Z   1
loop_
 _symmetry_equiv_pos_site_id
 _symmetry_equiv_pos_as_xyz
  1  'x, y, z'
loop_
 _atom_site_type_symbol
 _atom_site_label
 _atom_site_symmetry_multiplicity
 _atom_site_fract_x
 _atom_site_fract_y
 _atom_site_fract_z
 _atom_site_occupancy
  Sc  Sc0  1  0.711961  0.288040  0.288046  1
  Sc  Sc1  1  0.712046  0.287943  0.712039  1
  Sc  Sc2  1  0.711951  0.711962  0.288037  1
  Sc  Sc3  1  0.288039  0.711960  0.711954  1
  Sc  Sc4  1  0.287954  0.712057  0.287961  1
  Sc  Sc5  1  0.288049  0.288038  0.711963  1
  Zn  Zn6  1  0.636258  0.121247  0.121263  1
  Zn  Zn7  1  0.121240  0.636258  0.121242  1
  Zn  Zn8  1  0.121266  0.121242  0.636252  1
  Zn  Zn9  1  0.121235  0.121267  0.121243  1
  Zn  Zn10  1  0.363742  0.878753  0.878737  1
  Zn  Zn11  1  0.878760  0.363742  0.878758  1
  Zn  Zn12  1  0.878734  0.878758  0.363748  1
  Zn  Zn13  1  0.878765  0.878733  0.878757  1
  Zn  Zn14  1  0.989708  0.336750  0.336791  1
  Zn  Zn15  1  0.336747  0.989710  0.336763  1
  Zn  Zn16  1  0.336789  0.336760  0.989694  1
  Zn  Zn17  1  0.336756  0.336792  0.336769  1
  Zn  Zn18  1  0.010292  0.663250  0.663209  1
  Zn  Zn19  1  0.663253  0.010290  0.663237  1
  Zn  Zn20  1  0.663211  0.663240  0.010306  1
  Zn  Zn21  1  0.663244  0.663208  0.663231  1
  P  P22  1  0.500000  0.500000  0.500000  1
  Pt  Pt23  1  0.500000  0.000000  0.000000  1
  Pt  Pt24  1  0.500000  0.000000  0.500000  1
  Pt  Pt25  1  0.500000  0.500000  0.000000  1
  Pt  Pt26  1  0.000000  0.500000  0.500000  1
  Pt  Pt27  1  0.000000  0.500000  0.000000  1
  Pt  Pt28  1  0.000000  0.000000  0.500000  1
  Pt  Pt29  1  0.000000  0.000000  0.000000  1
