# generated using pymatgen
data_CuHg3F12
_symmetry_space_group_name_H-M   'P 1'
_cell_length_a   5.60477675
_cell_length_b   5.90479536
_cell_length_c   8.13996600
_cell_angle_alpha   95.70143544
_cell_angle_beta   91.58880643
_cell_angle_gamma   90.33739232
_symmetry_Int_Tables_number   1
_chemical_formula_structural   CuHg3F12
_chemical_formula_sum   'Cu1 Hg3 F12'
_cell_volume   267.94682614
_cell_formula_units_Z   1
loop_
 _symmetry_equiv_pos_site_id
 _symmetry_equiv_pos_as_xyz
  1  'x, y, z'
loop_
 _atom_site_type_symbol
 _atom_site_label
 _atom_site_symmetry_multiplicity
 _atom_site_fract_x
 _atom_site_fract_y
 _atom_site_fract_z
 _atom_site_occupancy
  Cu  Cu0  1  0.500000  0.500000  0.000000  1
  Hg  Hg1  1  0.000000  0.000000  0.000000  1
  Hg  Hg2  1  0.500000  0.500000  0.500000  1
  Hg  Hg3  1  0.000000  0.000000  0.500000  1
  F  F4  1  0.861592  0.971694  0.766508  1
  F  F5  1  0.177743  0.324572  0.553454  1
  F  F6  1  0.227990  0.737068  0.945026  1
  F  F7  1  0.385744  0.485371  0.203756  1
  F  F8  1  0.306039  0.269991  0.919892  1
  F  F9  1  0.324425  0.820252  0.549855  1
  F  F10  1  0.675575  0.179748  0.450145  1
  F  F11  1  0.693961  0.730009  0.080108  1
  F  F12  1  0.614256  0.514629  0.796244  1
  F  F13  1  0.772010  0.262932  0.054974  1
  F  F14  1  0.822257  0.675428  0.446546  1
  F  F15  1  0.138408  0.028306  0.233492  1
