# generated using pymatgen
data_Yb2Ni7GeB2
_symmetry_space_group_name_H-M   'P 1'
_cell_length_a   5.05108310
_cell_length_b   5.05302213
_cell_length_c   6.74469500
_cell_angle_alpha   89.99653501
_cell_angle_beta   90.00321887
_cell_angle_gamma   119.96269234
_symmetry_Int_Tables_number   1
_chemical_formula_structural   Yb2Ni7GeB2
_chemical_formula_sum   'Yb2 Ni7 Ge1 B2'
_cell_volume   149.13919832
_cell_formula_units_Z   1
loop_
 _symmetry_equiv_pos_site_id
 _symmetry_equiv_pos_as_xyz
  1  'x, y, z'
loop_
 _atom_site_type_symbol
 _atom_site_label
 _atom_site_symmetry_multiplicity
 _atom_site_fract_x
 _atom_site_fract_y
 _atom_site_fract_z
 _atom_site_occupancy
  Yb  Yb0  1  0.000034  0.000039  0.000022  1
  Yb  Yb1  1  0.000075  0.000197  0.499973  1
  Ni  Ni2  1  0.332975  0.666182  0.499967  1
  Ni  Ni3  1  0.500420  0.500112  0.796279  1
  Ni  Ni4  1  0.500243  0.000602  0.795982  1
  Ni  Ni5  1  0.999711  0.500157  0.796172  1
  Ni  Ni6  1  0.500015  0.499674  0.203845  1
  Ni  Ni7  1  0.500232  0.000157  0.203948  1
  Ni  Ni8  1  0.999713  0.499690  0.203923  1
  Ge  Ge9  1  0.666579  0.333238  0.499960  1
  B  B10  1  0.666694  0.333313  0.999913  1
  B  B11  1  0.333309  0.666638  0.000015  1
