# generated using pymatgen
data_Hg3IrRu3PbO14
_symmetry_space_group_name_H-M   'P 1'
_cell_length_a   7.30727134
_cell_length_b   7.37360204
_cell_length_c   7.29312611
_cell_angle_alpha   60.24821160
_cell_angle_beta   59.93582838
_cell_angle_gamma   60.29713828
_symmetry_Int_Tables_number   1
_chemical_formula_structural   Hg3IrRu3PbO14
_chemical_formula_sum   'Hg3 Ir1 Ru3 Pb1 O14'
_cell_volume   278.86782481
_cell_formula_units_Z   1
loop_
 _symmetry_equiv_pos_site_id
 _symmetry_equiv_pos_as_xyz
  1  'x, y, z'
loop_
 _atom_site_type_symbol
 _atom_site_label
 _atom_site_symmetry_multiplicity
 _atom_site_fract_x
 _atom_site_fract_y
 _atom_site_fract_z
 _atom_site_occupancy
  Hg  Hg0  1  0.625000  0.125000  0.125000  1
  Hg  Hg1  1  0.125000  0.125000  0.625000  1
  Hg  Hg2  1  0.125000  0.125000  0.125000  1
  Ir  Ir3  1  0.625000  0.625000  0.125000  1
  Ru  Ru4  1  0.125000  0.625000  0.625000  1
  Ru  Ru5  1  0.625000  0.125000  0.625000  1
  Ru  Ru6  1  0.625000  0.625000  0.625000  1
  Pb  Pb7  1  0.125000  0.625000  0.125000  1
  O  O8  1  0.707120  0.688710  0.301821  1
  O  O9  1  0.309832  0.314638  0.686117  1
  O  O10  1  0.689414  0.314638  0.686117  1
  O  O11  1  0.302349  0.688710  0.301821  1
  O  O12  1  0.305261  0.685747  0.703730  1
  O  O13  1  0.693339  0.308821  0.304503  1
  O  O14  1  0.542880  0.561290  0.948179  1
  O  O15  1  0.940168  0.935362  0.563883  1
  O  O16  1  0.560586  0.935362  0.563883  1
  O  O17  1  0.947651  0.561290  0.948179  1
  O  O18  1  0.944739  0.564253  0.546270  1
  O  O19  1  0.556661  0.941179  0.945497  1
  O  O20  1  0.257624  0.224903  0.259850  1
  O  O21  1  0.992376  0.025097  0.990150  1
