# generated using pymatgen
data_CeEr(Tm9Sn8)2
_symmetry_space_group_name_H-M   'P 1'
_cell_length_a   7.97019584
_cell_length_b   8.08704405
_cell_length_c   15.29579100
_cell_angle_alpha   89.99436043
_cell_angle_beta   89.61509682
_cell_angle_gamma   90.14804721
_symmetry_Int_Tables_number   1
_chemical_formula_structural   CeEr(Tm9Sn8)2
_chemical_formula_sum   'Ce1 Er1 Tm18 Sn16'
_cell_volume   985.86963427
_cell_formula_units_Z   1
loop_
 _symmetry_equiv_pos_site_id
 _symmetry_equiv_pos_as_xyz
  1  'x, y, z'
loop_
 _atom_site_type_symbol
 _atom_site_label
 _atom_site_symmetry_multiplicity
 _atom_site_fract_x
 _atom_site_fract_y
 _atom_site_fract_z
 _atom_site_occupancy
  Ce  Ce0  1  0.517061  0.320537  0.404979  1
  Er  Er1  1  0.021838  0.177606  0.403527  1
  Tm  Tm2  1  0.368752  0.837527  0.121290  1
  Tm  Tm3  1  0.133883  0.337555  0.624190  1
  Tm  Tm4  1  0.476774  0.678447  0.902609  1
  Tm  Tm5  1  0.870214  0.662123  0.122143  1
  Tm  Tm6  1  0.130640  0.338377  0.877018  1
  Tm  Tm7  1  0.198609  0.504703  0.248684  1
  Tm  Tm8  1  0.698862  0.996365  0.248818  1
  Tm  Tm9  1  0.479178  0.680530  0.597387  1
  Tm  Tm10  1  0.301484  0.003440  0.750484  1
  Tm  Tm11  1  0.633898  0.161274  0.623804  1
  Tm  Tm12  1  0.802001  0.496301  0.750816  1
  Tm  Tm13  1  0.866667  0.662524  0.376229  1
  Tm  Tm14  1  0.022747  0.178233  0.095532  1
  Tm  Tm15  1  0.976899  0.821512  0.902537  1
  Tm  Tm16  1  0.630985  0.161792  0.877386  1
  Tm  Tm17  1  0.524415  0.320798  0.097634  1
  Tm  Tm18  1  0.367552  0.838229  0.376928  1
  Tm  Tm19  1  0.978387  0.820827  0.597434  1
  Sn  Sn20  1  0.797249  0.464843  0.543542  1
  Sn  Sn21  1  0.708507  0.959998  0.459436  1
  Sn  Sn22  1  0.666880  0.849664  0.750048  1
  Sn  Sn23  1  0.200532  0.543316  0.460430  1
  Sn  Sn24  1  0.290799  0.037117  0.957964  1
  Sn  Sn25  1  0.835067  0.349745  0.249194  1
  Sn  Sn26  1  0.791189  0.463181  0.958601  1
  Sn  Sn27  1  0.564759  0.621135  0.249141  1
  Sn  Sn28  1  0.210195  0.535069  0.041109  1
  Sn  Sn29  1  0.436010  0.381194  0.750588  1
  Sn  Sn30  1  0.167552  0.650403  0.749976  1
  Sn  Sn31  1  0.935322  0.118394  0.750561  1
  Sn  Sn32  1  0.292672  0.036767  0.542014  1
  Sn  Sn33  1  0.709242  0.962546  0.040943  1
  Sn  Sn34  1  0.328680  0.147676  0.247390  1
  Sn  Sn35  1  0.064498  0.880251  0.249637  1
