# generated using pymatgen
data_La7Nd9(CdNi)4
_symmetry_space_group_name_H-M   'P 1'
_cell_length_a   9.91102516
_cell_length_b   9.92421567
_cell_length_c   9.95523429
_cell_angle_alpha   59.80882734
_cell_angle_beta   60.12468034
_cell_angle_gamma   60.25103467
_symmetry_Int_Tables_number   1
_chemical_formula_structural   La7Nd9(CdNi)4
_chemical_formula_sum   'La7 Nd9 Cd4 Ni4'
_cell_volume   693.33420580
_cell_formula_units_Z   1
loop_
 _symmetry_equiv_pos_site_id
 _symmetry_equiv_pos_as_xyz
  1  'x, y, z'
loop_
 _atom_site_type_symbol
 _atom_site_label
 _atom_site_symmetry_multiplicity
 _atom_site_fract_x
 _atom_site_fract_y
 _atom_site_fract_z
 _atom_site_occupancy
  La  La0  1  0.345931  0.347124  0.349842  1
  La  La1  1  0.348873  0.345596  0.956056  1
  La  La2  1  0.349842  0.957103  0.345931  1
  La  La3  1  0.956056  0.349474  0.348873  1
  La  La4  1  0.810211  0.190758  0.188231  1
  La  La5  1  0.188231  0.810799  0.810211  1
  La  La6  1  0.189644  0.810356  0.189644  1
  Nd  Nd7  1  0.807749  0.192251  0.807749  1
  Nd  Nd8  1  0.190674  0.194398  0.806585  1
  Nd  Nd9  1  0.806585  0.808343  0.190674  1
  Nd  Nd10  1  0.935734  0.566432  0.564501  1
  Nd  Nd11  1  0.564501  0.933334  0.935734  1
  Nd  Nd12  1  0.564154  0.935846  0.564154  1
  Nd  Nd13  1  0.935760  0.564240  0.935760  1
  Nd  Nd14  1  0.563294  0.563557  0.937606  1
  Nd  Nd15  1  0.937606  0.935542  0.563294  1
  Cd  Cd16  1  0.581930  0.579633  0.579985  1
  Cd  Cd17  1  0.581788  0.580745  0.258466  1
  Cd  Cd18  1  0.579985  0.258449  0.581930  1
  Cd  Cd19  1  0.258466  0.579000  0.581788  1
  Ni  Ni20  1  0.139653  0.140242  0.145079  1
  Ni  Ni21  1  0.143768  0.137541  0.574483  1
  Ni  Ni22  1  0.145079  0.575025  0.139653  1
  Ni  Ni23  1  0.574483  0.144207  0.143768  1
