# generated using pymatgen
data_LiPr3(P3Rh4)2
_symmetry_space_group_name_H-M   'P 1'
_cell_length_a   3.98837200
_cell_length_b   11.35041000
_cell_length_c   12.98430600
_cell_angle_alpha   90.00000000
_cell_angle_beta   90.00000000
_cell_angle_gamma   90.00000000
_symmetry_Int_Tables_number   1
_chemical_formula_structural   LiPr3(P3Rh4)2
_chemical_formula_sum   'Li2 Pr6 P12 Rh16'
_cell_volume   587.79508462
_cell_formula_units_Z   2
loop_
 _symmetry_equiv_pos_site_id
 _symmetry_equiv_pos_as_xyz
  1  'x, y, z'
loop_
 _atom_site_type_symbol
 _atom_site_label
 _atom_site_symmetry_multiplicity
 _atom_site_fract_x
 _atom_site_fract_y
 _atom_site_fract_z
 _atom_site_occupancy
  Li  Li0  1  0.500000  0.500000  0.155015  1
  Li  Li1  1  0.000000  0.000000  0.844985  1
  Pr  Pr2  1  0.000000  0.500000  0.514787  1
  Pr  Pr3  1  0.500000  0.000000  0.485213  1
  Pr  Pr4  1  0.500000  0.820192  0.205209  1
  Pr  Pr5  1  0.500000  0.179808  0.205209  1
  Pr  Pr6  1  0.000000  0.679808  0.794791  1
  Pr  Pr7  1  0.000000  0.320192  0.794791  1
  P  P8  1  0.500000  0.500000  0.886205  1
  P  P9  1  0.000000  0.000000  0.113795  1
  P  P10  1  0.500000  0.500000  0.340045  1
  P  P11  1  0.000000  0.000000  0.659955  1
  P  P12  1  0.500000  0.309787  0.615919  1
  P  P13  1  0.500000  0.690213  0.615919  1
  P  P14  1  0.000000  0.190213  0.384081  1
  P  P15  1  0.000000  0.809787  0.384081  1
  P  P16  1  0.500000  0.842338  0.893747  1
  P  P17  1  0.500000  0.157662  0.893747  1
  P  P18  1  0.000000  0.657662  0.106253  1
  P  P19  1  0.000000  0.342338  0.106253  1
  Rh  Rh20  1  0.500000  0.500000  0.703754  1
  Rh  Rh21  1  0.000000  0.000000  0.296246  1
  Rh  Rh22  1  0.000000  0.500000  0.988193  1
  Rh  Rh23  1  0.500000  0.000000  0.011807  1
  Rh  Rh24  1  0.500000  0.333155  0.998281  1
  Rh  Rh25  1  0.500000  0.666845  0.998281  1
  Rh  Rh26  1  0.000000  0.166845  0.001719  1
  Rh  Rh27  1  0.000000  0.833155  0.001719  1
  Rh  Rh28  1  0.500000  0.290896  0.430744  1
  Rh  Rh29  1  0.500000  0.709104  0.430744  1
  Rh  Rh30  1  0.000000  0.209104  0.569256  1
  Rh  Rh31  1  0.000000  0.790896  0.569256  1
  Rh  Rh32  1  0.500000  0.875257  0.709771  1
  Rh  Rh33  1  0.500000  0.124743  0.709771  1
  Rh  Rh34  1  0.000000  0.624743  0.290229  1
  Rh  Rh35  1  0.000000  0.375257  0.290229  1
