# generated using pymatgen
data_Y6ScCo16TcP12
_symmetry_space_group_name_H-M   'P 1'
_cell_length_a   3.72733000
_cell_length_b   10.63202100
_cell_length_c   12.33662400
_cell_angle_alpha   90.00000000
_cell_angle_beta   90.00000000
_cell_angle_gamma   90.00000000
_symmetry_Int_Tables_number   1
_chemical_formula_structural   Y6ScCo16TcP12
_chemical_formula_sum   'Y6 Sc1 Co16 Tc1 P12'
_cell_volume   488.88869962
_cell_formula_units_Z   1
loop_
 _symmetry_equiv_pos_site_id
 _symmetry_equiv_pos_as_xyz
  1  'x, y, z'
loop_
 _atom_site_type_symbol
 _atom_site_label
 _atom_site_symmetry_multiplicity
 _atom_site_fract_x
 _atom_site_fract_y
 _atom_site_fract_z
 _atom_site_occupancy
  Y  Y0  1  0.000000  0.500000  0.524323  1
  Y  Y1  1  0.500000  0.000000  0.473258  1
  Y  Y2  1  0.500000  0.818297  0.204880  1
  Y  Y3  1  0.500000  0.181703  0.204880  1
  Y  Y4  1  0.000000  0.679053  0.793852  1
  Y  Y5  1  0.000000  0.320947  0.793852  1
  Sc  Sc6  1  0.000000  0.000000  0.846656  1
  Co  Co7  1  0.500000  0.500000  0.703449  1
  Co  Co8  1  0.000000  0.000000  0.296318  1
  Co  Co9  1  0.000000  0.500000  0.990268  1
  Co  Co10  1  0.500000  0.000000  0.015493  1
  Co  Co11  1  0.500000  0.336259  0.994544  1
  Co  Co12  1  0.500000  0.663741  0.994544  1
  Co  Co13  1  0.000000  0.172957  0.009668  1
  Co  Co14  1  0.000000  0.827043  0.009668  1
  Co  Co15  1  0.500000  0.297562  0.429528  1
  Co  Co16  1  0.500000  0.702438  0.429528  1
  Co  Co17  1  0.000000  0.205642  0.565534  1
  Co  Co18  1  0.000000  0.794358  0.565534  1
  Co  Co19  1  0.500000  0.877089  0.703801  1
  Co  Co20  1  0.500000  0.122911  0.703801  1
  Co  Co21  1  0.000000  0.619832  0.293440  1
  Co  Co22  1  0.000000  0.380168  0.293440  1
  Tc  Tc23  1  0.500000  0.500000  0.159046  1
  P  P24  1  0.500000  0.500000  0.882894  1
  P  P25  1  0.000000  0.000000  0.116304  1
  P  P26  1  0.500000  0.500000  0.349620  1
  P  P27  1  0.000000  0.000000  0.642291  1
  P  P28  1  0.500000  0.311050  0.614406  1
  P  P29  1  0.500000  0.688950  0.614406  1
  P  P30  1  0.000000  0.189920  0.382788  1
  P  P31  1  0.000000  0.810080  0.382788  1
  P  P32  1  0.500000  0.838553  0.897033  1
  P  P33  1  0.500000  0.161447  0.897033  1
  P  P34  1  0.000000  0.652560  0.110565  1
  P  P35  1  0.000000  0.347440  0.110565  1
