# generated using pymatgen
data_NdDy(Si2Ni9)2
_symmetry_space_group_name_H-M   'P 1'
_cell_length_a   7.58833300
_cell_length_b   7.58833366
_cell_length_c   7.58833411
_cell_angle_alpha   99.62254724
_cell_angle_beta   99.62254381
_cell_angle_gamma   131.73501314
_symmetry_Int_Tables_number   1
_chemical_formula_structural   NdDy(Si2Ni9)2
_chemical_formula_sum   'Nd1 Dy1 Si4 Ni18'
_cell_volume   297.57366122
_cell_formula_units_Z   1
loop_
 _symmetry_equiv_pos_site_id
 _symmetry_equiv_pos_as_xyz
  1  'x, y, z'
loop_
 _atom_site_type_symbol
 _atom_site_label
 _atom_site_symmetry_multiplicity
 _atom_site_fract_x
 _atom_site_fract_y
 _atom_site_fract_z
 _atom_site_occupancy
  Nd  Nd0  1  0.750000  0.250000  0.500000  1
  Dy  Dy1  1  0.500000  0.500000  0.000000  1
  Si  Si2  1  0.624973  0.874778  0.750195  1
  Si  Si3  1  0.125222  0.375027  0.249805  1
  Si  Si4  1  0.125222  0.875417  0.750195  1
  Si  Si5  1  0.124583  0.874778  0.249805  1
  Ni  Ni6  1  0.250000  0.750000  0.500000  1
  Ni  Ni7  1  0.000000  0.000000  0.000000  1
  Ni  Ni8  1  0.687807  0.014618  0.079071  1
  Ni  Ni9  1  0.687807  0.608735  0.673189  1
  Ni  Ni10  1  0.266420  0.437849  0.580057  1
  Ni  Ni11  1  0.266420  0.686363  0.828571  1
  Ni  Ni12  1  0.935547  0.014618  0.326811  1
  Ni  Ni13  1  0.935547  0.608735  0.920929  1
  Ni  Ni14  1  0.857791  0.437849  0.171429  1
  Ni  Ni15  1  0.857791  0.686363  0.419943  1
  Ni  Ni16  1  0.562151  0.733580  0.419943  1
  Ni  Ni17  1  0.562151  0.142209  0.828571  1
  Ni  Ni18  1  0.985382  0.312193  0.920929  1
  Ni  Ni19  1  0.985382  0.064453  0.673189  1
  Ni  Ni20  1  0.313637  0.733580  0.171429  1
  Ni  Ni21  1  0.313637  0.142209  0.580057  1
  Ni  Ni22  1  0.391265  0.312193  0.326811  1
  Ni  Ni23  1  0.391265  0.064453  0.079071  1
