# generated using pymatgen
data_Ce2SbAsH2
_symmetry_space_group_name_H-M   'P 1'
_cell_length_a   4.03422800
_cell_length_b   4.03422892
_cell_length_c   8.10912300
_cell_angle_alpha   90.00000000
_cell_angle_beta   90.00000000
_cell_angle_gamma   119.99999242
_symmetry_Int_Tables_number   1
_chemical_formula_structural   Ce2SbAsH2
_chemical_formula_sum   'Ce2 Sb1 As1 H2'
_cell_volume   114.29455233
_cell_formula_units_Z   1
loop_
 _symmetry_equiv_pos_site_id
 _symmetry_equiv_pos_as_xyz
  1  'x, y, z'
loop_
 _atom_site_type_symbol
 _atom_site_label
 _atom_site_symmetry_multiplicity
 _atom_site_fract_x
 _atom_site_fract_y
 _atom_site_fract_z
 _atom_site_occupancy
  Ce  Ce0  1  0.666667  0.333333  0.768831  1
  Ce  Ce1  1  0.333333  0.666667  0.231169  1
  Sb  Sb2  1  0.000000  0.000000  0.500000  1
  As  As3  1  0.000000  0.000000  0.000000  1
  H  H4  1  0.666667  0.333333  0.244395  1
  H  H5  1  0.333333  0.666667  0.755605  1
