# generated using pymatgen
data_TbPa3(ReB4)4
_symmetry_space_group_name_H-M   'P 1'
_cell_length_a   3.64829000
_cell_length_b   5.98260727
_cell_length_c   11.57569153
_cell_angle_alpha   89.96534073
_cell_angle_beta   90.00000000
_cell_angle_gamma   90.00000000
_symmetry_Int_Tables_number   1
_chemical_formula_structural   TbPa3(ReB4)4
_chemical_formula_sum   'Tb1 Pa3 Re4 B16'
_cell_volume   252.65431111
_cell_formula_units_Z   1
loop_
 _symmetry_equiv_pos_site_id
 _symmetry_equiv_pos_as_xyz
  1  'x, y, z'
loop_
 _atom_site_type_symbol
 _atom_site_label
 _atom_site_symmetry_multiplicity
 _atom_site_fract_x
 _atom_site_fract_y
 _atom_site_fract_z
 _atom_site_occupancy
  Tb  Tb0  1  0.000000  0.872346  0.850473  1
  Pa  Pa1  1  0.000000  0.628464  0.350051  1
  Pa  Pa2  1  0.000000  0.372001  0.651283  1
  Pa  Pa3  1  0.000000  0.127383  0.148727  1
  Re  Re4  1  0.000000  0.637631  0.094658  1
  Re  Re5  1  0.000000  0.361370  0.908692  1
  Re  Re6  1  0.000000  0.139717  0.405289  1
  Re  Re7  1  0.000000  0.860427  0.592240  1
  B  B8  1  0.500000  0.789818  0.186590  1
  B  B9  1  0.500000  0.213651  0.813201  1
  B  B10  1  0.500000  0.289918  0.312752  1
  B  B11  1  0.500000  0.710363  0.685607  1
  B  B12  1  0.500000  0.863814  0.032307  1
  B  B13  1  0.500000  0.137506  0.968895  1
  B  B14  1  0.500000  0.364113  0.468512  1
  B  B15  1  0.500000  0.634506  0.531741  1
  B  B16  1  0.500000  0.887252  0.454133  1
  B  B17  1  0.500000  0.112083  0.546770  1
  B  B18  1  0.500000  0.387764  0.045692  1
  B  B19  1  0.500000  0.613151  0.953272  1
  B  B20  1  0.500000  0.972749  0.308499  1
  B  B21  1  0.500000  0.027400  0.690878  1
  B  B22  1  0.500000  0.472834  0.191235  1
  B  B23  1  0.500000  0.523739  0.808506  1
