# generated using pymatgen
data_DyLu2Ga5Co
_symmetry_space_group_name_H-M   'P 1'
_cell_length_a   6.79356000
_cell_length_b   6.82848575
_cell_length_c   4.17639700
_cell_angle_alpha   90.00000000
_cell_angle_beta   90.00000000
_cell_angle_gamma   119.83095039
_symmetry_Int_Tables_number   1
_chemical_formula_structural   DyLu2Ga5Co
_chemical_formula_sum   'Dy1 Lu2 Ga5 Co1'
_cell_volume   168.07050824
_cell_formula_units_Z   1
loop_
 _symmetry_equiv_pos_site_id
 _symmetry_equiv_pos_as_xyz
  1  'x, y, z'
loop_
 _atom_site_type_symbol
 _atom_site_label
 _atom_site_symmetry_multiplicity
 _atom_site_fract_x
 _atom_site_fract_y
 _atom_site_fract_z
 _atom_site_occupancy
  Dy  Dy0  1  0.595185  0.000000  0.000000  1
  Lu  Lu1  1  0.999221  0.599344  0.000000  1
  Lu  Lu2  1  0.399877  0.400656  0.000000  1
  Ga  Ga3  1  0.231780  0.000000  0.500000  1
  Ga  Ga4  1  0.000675  0.231956  0.500000  1
  Ga  Ga5  1  0.768719  0.768044  0.500000  1
  Ga  Ga6  1  0.331208  0.662891  0.500000  1
  Ga  Ga7  1  0.668318  0.337109  0.500000  1
  Co  Co8  1  0.005016  0.000000  0.000000  1
