# generated using pymatgen
data_Tb3Ce2YAl18
_symmetry_space_group_name_H-M   'P 1'
_cell_length_a   14.58820046
_cell_length_b   14.58820072
_cell_length_c   14.58820100
_cell_angle_alpha   24.56930805
_cell_angle_beta   24.56930585
_cell_angle_gamma   24.56930800
_symmetry_Int_Tables_number   1
_chemical_formula_structural   Tb3Ce2YAl18
_chemical_formula_sum   'Tb3 Ce2 Y1 Al18'
_cell_volume   471.94546053
_cell_formula_units_Z   1
loop_
 _symmetry_equiv_pos_site_id
 _symmetry_equiv_pos_as_xyz
  1  'x, y, z'
loop_
 _atom_site_type_symbol
 _atom_site_label
 _atom_site_symmetry_multiplicity
 _atom_site_fract_x
 _atom_site_fract_y
 _atom_site_fract_z
 _atom_site_occupancy
  Tb  Tb0  1  0.000042  0.000042  0.000042  1
  Tb  Tb1  1  0.500004  0.500004  0.500004  1
  Tb  Tb2  1  0.608965  0.608965  0.608965  1
  Ce  Ce3  1  0.108506  0.108506  0.108506  1
  Ce  Ce4  1  0.891523  0.891523  0.891523  1
  Y  Y5  1  0.391021  0.391021  0.391021  1
  Al  Al6  1  0.925748  0.369886  0.369886  1
  Al  Al7  1  0.425155  0.869286  0.869286  1
  Al  Al8  1  0.369886  0.369886  0.925748  1
  Al  Al9  1  0.869286  0.869286  0.425155  1
  Al  Al10  1  0.369886  0.925748  0.369886  1
  Al  Al11  1  0.869286  0.425155  0.869286  1
  Al  Al12  1  0.575143  0.130598  0.130598  1
  Al  Al13  1  0.074415  0.629933  0.629933  1
  Al  Al14  1  0.130598  0.130598  0.575143  1
  Al  Al15  1  0.629933  0.629933  0.074415  1
  Al  Al16  1  0.130598  0.575143  0.130598  1
  Al  Al17  1  0.629933  0.074415  0.629933  1
  Al  Al18  1  0.500141  0.500141  0.999779  1
  Al  Al19  1  0.999826  0.999826  0.500357  1
  Al  Al20  1  0.500141  0.999779  0.500141  1
  Al  Al21  1  0.999826  0.500357  0.999826  1
  Al  Al22  1  0.999779  0.500141  0.500141  1
  Al  Al23  1  0.500357  0.999826  0.999826  1
