# generated using pymatgen
data_La2Er18Si15Rh
_symmetry_space_group_name_H-M   'P 1'
_cell_length_a   7.43730976
_cell_length_b   7.70533702
_cell_length_c   14.58035900
_cell_angle_alpha   89.55354666
_cell_angle_beta   89.92275366
_cell_angle_gamma   89.88977873
_symmetry_Int_Tables_number   1
_chemical_formula_structural   La2Er18Si15Rh
_chemical_formula_sum   'La2 Er18 Si15 Rh1'
_cell_volume   835.52866130
_cell_formula_units_Z   1
loop_
 _symmetry_equiv_pos_site_id
 _symmetry_equiv_pos_as_xyz
  1  'x, y, z'
loop_
 _atom_site_type_symbol
 _atom_site_label
 _atom_site_symmetry_multiplicity
 _atom_site_fract_x
 _atom_site_fract_y
 _atom_site_fract_z
 _atom_site_occupancy
  La  La0  1  0.522888  0.574672  0.340289  1
  La  La1  1  0.024444  0.428168  0.656308  1
  Er  Er2  1  0.808035  0.576372  0.876840  1
  Er  Er3  1  0.316937  0.423761  0.124033  1
  Er  Er4  1  0.184182  0.928846  0.373436  1
  Er  Er5  1  0.683158  0.070895  0.626471  1
  Er  Er6  1  0.184814  0.927732  0.628187  1
  Er  Er7  1  0.683540  0.073284  0.371764  1
  Er  Er8  1  0.814180  0.571279  0.125127  1
  Er  Er9  1  0.322413  0.430528  0.874708  1
  Er  Er10  1  0.640744  0.235851  0.999261  1
  Er  Er11  1  0.160484  0.757797  0.000882  1
  Er  Er12  1  0.353020  0.262907  0.499682  1
  Er  Er13  1  0.851129  0.738279  0.500209  1
  Er  Er14  1  0.476180  0.928051  0.847755  1
  Er  Er15  1  0.970125  0.065948  0.151753  1
  Er  Er16  1  0.472593  0.931096  0.151155  1
  Er  Er17  1  0.968090  0.065933  0.849458  1
  Er  Er18  1  0.528695  0.568187  0.651916  1
  Er  Er19  1  0.030790  0.436350  0.350313  1
  Si  Si20  1  0.015574  0.349242  0.000021  1
  Si  Si21  1  0.479337  0.861908  0.501009  1
  Si  Si22  1  0.980692  0.138909  0.498800  1
  Si  Si23  1  0.650682  0.275730  0.790777  1
  Si  Si24  1  0.151150  0.720821  0.209387  1
  Si  Si25  1  0.351768  0.217444  0.288530  1
  Si  Si26  1  0.850492  0.784788  0.713345  1
  Si  Si27  1  0.362999  0.220463  0.709858  1
  Si  Si28  1  0.863239  0.781741  0.289227  1
  Si  Si29  1  0.643989  0.266526  0.204890  1
  Si  Si30  1  0.143840  0.728155  0.793795  1
  Si  Si31  1  0.769763  0.880881  0.001142  1
  Si  Si32  1  0.257584  0.122967  0.999122  1
  Si  Si33  1  0.233462  0.625899  0.501514  1
  Si  Si34  1  0.731681  0.377197  0.498270  1
  Rh  Rh35  1  0.517311  0.651392  0.000761  1
