# generated using pymatgen
data_PrPa2(AlRh)3
_symmetry_space_group_name_H-M   'P 1'
_cell_length_a   7.17488011
_cell_length_b   7.06114319
_cell_length_c   4.06536700
_cell_angle_alpha   90.00000000
_cell_angle_beta   90.00000000
_cell_angle_gamma   119.47698300
_symmetry_Int_Tables_number   1
_chemical_formula_structural   PrPa2(AlRh)3
_chemical_formula_sum   'Pr1 Pa2 Al3 Rh3'
_cell_volume   179.30188761
_cell_formula_units_Z   1
loop_
 _symmetry_equiv_pos_site_id
 _symmetry_equiv_pos_as_xyz
  1  'x, y, z'
loop_
 _atom_site_type_symbol
 _atom_site_label
 _atom_site_symmetry_multiplicity
 _atom_site_fract_x
 _atom_site_fract_y
 _atom_site_fract_z
 _atom_site_occupancy
  Pr  Pr0  1  0.000000  0.580589  0.500000  1
  Pa  Pa1  1  0.421677  0.419125  0.500000  1
  Pa  Pa2  1  0.578323  0.997448  0.500000  1
  Al  Al3  1  0.775873  0.770158  0.000000  1
  Al  Al4  1  0.224127  0.994285  0.000000  1
  Al  Al5  1  0.000000  0.241298  0.000000  1
  Rh  Rh6  1  0.626468  0.298280  0.000000  1
  Rh  Rh7  1  0.373532  0.671813  0.000000  1
  Rh  Rh8  1  0.000000  0.027004  0.500000  1
