# generated using pymatgen
data_YTh(As3Rh5)2
_symmetry_space_group_name_H-M   'P 1'
_cell_length_a   4.04477200
_cell_length_b   12.92697561
_cell_length_c   11.39661254
_cell_angle_alpha   90.03527105
_cell_angle_beta   90.00000000
_cell_angle_gamma   90.00000000
_symmetry_Int_Tables_number   1
_chemical_formula_structural   YTh(As3Rh5)2
_chemical_formula_sum   'Y2 Th2 As12 Rh20'
_cell_volume   595.89079470
_cell_formula_units_Z   2
loop_
 _symmetry_equiv_pos_site_id
 _symmetry_equiv_pos_as_xyz
  1  'x, y, z'
loop_
 _atom_site_type_symbol
 _atom_site_label
 _atom_site_symmetry_multiplicity
 _atom_site_fract_x
 _atom_site_fract_y
 _atom_site_fract_z
 _atom_site_occupancy
  Y  Y0  1  0.250000  0.799135  0.580231  1
  Y  Y1  1  0.750000  0.200865  0.419769  1
  Th  Th2  1  0.750000  0.700649  0.080282  1
  Th  Th3  1  0.250000  0.299351  0.919718  1
  As  As4  1  0.750000  0.614927  0.583120  1
  As  As5  1  0.250000  0.385073  0.416880  1
  As  As6  1  0.250000  0.888079  0.084677  1
  As  As7  1  0.750000  0.111921  0.915323  1
  As  As8  1  0.750000  0.889914  0.400067  1
  As  As9  1  0.250000  0.110086  0.599933  1
  As  As10  1  0.250000  0.610165  0.894790  1
  As  As11  1  0.750000  0.389835  0.105210  1
  As  As12  1  0.750000  0.870044  0.765814  1
  As  As13  1  0.250000  0.129956  0.234186  1
  As  As14  1  0.250000  0.629449  0.271907  1
  As  As15  1  0.750000  0.370551  0.728093  1
  Rh  Rh16  1  0.750000  0.701099  0.385136  1
  Rh  Rh17  1  0.250000  0.298901  0.614864  1
  Rh  Rh18  1  0.250000  0.799447  0.884920  1
  Rh  Rh19  1  0.750000  0.200553  0.115080  1
  Rh  Rh20  1  0.750000  0.995763  0.222076  1
  Rh  Rh21  1  0.250000  0.004237  0.777924  1
  Rh  Rh22  1  0.250000  0.504567  0.720858  1
  Rh  Rh23  1  0.750000  0.495433  0.279142  1
  Rh  Rh24  1  0.750000  0.677163  0.779989  1
  Rh  Rh25  1  0.250000  0.322837  0.220011  1
  Rh  Rh26  1  0.250000  0.823285  0.280709  1
  Rh  Rh27  1  0.750000  0.176715  0.719291  1
  Rh  Rh28  1  0.750000  0.928134  0.968385  1
  Rh  Rh29  1  0.250000  0.071866  0.031615  1
  Rh  Rh30  1  0.250000  0.571088  0.471309  1
  Rh  Rh31  1  0.750000  0.428912  0.528691  1
  Rh  Rh32  1  0.750000  0.978860  0.589893  1
  Rh  Rh33  1  0.250000  0.021140  0.410107  1
  Rh  Rh34  1  0.250000  0.523575  0.089017  1
  Rh  Rh35  1  0.750000  0.476424  0.910983  1
