# generated using pymatgen
data_Y3Tm(Si5Pt3)2
_symmetry_space_group_name_H-M   'P 1'
_cell_length_a   8.15607917
_cell_length_b   8.14855982
_cell_length_c   8.14856025
_cell_angle_alpha   136.23771054
_cell_angle_beta   104.51694547
_cell_angle_gamma   91.53926283
_symmetry_Int_Tables_number   1
_chemical_formula_structural   Y3Tm(Si5Pt3)2
_chemical_formula_sum   'Y3 Tm1 Si10 Pt6'
_cell_volume   344.69651342
_cell_formula_units_Z   1
loop_
 _symmetry_equiv_pos_site_id
 _symmetry_equiv_pos_as_xyz
  1  'x, y, z'
loop_
 _atom_site_type_symbol
 _atom_site_label
 _atom_site_symmetry_multiplicity
 _atom_site_fract_x
 _atom_site_fract_y
 _atom_site_fract_z
 _atom_site_occupancy
  Y  Y0  1  0.641347  0.370466  0.270881  1
  Y  Y1  1  0.358506  0.629407  0.729099  1
  Y  Y2  1  0.099571  0.870523  0.229048  1
  Tm  Tm3  1  0.901193  0.129898  0.771294  1
  Si  Si4  1  0.271220  0.521247  0.249022  1
  Si  Si5  1  0.728214  0.477885  0.750253  1
  Si  Si6  1  0.728214  0.977961  0.250330  1
  Si  Si7  1  0.271220  0.022198  0.749972  1
  Si  Si8  1  0.460553  0.112062  0.348491  1
  Si  Si9  1  0.540629  0.888906  0.651723  1
  Si  Si10  1  0.763438  0.612053  0.151385  1
  Si  Si11  1  0.235969  0.387277  0.848692  1
  Si  Si12  1  0.999849  0.249937  0.249350  1
  Si  Si13  1  0.999849  0.750500  0.749912  1
  Pt  Pt14  1  0.249633  0.137336  0.112296  1
  Pt  Pt15  1  0.750584  0.862940  0.887644  1
  Pt  Pt16  1  0.024787  0.637532  0.387255  1
  Pt  Pt17  1  0.974489  0.361831  0.612658  1
  Pt  Pt18  1  0.500368  0.249750  0.750075  1
  Pt  Pt19  1  0.500368  0.750293  0.250618  1
