# generated using pymatgen
data_PrNd3(Tl2Cl5)4
_symmetry_space_group_name_H-M   'P 1'
_cell_length_a   8.34696220
_cell_length_b   8.74461900
_cell_length_c   12.89816300
_cell_angle_alpha   90.00000000
_cell_angle_beta   90.31381528
_cell_angle_gamma   90.00000000
_symmetry_Int_Tables_number   1
_chemical_formula_structural   PrNd3(Tl2Cl5)4
_chemical_formula_sum   'Pr1 Nd3 Tl8 Cl20'
_cell_volume   941.43574906
_cell_formula_units_Z   1
loop_
 _symmetry_equiv_pos_site_id
 _symmetry_equiv_pos_as_xyz
  1  'x, y, z'
loop_
 _atom_site_type_symbol
 _atom_site_label
 _atom_site_symmetry_multiplicity
 _atom_site_fract_x
 _atom_site_fract_y
 _atom_site_fract_z
 _atom_site_occupancy
  Pr  Pr0  1  0.422037  0.250000  0.993761  1
  Nd  Nd1  1  0.923375  0.750000  0.505747  1
  Nd  Nd2  1  0.577645  0.750000  0.005901  1
  Nd  Nd3  1  0.077458  0.250000  0.494234  1
  Tl  Tl4  1  0.940820  0.004697  0.827221  1
  Tl  Tl5  1  0.057837  0.994947  0.172583  1
  Tl  Tl6  1  0.558558  0.495161  0.328787  1
  Tl  Tl7  1  0.057837  0.505053  0.172583  1
  Tl  Tl8  1  0.940820  0.495303  0.827221  1
  Tl  Tl9  1  0.441105  0.505268  0.671174  1
  Tl  Tl10  1  0.558558  0.004839  0.328787  1
  Tl  Tl11  1  0.441105  0.994732  0.671174  1
  Cl  Cl12  1  0.585894  0.750000  0.506565  1
  Cl  Cl13  1  0.165914  0.953816  0.430426  1
  Cl  Cl14  1  0.834944  0.046175  0.569416  1
  Cl  Cl15  1  0.334299  0.547374  0.928349  1
  Cl  Cl16  1  0.165914  0.546184  0.430426  1
  Cl  Cl17  1  0.344225  0.250000  0.204311  1
  Cl  Cl18  1  0.334299  0.952626  0.928349  1
  Cl  Cl19  1  0.834944  0.453825  0.569416  1
  Cl  Cl20  1  0.395142  0.750000  0.185427  1
  Cl  Cl21  1  0.665913  0.045003  0.071662  1
  Cl  Cl22  1  0.155981  0.250000  0.703517  1
  Cl  Cl23  1  0.607066  0.250000  0.813334  1
  Cl  Cl24  1  0.414865  0.250000  0.494074  1
  Cl  Cl25  1  0.105776  0.750000  0.685875  1
  Cl  Cl26  1  0.665913  0.454997  0.071662  1
  Cl  Cl27  1  0.082490  0.250000  0.993987  1
  Cl  Cl28  1  0.915343  0.750000  0.006151  1
  Cl  Cl29  1  0.844239  0.750000  0.296803  1
  Cl  Cl30  1  0.655239  0.750000  0.796899  1
  Cl  Cl31  1  0.894440  0.250000  0.314178  1
