# generated using pymatgen
data_Yb2YTh5(Pt2Pb)4
_symmetry_space_group_name_H-M   'P 1'
_cell_length_a   8.09270000
_cell_length_b   8.09457333
_cell_length_c   7.36250800
_cell_angle_alpha   90.00000000
_cell_angle_beta   90.00000000
_cell_angle_gamma   90.22012309
_symmetry_Int_Tables_number   1
_chemical_formula_structural   Yb2YTh5(Pt2Pb)4
_chemical_formula_sum   'Yb2 Y1 Th5 Pt8 Pb4'
_cell_volume   482.29191036
_cell_formula_units_Z   1
loop_
 _symmetry_equiv_pos_site_id
 _symmetry_equiv_pos_as_xyz
  1  'x, y, z'
loop_
 _atom_site_type_symbol
 _atom_site_label
 _atom_site_symmetry_multiplicity
 _atom_site_fract_x
 _atom_site_fract_y
 _atom_site_fract_z
 _atom_site_occupancy
  Yb  Yb0  1  0.662957  0.663571  0.500000  1
  Yb  Yb1  1  0.159258  0.839601  0.000000  1
  Y  Y2  1  0.840340  0.157714  0.000000  1
  Th  Th3  1  0.676491  0.676943  0.000000  1
  Th  Th4  1  0.341277  0.342643  0.500000  1
  Th  Th5  1  0.824807  0.173270  0.500000  1
  Th  Th6  1  0.324938  0.325620  0.000000  1
  Th  Th7  1  0.174231  0.823979  0.500000  1
  Pt  Pt8  1  0.873278  0.875092  0.735685  1
  Pt  Pt9  1  0.130791  0.131284  0.735004  1
  Pt  Pt10  1  0.628831  0.368283  0.767875  1
  Pt  Pt11  1  0.628831  0.368283  0.232125  1
  Pt  Pt12  1  0.370192  0.625791  0.234195  1
  Pt  Pt13  1  0.130791  0.131284  0.264996  1
  Pt  Pt14  1  0.873278  0.875092  0.264315  1
  Pt  Pt15  1  0.370192  0.625791  0.765805  1
  Pb  Pb16  1  0.500068  0.993480  0.752095  1
  Pb  Pb17  1  0.500068  0.993480  0.247905  1
  Pb  Pb18  1  0.994692  0.504400  0.751270  1
  Pb  Pb19  1  0.994692  0.504400  0.248730  1
