# generated using pymatgen
data_Nb3TeBr4Cl3
_symmetry_space_group_name_H-M   'P 1'
_cell_length_a   7.14769700
_cell_length_b   7.18170161
_cell_length_c   7.15681955
_cell_angle_alpha   90.69453002
_cell_angle_beta   90.00000000
_cell_angle_gamma   119.84349871
_symmetry_Int_Tables_number   1
_chemical_formula_structural   Nb3TeBr4Cl3
_chemical_formula_sum   'Nb3 Te1 Br4 Cl3'
_cell_volume   318.62841774
_cell_formula_units_Z   1
loop_
 _symmetry_equiv_pos_site_id
 _symmetry_equiv_pos_as_xyz
  1  'x, y, z'
loop_
 _atom_site_type_symbol
 _atom_site_label
 _atom_site_symmetry_multiplicity
 _atom_site_fract_x
 _atom_site_fract_y
 _atom_site_fract_z
 _atom_site_occupancy
  Nb  Nb0  1  0.275294  0.133986  0.501006  1
  Nb  Nb1  1  0.858691  0.133986  0.501006  1
  Nb  Nb2  1  0.863957  0.727914  0.501005  1
  Te  Te3  1  0.997335  0.994670  0.203421  1
  Br  Br4  1  0.998795  0.495738  0.303669  1
  Br  Br5  1  0.668092  0.336184  0.709061  1
  Br  Br6  1  0.167204  0.334409  0.739722  1
  Br  Br7  1  0.496944  0.495738  0.303669  1
  Cl  Cl8  1  0.676432  0.839958  0.721262  1
  Cl  Cl9  1  0.500396  0.000792  0.324516  1
  Cl  Cl10  1  0.163526  0.839958  0.721262  1
