# generated using pymatgen
data_LuCl13
_symmetry_space_group_name_H-M   'P 1'
_cell_length_a   11.80984996
_cell_length_b   16.39416146
_cell_length_c   9.50637600
_cell_angle_alpha   96.67910896
_cell_angle_beta   109.29021611
_cell_angle_gamma   132.70658130
_symmetry_Int_Tables_number   1
_chemical_formula_structural   LuCl13
_chemical_formula_sum   'Lu2 Cl26'
_cell_volume   1112.28533216
_cell_formula_units_Z   2
loop_
 _symmetry_equiv_pos_site_id
 _symmetry_equiv_pos_as_xyz
  1  'x, y, z'
loop_
 _atom_site_type_symbol
 _atom_site_label
 _atom_site_symmetry_multiplicity
 _atom_site_fract_x
 _atom_site_fract_y
 _atom_site_fract_z
 _atom_site_occupancy
  Lu  Lu0  1  0.867520  0.038239  0.952117  1
  Lu  Lu1  1  0.382480  0.711761  0.547883  1
  Cl  Cl2  1  0.259546  0.431095  0.632747  1
  Cl  Cl3  1  0.729295  0.364922  0.035360  1
  Cl  Cl4  1  0.929253  0.069664  0.542092  1
  Cl  Cl5  1  0.990454  0.318905  0.867253  1
  Cl  Cl6  1  0.598041  0.175552  0.254678  1
  Cl  Cl7  1  0.651959  0.574448  0.245322  1
  Cl  Cl8  1  0.320747  0.680336  0.957908  1
  Cl  Cl9  1  0.520705  0.385078  0.464640  1
  Cl  Cl10  1  0.022450  0.786729  0.732494  1
  Cl  Cl11  1  0.398369  0.651549  0.312675  1
  Cl  Cl12  1  0.054217  0.106889  0.791087  1
  Cl  Cl13  1  0.714110  0.167420  0.450696  1
  Cl  Cl14  1  0.184668  0.144261  0.110290  1
  Cl  Cl15  1  0.726252  0.525418  0.708832  1
  Cl  Cl16  1  0.218756  0.946217  0.234401  1
  Cl  Cl17  1  0.305223  0.506776  0.471871  1
  Cl  Cl18  1  0.227550  0.963271  0.767506  1
  Cl  Cl19  1  0.851631  0.098451  0.187325  1
  Cl  Cl20  1  0.657148  0.802755  0.839092  1
  Cl  Cl21  1  0.592852  0.947245  0.660908  1
  Cl  Cl22  1  0.031244  0.803783  0.265599  1
  Cl  Cl23  1  0.944777  0.243224  0.028129  1
  Cl  Cl24  1  0.195783  0.643111  0.708913  1
  Cl  Cl25  1  0.523748  0.224582  0.791168  1
  Cl  Cl26  1  0.065332  0.605739  0.389710  1
  Cl  Cl27  1  0.535890  0.582580  0.049304  1
