# generated using pymatgen
data_TbY5(SnIr)6
_symmetry_space_group_name_H-M   'P 1'
_cell_length_a   7.48679995
_cell_length_b   7.53298333
_cell_length_c   7.96346100
_cell_angle_alpha   90.00000000
_cell_angle_beta   90.00000000
_cell_angle_gamma   120.24284072
_symmetry_Int_Tables_number   1
_chemical_formula_structural   TbY5(SnIr)6
_chemical_formula_sum   'Tb1 Y5 Sn6 Ir6'
_cell_volume   387.99648026
_cell_formula_units_Z   1
loop_
 _symmetry_equiv_pos_site_id
 _symmetry_equiv_pos_as_xyz
  1  'x, y, z'
loop_
 _atom_site_type_symbol
 _atom_site_label
 _atom_site_symmetry_multiplicity
 _atom_site_fract_x
 _atom_site_fract_y
 _atom_site_fract_z
 _atom_site_occupancy
  Tb  Tb0  1  0.998645  0.403510  0.250000  1
  Y  Y1  1  0.406502  0.004508  0.250000  1
  Y  Y2  1  0.596277  0.594381  0.750000  1
  Y  Y3  1  0.594522  0.596235  0.250000  1
  Y  Y4  1  0.001274  0.405741  0.750000  1
  Y  Y5  1  0.403290  0.996890  0.750000  1
  Sn  Sn6  1  0.260789  0.259249  0.500953  1
  Sn  Sn7  1  0.260789  0.259249  0.999047  1
  Sn  Sn8  1  0.738932  0.997851  0.999269  1
  Sn  Sn9  1  0.000274  0.743637  0.497811  1
  Sn  Sn10  1  0.738932  0.997851  0.500731  1
  Sn  Sn11  1  0.000274  0.743637  0.002189  1
  Ir  Ir12  1  0.670833  0.334080  0.500735  1
  Ir  Ir13  1  0.670833  0.334080  0.999265  1
  Ir  Ir14  1  0.329017  0.663505  0.002897  1
  Ir  Ir15  1  0.329017  0.663505  0.497103  1
  Ir  Ir16  1  0.999890  0.999264  0.750000  1
  Ir  Ir17  1  0.999907  0.002826  0.250000  1
