# generated using pymatgen
data_TbTm9(SnSb)3
_symmetry_space_group_name_H-M   'P 1'
_cell_length_a   8.89088820
_cell_length_b   8.89088846
_cell_length_c   6.33410600
_cell_angle_alpha   90.00000000
_cell_angle_beta   90.00000000
_cell_angle_gamma   120.21191667
_symmetry_Int_Tables_number   1
_chemical_formula_structural   TbTm9(SnSb)3
_chemical_formula_sum   'Tb1 Tm9 Sn3 Sb3'
_cell_volume   432.68805449
_cell_formula_units_Z   1
loop_
 _symmetry_equiv_pos_site_id
 _symmetry_equiv_pos_as_xyz
  1  'x, y, z'
loop_
 _atom_site_type_symbol
 _atom_site_label
 _atom_site_symmetry_multiplicity
 _atom_site_fract_x
 _atom_site_fract_y
 _atom_site_fract_z
 _atom_site_occupancy
  Tb  Tb0  1  0.239722  0.239722  0.000000  1
  Tm  Tm1  1  0.759506  0.000448  0.000000  1
  Tm  Tm2  1  0.000448  0.759506  0.000000  1
  Tm  Tm3  1  0.240678  0.999495  0.500000  1
  Tm  Tm4  1  0.999495  0.240678  0.500000  1
  Tm  Tm5  1  0.760409  0.760409  0.500000  1
  Tm  Tm6  1  0.333599  0.666336  0.251531  1
  Tm  Tm7  1  0.666336  0.333599  0.251531  1
  Tm  Tm8  1  0.666336  0.333599  0.748469  1
  Tm  Tm9  1  0.333599  0.666336  0.748469  1
  Sn  Sn10  1  0.607106  0.000035  0.500000  1
  Sn  Sn11  1  0.000035  0.607106  0.500000  1
  Sn  Sn12  1  0.392951  0.392951  0.500000  1
  Sb  Sb13  1  0.393143  0.998026  0.000000  1
  Sb  Sb14  1  0.998026  0.393143  0.000000  1
  Sb  Sb15  1  0.608609  0.608609  0.000000  1
