# generated using pymatgen
data_YbY2Ho5(B6Ru)4
_symmetry_space_group_name_H-M   'P 1'
_cell_length_a   3.65395100
_cell_length_b   9.12986528
_cell_length_c   11.51498502
_cell_angle_alpha   89.91741820
_cell_angle_beta   90.00000000
_cell_angle_gamma   90.00000000
_symmetry_Int_Tables_number   1
_chemical_formula_structural   YbY2Ho5(B6Ru)4
_chemical_formula_sum   'Yb1 Y2 Ho5 B24 Ru4'
_cell_volume   384.14042687
_cell_formula_units_Z   1
loop_
 _symmetry_equiv_pos_site_id
 _symmetry_equiv_pos_as_xyz
  1  'x, y, z'
loop_
 _atom_site_type_symbol
 _atom_site_label
 _atom_site_symmetry_multiplicity
 _atom_site_fract_x
 _atom_site_fract_y
 _atom_site_fract_z
 _atom_site_occupancy
  Yb  Yb0  1  0.000000  0.323897  0.413648  1
  Y  Y1  1  0.000000  0.675621  0.585000  1
  Y  Y2  1  0.000000  0.822639  0.086352  1
  Ho  Ho3  1  0.000000  0.177811  0.914577  1
  Ho  Ho4  1  0.000000  0.944144  0.371041  1
  Ho  Ho5  1  0.000000  0.058047  0.628208  1
  Ho  Ho6  1  0.000000  0.442959  0.129523  1
  Ho  Ho7  1  0.000000  0.555840  0.872134  1
  B  B8  1  0.500000  0.553792  0.432400  1
  B  B9  1  0.500000  0.445494  0.567279  1
  B  B10  1  0.500000  0.053651  0.066617  1
  B  B11  1  0.500000  0.946140  0.932422  1
  B  B12  1  0.500000  0.748190  0.419090  1
  B  B13  1  0.500000  0.252369  0.580794  1
  B  B14  1  0.500000  0.247543  0.080382  1
  B  B15  1  0.500000  0.751767  0.919508  1
  B  B16  1  0.500000  0.791361  0.266317  1
  B  B17  1  0.500000  0.209618  0.734066  1
  B  B18  1  0.500000  0.290006  0.233620  1
  B  B19  1  0.500000  0.709232  0.766461  1
  B  B20  1  0.500000  0.631819  0.185975  1
  B  B21  1  0.500000  0.368268  0.815166  1
  B  B22  1  0.500000  0.131415  0.314050  1
  B  B23  1  0.500000  0.868700  0.685325  1
  B  B24  1  0.500000  0.983674  0.212119  1
  B  B25  1  0.500000  0.016720  0.787258  1
  B  B26  1  0.500000  0.483905  0.287698  1
  B  B27  1  0.500000  0.516026  0.712765  1
  B  B28  1  0.500000  0.608022  0.030116  1
  B  B29  1  0.500000  0.391724  0.970436  1
  B  B30  1  0.500000  0.104738  0.470917  1
  B  B31  1  0.500000  0.894486  0.529197  1
  Ru  Ru32  1  0.000000  0.639251  0.320615  1
  Ru  Ru33  1  0.000000  0.361733  0.680224  1
  Ru  Ru34  1  0.000000  0.137056  0.177831  1
  Ru  Ru35  1  0.000000  0.862346  0.820867  1
