# generated using pymatgen
data_DyTmLu4(Sb4Au3)2
_symmetry_space_group_name_H-M   'P 1'
_cell_length_a   8.54980773
_cell_length_b   8.55012407
_cell_length_c   8.55110231
_cell_angle_alpha   109.36003153
_cell_angle_beta   109.55831103
_cell_angle_gamma   109.49645541
_symmetry_Int_Tables_number   1
_chemical_formula_structural   DyTmLu4(Sb4Au3)2
_chemical_formula_sum   'Dy1 Tm1 Lu4 Sb8 Au6'
_cell_volume   481.19584274
_cell_formula_units_Z   1
loop_
 _symmetry_equiv_pos_site_id
 _symmetry_equiv_pos_as_xyz
  1  'x, y, z'
loop_
 _atom_site_type_symbol
 _atom_site_label
 _atom_site_symmetry_multiplicity
 _atom_site_fract_x
 _atom_site_fract_y
 _atom_site_fract_z
 _atom_site_occupancy
  Dy  Dy0  1  0.874604  0.249801  0.124611  1
  Tm  Tm1  1  0.125403  0.875178  0.250057  1
  Lu  Lu2  1  0.625213  0.749993  0.375388  1
  Lu  Lu3  1  0.750073  0.375145  0.624872  1
  Lu  Lu4  1  0.249859  0.125083  0.874775  1
  Lu  Lu5  1  0.374840  0.624751  0.750153  1
  Sb  Sb6  1  0.180102  0.499567  0.000224  1
  Sb  Sb7  1  0.320233  0.319711  0.321341  1
  Sb  Sb8  1  0.999898  0.179096  0.498309  1
  Sb  Sb9  1  0.820004  0.819382  0.820154  1
  Sb  Sb10  1  0.500695  0.001955  0.680544  1
  Sb  Sb11  1  0.000210  0.679471  0.498352  1
  Sb  Sb12  1  0.498974  0.001095  0.179933  1
  Sb  Sb13  1  0.679891  0.499852  0.001167  1
  Au  Au14  1  0.376541  0.253659  0.628201  1
  Au  Au15  1  0.874550  0.122591  0.745438  1
  Au  Au16  1  0.256370  0.627585  0.379412  1
  Au  Au17  1  0.744231  0.870334  0.123352  1
  Au  Au18  1  0.125447  0.748322  0.871759  1
  Au  Au19  1  0.622864  0.377429  0.251959  1
