# generated using pymatgen
data_Ho5Er7Th4(AlRu)4
_symmetry_space_group_name_H-M   'P 1'
_cell_length_a   9.56646668
_cell_length_b   9.55958210
_cell_length_c   9.55992931
_cell_angle_alpha   59.97736508
_cell_angle_beta   59.96262015
_cell_angle_gamma   59.97279117
_symmetry_Int_Tables_number   1
_chemical_formula_structural   Ho5Er7Th4(AlRu)4
_chemical_formula_sum   'Ho5 Er7 Th4 Al4 Ru4'
_cell_volume   617.79403107
_cell_formula_units_Z   1
loop_
 _symmetry_equiv_pos_site_id
 _symmetry_equiv_pos_as_xyz
  1  'x, y, z'
loop_
 _atom_site_type_symbol
 _atom_site_label
 _atom_site_symmetry_multiplicity
 _atom_site_fract_x
 _atom_site_fract_y
 _atom_site_fract_z
 _atom_site_occupancy
  Ho  Ho0  1  0.563441  0.936552  0.936568  1
  Ho  Ho1  1  0.563136  0.937062  0.564181  1
  Ho  Ho2  1  0.935611  0.564176  0.937054  1
  Ho  Ho3  1  0.563157  0.564162  0.937071  1
  Ho  Ho4  1  0.935630  0.937046  0.564178  1
  Er  Er5  1  0.809168  0.190745  0.190840  1
  Er  Er6  1  0.190543  0.809500  0.809547  1
  Er  Er7  1  0.190873  0.808839  0.190481  1
  Er  Er8  1  0.809721  0.190533  0.808816  1
  Er  Er9  1  0.190918  0.190535  0.808793  1
  Er  Er10  1  0.809792  0.808846  0.190502  1
  Er  Er11  1  0.936663  0.563302  0.563305  1
  Th  Th12  1  0.348935  0.350775  0.350772  1
  Th  Th13  1  0.349858  0.352102  0.948164  1
  Th  Th14  1  0.349891  0.948152  0.352101  1
  Th  Th15  1  0.949515  0.350799  0.350746  1
  Al  Al16  1  0.580227  0.578107  0.578119  1
  Al  Al17  1  0.579354  0.577481  0.263822  1
  Al  Al18  1  0.579330  0.263835  0.577498  1
  Al  Al19  1  0.263556  0.578094  0.578125  1
  Ru  Ru20  1  0.143436  0.142785  0.142769  1
  Ru  Ru21  1  0.143098  0.142898  0.570912  1
  Ru  Ru22  1  0.143111  0.570901  0.142868  1
  Ru  Ru23  1  0.571038  0.142771  0.142767  1
