# generated using pymatgen
data_Lu4Sc8Co5Sn
_symmetry_space_group_name_H-M   'P 1'
_cell_length_a   7.81841637
_cell_length_b   7.81841572
_cell_length_c   7.81841465
_cell_angle_alpha   106.69137709
_cell_angle_beta   111.08929864
_cell_angle_gamma   110.66854323
_symmetry_Int_Tables_number   1
_chemical_formula_structural   Lu4Sc8Co5Sn
_chemical_formula_sum   'Lu4 Sc8 Co5 Sn1'
_cell_volume   367.25308788
_cell_formula_units_Z   1
loop_
 _symmetry_equiv_pos_site_id
 _symmetry_equiv_pos_as_xyz
  1  'x, y, z'
loop_
 _atom_site_type_symbol
 _atom_site_label
 _atom_site_symmetry_multiplicity
 _atom_site_fract_x
 _atom_site_fract_y
 _atom_site_fract_z
 _atom_site_occupancy
  Lu  Lu0  1  0.469921  0.281825  0.188097  1
  Lu  Lu1  1  0.093729  0.281825  0.811903  1
  Lu  Lu2  1  0.906271  0.718175  0.188097  1
  Lu  Lu3  1  0.530079  0.718175  0.811903  1
  Sc  Sc4  1  0.305172  0.619089  0.313917  1
  Sc  Sc5  1  0.305172  0.991256  0.686083  1
  Sc  Sc6  1  0.694828  0.380911  0.686083  1
  Sc  Sc7  1  0.694828  0.008744  0.313917  1
  Sc  Sc8  1  0.194978  0.216553  0.411530  1
  Sc  Sc9  1  0.805022  0.783447  0.588470  1
  Sc  Sc10  1  0.194978  0.783447  0.978423  1
  Sc  Sc11  1  0.805022  0.216553  0.021577  1
  Co  Co12  1  0.500000  0.619354  0.119354  1
  Co  Co13  1  0.500000  0.380646  0.880646  1
  Co  Co14  1  0.367158  0.000000  0.367158  1
  Co  Co15  1  0.632842  0.000000  0.632842  1
  Co  Co16  1  0.000000  0.000000  0.000000  1
  Sn  Sn17  1  0.000000  0.500000  0.500000  1
