# generated using pymatgen
data_Tm2Th2ReB12Ru
_symmetry_space_group_name_H-M   'P 1'
_cell_length_a   3.74514200
_cell_length_b   9.21538255
_cell_length_c   11.62856230
_cell_angle_alpha   90.13676476
_cell_angle_beta   90.00000000
_cell_angle_gamma   90.00000000
_symmetry_Int_Tables_number   1
_chemical_formula_structural   Tm2Th2ReB12Ru
_chemical_formula_sum   'Tm4 Th4 Re2 B24 Ru2'
_cell_volume   401.33445319
_cell_formula_units_Z   2
loop_
 _symmetry_equiv_pos_site_id
 _symmetry_equiv_pos_as_xyz
  1  'x, y, z'
loop_
 _atom_site_type_symbol
 _atom_site_label
 _atom_site_symmetry_multiplicity
 _atom_site_fract_x
 _atom_site_fract_y
 _atom_site_fract_z
 _atom_site_occupancy
  Tm  Tm0  1  0.000000  0.945660  0.373552  1
  Tm  Tm1  1  0.000000  0.054340  0.626448  1
  Tm  Tm2  1  0.000000  0.444067  0.126058  1
  Tm  Tm3  1  0.000000  0.555933  0.873942  1
  Th  Th4  1  0.000000  0.320092  0.412794  1
  Th  Th5  1  0.000000  0.679908  0.587206  1
  Th  Th6  1  0.000000  0.822505  0.085119  1
  Th  Th7  1  0.000000  0.177495  0.914881  1
  Re  Re8  1  0.000000  0.139939  0.180894  1
  Re  Re9  1  0.000000  0.860061  0.819106  1
  B  B10  1  0.500000  0.556595  0.430316  1
  B  B11  1  0.500000  0.443405  0.569684  1
  B  B12  1  0.500000  0.056396  0.070132  1
  B  B13  1  0.500000  0.943604  0.929868  1
  B  B14  1  0.500000  0.751508  0.417520  1
  B  B15  1  0.500000  0.248492  0.582480  1
  B  B16  1  0.500000  0.250514  0.082741  1
  B  B17  1  0.500000  0.749486  0.917259  1
  B  B18  1  0.500000  0.791283  0.266880  1
  B  B19  1  0.500000  0.208717  0.733120  1
  B  B20  1  0.500000  0.292153  0.233719  1
  B  B21  1  0.500000  0.707847  0.766281  1
  B  B22  1  0.500000  0.629897  0.184894  1
  B  B23  1  0.500000  0.370103  0.815106  1
  B  B24  1  0.500000  0.130782  0.314791  1
  B  B25  1  0.500000  0.869218  0.685209  1
  B  B26  1  0.500000  0.984878  0.214847  1
  B  B27  1  0.500000  0.015122  0.785153  1
  B  B28  1  0.500000  0.485576  0.285215  1
  B  B29  1  0.500000  0.514424  0.714785  1
  B  B30  1  0.500000  0.602529  0.028515  1
  B  B31  1  0.500000  0.397471  0.971485  1
  B  B32  1  0.500000  0.102677  0.472532  1
  B  B33  1  0.500000  0.897323  0.527468  1
  Ru  Ru34  1  0.000000  0.639843  0.319700  1
  Ru  Ru35  1  0.000000  0.360157  0.680300  1
