# generated using pymatgen
data_Lu5B(MoC3)2
_symmetry_space_group_name_H-M   'P 1'
_cell_length_a   8.24021103
_cell_length_b   8.24010673
_cell_length_c   3.36006000
_cell_angle_alpha   90.00000000
_cell_angle_beta   90.00000000
_cell_angle_gamma   121.53575943
_symmetry_Int_Tables_number   1
_chemical_formula_structural   Lu5B(MoC3)2
_chemical_formula_sum   'Lu5 B1 Mo2 C6'
_cell_volume   194.45439935
_cell_formula_units_Z   1
loop_
 _symmetry_equiv_pos_site_id
 _symmetry_equiv_pos_as_xyz
  1  'x, y, z'
loop_
 _atom_site_type_symbol
 _atom_site_label
 _atom_site_symmetry_multiplicity
 _atom_site_fract_x
 _atom_site_fract_y
 _atom_site_fract_z
 _atom_site_occupancy
  Lu  Lu0  1  0.329984  0.080515  0.500000  1
  Lu  Lu1  1  0.670016  0.919485  0.500000  1
  Lu  Lu2  1  0.080513  0.329901  0.500000  1
  Lu  Lu3  1  0.919487  0.670099  0.500000  1
  Lu  Lu4  1  0.500000  0.500000  0.000000  1
  B  B5  1  0.000000  0.000000  0.000000  1
  Mo  Mo6  1  0.287395  0.712350  0.000000  1
  Mo  Mo7  1  0.712605  0.287650  0.000000  1
  C  C8  1  0.183738  0.183730  0.000000  1
  C  C9  1  0.816262  0.816270  0.000000  1
  C  C10  1  0.376361  0.623564  0.500000  1
  C  C11  1  0.623639  0.376436  0.500000  1
  C  C12  1  0.500000  0.000000  0.000000  1
  C  C13  1  0.000000  0.500000  0.000000  1
