# generated using pymatgen
data_Tb2GaRu2
_symmetry_space_group_name_H-M   'P 1'
_cell_length_a   4.14119570
_cell_length_b   5.54415422
_cell_length_c   5.54415487
_cell_angle_alpha   63.26069427
_cell_angle_beta   68.06996140
_cell_angle_gamma   68.06996192
_symmetry_Int_Tables_number   1
_chemical_formula_structural   Tb2GaRu2
_chemical_formula_sum   'Tb2 Ga1 Ru2'
_cell_volume   102.15904185
_cell_formula_units_Z   1
loop_
 _symmetry_equiv_pos_site_id
 _symmetry_equiv_pos_as_xyz
  1  'x, y, z'
loop_
 _atom_site_type_symbol
 _atom_site_label
 _atom_site_symmetry_multiplicity
 _atom_site_fract_x
 _atom_site_fract_y
 _atom_site_fract_z
 _atom_site_occupancy
  Tb  Tb0  1  0.206548  0.293452  0.293452  1
  Tb  Tb1  1  0.793452  0.706548  0.706548  1
  Ga  Ga2  1  0.000000  0.000000  0.000000  1
  Ru  Ru3  1  0.500000  0.275700  0.724300  1
  Ru  Ru4  1  0.500000  0.724300  0.275700  1
