# generated using pymatgen
data_Nb27S50
_symmetry_space_group_name_H-M   'P 1'
_cell_length_a   10.45110410
_cell_length_b   10.46631208
_cell_length_c   14.57967500
_cell_angle_alpha   100.59678515
_cell_angle_beta   90.07966838
_cell_angle_gamma   106.27705324
_symmetry_Int_Tables_number   1
_chemical_formula_structural   Nb27S50
_chemical_formula_sum   'Nb27 S50'
_cell_volume   1502.38998510
_cell_formula_units_Z   1
loop_
 _symmetry_equiv_pos_site_id
 _symmetry_equiv_pos_as_xyz
  1  'x, y, z'
loop_
 _atom_site_type_symbol
 _atom_site_label
 _atom_site_symmetry_multiplicity
 _atom_site_fract_x
 _atom_site_fract_y
 _atom_site_fract_z
 _atom_site_occupancy
  Nb  Nb0  1  0.000051  0.998074  0.996774  1
  Nb  Nb1  1  0.598709  0.398547  0.997239  1
  Nb  Nb2  1  0.082677  0.920006  0.200241  1
  Nb  Nb3  1  0.210676  0.809782  0.000514  1
  Nb  Nb4  1  0.560569  0.442840  0.399866  1
  Nb  Nb5  1  0.679994  0.318605  0.202679  1
  Nb  Nb6  1  0.795404  0.196547  0.999722  1
  Nb  Nb7  1  0.036761  0.960349  0.598557  1
  Nb  Nb8  1  0.156123  0.837320  0.399341  1
  Nb  Nb9  1  0.282228  0.721425  0.202584  1
  Nb  Nb10  1  0.409069  0.611877  0.001428  1
  Nb  Nb11  1  0.524662  0.481381  0.798227  1
  Nb  Nb12  1  0.651404  0.369547  0.600856  1
  Nb  Nb13  1  0.771315  0.250545  0.402049  1
  Nb  Nb14  1  0.878217  0.120071  0.202785  1
  Nb  Nb15  1  0.118597  0.880840  0.800033  1
  Nb  Nb16  1  0.238003  0.758214  0.599622  1
  Nb  Nb17  1  0.357868  0.636515  0.400224  1
  Nb  Nb18  1  0.479037  0.522963  0.200653  1
  Nb  Nb19  1  0.718571  0.281146  0.802548  1
  Nb  Nb20  1  0.849880  0.170351  0.601322  1
  Nb  Nb21  1  0.961818  0.041202  0.399996  1
  Nb  Nb22  1  0.973654  0.486069  0.565574  1
  Nb  Nb23  1  0.327373  0.689317  0.802930  1
  Nb  Nb24  1  0.441168  0.559650  0.598718  1
  Nb  Nb25  1  0.919508  0.076487  0.799285  1
  Nb  Nb26  1  0.533045  0.926858  0.964529  1
  S  S27  1  0.976312  0.780692  0.048751  1
  S  S28  1  0.218160  0.040512  0.084439  1
  S  S29  1  0.449290  0.299842  0.250359  1
  S  S30  1  0.562069  0.173643  0.049643  1
  S  S31  1  0.698136  0.554739  0.281362  1
  S  S32  1  0.814181  0.429390  0.083182  1
  S  S33  1  0.925636  0.819419  0.448383  1
  S  S34  1  0.048156  0.697673  0.248050  1
  S  S35  1  0.176936  0.587204  0.048889  1
  S  S36  1  0.179378  0.070543  0.483134  1
  S  S37  1  0.298048  0.955822  0.287267  1
  S  S38  1  0.426271  0.845717  0.096176  1
  S  S39  1  0.415882  0.340844  0.648611  1
  S  S40  1  0.539298  0.225533  0.452471  1
  S  S41  1  0.650571  0.101858  0.255444  1
  S  S42  1  0.763745  0.973908  0.049469  1
  S  S43  1  0.661008  0.600718  0.682878  1
  S  S44  1  0.781141  0.491294  0.479681  1
  S  S45  1  0.901903  0.357943  0.280825  1
  S  S46  1  0.887620  0.854959  0.848502  1
  S  S47  1  0.012598  0.230114  0.082523  1
  S  S48  1  0.003990  0.733649  0.649425  1
  S  S49  1  0.122358  0.612235  0.450124  1
  S  S50  1  0.247249  0.497926  0.248287  1
  S  S51  1  0.136273  0.115637  0.882615  1
  S  S52  1  0.370860  0.386024  0.048430  1
  S  S53  1  0.254749  0.991348  0.681083  1
  S  S54  1  0.373711  0.870548  0.483587  1
  S  S55  1  0.498966  0.755468  0.287212  1
  S  S56  1  0.485774  0.259471  0.847345  1
  S  S57  1  0.623531  0.633922  0.084810  1
  S  S58  1  0.616233  0.146833  0.648103  1
  S  S59  1  0.734182  0.029246  0.452299  1
  S  S60  1  0.849731  0.899020  0.249858  1
  S  S61  1  0.740249  0.514519  0.885912  1
  S  S62  1  0.865949  0.403508  0.696500  1
  S  S63  1  0.997326  0.276586  0.480458  1
  S  S64  1  0.099122  0.154335  0.281376  1
  S  S65  1  0.096224  0.663228  0.853042  1
  S  S66  1  0.207984  0.537640  0.651793  1
  S  S67  1  0.329942  0.416105  0.448967  1
  S  S68  1  0.338932  0.930664  0.878487  1
  S  S69  1  0.457470  0.794591  0.680426  1
  S  S70  1  0.575432  0.676609  0.482461  1
  S  S71  1  0.682194  0.052746  0.847998  1
  S  S72  1  0.808736  0.944299  0.647838  1
  S  S73  1  0.935508  0.309672  0.885637  1
  S  S74  1  0.063158  0.194301  0.685837  1
  S  S75  1  0.295771  0.468676  0.851849  1
  S  S76  1  0.553534  0.716039  0.879343  1
