# generated using pymatgen
data_LaBi3Ru4F28
_symmetry_space_group_name_H-M   'P 1'
_cell_length_a   5.68796555
_cell_length_b   9.25623309
_cell_length_c   12.26277423
_cell_angle_alpha   62.87943060
_cell_angle_beta   90.04881015
_cell_angle_gamma   89.93666190
_symmetry_Int_Tables_number   1
_chemical_formula_structural   LaBi3Ru4F28
_chemical_formula_sum   'La1 Bi3 Ru4 F28'
_cell_volume   574.63651530
_cell_formula_units_Z   1
loop_
 _symmetry_equiv_pos_site_id
 _symmetry_equiv_pos_as_xyz
  1  'x, y, z'
loop_
 _atom_site_type_symbol
 _atom_site_label
 _atom_site_symmetry_multiplicity
 _atom_site_fract_x
 _atom_site_fract_y
 _atom_site_fract_z
 _atom_site_occupancy
  La  La0  1  0.742780  0.806849  0.768821  1
  Bi  Bi1  1  0.759851  0.812147  0.267835  1
  Bi  Bi2  1  0.259296  0.189214  0.231500  1
  Bi  Bi3  1  0.238005  0.190523  0.730181  1
  Ru  Ru4  1  0.247068  0.728582  0.540013  1
  Ru  Ru5  1  0.745392  0.269408  0.958190  1
  Ru  Ru6  1  0.755092  0.272932  0.455193  1
  Ru  Ru7  1  0.254838  0.727264  0.046832  1
  F  F8  1  0.956066  0.716612  0.454277  1
  F  F9  1  0.455911  0.282987  0.044903  1
  F  F10  1  0.044774  0.284701  0.542791  1
  F  F11  1  0.538334  0.714241  0.958635  1
  F  F12  1  0.057365  0.707494  0.922287  1
  F  F13  1  0.555782  0.292229  0.579396  1
  F  F14  1  0.945724  0.291617  0.081502  1
  F  F15  1  0.446213  0.707594  0.416566  1
  F  F16  1  0.737388  0.501281  0.864186  1
  F  F17  1  0.240371  0.498899  0.634301  1
  F  F18  1  0.261653  0.496769  0.141036  1
  F  F19  1  0.762417  0.503083  0.361653  1
  F  F20  1  0.742447  0.037763  0.049313  1
  F  F21  1  0.242772  0.960720  0.450062  1
  F  F22  1  0.258056  0.958255  0.954110  1
  F  F23  1  0.758577  0.041791  0.546939  1
  F  F24  1  0.051561  0.746712  0.666462  1
  F  F25  1  0.549929  0.250637  0.832354  1
  F  F26  1  0.951031  0.252244  0.329277  1
  F  F27  1  0.449620  0.747590  0.172790  1
  F  F28  1  0.026862  0.264910  0.866946  1
  F  F29  1  0.526607  0.734694  0.632275  1
  F  F30  1  0.971358  0.734454  0.136600  1
  F  F31  1  0.473362  0.265403  0.364518  1
  F  F32  1  0.083671  0.973982  0.230798  1
  F  F33  1  0.583291  0.027203  0.268890  1
  F  F34  1  0.921223  0.033386  0.768491  1
  F  F35  1  0.405312  0.975830  0.730075  1
