# generated using pymatgen
data_Th4B16IrRu15
_symmetry_space_group_name_H-M   'P 1'
_cell_length_a   9.30882631
_cell_length_b   7.57466289
_cell_length_c   7.57992427
_cell_angle_alpha   89.98979303
_cell_angle_beta   113.93462525
_cell_angle_gamma   114.05458711
_symmetry_Int_Tables_number   1
_chemical_formula_structural   Th4B16IrRu15
_chemical_formula_sum   'Th4 B16 Ir1 Ru15'
_cell_volume   437.26284668
_cell_formula_units_Z   1
loop_
 _symmetry_equiv_pos_site_id
 _symmetry_equiv_pos_as_xyz
  1  'x, y, z'
loop_
 _atom_site_type_symbol
 _atom_site_label
 _atom_site_symmetry_multiplicity
 _atom_site_fract_x
 _atom_site_fract_y
 _atom_site_fract_z
 _atom_site_occupancy
  Th  Th0  1  0.749765  0.875472  0.124985  1
  Th  Th1  1  0.251912  0.625424  0.375939  1
  Th  Th2  1  0.748247  0.373815  0.621673  1
  Th  Th3  1  0.248908  0.124306  0.874904  1
  B  B4  1  0.915430  0.286660  0.061927  1
  B  B5  1  0.414879  0.561230  0.125167  1
  B  B6  1  0.085750  0.209618  0.146508  1
  B  B7  1  0.584292  0.145369  0.209046  1
  B  B8  1  0.414536  0.059967  0.290036  1
  B  B9  1  0.916161  0.625779  0.358380  1
  B  B10  1  0.584057  0.645799  0.374587  1
  B  B11  1  0.086334  0.876933  0.442240  1
  B  B12  1  0.915392  0.125380  0.560956  1
  B  B13  1  0.415085  0.354046  0.624071  1
  B  B14  1  0.084907  0.374914  0.646502  1
  B  B15  1  0.584337  0.938904  0.709383  1
  B  B16  1  0.415294  0.854460  0.790379  1
  B  B17  1  0.914909  0.791273  0.853206  1
  B  B18  1  0.582012  0.437596  0.874189  1
  B  B19  1  0.085980  0.711191  0.938056  1
  Ir  Ir20  1  0.874531  0.550929  0.040363  1
  Ru  Ru21  1  0.373081  0.831586  0.050308  1
  Ru  Ru22  1  0.126151  0.947976  0.169145  1
  Ru  Ru23  1  0.628344  0.460095  0.177621  1
  Ru  Ru24  1  0.372976  0.330481  0.321374  1
  Ru  Ru25  1  0.872641  0.322630  0.331377  1
  Ru  Ru26  1  0.627601  0.959120  0.449520  1
  Ru  Ru27  1  0.127538  0.178313  0.458979  1
  Ru  Ru28  1  0.872001  0.821841  0.540522  1
  Ru  Ru29  1  0.373229  0.041597  0.550694  1
  Ru  Ru30  1  0.127344  0.677437  0.668702  1
  Ru  Ru31  1  0.626071  0.668794  0.676429  1
  Ru  Ru32  1  0.373025  0.541080  0.822986  1
  Ru  Ru33  1  0.871943  0.050635  0.831100  1
  Ru  Ru34  1  0.628068  0.169681  0.950027  1
  Ru  Ru35  1  0.127277  0.449669  0.958713  1
