# generated using pymatgen
data_LaTh(AlIr)2
_symmetry_space_group_name_H-M   'P 1'
_cell_length_a   4.25719500
_cell_length_b   7.20638500
_cell_length_c   16.44678100
_cell_angle_alpha   90.00000000
_cell_angle_beta   90.00000000
_cell_angle_gamma   90.00000000
_symmetry_Int_Tables_number   1
_chemical_formula_structural   LaTh(AlIr)2
_chemical_formula_sum   'La4 Th4 Al8 Ir8'
_cell_volume   504.57056717
_cell_formula_units_Z   4
loop_
 _symmetry_equiv_pos_site_id
 _symmetry_equiv_pos_as_xyz
  1  'x, y, z'
loop_
 _atom_site_type_symbol
 _atom_site_label
 _atom_site_symmetry_multiplicity
 _atom_site_fract_x
 _atom_site_fract_y
 _atom_site_fract_z
 _atom_site_occupancy
  La  La0  1  0.250000  0.652960  0.558956  1
  La  La1  1  0.750000  0.347040  0.441044  1
  La  La2  1  0.750000  0.847040  0.058956  1
  La  La3  1  0.250000  0.152960  0.941044  1
  Th  Th4  1  0.250000  0.520428  0.778394  1
  Th  Th5  1  0.750000  0.479572  0.221606  1
  Th  Th6  1  0.750000  0.979572  0.278394  1
  Th  Th7  1  0.250000  0.020428  0.721606  1
  Al  Al8  1  0.250000  0.656460  0.350918  1
  Al  Al9  1  0.750000  0.343540  0.649082  1
  Al  Al10  1  0.750000  0.843540  0.850918  1
  Al  Al11  1  0.250000  0.156460  0.149082  1
  Al  Al12  1  0.250000  0.507690  0.061402  1
  Al  Al13  1  0.750000  0.492310  0.938598  1
  Al  Al14  1  0.750000  0.992310  0.561402  1
  Al  Al15  1  0.250000  0.007690  0.438598  1
  Ir  Ir16  1  0.250000  0.761444  0.187208  1
  Ir  Ir17  1  0.750000  0.238556  0.812792  1
  Ir  Ir18  1  0.750000  0.738556  0.687208  1
  Ir  Ir19  1  0.250000  0.261444  0.312792  1
  Ir  Ir20  1  0.250000  0.712456  0.925871  1
  Ir  Ir21  1  0.750000  0.287544  0.074129  1
  Ir  Ir22  1  0.750000  0.787544  0.425871  1
  Ir  Ir23  1  0.250000  0.212456  0.574129  1
