# generated using pymatgen
data_HfMg7(B6Os)4
_symmetry_space_group_name_H-M   'P 1'
_cell_length_a   8.84959242
_cell_length_b   11.04348579
_cell_length_c   3.49194600
_cell_angle_alpha   90.00000000
_cell_angle_beta   90.00000000
_cell_angle_gamma   89.93484011
_symmetry_Int_Tables_number   1
_chemical_formula_structural   HfMg7(B6Os)4
_chemical_formula_sum   'Hf1 Mg7 B24 Os4'
_cell_volume   341.26887784
_cell_formula_units_Z   1
loop_
 _symmetry_equiv_pos_site_id
 _symmetry_equiv_pos_as_xyz
  1  'x, y, z'
loop_
 _atom_site_type_symbol
 _atom_site_label
 _atom_site_symmetry_multiplicity
 _atom_site_fract_x
 _atom_site_fract_y
 _atom_site_fract_z
 _atom_site_occupancy
  Hf  Hf0  1  0.673940  0.912950  0.000000  1
  Mg  Mg1  1  0.324597  0.089429  0.000000  1
  Mg  Mg2  1  0.944562  0.128880  0.000000  1
  Mg  Mg3  1  0.443867  0.372543  0.000000  1
  Mg  Mg4  1  0.826785  0.412339  0.000000  1
  Mg  Mg5  1  0.173805  0.585942  0.000000  1
  Mg  Mg6  1  0.554876  0.624907  0.000000  1
  Mg  Mg7  1  0.055751  0.872140  0.000000  1
  B  B8  1  0.093578  0.026148  0.499999  1
  B  B9  1  0.556135  0.064442  0.499999  1
  B  B10  1  0.756063  0.078796  0.499999  1
  B  B11  1  0.129830  0.180935  0.499999  1
  B  B12  1  0.478744  0.211390  0.499999  1
  B  B13  1  0.796100  0.237623  0.499999  1
  B  B14  1  0.295676  0.261349  0.499999  1
  B  B15  1  0.978981  0.288450  0.499999  1
  B  B16  1  0.630277  0.317901  0.499999  1
  B  B17  1  0.255959  0.420563  0.499999  1
  B  B18  1  0.053605  0.435651  0.499999  1
  B  B19  1  0.592813  0.473956  0.499999  1
  B  B20  1  0.407726  0.524780  0.499999  1
  B  B21  1  0.945106  0.565532  0.499999  1
  B  B22  1  0.744372  0.577970  0.499999  1
  B  B23  1  0.370056  0.680236  0.499999  1
  B  B24  1  0.020711  0.711917  0.499999  1
  B  B25  1  0.704171  0.738401  0.499999  1
  B  B26  1  0.205377  0.762583  0.499999  1
  B  B27  1  0.520259  0.787770  0.499999  1
  B  B28  1  0.869798  0.819506  0.499999  1
  B  B29  1  0.244241  0.921717  0.499999  1
  B  B30  1  0.445818  0.935828  0.499999  1
  B  B31  1  0.906044  0.974090  0.499999  1
  Os  Os32  1  0.640255  0.178204  0.000000  1
  Os  Os33  1  0.140656  0.321424  0.000000  1
  Os  Os34  1  0.855968  0.682245  0.000000  1
  Os  Os35  1  0.363489  0.821454  0.000000  1
