# generated using pymatgen
data_Eu2ZnSn2Au
_symmetry_space_group_name_H-M   'P 1'
_cell_length_a   4.83255100
_cell_length_b   7.80557774
_cell_length_c   8.14477972
_cell_angle_alpha   90.07553466
_cell_angle_beta   90.00000000
_cell_angle_gamma   90.00000000
_symmetry_Int_Tables_number   1
_chemical_formula_structural   Eu2ZnSn2Au
_chemical_formula_sum   'Eu4 Zn2 Sn4 Au2'
_cell_volume   307.22776774
_cell_formula_units_Z   2
loop_
 _symmetry_equiv_pos_site_id
 _symmetry_equiv_pos_as_xyz
  1  'x, y, z'
loop_
 _atom_site_type_symbol
 _atom_site_label
 _atom_site_symmetry_multiplicity
 _atom_site_fract_x
 _atom_site_fract_y
 _atom_site_fract_z
 _atom_site_occupancy
  Eu  Eu0  1  0.250000  0.489218  0.207330  1
  Eu  Eu1  1  0.750000  0.500585  0.792166  1
  Eu  Eu2  1  0.250000  0.999387  0.292166  1
  Eu  Eu3  1  0.750000  0.010742  0.707435  1
  Zn  Zn4  1  0.750000  0.820939  0.082928  1
  Zn  Zn5  1  0.250000  0.679003  0.582909  1
  Sn  Sn6  1  0.250000  0.305162  0.590774  1
  Sn  Sn7  1  0.750000  0.194956  0.090919  1
  Sn  Sn8  1  0.250000  0.796878  0.909021  1
  Sn  Sn9  1  0.750000  0.703005  0.409115  1
  Au  Au10  1  0.750000  0.304920  0.417540  1
  Au  Au11  1  0.250000  0.195206  0.917696  1
