# generated using pymatgen
data_Tb3YGa4(IrPd)2
_symmetry_space_group_name_H-M   'P 1'
_cell_length_a   4.44272800
_cell_length_b   6.89731503
_cell_length_c   7.69109803
_cell_angle_alpha   89.98941178
_cell_angle_beta   90.00000000
_cell_angle_gamma   90.00000000
_symmetry_Int_Tables_number   1
_chemical_formula_structural   Tb3YGa4(IrPd)2
_chemical_formula_sum   'Tb3 Y1 Ga4 Ir2 Pd2'
_cell_volume   235.67750240
_cell_formula_units_Z   1
loop_
 _symmetry_equiv_pos_site_id
 _symmetry_equiv_pos_as_xyz
  1  'x, y, z'
loop_
 _atom_site_type_symbol
 _atom_site_label
 _atom_site_symmetry_multiplicity
 _atom_site_fract_x
 _atom_site_fract_y
 _atom_site_fract_z
 _atom_site_occupancy
  Tb  Tb0  1  0.250000  0.986044  0.303738  1
  Tb  Tb1  1  0.750000  0.023921  0.689102  1
  Tb  Tb2  1  0.750000  0.523777  0.811087  1
  Y  Y3  1  0.250000  0.485919  0.196525  1
  Ga  Ga4  1  0.250000  0.331960  0.570497  1
  Ga  Ga5  1  0.250000  0.831726  0.929439  1
  Ga  Ga6  1  0.750000  0.662675  0.424449  1
  Ga  Ga7  1  0.750000  0.163176  0.075493  1
  Ir  Ir8  1  0.750000  0.774881  0.102459  1
  Ir  Ir9  1  0.750000  0.274235  0.397509  1
  Pd  Pd10  1  0.250000  0.220796  0.897287  1
  Pd  Pd11  1  0.250000  0.720890  0.602415  1
