# generated using pymatgen
data_TaCuPd6
_symmetry_space_group_name_H-M   'P 1'
_cell_length_a   5.55655241
_cell_length_b   5.55655242
_cell_length_c   3.86790500
_cell_angle_alpha   90.00000000
_cell_angle_beta   90.00000000
_cell_angle_gamma   90.00023716
_symmetry_Int_Tables_number   1
_chemical_formula_structural   TaCuPd6
_chemical_formula_sum   'Ta1 Cu1 Pd6'
_cell_volume   119.42262961
_cell_formula_units_Z   1
loop_
 _symmetry_equiv_pos_site_id
 _symmetry_equiv_pos_as_xyz
  1  'x, y, z'
loop_
 _atom_site_type_symbol
 _atom_site_label
 _atom_site_symmetry_multiplicity
 _atom_site_fract_x
 _atom_site_fract_y
 _atom_site_fract_z
 _atom_site_occupancy
  Ta  Ta0  1  0.125194  0.874806  0.000000  1
  Cu  Cu1  1  0.624921  0.375079  0.000000  1
  Pd  Pd2  1  0.625071  0.875333  0.000000  1
  Pd  Pd3  1  0.124667  0.374929  0.000000  1
  Pd  Pd4  1  0.876597  0.626617  0.500000  1
  Pd  Pd5  1  0.373383  0.123403  0.500000  1
  Pd  Pd6  1  0.876026  0.123974  0.500000  1
  Pd  Pd7  1  0.374146  0.625854  0.500000  1
