# generated using pymatgen
data_La7Pr(YIn5)4
_symmetry_space_group_name_H-M   'P 1'
_cell_length_a   6.76599519
_cell_length_b   10.72953171
_cell_length_c   12.49968473
_cell_angle_alpha   90.05951824
_cell_angle_beta   90.00924241
_cell_angle_gamma   90.02517898
_symmetry_Int_Tables_number   1
_chemical_formula_structural   La7Pr(YIn5)4
_chemical_formula_sum   'La7 Pr1 Y4 In20'
_cell_volume   907.42602169
_cell_formula_units_Z   1
loop_
 _symmetry_equiv_pos_site_id
 _symmetry_equiv_pos_as_xyz
  1  'x, y, z'
loop_
 _atom_site_type_symbol
 _atom_site_label
 _atom_site_symmetry_multiplicity
 _atom_site_fract_x
 _atom_site_fract_y
 _atom_site_fract_z
 _atom_site_occupancy
  La  La0  1  0.888421  0.489499  0.143633  1
  La  La1  1  0.611463  0.010615  0.643614  1
  La  La2  1  0.111385  0.989482  0.856038  1
  La  La3  1  0.388461  0.510497  0.356479  1
  La  La4  1  0.111321  0.510506  0.856299  1
  La  La5  1  0.388840  0.989417  0.356490  1
  La  La6  1  0.888460  0.010407  0.143666  1
  Pr  Pr7  1  0.611530  0.489469  0.643801  1
  Y  Y8  1  0.349845  0.749963  0.060427  1
  Y  Y9  1  0.150250  0.750168  0.560478  1
  Y  Y10  1  0.650041  0.249920  0.939661  1
  Y  Y11  1  0.849865  0.250123  0.439794  1
  In  In12  1  0.617468  0.749256  0.502436  1
  In  In13  1  0.882140  0.750010  0.001605  1
  In  In14  1  0.382731  0.250210  0.498392  1
  In  In15  1  0.117724  0.250147  0.998160  1
  In  In16  1  0.655237  0.749910  0.243462  1
  In  In17  1  0.844279  0.749365  0.743008  1
  In  In18  1  0.344921  0.250618  0.756263  1
  In  In19  1  0.155253  0.249984  0.256636  1
  In  In20  1  0.108060  0.750032  0.285252  1
  In  In21  1  0.391960  0.749727  0.785126  1
  In  In22  1  0.891410  0.250757  0.714723  1
  In  In23  1  0.608132  0.250096  0.214811  1
  In  In24  1  0.875773  0.545175  0.405475  1
  In  In25  1  0.624158  0.954416  0.905273  1
  In  In26  1  0.123854  0.045628  0.594741  1
  In  In27  1  0.375958  0.454561  0.094573  1
  In  In28  1  0.124798  0.454884  0.594968  1
  In  In29  1  0.375969  0.045473  0.094862  1
  In  In30  1  0.876194  0.954401  0.405330  1
  In  In31  1  0.624101  0.545285  0.904527  1
