# generated using pymatgen
data_La4Pr2FeI10
_symmetry_space_group_name_H-M   'P 1'
_cell_length_a   8.12257552
_cell_length_b   9.86231027
_cell_length_c   10.21971413
_cell_angle_alpha   107.94618310
_cell_angle_beta   97.76750381
_cell_angle_gamma   104.62291751
_symmetry_Int_Tables_number   1
_chemical_formula_structural   La4Pr2FeI10
_chemical_formula_sum   'La4 Pr2 Fe1 I10'
_cell_volume   733.17417821
_cell_formula_units_Z   1
loop_
 _symmetry_equiv_pos_site_id
 _symmetry_equiv_pos_as_xyz
  1  'x, y, z'
loop_
 _atom_site_type_symbol
 _atom_site_label
 _atom_site_symmetry_multiplicity
 _atom_site_fract_x
 _atom_site_fract_y
 _atom_site_fract_z
 _atom_site_occupancy
  La  La0  1  0.530894  0.240691  0.424514  1
  La  La1  1  0.469106  0.759309  0.575486  1
  La  La2  1  0.138505  0.366463  0.323926  1
  La  La3  1  0.861495  0.633537  0.676074  1
  Pr  Pr4  1  0.617313  0.544097  0.254362  1
  Pr  Pr5  1  0.382687  0.455903  0.745638  1
  Fe  Fe6  1  0.500000  0.500000  0.500000  1
  I  I7  1  0.147484  0.038287  0.224739  1
  I  I8  1  0.852516  0.961713  0.775261  1
  I  I9  1  0.239708  0.411200  0.040132  1
  I  I10  1  0.760292  0.588800  0.959868  1
  I  I11  1  0.707016  0.236753  0.149886  1
  I  I12  1  0.292984  0.763247  0.850114  1
  I  I13  1  0.045416  0.687574  0.411723  1
  I  I14  1  0.954584  0.312426  0.588277  1
  I  I15  1  0.412912  0.128488  0.678290  1
  I  I16  1  0.587088  0.871512  0.321710  1
