# generated using pymatgen
data_Yb3Th3(Cu3Sb4)2
_symmetry_space_group_name_H-M   'P 1'
_cell_length_a   8.29689916
_cell_length_b   8.30417248
_cell_length_c   8.30525500
_cell_angle_alpha   109.66544095
_cell_angle_beta   108.68847657
_cell_angle_gamma   110.11985512
_symmetry_Int_Tables_number   1
_chemical_formula_structural   Yb3Th3(Cu3Sb4)2
_chemical_formula_sum   'Yb3 Th3 Cu6 Sb8'
_cell_volume   440.11654177
_cell_formula_units_Z   1
loop_
 _symmetry_equiv_pos_site_id
 _symmetry_equiv_pos_as_xyz
  1  'x, y, z'
loop_
 _atom_site_type_symbol
 _atom_site_label
 _atom_site_symmetry_multiplicity
 _atom_site_fract_x
 _atom_site_fract_y
 _atom_site_fract_z
 _atom_site_occupancy
  Yb  Yb0  1  0.873329  0.247336  0.121533  1
  Yb  Yb1  1  0.626653  0.748223  0.373994  1
  Yb  Yb2  1  0.249989  0.129030  0.879017  1
  Th  Th3  1  0.749985  0.372003  0.622010  1
  Th  Th4  1  0.123301  0.874785  0.251925  1
  Th  Th5  1  0.376647  0.628587  0.751450  1
  Cu  Cu6  1  0.375044  0.249471  0.632889  1
  Cu  Cu7  1  0.124975  0.757828  0.874451  1
  Cu  Cu8  1  0.250017  0.616068  0.366091  1
  Cu  Cu9  1  0.749955  0.881497  0.131437  1
  Cu  Cu10  1  0.626586  0.376609  0.245840  1
  Cu  Cu11  1  0.873429  0.119259  0.750015  1
  Sb  Sb12  1  0.661433  0.501516  0.001887  1
  Sb  Sb13  1  0.500422  0.995800  0.659951  1
  Sb  Sb14  1  0.999625  0.659548  0.495412  1
  Sb  Sb15  1  0.838580  0.840423  0.840068  1
  Sb  Sb16  1  0.501244  0.004641  0.162570  1
  Sb  Sb17  1  0.159413  0.498729  0.996757  1
  Sb  Sb18  1  0.998757  0.161325  0.503385  1
  Sb  Sb19  1  0.340617  0.337321  0.339316  1
