# generated using pymatgen
data_LiPr6Sc(Co4P3)4
_symmetry_space_group_name_H-M   'P 1'
_cell_length_a   3.79593700
_cell_length_b   10.78177800
_cell_length_c   12.57383500
_cell_angle_alpha   90.00000000
_cell_angle_beta   90.00000000
_cell_angle_gamma   90.00000000
_symmetry_Int_Tables_number   1
_chemical_formula_structural   LiPr6Sc(Co4P3)4
_chemical_formula_sum   'Li1 Pr6 Sc1 Co16 P12'
_cell_volume   514.60871681
_cell_formula_units_Z   1
loop_
 _symmetry_equiv_pos_site_id
 _symmetry_equiv_pos_as_xyz
  1  'x, y, z'
loop_
 _atom_site_type_symbol
 _atom_site_label
 _atom_site_symmetry_multiplicity
 _atom_site_fract_x
 _atom_site_fract_y
 _atom_site_fract_z
 _atom_site_occupancy
  Li  Li0  1  0.000000  0.000000  0.846262  1
  Pr  Pr1  1  0.000000  0.500000  0.527333  1
  Pr  Pr2  1  0.500000  0.000000  0.477348  1
  Pr  Pr3  1  0.500000  0.820489  0.207559  1
  Pr  Pr4  1  0.500000  0.179511  0.207559  1
  Pr  Pr5  1  0.000000  0.681403  0.794398  1
  Pr  Pr6  1  0.000000  0.318597  0.794398  1
  Sc  Sc7  1  0.500000  0.500000  0.151390  1
  Co  Co8  1  0.500000  0.500000  0.705795  1
  Co  Co9  1  0.000000  0.000000  0.293225  1
  Co  Co10  1  0.000000  0.500000  0.985928  1
  Co  Co11  1  0.500000  0.000000  0.010981  1
  Co  Co12  1  0.500000  0.328805  0.992490  1
  Co  Co13  1  0.500000  0.671195  0.992490  1
  Co  Co14  1  0.000000  0.164120  0.000335  1
  Co  Co15  1  0.000000  0.835880  0.000335  1
  Co  Co16  1  0.500000  0.296219  0.433418  1
  Co  Co17  1  0.500000  0.703781  0.433418  1
  Co  Co18  1  0.000000  0.202201  0.569522  1
  Co  Co19  1  0.000000  0.797799  0.569522  1
  Co  Co20  1  0.500000  0.881492  0.706251  1
  Co  Co21  1  0.500000  0.118508  0.706251  1
  Co  Co22  1  0.000000  0.619305  0.298940  1
  Co  Co23  1  0.000000  0.380695  0.298940  1
  P  P24  1  0.500000  0.500000  0.887287  1
  P  P25  1  0.000000  0.000000  0.110184  1
  P  P26  1  0.500000  0.500000  0.353094  1
  P  P27  1  0.000000  0.000000  0.657290  1
  P  P28  1  0.500000  0.302116  0.614410  1
  P  P29  1  0.500000  0.697884  0.614410  1
  P  P30  1  0.000000  0.195857  0.388674  1
  P  P31  1  0.000000  0.804143  0.388674  1
  P  P32  1  0.500000  0.848223  0.893677  1
  P  P33  1  0.500000  0.151777  0.893677  1
  P  P34  1  0.000000  0.660830  0.097267  1
  P  P35  1  0.000000  0.339170  0.097267  1
