# generated using pymatgen
data_La2TbHo3(IrO7)2
_symmetry_space_group_name_H-M   'P 1'
_cell_length_a   6.47802144
_cell_length_b   6.48535255
_cell_length_c   7.51483800
_cell_angle_alpha   90.00000000
_cell_angle_beta   90.00000000
_cell_angle_gamma   109.53027806
_symmetry_Int_Tables_number   1
_chemical_formula_structural   La2TbHo3(IrO7)2
_chemical_formula_sum   'La2 Tb1 Ho3 Ir2 O14'
_cell_volume   297.55058315
_cell_formula_units_Z   1
loop_
 _symmetry_equiv_pos_site_id
 _symmetry_equiv_pos_as_xyz
  1  'x, y, z'
loop_
 _atom_site_type_symbol
 _atom_site_label
 _atom_site_symmetry_multiplicity
 _atom_site_fract_x
 _atom_site_fract_y
 _atom_site_fract_z
 _atom_site_occupancy
  La  La0  1  0.997698  0.998722  0.500685  1
  La  La1  1  0.997698  0.998722  0.999315  1
  Tb  Tb2  1  0.063337  0.515904  0.250000  1
  Ho  Ho3  1  0.514231  0.060179  0.250000  1
  Ho  Ho4  1  0.936586  0.485830  0.750000  1
  Ho  Ho5  1  0.485339  0.937441  0.750000  1
  Ir  Ir6  1  0.499228  0.498726  0.500839  1
  Ir  Ir7  1  0.499228  0.498726  0.999161  1
  O  O8  1  0.443592  0.180962  0.534494  1
  O  O9  1  0.818935  0.558095  0.467534  1
  O  O10  1  0.443592  0.180962  0.965506  1
  O  O11  1  0.818935  0.558095  0.032466  1
  O  O12  1  0.554892  0.818085  0.466397  1
  O  O13  1  0.181354  0.440683  0.536446  1
  O  O14  1  0.554892  0.818085  0.033603  1
  O  O15  1  0.181354  0.440683  0.963554  1
  O  O16  1  0.160245  0.881116  0.250000  1
  O  O17  1  0.123240  0.838502  0.750000  1
  O  O18  1  0.837981  0.123766  0.750000  1
  O  O19  1  0.875960  0.159685  0.250000  1
  O  O20  1  0.414269  0.410430  0.250000  1
  O  O21  1  0.597415  0.596602  0.750000  1
