# generated using pymatgen
data_Th3NpH15
_symmetry_space_group_name_H-M   'P 1'
_cell_length_a   7.83097053
_cell_length_b   7.81545439
_cell_length_c   7.81545393
_cell_angle_alpha   109.43096694
_cell_angle_beta   109.51143503
_cell_angle_gamma   109.51144063
_symmetry_Int_Tables_number   1
_chemical_formula_structural   Th3NpH15
_chemical_formula_sum   'Th6 Np2 H30'
_cell_volume   368.03267511
_cell_formula_units_Z   2
loop_
 _symmetry_equiv_pos_site_id
 _symmetry_equiv_pos_as_xyz
  1  'x, y, z'
loop_
 _atom_site_type_symbol
 _atom_site_label
 _atom_site_symmetry_multiplicity
 _atom_site_fract_x
 _atom_site_fract_y
 _atom_site_fract_z
 _atom_site_occupancy
  Th  Th0  1  0.996361  0.493707  0.078559  1
  Th  Th1  1  0.917801  0.921440  0.415148  1
  Th  Th2  1  0.502654  0.584852  0.506293  1
  Th  Th3  1  0.496362  0.078560  0.493708  1
  Th  Th4  1  0.002654  0.506293  0.584853  1
  Th  Th5  1  0.417802  0.415148  0.921441  1
  Np  Np6  1  0.087984  0.000000  0.000000  1
  Np  Np7  1  0.587983  0.000000  0.000000  1
  H  H8  1  0.405973  0.185381  0.039064  1
  H  H9  1  0.781190  0.625535  0.098695  1
  H  H10  1  0.248742  0.373359  0.126801  1
  H  H11  1  0.595588  0.784329  0.128959  1
  H  H12  1  0.366909  0.960937  0.146318  1
  H  H13  1  0.905974  0.039064  0.185381  1
  H  H14  1  0.811258  0.344629  0.215670  1
  H  H15  1  0.121941  0.873199  0.246557  1
  H  H16  1  0.633569  0.599274  0.288590  1
  H  H17  1  0.344980  0.711410  0.310684  1
  H  H18  1  0.311258  0.215670  0.344629  1
  H  H19  1  0.155656  0.473161  0.374465  1
  H  H20  1  0.748742  0.126802  0.373359  1
  H  H21  1  0.034295  0.689316  0.400726  1
  H  H22  1  0.655656  0.374465  0.473161  1
  H  H23  1  0.682495  0.901307  0.526840  1
  H  H24  1  0.133570  0.288591  0.599274  1
  H  H25  1  0.875383  0.753442  0.626641  1
  H  H26  1  0.281189  0.098694  0.625534  1
  H  H27  1  0.466629  0.871042  0.655371  1
  H  H28  1  0.534296  0.400726  0.689316  1
  H  H29  1  0.844978  0.310683  0.711409  1
  H  H30  1  0.375383  0.626640  0.753442  1
  H  H31  1  0.095589  0.128959  0.784330  1
  H  H32  1  0.220591  0.853683  0.814619  1
  H  H33  1  0.720592  0.814619  0.853683  1
  H  H34  1  0.966629  0.655371  0.871042  1
  H  H35  1  0.621941  0.246558  0.873200  1
  H  H36  1  0.182496  0.526840  0.901306  1
  H  H37  1  0.866909  0.146317  0.960937  1
