# generated using pymatgen
data_Cs3KVCl6
_symmetry_space_group_name_H-M   'P 1'
_cell_length_a   9.14950936
_cell_length_b   9.14951105
_cell_length_c   9.14950923
_cell_angle_alpha   92.05599334
_cell_angle_beta   92.05600235
_cell_angle_gamma   92.05599391
_symmetry_Int_Tables_number   1
_chemical_formula_structural   Cs3KVCl6
_chemical_formula_sum   'Cs6 K2 V2 Cl12'
_cell_volume   764.42215070
_cell_formula_units_Z   2
loop_
 _symmetry_equiv_pos_site_id
 _symmetry_equiv_pos_as_xyz
  1  'x, y, z'
loop_
 _atom_site_type_symbol
 _atom_site_label
 _atom_site_symmetry_multiplicity
 _atom_site_fract_x
 _atom_site_fract_y
 _atom_site_fract_z
 _atom_site_occupancy
  Cs  Cs0  1  0.747643  0.374379  0.121238  1
  Cs  Cs1  1  0.621238  0.874379  0.247642  1
  Cs  Cs2  1  0.121239  0.747642  0.374380  1
  Cs  Cs3  1  0.874380  0.247642  0.621239  1
  Cs  Cs4  1  0.374380  0.121239  0.747642  1
  Cs  Cs5  1  0.247642  0.621238  0.874379  1
  K  K6  1  0.248185  0.248185  0.248185  1
  K  K7  1  0.748185  0.748185  0.748185  1
  V  V8  1  0.497681  0.497681  0.497681  1
  V  V9  1  0.997682  0.997681  0.997682  1
  Cl  Cl10  1  0.923513  0.732788  0.044244  1
  Cl  Cl11  1  0.263177  0.951352  0.072099  1
  Cl  Cl12  1  0.423514  0.544243  0.232788  1
  Cl  Cl13  1  0.951352  0.072099  0.263176  1
  Cl  Cl14  1  0.544243  0.232788  0.423514  1
  Cl  Cl15  1  0.763176  0.572099  0.451352  1
  Cl  Cl16  1  0.232788  0.423514  0.544243  1
  Cl  Cl17  1  0.451352  0.763176  0.572099  1
  Cl  Cl18  1  0.044244  0.923514  0.732787  1
  Cl  Cl19  1  0.572099  0.451352  0.763177  1
  Cl  Cl20  1  0.732788  0.044243  0.923514  1
  Cl  Cl21  1  0.072100  0.263176  0.951352  1
