# generated using pymatgen
data_Dy2YAlSi2Ag3
_symmetry_space_group_name_H-M   'P 1'
_cell_length_a   7.12570602
_cell_length_b   7.12570513
_cell_length_c   4.19985900
_cell_angle_alpha   90.00000000
_cell_angle_beta   90.00000000
_cell_angle_gamma   119.98264007
_symmetry_Int_Tables_number   1
_chemical_formula_structural   Dy2YAlSi2Ag3
_chemical_formula_sum   'Dy2 Y1 Al1 Si2 Ag3'
_cell_volume   184.71281821
_cell_formula_units_Z   1
loop_
 _symmetry_equiv_pos_site_id
 _symmetry_equiv_pos_as_xyz
  1  'x, y, z'
loop_
 _atom_site_type_symbol
 _atom_site_label
 _atom_site_symmetry_multiplicity
 _atom_site_fract_x
 _atom_site_fract_y
 _atom_site_fract_z
 _atom_site_occupancy
  Dy  Dy0  1  0.570336  0.000076  0.500000  1
  Dy  Dy1  1  0.000076  0.570336  0.500000  1
  Y  Y2  1  0.429234  0.429234  0.500000  1
  Al  Al3  1  0.999656  0.999656  0.500000  1
  Si  Si4  1  0.667131  0.333403  0.000000  1
  Si  Si5  1  0.333403  0.667131  0.000000  1
  Ag  Ag6  1  0.750907  0.750907  0.000000  1
  Ag  Ag7  1  0.249351  0.999906  0.000000  1
  Ag  Ag8  1  0.999906  0.249351  0.000000  1
