# generated using pymatgen
data_Pu2Mo2C3
_symmetry_space_group_name_H-M   'P 1'
_cell_length_a   6.17997077
_cell_length_b   6.17997096
_cell_length_c   5.70075344
_cell_angle_alpha   67.48838751
_cell_angle_beta   67.48838450
_cell_angle_gamma   30.89706350
_symmetry_Int_Tables_number   1
_chemical_formula_structural   Pu2Mo2C3
_chemical_formula_sum   'Pu2 Mo2 C3'
_cell_volume   102.60171036
_cell_formula_units_Z   1
loop_
 _symmetry_equiv_pos_site_id
 _symmetry_equiv_pos_as_xyz
  1  'x, y, z'
loop_
 _atom_site_type_symbol
 _atom_site_label
 _atom_site_symmetry_multiplicity
 _atom_site_fract_x
 _atom_site_fract_y
 _atom_site_fract_z
 _atom_site_occupancy
  Pu  Pu0  1  0.605638  0.605638  0.188897  1
  Pu  Pu1  1  0.394362  0.394362  0.811103  1
  Mo  Mo2  1  0.842254  0.842254  0.327274  1
  Mo  Mo3  1  0.157746  0.157746  0.672726  1
  C  C4  1  0.749890  0.749890  0.745144  1
  C  C5  1  0.250110  0.250110  0.254856  1
  C  C6  1  0.000000  0.000000  0.000000  1
