# generated using pymatgen
data_Nd3Mg2CdGa2Ag
_symmetry_space_group_name_H-M   'P 1'
_cell_length_a   7.58078338
_cell_length_b   7.57664298
_cell_length_c   4.47318600
_cell_angle_alpha   90.00000000
_cell_angle_beta   90.00000000
_cell_angle_gamma   119.98193321
_symmetry_Int_Tables_number   1
_chemical_formula_structural   Nd3Mg2CdGa2Ag
_chemical_formula_sum   'Nd3 Mg2 Cd1 Ga2 Ag1'
_cell_volume   222.54484276
_cell_formula_units_Z   1
loop_
 _symmetry_equiv_pos_site_id
 _symmetry_equiv_pos_as_xyz
  1  'x, y, z'
loop_
 _atom_site_type_symbol
 _atom_site_label
 _atom_site_symmetry_multiplicity
 _atom_site_fract_x
 _atom_site_fract_y
 _atom_site_fract_z
 _atom_site_occupancy
  Nd  Nd0  1  0.417830  0.418549  0.500000  1
  Nd  Nd1  1  0.582170  0.000719  0.500000  1
  Nd  Nd2  1  0.000000  0.576676  0.500000  1
  Mg  Mg3  1  0.756899  0.758214  0.000000  1
  Mg  Mg4  1  0.243101  0.001315  0.000000  1
  Cd  Cd5  1  0.000000  0.247339  0.000000  1
  Ga  Ga6  1  0.664395  0.333532  0.000000  1
  Ga  Ga7  1  0.335605  0.669138  0.000000  1
  Ag  Ag8  1  0.000000  0.994519  0.500000  1
