# generated using pymatgen
data_La2Si4(IrRh)3
_symmetry_space_group_name_H-M   'P 1'
_cell_length_a   5.67762184
_cell_length_b   6.74221751
_cell_length_c   6.74221671
_cell_angle_alpha   64.75994522
_cell_angle_beta   65.13352699
_cell_angle_gamma   65.13352481
_symmetry_Int_Tables_number   1
_chemical_formula_structural   La2Si4(IrRh)3
_chemical_formula_sum   'La2 Si4 Ir3 Rh3'
_cell_volume   202.45285991
_cell_formula_units_Z   1
loop_
 _symmetry_equiv_pos_site_id
 _symmetry_equiv_pos_as_xyz
  1  'x, y, z'
loop_
 _atom_site_type_symbol
 _atom_site_label
 _atom_site_symmetry_multiplicity
 _atom_site_fract_x
 _atom_site_fract_y
 _atom_site_fract_z
 _atom_site_occupancy
  La  La0  1  0.534408  0.748924  0.750966  1
  La  La1  1  0.465592  0.249034  0.251076  1
  Si  Si2  1  0.223137  0.578418  0.578349  1
  Si  Si3  1  0.776863  0.421651  0.421582  1
  Si  Si4  1  0.119556  0.080391  0.078367  1
  Si  Si5  1  0.880444  0.921633  0.919609  1
  Ir  Ir6  1  0.500000  0.218069  0.781931  1
  Ir  Ir7  1  0.000000  0.717986  0.282014  1
  Ir  Ir8  1  0.500000  0.782627  0.217373  1
  Rh  Rh9  1  0.000000  0.282671  0.717329  1
  Rh  Rh10  1  0.000239  0.499052  0.000455  1
  Rh  Rh11  1  0.999761  0.999545  0.500948  1
