# generated using pymatgen
data_CsK2AuSe13
_symmetry_space_group_name_H-M   'P 1'
_cell_length_a   5.27849600
_cell_length_b   13.95222975
_cell_length_c   15.81601348
_cell_angle_alpha   85.37509620
_cell_angle_beta   90.00000000
_cell_angle_gamma   90.00000000
_symmetry_Int_Tables_number   1
_chemical_formula_structural   CsK2AuSe13
_chemical_formula_sum   'Cs2 K4 Au2 Se26'
_cell_volume   1161.00593535
_cell_formula_units_Z   2
loop_
 _symmetry_equiv_pos_site_id
 _symmetry_equiv_pos_as_xyz
  1  'x, y, z'
loop_
 _atom_site_type_symbol
 _atom_site_label
 _atom_site_symmetry_multiplicity
 _atom_site_fract_x
 _atom_site_fract_y
 _atom_site_fract_z
 _atom_site_occupancy
  Cs  Cs0  1  0.163586  0.250000  0.000000  1
  Cs  Cs1  1  0.836414  0.750000  0.000000  1
  K  K2  1  0.206553  0.163119  0.713703  1
  K  K3  1  0.206553  0.336881  0.286297  1
  K  K4  1  0.793447  0.836881  0.286297  1
  K  K5  1  0.793447  0.663119  0.713703  1
  Au  Au6  1  0.000000  0.500000  0.500000  1
  Au  Au7  1  0.000000  0.000000  0.500000  1
  Se  Se8  1  0.284453  0.552328  0.616268  1
  Se  Se9  1  0.662826  0.575135  0.275448  1
  Se  Se10  1  0.337174  0.075135  0.275448  1
  Se  Se11  1  0.337174  0.424865  0.724552  1
  Se  Se12  1  0.932813  0.531903  0.161912  1
  Se  Se13  1  0.932813  0.968097  0.838088  1
  Se  Se14  1  0.067187  0.468097  0.838088  1
  Se  Se15  1  0.067187  0.031903  0.161912  1
  Se  Se16  1  0.686046  0.421274  0.089197  1
  Se  Se17  1  0.662826  0.924865  0.724552  1
  Se  Se18  1  0.313954  0.578726  0.910803  1
  Se  Se19  1  0.313954  0.921274  0.089197  1
  Se  Se20  1  0.688911  0.268945  0.166685  1
  Se  Se21  1  0.688911  0.231055  0.833315  1
  Se  Se22  1  0.311089  0.731055  0.833315  1
  Se  Se23  1  0.311089  0.768945  0.166685  1
  Se  Se24  1  0.085181  0.657798  0.415355  1
  Se  Se25  1  0.085181  0.842202  0.584645  1
  Se  Se26  1  0.914819  0.342202  0.584645  1
  Se  Se27  1  0.914819  0.157798  0.415355  1
  Se  Se28  1  0.650553  0.250000  0.500000  1
  Se  Se29  1  0.349447  0.750000  0.500000  1
  Se  Se30  1  0.715547  0.447672  0.383732  1
  Se  Se31  1  0.715547  0.052328  0.616268  1
  Se  Se32  1  0.686046  0.078726  0.910803  1
  Se  Se33  1  0.284453  0.947672  0.383732  1
