# generated using pymatgen
data_Ca2AlPdPt
_symmetry_space_group_name_H-M   'P 1'
_cell_length_a   5.76626236
_cell_length_b   5.76626295
_cell_length_c   7.79395140
_cell_angle_alpha   79.26377111
_cell_angle_beta   79.26377309
_cell_angle_gamma   60.22011844
_symmetry_Int_Tables_number   1
_chemical_formula_structural   Ca2AlPdPt
_chemical_formula_sum   'Ca4 Al2 Pd2 Pt2'
_cell_volume   219.64699234
_cell_formula_units_Z   2
loop_
 _symmetry_equiv_pos_site_id
 _symmetry_equiv_pos_as_xyz
  1  'x, y, z'
loop_
 _atom_site_type_symbol
 _atom_site_label
 _atom_site_symmetry_multiplicity
 _atom_site_fract_x
 _atom_site_fract_y
 _atom_site_fract_z
 _atom_site_occupancy
  Ca  Ca0  1  0.782451  0.520354  0.351727  1
  Ca  Ca1  1  0.479646  0.217549  0.148273  1
  Ca  Ca2  1  0.220083  0.482188  0.649918  1
  Ca  Ca3  1  0.517812  0.779917  0.850082  1
  Al  Al4  1  0.121071  0.878929  0.250000  1
  Al  Al5  1  0.886304  0.113696  0.750000  1
  Pd  Pd6  1  0.996039  0.262858  0.997957  1
  Pd  Pd7  1  0.737142  0.003961  0.502043  1
  Pt  Pt8  1  0.002399  0.742945  0.005157  1
  Pt  Pt9  1  0.257055  0.997601  0.494843  1
