# generated using pymatgen
data_K4Zr2P6Se25
_symmetry_space_group_name_H-M   'P 1'
_cell_length_a   7.03481802
_cell_length_b   18.70741294
_cell_length_c   19.50664200
_cell_angle_alpha   88.05707807
_cell_angle_beta   79.61167826
_cell_angle_gamma   79.16261403
_symmetry_Int_Tables_number   1
_chemical_formula_structural   K4Zr2P6Se25
_chemical_formula_sum   'K8 Zr4 P12 Se50'
_cell_volume   2480.02253774
_cell_formula_units_Z   2
loop_
 _symmetry_equiv_pos_site_id
 _symmetry_equiv_pos_as_xyz
  1  'x, y, z'
loop_
 _atom_site_type_symbol
 _atom_site_label
 _atom_site_symmetry_multiplicity
 _atom_site_fract_x
 _atom_site_fract_y
 _atom_site_fract_z
 _atom_site_occupancy
  K  K0  1  0.051101  0.151060  0.850381  1
  K  K1  1  0.626562  0.130601  0.279838  1
  K  K2  1  0.651483  0.651060  0.649619  1
  K  K3  1  0.952162  0.348940  0.350381  1
  K  K4  1  0.507162  0.369399  0.779838  1
  K  K5  1  0.052542  0.848940  0.149619  1
  K  K6  1  0.037001  0.869399  0.720162  1
  K  K7  1  0.656400  0.630601  0.220162  1
  Zr  Zr8  1  0.592922  0.753039  0.436756  1
  Zr  Zr9  1  0.779677  0.253039  0.063244  1
  Zr  Zr10  1  0.095959  0.746961  0.936756  1
  Zr  Zr11  1  0.782716  0.246961  0.563244  1
  P  P12  1  0.669765  0.568702  0.427481  1
  P  P13  1  0.665947  0.431298  0.572519  1
  P  P14  1  0.067324  0.663969  0.783360  1
  P  P15  1  0.847245  0.068702  0.072519  1
  P  P16  1  0.600684  0.163969  0.716640  1
  P  P17  1  0.481292  0.836031  0.283360  1
  P  P18  1  0.514650  0.336031  0.216640  1
  P  P19  1  0.207595  0.647710  0.080986  1
  P  P20  1  0.988467  0.931298  0.927481  1
  P  P21  1  0.605306  0.852290  0.580986  1
  P  P22  1  0.936292  0.352290  0.919014  1
  P  P23  1  0.038581  0.147710  0.419014  1
  Se  Se24  1  0.834801  0.740922  0.851776  1
  Se  Se25  1  0.864843  0.500000  0.500000  1
  Se  Se26  1  0.296579  0.445575  0.226148  1
  Se  Se27  1  0.551714  0.190329  0.825932  1
  Se  Se28  1  0.385688  0.720651  0.015017  1
  Se  Se29  1  0.902319  0.358052  0.618665  1
  Se  Se30  1  0.442827  0.496405  0.645657  1
  Se  Se31  1  0.341885  0.839620  0.536189  1
  Se  Se32  1  0.270983  0.858052  0.881335  1
  Se  Se33  1  0.127645  0.690329  0.674068  1
  Se  Se34  1  0.010369  0.141948  0.118665  1
  Se  Se35  1  0.987754  0.464515  0.950453  1
  Se  Se36  1  0.202268  0.035485  0.450453  1
  Se  Se37  1  0.911915  0.151885  0.660169  1
  Se  Se38  1  0.114843  0.000000  0.000000  1
  Se  Se39  1  0.931505  0.660380  0.036189  1
  Se  Se40  1  0.272727  0.945575  0.273852  1
  Se  Se41  1  0.584890  0.503595  0.354343  1
  Se  Se42  1  0.436577  0.240922  0.648224  1
  Se  Se43  1  0.968302  0.554425  0.773852  1
  Se  Se44  1  0.814408  0.857177  0.993846  1
  Se  Se45  1  0.492043  0.309671  0.325932  1
  Se  Se46  1  0.413885  0.039058  0.615261  1
  Se  Se47  1  0.688207  0.964515  0.549547  1
  Se  Se48  1  0.427499  0.259078  0.148224  1
  Se  Se49  1  0.097403  0.162750  0.307937  1
  Se  Se50  1  0.010150  0.337250  0.807937  1
  Se  Se51  1  0.879036  0.641948  0.381335  1
  Se  Se52  1  0.779144  0.539058  0.884739  1
  Se  Se53  1  0.068202  0.960942  0.384739  1
  Se  Se54  1  0.689231  0.003595  0.145657  1
  Se  Se55  1  0.717694  0.160380  0.463811  1
  Se  Se56  1  0.325723  0.759078  0.351776  1
  Se  Se57  1  0.421585  0.642823  0.493846  1
  Se  Se58  1  0.202941  0.460942  0.115261  1
  Se  Se59  1  0.155339  0.662750  0.192063  1
  Se  Se60  1  0.402722  0.535485  0.049547  1
  Se  Se61  1  0.322085  0.651885  0.839831  1
  Se  Se62  1  0.150706  0.220651  0.484983  1
  Se  Se63  1  0.558254  0.357177  0.506154  1
  Se  Se64  1  0.665431  0.142823  0.006154  1
  Se  Se65  1  0.492154  0.054425  0.726148  1
  Se  Se66  1  0.856339  0.779349  0.515017  1
  Se  Se67  1  0.121356  0.279349  0.984983  1
  Se  Se68  1  0.723970  0.848115  0.339831  1
  Se  Se69  1  0.628074  0.339620  0.963811  1
  Se  Se70  1  0.567975  0.809671  0.174068  1
  Se  Se71  1  0.568087  0.837250  0.692063  1
  Se  Se72  1  0.813800  0.348115  0.160169  1
  Se  Se73  1  0.838483  0.996405  0.854343  1
