# generated using pymatgen
data_Rb2Au2IBr5
_symmetry_space_group_name_H-M   'P 1'
_cell_length_a   7.55712483
_cell_length_b   7.68728828
_cell_length_c   8.61943114
_cell_angle_alpha   65.44770353
_cell_angle_beta   66.26527623
_cell_angle_gamma   60.15053173
_symmetry_Int_Tables_number   1
_chemical_formula_structural   Rb2Au2IBr5
_chemical_formula_sum   'Rb2 Au2 I1 Br5'
_cell_volume   382.69141826
_cell_formula_units_Z   1
loop_
 _symmetry_equiv_pos_site_id
 _symmetry_equiv_pos_as_xyz
  1  'x, y, z'
loop_
 _atom_site_type_symbol
 _atom_site_label
 _atom_site_symmetry_multiplicity
 _atom_site_fract_x
 _atom_site_fract_y
 _atom_site_fract_z
 _atom_site_occupancy
  Rb  Rb0  1  0.736162  0.722397  0.764688  1
  Rb  Rb1  1  0.275835  0.277183  0.227008  1
  Au  Au2  1  0.994482  0.003858  0.998014  1
  Au  Au3  1  0.498159  0.502791  0.496891  1
  I  I4  1  0.272019  0.790365  0.199342  1
  Br  Br5  1  0.189566  0.735200  0.831895  1
  Br  Br6  1  0.719106  0.200961  0.817777  1
  Br  Br7  1  0.810155  0.271175  0.164379  1
  Br  Br8  1  0.290238  0.289002  0.631706  1
  Br  Br9  1  0.714277  0.707069  0.368300  1
