# generated using pymatgen
data_SmDy4(TcB3)2
_symmetry_space_group_name_H-M   'P 1'
_cell_length_a   5.53346531
_cell_length_b   5.53346543
_cell_length_c   8.57720613
_cell_angle_alpha   71.18169929
_cell_angle_beta   71.18168858
_cell_angle_gamma   59.99998739
_symmetry_Int_Tables_number   1
_chemical_formula_structural   SmDy4(TcB3)2
_chemical_formula_sum   'Sm1 Dy4 Tc2 B6'
_cell_volume   211.07634883
_cell_formula_units_Z   1
loop_
 _symmetry_equiv_pos_site_id
 _symmetry_equiv_pos_as_xyz
  1  'x, y, z'
loop_
 _atom_site_type_symbol
 _atom_site_label
 _atom_site_symmetry_multiplicity
 _atom_site_fract_x
 _atom_site_fract_y
 _atom_site_fract_z
 _atom_site_occupancy
  Sm  Sm0  1  0.000000  0.000000  0.000000  1
  Dy  Dy1  1  0.246968  0.246968  0.259095  1
  Dy  Dy2  1  0.753032  0.753032  0.740905  1
  Dy  Dy3  1  0.419494  0.419494  0.741516  1
  Dy  Dy4  1  0.580506  0.580506  0.258484  1
  Tc  Tc5  1  0.111455  0.111455  0.665635  1
  Tc  Tc6  1  0.888545  0.888545  0.334365  1
  B  B7  1  0.170531  0.829469  0.500000  1
  B  B8  1  0.829469  0.500000  0.500000  1
  B  B9  1  0.500000  0.170531  0.500000  1
  B  B10  1  0.170531  0.500000  0.500000  1
  B  B11  1  0.500000  0.829469  0.500000  1
  B  B12  1  0.829469  0.170531  0.500000  1
