# generated using pymatgen
data_Pr10Bi3Pb3AuBr
_symmetry_space_group_name_H-M   'P 1'
_cell_length_a   9.75661304
_cell_length_b   9.75001462
_cell_length_c   6.75859422
_cell_angle_alpha   90.02064607
_cell_angle_beta   90.00709285
_cell_angle_gamma   120.02974693
_symmetry_Int_Tables_number   1
_chemical_formula_structural   Pr10Bi3Pb3AuBr
_chemical_formula_sum   'Pr10 Bi3 Pb3 Au1 Br1'
_cell_volume   556.62286053
_cell_formula_units_Z   1
loop_
 _symmetry_equiv_pos_site_id
 _symmetry_equiv_pos_as_xyz
  1  'x, y, z'
loop_
 _atom_site_type_symbol
 _atom_site_label
 _atom_site_symmetry_multiplicity
 _atom_site_fract_x
 _atom_site_fract_y
 _atom_site_fract_z
 _atom_site_occupancy
  Pr  Pr0  1  0.263585  0.997443  0.745826  1
  Pr  Pr1  1  0.735792  0.000350  0.254543  1
  Pr  Pr2  1  0.997300  0.263375  0.745864  1
  Pr  Pr3  1  0.002377  0.737072  0.252933  1
  Pr  Pr4  1  0.735190  0.735418  0.746736  1
  Pr  Pr5  1  0.265234  0.263295  0.253385  1
  Pr  Pr6  1  0.332930  0.667780  0.499733  1
  Pr  Pr7  1  0.667054  0.333438  0.499823  1
  Pr  Pr8  1  0.667327  0.331013  0.999789  1
  Pr  Pr9  1  0.333002  0.670723  0.999730  1
  Bi  Bi10  1  0.000340  0.384460  0.251689  1
  Bi  Bi11  1  0.383461  0.383607  0.748506  1
  Bi  Bi12  1  0.616061  0.615919  0.251372  1
  Pb  Pb13  1  0.615321  0.000006  0.747983  1
  Pb  Pb14  1  0.386178  0.001148  0.251443  1
  Pb  Pb15  1  0.998863  0.615416  0.749192  1
  Au  Au16  1  0.000024  0.998685  0.501135  1
  Br  Br17  1  0.999961  0.000853  0.000317  1
