# generated using pymatgen
data_Tb4Y2Al21Si3Os8
_symmetry_space_group_name_H-M   'P 1'
_cell_length_a   8.73497500
_cell_length_b   8.73660358
_cell_length_c   9.66950900
_cell_angle_alpha   89.99992473
_cell_angle_beta   90.00000000
_cell_angle_gamma   119.99383006
_symmetry_Int_Tables_number   1
_chemical_formula_structural   Tb4Y2Al21Si3Os8
_chemical_formula_sum   'Tb4 Y2 Al21 Si3 Os8'
_cell_volume   639.09636559
_cell_formula_units_Z   1
loop_
 _symmetry_equiv_pos_site_id
 _symmetry_equiv_pos_as_xyz
  1  'x, y, z'
loop_
 _atom_site_type_symbol
 _atom_site_label
 _atom_site_symmetry_multiplicity
 _atom_site_fract_x
 _atom_site_fract_y
 _atom_site_fract_z
 _atom_site_occupancy
  Tb  Tb0  1  0.611083  0.805473  0.247467  1
  Tb  Tb1  1  0.389918  0.195057  0.752905  1
  Tb  Tb2  1  0.194390  0.805473  0.247467  1
  Tb  Tb3  1  0.805139  0.195057  0.752905  1
  Y  Y4  1  0.194697  0.389392  0.247436  1
  Y  Y5  1  0.804796  0.609591  0.752913  1
  Al  Al6  1  0.333240  0.666480  0.476929  1
  Al  Al7  1  0.164269  0.328538  0.573767  1
  Al  Al8  1  0.834929  0.669859  0.424100  1
  Al  Al9  1  0.671510  0.835688  0.573741  1
  Al  Al10  1  0.834826  0.669654  0.076402  1
  Al  Al11  1  0.330072  0.165108  0.424123  1
  Al  Al12  1  0.165503  0.331005  0.923171  1
  Al  Al13  1  0.164179  0.835688  0.573741  1
  Al  Al14  1  0.330318  0.165220  0.076389  1
  Al  Al15  1  0.835035  0.165108  0.424123  1
  Al  Al16  1  0.669023  0.834439  0.923194  1
  Al  Al17  1  0.834901  0.165220  0.076389  1
  Al  Al18  1  0.165417  0.834439  0.923194  1
  Al  Al19  1  0.563705  0.127410  0.248727  1
  Al  Al20  1  0.436672  0.873344  0.748746  1
  Al  Al21  1  0.872766  0.436347  0.248744  1
  Al  Al22  1  0.126471  0.563279  0.748723  1
  Al  Al23  1  0.563580  0.436347  0.248744  1
  Al  Al24  1  0.436808  0.563279  0.748723  1
  Al  Al25  1  0.999937  0.999873  0.248822  1
  Al  Al26  1  0.000052  0.000105  0.749501  1
  Si  Si27  1  0.333232  0.666466  0.038487  1
  Si  Si28  1  0.666769  0.333538  0.962640  1
  Si  Si29  1  0.666791  0.333582  0.538674  1
  Os  Os30  1  0.499921  0.999844  0.998858  1
  Os  Os31  1  0.000161  0.500082  0.998870  1
  Os  Os32  1  0.504253  0.008506  0.501358  1
  Os  Os33  1  0.499920  0.500082  0.998870  1
  Os  Os34  1  0.991455  0.495712  0.501374  1
  Os  Os35  1  0.504257  0.495712  0.501374  1
  Os  Os36  1  0.999995  0.999991  0.999059  1
  Os  Os37  1  0.000006  0.000012  0.499342  1
