# generated using pymatgen
data_Tb4DyCoRuO12
_symmetry_space_group_name_H-M   'P 1'
_cell_length_a   6.82019725
_cell_length_b   6.82025099
_cell_length_c   7.27291012
_cell_angle_alpha   74.43731469
_cell_angle_beta   74.44188720
_cell_angle_gamma   50.83322799
_symmetry_Int_Tables_number   1
_chemical_formula_structural   Tb4DyCoRuO12
_chemical_formula_sum   'Tb4 Dy1 Co1 Ru1 O12'
_cell_volume   250.45458318
_cell_formula_units_Z   1
loop_
 _symmetry_equiv_pos_site_id
 _symmetry_equiv_pos_as_xyz
  1  'x, y, z'
loop_
 _atom_site_type_symbol
 _atom_site_label
 _atom_site_symmetry_multiplicity
 _atom_site_fract_x
 _atom_site_fract_y
 _atom_site_fract_z
 _atom_site_occupancy
  Tb  Tb0  1  0.678096  0.712572  0.142794  1
  Tb  Tb1  1  0.995310  0.004716  0.999928  1
  Tb  Tb2  1  0.287382  0.322023  0.856967  1
  Tb  Tb3  1  0.305672  0.314244  0.332062  1
  Dy  Dy4  1  0.685646  0.694213  0.668142  1
  Co  Co5  1  0.259712  0.740308  0.500049  1
  Ru  Ru6  1  0.771222  0.228734  0.500102  1
  O  O7  1  0.397467  0.913425  0.920580  1
  O  O8  1  0.579560  0.101416  0.581934  1
  O  O9  1  0.897526  0.421163  0.418595  1
  O  O10  1  0.086049  0.603202  0.078722  1
  O  O11  1  0.017410  0.983049  0.325777  1
  O  O12  1  0.504151  0.496586  0.680233  1
  O  O13  1  0.892684  0.406028  0.928326  1
  O  O14  1  0.096955  0.571081  0.581554  1
  O  O15  1  0.429804  0.901649  0.419198  1
  O  O16  1  0.594584  0.106832  0.071033  1
  O  O17  1  0.503829  0.496138  0.319861  1
  O  O18  1  0.016941  0.982622  0.674141  1
