# generated using pymatgen
data_La2Pb3
_symmetry_space_group_name_H-M   'P 1'
_cell_length_a   6.71779647
_cell_length_b   8.87676076
_cell_length_c   11.69524516
_cell_angle_alpha   106.79892466
_cell_angle_beta   96.96441745
_cell_angle_gamma   100.60204856
_symmetry_Int_Tables_number   1
_chemical_formula_structural   La2Pb3
_chemical_formula_sum   'La8 Pb12'
_cell_volume   644.88083478
_cell_formula_units_Z   4
loop_
 _symmetry_equiv_pos_site_id
 _symmetry_equiv_pos_as_xyz
  1  'x, y, z'
loop_
 _atom_site_type_symbol
 _atom_site_label
 _atom_site_symmetry_multiplicity
 _atom_site_fract_x
 _atom_site_fract_y
 _atom_site_fract_z
 _atom_site_occupancy
  La  La0  1  0.331540  0.031373  0.744908  1
  La  La1  1  0.668460  0.968627  0.255092  1
  La  La2  1  0.958005  0.252403  0.055853  1
  La  La3  1  0.041995  0.747597  0.944147  1
  La  La4  1  0.556101  0.428658  0.335600  1
  La  La5  1  0.443899  0.571342  0.664400  1
  La  La6  1  0.127026  0.754288  0.385625  1
  La  La7  1  0.872974  0.245712  0.614375  1
  Pb  Pb8  1  0.047210  0.353853  0.377547  1
  Pb  Pb9  1  0.952790  0.646147  0.622453  1
  Pb  Pb10  1  0.358413  0.166950  0.501619  1
  Pb  Pb11  1  0.641587  0.833050  0.498381  1
  Pb  Pb12  1  0.438491  0.171860  0.049693  1
  Pb  Pb13  1  0.561509  0.828140  0.950307  1
  Pb  Pb14  1  0.321179  0.604438  0.141466  1
  Pb  Pb15  1  0.678821  0.395562  0.858534  1
  Pb  Pb16  1  0.215941  0.404229  0.861552  1
  Pb  Pb17  1  0.784059  0.595771  0.138448  1
  Pb  Pb18  1  0.174714  0.033066  0.221248  1
  Pb  Pb19  1  0.825286  0.966934  0.778752  1
