# generated using pymatgen
data_Er5Co2Pd
_symmetry_space_group_name_H-M   'P 1'
_cell_length_a   8.39654269
_cell_length_b   8.39654279
_cell_length_c   8.39654217
_cell_angle_alpha   128.36836399
_cell_angle_beta   128.36836753
_cell_angle_gamma   76.02904645
_symmetry_Int_Tables_number   1
_chemical_formula_structural   Er5Co2Pd
_chemical_formula_sum   'Er10 Co4 Pd2'
_cell_volume   353.78813757
_cell_formula_units_Z   2
loop_
 _symmetry_equiv_pos_site_id
 _symmetry_equiv_pos_as_xyz
  1  'x, y, z'
loop_
 _atom_site_type_symbol
 _atom_site_label
 _atom_site_symmetry_multiplicity
 _atom_site_fract_x
 _atom_site_fract_y
 _atom_site_fract_z
 _atom_site_occupancy
  Er  Er0  1  0.000000  0.000000  0.000000  1
  Er  Er1  1  0.500000  0.500000  0.000000  1
  Er  Er2  1  0.802333  0.302333  0.829907  1
  Er  Er3  1  0.197667  0.697667  0.170093  1
  Er  Er4  1  0.472427  0.972427  0.170093  1
  Er  Er5  1  0.302333  0.472427  0.500000  1
  Er  Er6  1  0.027573  0.197667  0.500000  1
  Er  Er7  1  0.527573  0.027573  0.829907  1
  Er  Er8  1  0.697667  0.527573  0.500000  1
  Er  Er9  1  0.972427  0.802333  0.500000  1
  Co  Co10  1  0.129047  0.629047  0.758094  1
  Co  Co11  1  0.870953  0.370953  0.241906  1
  Co  Co12  1  0.629047  0.870953  0.500000  1
  Co  Co13  1  0.370953  0.129047  0.500000  1
  Pd  Pd14  1  0.250000  0.250000  0.000000  1
  Pd  Pd15  1  0.750000  0.750000  0.000000  1
