# generated using pymatgen
data_LiZn2(InRh2)3
_symmetry_space_group_name_H-M   'P 1'
_cell_length_a   4.42996500
_cell_length_b   6.28680300
_cell_length_c   13.29617101
_cell_angle_alpha   90.00000000
_cell_angle_beta   89.99902221
_cell_angle_gamma   90.00000000
_symmetry_Int_Tables_number   1
_chemical_formula_structural   LiZn2(InRh2)3
_chemical_formula_sum   'Li2 Zn4 In6 Rh12'
_cell_volume   370.30258076
_cell_formula_units_Z   2
loop_
 _symmetry_equiv_pos_site_id
 _symmetry_equiv_pos_as_xyz
  1  'x, y, z'
loop_
 _atom_site_type_symbol
 _atom_site_label
 _atom_site_symmetry_multiplicity
 _atom_site_fract_x
 _atom_site_fract_y
 _atom_site_fract_z
 _atom_site_occupancy
  Li  Li0  1  0.000290  0.000000  0.666530  1
  Li  Li1  1  0.500296  0.500000  0.833464  1
  Zn  Zn2  1  0.999982  0.000000  0.999863  1
  Zn  Zn3  1  0.499796  0.500000  0.166283  1
  Zn  Zn4  1  0.999809  0.000000  0.333697  1
  Zn  Zn5  1  0.499986  0.500000  0.500171  1
  In  In6  1  0.999883  0.500000  0.996377  1
  In  In7  1  0.499762  0.000000  0.167308  1
  In  In8  1  0.999742  0.500000  0.332699  1
  In  In9  1  0.499960  0.000000  0.503570  1
  In  In10  1  0.000133  0.500000  0.671159  1
  In  In11  1  0.500292  0.000000  0.828891  1
  Rh  Rh12  1  0.499946  0.247192  0.001340  1
  Rh  Rh13  1  0.499946  0.752809  0.001340  1
  Rh  Rh14  1  0.999798  0.251200  0.166203  1
  Rh  Rh15  1  0.999798  0.748800  0.166203  1
  Rh  Rh16  1  0.499823  0.248836  0.333783  1
  Rh  Rh17  1  0.499823  0.751163  0.333783  1
  Rh  Rh18  1  0.999978  0.252875  0.498676  1
  Rh  Rh19  1  0.999978  0.747123  0.498676  1
  Rh  Rh20  1  0.500223  0.254610  0.664993  1
  Rh  Rh21  1  0.500223  0.745389  0.664993  1
  Rh  Rh22  1  0.000268  0.245396  0.834999  1
  Rh  Rh23  1  0.000268  0.754604  0.834999  1
