# generated using pymatgen
data_YbCu9Si4
_symmetry_space_group_name_H-M   'P 1'
_cell_length_a   8.12855553
_cell_length_b   8.12855555
_cell_length_c   8.12855523
_cell_angle_alpha   120.40888394
_cell_angle_beta   120.40888337
_cell_angle_gamma   89.29324553
_symmetry_Int_Tables_number   1
_chemical_formula_structural   YbCu9Si4
_chemical_formula_sum   'Yb2 Cu18 Si8'
_cell_volume   377.39565063
_cell_formula_units_Z   2
loop_
 _symmetry_equiv_pos_site_id
 _symmetry_equiv_pos_as_xyz
  1  'x, y, z'
loop_
 _atom_site_type_symbol
 _atom_site_label
 _atom_site_symmetry_multiplicity
 _atom_site_fract_x
 _atom_site_fract_y
 _atom_site_fract_z
 _atom_site_occupancy
  Yb  Yb0  1  0.250000  0.250000  0.000000  1
  Yb  Yb1  1  0.750000  0.750000  0.000000  1
  Cu  Cu2  1  0.935748  0.201885  0.137634  1
  Cu  Cu3  1  0.201885  0.064252  0.266137  1
  Cu  Cu4  1  0.798115  0.935748  0.733863  1
  Cu  Cu5  1  0.435748  0.298115  0.733863  1
  Cu  Cu6  1  0.064252  0.798115  0.862366  1
  Cu  Cu7  1  0.808615  0.058335  0.500000  1
  Cu  Cu8  1  0.558335  0.308615  0.500000  1
  Cu  Cu9  1  0.191385  0.941665  0.500000  1
  Cu  Cu10  1  0.441665  0.691385  0.500000  1
  Cu  Cu11  1  0.941665  0.441665  0.750278  1
  Cu  Cu12  1  0.691385  0.191385  0.249722  1
  Cu  Cu13  1  0.058335  0.558335  0.249722  1
  Cu  Cu14  1  0.701885  0.435748  0.137634  1
  Cu  Cu15  1  0.564252  0.701885  0.266137  1
  Cu  Cu16  1  0.500000  0.000000  0.500000  1
  Cu  Cu17  1  0.000000  0.500000  0.500000  1
  Cu  Cu18  1  0.308615  0.808615  0.750278  1
  Cu  Cu19  1  0.298115  0.564252  0.862366  1
  Si  Si20  1  0.793384  0.293384  0.852212  1
  Si  Si21  1  0.558828  0.058828  0.852212  1
  Si  Si22  1  0.058828  0.206616  0.500000  1
  Si  Si23  1  0.293384  0.441172  0.500000  1
  Si  Si24  1  0.941172  0.793384  0.500000  1
  Si  Si25  1  0.441172  0.941172  0.147788  1
  Si  Si26  1  0.206616  0.706616  0.147788  1
  Si  Si27  1  0.706616  0.558828  0.500000  1
