# generated using pymatgen
data_Na(PrPb)4
_symmetry_space_group_name_H-M   'P 1'
_cell_length_a   8.34879800
_cell_length_b   8.56913000
_cell_length_c   16.38997800
_cell_angle_alpha   90.00000000
_cell_angle_beta   90.00000000
_cell_angle_gamma   90.00000000
_symmetry_Int_Tables_number   1
_chemical_formula_structural   Na(PrPb)4
_chemical_formula_sum   'Na4 Pr16 Pb16'
_cell_volume   1172.57074738
_cell_formula_units_Z   4
loop_
 _symmetry_equiv_pos_site_id
 _symmetry_equiv_pos_as_xyz
  1  'x, y, z'
loop_
 _atom_site_type_symbol
 _atom_site_label
 _atom_site_symmetry_multiplicity
 _atom_site_fract_x
 _atom_site_fract_y
 _atom_site_fract_z
 _atom_site_occupancy
  Na  Na0  1  0.825253  0.503522  0.750000  1
  Na  Na1  1  0.325253  0.996478  0.750000  1
  Na  Na2  1  0.174747  0.496478  0.250000  1
  Na  Na3  1  0.674747  0.003522  0.250000  1
  Pr  Pr4  1  0.652951  0.167910  0.625937  1
  Pr  Pr5  1  0.152951  0.332090  0.874063  1
  Pr  Pr6  1  0.347049  0.832090  0.125937  1
  Pr  Pr7  1  0.847049  0.667910  0.374063  1
  Pr  Pr8  1  0.347049  0.832090  0.374063  1
  Pr  Pr9  1  0.847049  0.667910  0.125937  1
  Pr  Pr10  1  0.652951  0.167910  0.874063  1
  Pr  Pr11  1  0.152951  0.332090  0.625937  1
  Pr  Pr12  1  0.502054  0.685389  0.595466  1
  Pr  Pr13  1  0.002054  0.814611  0.904534  1
  Pr  Pr14  1  0.497946  0.314611  0.095466  1
  Pr  Pr15  1  0.997946  0.185389  0.404534  1
  Pr  Pr16  1  0.497946  0.314611  0.404534  1
  Pr  Pr17  1  0.997946  0.185389  0.095466  1
  Pr  Pr18  1  0.502054  0.685389  0.904534  1
  Pr  Pr19  1  0.002054  0.814611  0.595466  1
  Pb  Pb20  1  0.686160  0.959771  0.461892  1
  Pb  Pb21  1  0.186160  0.540229  0.038108  1
  Pb  Pb22  1  0.313840  0.040229  0.961892  1
  Pb  Pb23  1  0.813840  0.459771  0.538108  1
  Pb  Pb24  1  0.313840  0.040229  0.538108  1
  Pb  Pb25  1  0.813840  0.459771  0.961892  1
  Pb  Pb26  1  0.686160  0.959771  0.038108  1
  Pb  Pb27  1  0.186160  0.540229  0.461892  1
  Pb  Pb28  1  0.461827  0.401742  0.750000  1
  Pb  Pb29  1  0.961827  0.098258  0.750000  1
  Pb  Pb30  1  0.538173  0.598258  0.250000  1
  Pb  Pb31  1  0.038173  0.901742  0.250000  1
  Pb  Pb32  1  0.693830  0.853042  0.750000  1
  Pb  Pb33  1  0.193830  0.646958  0.750000  1
  Pb  Pb34  1  0.306170  0.146958  0.250000  1
  Pb  Pb35  1  0.806170  0.353042  0.250000  1
