# generated using pymatgen
data_Mn21(OsC3)2
_symmetry_space_group_name_H-M   'P 1'
_cell_length_a   7.38148789
_cell_length_b   7.38148740
_cell_length_c   7.38148700
_cell_angle_alpha   59.99999733
_cell_angle_beta   59.99999951
_cell_angle_gamma   59.99999750
_symmetry_Int_Tables_number   1
_chemical_formula_structural   Mn21(OsC3)2
_chemical_formula_sum   'Mn21 Os2 C6'
_cell_volume   284.39151678
_cell_formula_units_Z   1
loop_
 _symmetry_equiv_pos_site_id
 _symmetry_equiv_pos_as_xyz
  1  'x, y, z'
loop_
 _atom_site_type_symbol
 _atom_site_label
 _atom_site_symmetry_multiplicity
 _atom_site_fract_x
 _atom_site_fract_y
 _atom_site_fract_z
 _atom_site_occupancy
  Mn  Mn0  1  0.000000  0.000000  0.000000  1
  Mn  Mn1  1  0.383805  0.383805  0.383805  1
  Mn  Mn2  1  0.151415  0.616195  0.616195  1
  Mn  Mn3  1  0.616195  0.151415  0.616195  1
  Mn  Mn4  1  0.616195  0.616195  0.151415  1
  Mn  Mn5  1  0.383805  0.848585  0.383805  1
  Mn  Mn6  1  0.383805  0.383805  0.848585  1
  Mn  Mn7  1  0.848585  0.383805  0.383805  1
  Mn  Mn8  1  0.616195  0.616195  0.616195  1
  Mn  Mn9  1  0.000000  0.333488  0.000000  1
  Mn  Mn10  1  0.333488  0.000000  0.000000  1
  Mn  Mn11  1  0.000000  0.333488  0.666512  1
  Mn  Mn12  1  0.666512  0.000000  0.333488  1
  Mn  Mn13  1  0.333488  0.000000  0.666512  1
  Mn  Mn14  1  0.000000  0.000000  0.333488  1
  Mn  Mn15  1  0.666512  0.333488  0.000000  1
  Mn  Mn16  1  0.000000  0.666512  0.333488  1
  Mn  Mn17  1  0.000000  0.000000  0.666512  1
  Mn  Mn18  1  0.333488  0.666512  0.000000  1
  Mn  Mn19  1  0.666512  0.000000  0.000000  1
  Mn  Mn20  1  0.000000  0.666512  0.000000  1
  Os  Os21  1  0.250000  0.250000  0.250000  1
  Os  Os22  1  0.750000  0.750000  0.750000  1
  C  C23  1  0.275921  0.724079  0.275921  1
  C  C24  1  0.275921  0.724079  0.724079  1
  C  C25  1  0.724079  0.275921  0.275921  1
  C  C26  1  0.724079  0.724079  0.275921  1
  C  C27  1  0.275921  0.275921  0.724079  1
  C  C28  1  0.724079  0.275921  0.724079  1
