# generated using pymatgen
data_La7Y2TmSi8O3
_symmetry_space_group_name_H-M   'P 1'
_cell_length_a   10.76893319
_cell_length_b   10.74456144
_cell_length_c   4.54675600
_cell_angle_alpha   90.00000000
_cell_angle_beta   90.00000000
_cell_angle_gamma   119.92516397
_symmetry_Int_Tables_number   1
_chemical_formula_structural   La7Y2TmSi8O3
_chemical_formula_sum   'La7 Y2 Tm1 Si8 O3'
_cell_volume   455.95361476
_cell_formula_units_Z   1
loop_
 _symmetry_equiv_pos_site_id
 _symmetry_equiv_pos_as_xyz
  1  'x, y, z'
loop_
 _atom_site_type_symbol
 _atom_site_label
 _atom_site_symmetry_multiplicity
 _atom_site_fract_x
 _atom_site_fract_y
 _atom_site_fract_z
 _atom_site_occupancy
  La  La0  1  0.211465  0.787868  0.000000  1
  La  La1  1  0.576562  0.788281  0.000000  1
  La  La2  1  0.788535  0.576404  0.000000  1
  La  La3  1  0.000000  0.000000  0.000000  1
  La  La4  1  0.211465  0.423596  0.000000  1
  La  La5  1  0.423438  0.211719  0.000000  1
  La  La6  1  0.788535  0.212132  0.000000  1
  Y  Y7  1  0.500000  0.500000  0.500000  1
  Y  Y8  1  0.500000  0.000000  0.500000  1
  Tm  Tm9  1  0.000000  0.500000  0.500000  1
  Si  Si10  1  0.000000  0.776183  0.500000  1
  Si  Si11  1  0.000000  0.223817  0.500000  1
  Si  Si12  1  0.222819  0.223107  0.500000  1
  Si  Si13  1  0.777181  0.000287  0.500000  1
  Si  Si14  1  0.331563  0.665782  0.500000  1
  Si  Si15  1  0.222819  0.999713  0.500000  1
  Si  Si16  1  0.668437  0.334218  0.500000  1
  Si  Si17  1  0.777181  0.776893  0.500000  1
  O  O18  1  0.000000  0.500000  0.000000  1
  O  O19  1  0.500000  0.500000  0.000000  1
  O  O20  1  0.500000  0.000000  0.000000  1
