# generated using pymatgen
data_Y4PdPt3F28
_symmetry_space_group_name_H-M   'P 1'
_cell_length_a   5.56434449
_cell_length_b   8.90409987
_cell_length_c   12.00915753
_cell_angle_alpha   62.42309398
_cell_angle_beta   90.02319045
_cell_angle_gamma   89.97839608
_symmetry_Int_Tables_number   1
_chemical_formula_structural   Y4PdPt3F28
_chemical_formula_sum   'Y4 Pd1 Pt3 F28'
_cell_volume   527.40156995
_cell_formula_units_Z   1
loop_
 _symmetry_equiv_pos_site_id
 _symmetry_equiv_pos_as_xyz
  1  'x, y, z'
loop_
 _atom_site_type_symbol
 _atom_site_label
 _atom_site_symmetry_multiplicity
 _atom_site_fract_x
 _atom_site_fract_y
 _atom_site_fract_z
 _atom_site_occupancy
  Y  Y0  1  0.261879  0.814115  0.264320  1
  Y  Y1  1  0.738371  0.185910  0.735256  1
  Y  Y2  1  0.761881  0.187375  0.235493  1
  Y  Y3  1  0.237486  0.814431  0.763798  1
  Pd  Pd4  1  0.758815  0.727497  0.043206  1
  Pt  Pt5  1  0.241339  0.272488  0.956854  1
  Pt  Pt6  1  0.259277  0.273199  0.456337  1
  Pt  Pt7  1  0.740718  0.727062  0.543582  1
  F  F8  1  0.932937  0.703653  0.415191  1
  F  F9  1  0.064735  0.296647  0.583915  1
  F  F10  1  0.435573  0.296692  0.084197  1
  F  F11  1  0.558383  0.703299  0.919681  1
  F  F12  1  0.473578  0.725247  0.137818  1
  F  F13  1  0.534038  0.273291  0.864949  1
  F  F14  1  0.966247  0.273902  0.364612  1
  F  F15  1  0.035180  0.726220  0.634534  1
  F  F16  1  0.954619  0.744282  0.172295  1
  F  F17  1  0.051569  0.253641  0.825128  1
  F  F18  1  0.448520  0.256229  0.323921  1
  F  F19  1  0.554013  0.743981  0.677120  1
  F  F20  1  0.773954  0.481089  0.141416  1
  F  F21  1  0.227691  0.521162  0.858298  1
  F  F22  1  0.270728  0.521762  0.358126  1
  F  F23  1  0.728406  0.478254  0.642286  1
  F  F24  1  0.941347  0.278682  0.042142  1
  F  F25  1  0.050601  0.719136  0.955734  1
  F  F26  1  0.440005  0.719678  0.459154  1
  F  F27  1  0.559265  0.280871  0.541062  1
  F  F28  1  0.743184  0.975502  0.450711  1
  F  F29  1  0.258244  0.024672  0.549156  1
  F  F30  1  0.245617  0.024238  0.050217  1
  F  F31  1  0.755037  0.973555  0.951013  1
  F  F32  1  0.585709  0.970042  0.233714  1
  F  F33  1  0.412990  0.031492  0.766577  1
  F  F34  1  0.085618  0.030114  0.268583  1
  F  F35  1  0.912442  0.970589  0.729610  1
