# generated using pymatgen
data_Li3Th12Zn9C4
_symmetry_space_group_name_H-M   'P 1'
_cell_length_a   9.51854494
_cell_length_b   9.53228547
_cell_length_c   9.51854400
_cell_angle_alpha   60.04767535
_cell_angle_beta   60.00000328
_cell_angle_gamma   60.04767025
_symmetry_Int_Tables_number   1
_chemical_formula_structural   Li3Th12Zn9C4
_chemical_formula_sum   'Li3 Th12 Zn9 C4'
_cell_volume   611.13295759
_cell_formula_units_Z   1
loop_
 _symmetry_equiv_pos_site_id
 _symmetry_equiv_pos_as_xyz
  1  'x, y, z'
loop_
 _atom_site_type_symbol
 _atom_site_label
 _atom_site_symmetry_multiplicity
 _atom_site_fract_x
 _atom_site_fract_y
 _atom_site_fract_z
 _atom_site_occupancy
  Li  Li0  1  0.625000  0.625000  0.125000  1
  Li  Li1  1  0.125000  0.625000  0.625000  1
  Li  Li2  1  0.625000  0.625000  0.625000  1
  Th  Th3  1  0.441615  0.441346  0.058520  1
  Th  Th4  1  0.058520  0.441346  0.058520  1
  Th  Th5  1  0.442546  0.061999  0.052910  1
  Th  Th6  1  0.052910  0.061999  0.442546  1
  Th  Th7  1  0.442546  0.061999  0.442546  1
  Th  Th8  1  0.058520  0.441346  0.441615  1
  Th  Th9  1  0.808385  0.808654  0.191480  1
  Th  Th10  1  0.191480  0.808654  0.191480  1
  Th  Th11  1  0.807454  0.188001  0.197090  1
  Th  Th12  1  0.197090  0.188001  0.807454  1
  Th  Th13  1  0.807454  0.188001  0.807454  1
  Th  Th14  1  0.191480  0.808654  0.808385  1
  Zn  Zn15  1  0.824792  0.827824  0.522592  1
  Zn  Zn16  1  0.826430  0.520710  0.826430  1
  Zn  Zn17  1  0.522592  0.827824  0.824792  1
  Zn  Zn18  1  0.824792  0.827824  0.824792  1
  Zn  Zn19  1  0.425208  0.422176  0.727408  1
  Zn  Zn20  1  0.423570  0.729290  0.423570  1
  Zn  Zn21  1  0.727408  0.422176  0.425208  1
  Zn  Zn22  1  0.425208  0.422176  0.425208  1
  Zn  Zn23  1  0.625000  0.125000  0.625000  1
  C  C24  1  0.125000  0.125000  0.625000  1
  C  C25  1  0.125000  0.625000  0.125000  1
  C  C26  1  0.625000  0.125000  0.125000  1
  C  C27  1  0.125000  0.125000  0.125000  1
