# generated using pymatgen
data_Rb4NpSnI12
_symmetry_space_group_name_H-M   'P 1'
_cell_length_a   8.24287600
_cell_length_b   8.24287600
_cell_length_c   12.47265100
_cell_angle_alpha   90.00000000
_cell_angle_beta   90.00000000
_cell_angle_gamma   90.00000000
_symmetry_Int_Tables_number   1
_chemical_formula_structural   Rb4NpSnI12
_chemical_formula_sum   'Rb4 Np1 Sn1 I12'
_cell_volume   847.45433146
_cell_formula_units_Z   1
loop_
 _symmetry_equiv_pos_site_id
 _symmetry_equiv_pos_as_xyz
  1  'x, y, z'
loop_
 _atom_site_type_symbol
 _atom_site_label
 _atom_site_symmetry_multiplicity
 _atom_site_fract_x
 _atom_site_fract_y
 _atom_site_fract_z
 _atom_site_occupancy
  Rb  Rb0  1  0.000000  0.500000  0.248663  1
  Rb  Rb1  1  0.500000  0.000000  0.248663  1
  Rb  Rb2  1  0.000000  0.500000  0.751337  1
  Rb  Rb3  1  0.500000  0.000000  0.751337  1
  Np  Np4  1  0.500000  0.500000  0.500000  1
  Sn  Sn5  1  0.000000  0.000000  0.000000  1
  I  I6  1  0.000000  0.000000  0.234410  1
  I  I7  1  0.500000  0.500000  0.258414  1
  I  I8  1  0.000000  0.000000  0.765589  1
  I  I9  1  0.500000  0.500000  0.741586  1
  I  I10  1  0.197535  0.293674  0.000000  1
  I  I11  1  0.706326  0.197535  0.000000  1
  I  I12  1  0.293674  0.802465  0.000000  1
  I  I13  1  0.700924  0.197080  0.500000  1
  I  I14  1  0.299076  0.802920  0.500000  1
  I  I15  1  0.802465  0.706326  0.000000  1
  I  I16  1  0.802920  0.700924  0.500000  1
  I  I17  1  0.197080  0.299076  0.500000  1
