# generated using pymatgen
data_Y2Tm4Ni20P13
_symmetry_space_group_name_H-M   'P 1'
_cell_length_a   12.61930081
_cell_length_b   12.63620636
_cell_length_c   3.73462100
_cell_angle_alpha   90.00000000
_cell_angle_beta   90.00000000
_cell_angle_gamma   120.23604545
_symmetry_Int_Tables_number   1
_chemical_formula_structural   Y2Tm4Ni20P13
_chemical_formula_sum   'Y2 Tm4 Ni20 P13'
_cell_volume   514.50696227
_cell_formula_units_Z   1
loop_
 _symmetry_equiv_pos_site_id
 _symmetry_equiv_pos_as_xyz
  1  'x, y, z'
loop_
 _atom_site_type_symbol
 _atom_site_label
 _atom_site_symmetry_multiplicity
 _atom_site_fract_x
 _atom_site_fract_y
 _atom_site_fract_z
 _atom_site_occupancy
  Y  Y0  1  0.717985  0.529407  0.000000  1
  Y  Y1  1  0.811275  0.281741  0.000000  1
  Tm  Tm2  1  0.470645  0.188525  0.000000  1
  Tm  Tm3  1  0.529084  0.811108  0.500000  1
  Tm  Tm4  1  0.281716  0.470488  0.500000  1
  Tm  Tm5  1  0.188888  0.718212  0.500000  1
  Ni  Ni6  1  0.333726  0.666777  0.000000  1
  Ni  Ni7  1  0.665158  0.332377  0.500000  1
  Ni  Ni8  1  0.196997  0.091913  0.000000  1
  Ni  Ni9  1  0.895829  0.804175  0.000000  1
  Ni  Ni10  1  0.908266  0.104176  0.000000  1
  Ni  Ni11  1  0.849039  0.927196  0.500000  1
  Ni  Ni12  1  0.078590  0.151479  0.500000  1
  Ni  Ni13  1  0.073430  0.921922  0.500000  1
  Ni  Ni14  1  0.436965  0.416908  0.000000  1
  Ni  Ni15  1  0.980533  0.562866  0.000000  1
  Ni  Ni16  1  0.581864  0.019764  0.000000  1
  Ni  Ni17  1  0.564223  0.586796  0.500000  1
  Ni  Ni18  1  0.022887  0.435572  0.500000  1
  Ni  Ni19  1  0.413115  0.978693  0.500000  1
  Ni  Ni20  1  0.079333  0.321341  0.000000  1
  Ni  Ni21  1  0.242421  0.920957  0.000000  1
  Ni  Ni22  1  0.678712  0.758330  0.000000  1
  Ni  Ni23  1  0.930628  0.682774  0.500000  1
  Ni  Ni24  1  0.751438  0.069283  0.500000  1
  Ni  Ni25  1  0.318221  0.247477  0.500000  1
  P  P26  1  0.234182  0.283939  0.000000  1
  P  P27  1  0.049793  0.765551  0.000000  1
  P  P28  1  0.715308  0.950372  0.000000  1
  P  P29  1  0.767800  0.720709  0.500000  1
  P  P30  1  0.952846  0.232155  0.500000  1
  P  P31  1  0.280859  0.048240  0.500000  1
  P  P32  1  0.475651  0.614577  0.000000  1
  P  P33  1  0.139023  0.524191  0.000000  1
  P  P34  1  0.385009  0.860754  0.000000  1
  P  P35  1  0.523478  0.385753  0.500000  1
  P  P36  1  0.862752  0.475865  0.500000  1
  P  P37  1  0.611958  0.137209  0.500000  1
  P  P38  1  0.000374  0.000430  0.000000  1
