# generated using pymatgen
data_La17Pr3Si15P
_symmetry_space_group_name_H-M   'P 1'
_cell_length_a   7.99355454
_cell_length_b   7.99538845
_cell_length_c   15.55518101
_cell_angle_alpha   89.89497509
_cell_angle_beta   89.74624817
_cell_angle_gamma   90.03444096
_symmetry_Int_Tables_number   1
_chemical_formula_structural   La17Pr3Si15P
_chemical_formula_sum   'La17 Pr3 Si15 P1'
_cell_volume   994.14449280
_cell_formula_units_Z   1
loop_
 _symmetry_equiv_pos_site_id
 _symmetry_equiv_pos_as_xyz
  1  'x, y, z'
loop_
 _atom_site_type_symbol
 _atom_site_label
 _atom_site_symmetry_multiplicity
 _atom_site_fract_x
 _atom_site_fract_y
 _atom_site_fract_z
 _atom_site_occupancy
  La  La0  1  0.312227  0.311040  0.999417  1
  La  La1  1  0.191642  0.807523  0.250188  1
  La  La2  1  0.805952  0.192774  0.750413  1
  La  La3  1  0.687970  0.687682  0.498744  1
  La  La4  1  0.381320  0.008827  0.444637  1
  La  La5  1  0.487762  0.880154  0.696812  1
  La  La6  1  0.511490  0.121476  0.196788  1
  La  La7  1  0.877991  0.487746  0.302770  1
  La  La8  1  0.122537  0.507860  0.801945  1
  La  La9  1  0.623183  0.988304  0.946794  1
  La  La10  1  0.009531  0.376895  0.553608  1
  La  La11  1  0.989311  0.620181  0.053256  1
  La  La12  1  0.128556  0.984618  0.874757  1
  La  La13  1  0.518942  0.627809  0.126672  1
  La  La14  1  0.476058  0.367716  0.627211  1
  La  La15  1  0.627975  0.518559  0.872961  1
  La  La16  1  0.370793  0.480173  0.374647  1
  Pr  Pr17  1  0.874869  0.017904  0.377210  1
  Pr  Pr18  1  0.981906  0.127171  0.123998  1
  Pr  Pr19  1  0.021603  0.879321  0.624075  1
  Si  Si20  1  0.330715  0.697918  0.952933  1
  Si  Si21  1  0.669624  0.301991  0.454147  1
  Si  Si22  1  0.699390  0.331424  0.047276  1
  Si  Si23  1  0.300676  0.669363  0.548421  1
  Si  Si24  1  0.805310  0.833504  0.203618  1
  Si  Si25  1  0.167388  0.194932  0.296199  1
  Si  Si26  1  0.834161  0.804103  0.794691  1
  Si  Si27  1  0.287102  0.921432  0.058771  1
  Si  Si28  1  0.581557  0.790143  0.309287  1
  Si  Si29  1  0.424313  0.209514  0.811248  1
  Si  Si30  1  0.790857  0.581944  0.688627  1
  Si  Si31  1  0.209104  0.419866  0.190698  1
  Si  Si32  1  0.710912  0.076601  0.559551  1
  Si  Si33  1  0.922505  0.287798  0.941314  1
  Si  Si34  1  0.077612  0.712815  0.442310  1
  P  P35  1  0.187157  0.172922  0.704010  1
