# generated using pymatgen
data_Sm3Co8ReP6
_symmetry_space_group_name_H-M   'P 1'
_cell_length_a   3.74415100
_cell_length_b   10.55117600
_cell_length_c   12.28849700
_cell_angle_alpha   90.00000000
_cell_angle_beta   90.00000000
_cell_angle_gamma   90.00000000
_symmetry_Int_Tables_number   1
_chemical_formula_structural   Sm3Co8ReP6
_chemical_formula_sum   'Sm6 Co16 Re2 P12'
_cell_volume   485.45948464
_cell_formula_units_Z   2
loop_
 _symmetry_equiv_pos_site_id
 _symmetry_equiv_pos_as_xyz
  1  'x, y, z'
loop_
 _atom_site_type_symbol
 _atom_site_label
 _atom_site_symmetry_multiplicity
 _atom_site_fract_x
 _atom_site_fract_y
 _atom_site_fract_z
 _atom_site_occupancy
  Sm  Sm0  1  0.000000  0.500000  0.523334  1
  Sm  Sm1  1  0.500000  0.000000  0.476666  1
  Sm  Sm2  1  0.500000  0.817689  0.205715  1
  Sm  Sm3  1  0.500000  0.182311  0.205715  1
  Sm  Sm4  1  0.000000  0.682311  0.794285  1
  Sm  Sm5  1  0.000000  0.317689  0.794285  1
  Co  Co6  1  0.500000  0.500000  0.703418  1
  Co  Co7  1  0.000000  0.000000  0.296582  1
  Co  Co8  1  0.000000  0.500000  0.988015  1
  Co  Co9  1  0.500000  0.000000  0.011985  1
  Co  Co10  1  0.500000  0.332358  0.991185  1
  Co  Co11  1  0.500000  0.667642  0.991185  1
  Co  Co12  1  0.000000  0.167642  0.008815  1
  Co  Co13  1  0.000000  0.832358  0.008815  1
  Co  Co14  1  0.500000  0.296539  0.430635  1
  Co  Co15  1  0.500000  0.703461  0.430635  1
  Co  Co16  1  0.000000  0.203461  0.569365  1
  Co  Co17  1  0.000000  0.796539  0.569365  1
  Co  Co18  1  0.500000  0.880598  0.709579  1
  Co  Co19  1  0.500000  0.119402  0.709579  1
  Co  Co20  1  0.000000  0.619402  0.290421  1
  Co  Co21  1  0.000000  0.380598  0.290421  1
  Re  Re22  1  0.500000  0.500000  0.155166  1
  Re  Re23  1  0.000000  0.000000  0.844834  1
  P  P24  1  0.500000  0.500000  0.882855  1
  P  P25  1  0.000000  0.000000  0.117145  1
  P  P26  1  0.500000  0.500000  0.346598  1
  P  P27  1  0.000000  0.000000  0.653402  1
  P  P28  1  0.500000  0.309254  0.615031  1
  P  P29  1  0.500000  0.690746  0.615031  1
  P  P30  1  0.000000  0.190746  0.384969  1
  P  P31  1  0.000000  0.809254  0.384969  1
  P  P32  1  0.500000  0.846869  0.893861  1
  P  P33  1  0.500000  0.153131  0.893861  1
  P  P34  1  0.000000  0.653131  0.106139  1
  P  P35  1  0.000000  0.346869  0.106139  1
