# generated using pymatgen
data_Yb12Al8Si9(GeO16)3
_symmetry_space_group_name_H-M   'P 1'
_cell_length_a   10.34212406
_cell_length_b   10.34004564
_cell_length_c   10.33939713
_cell_angle_alpha   109.46543522
_cell_angle_beta   109.48331762
_cell_angle_gamma   109.47472760
_symmetry_Int_Tables_number   1
_chemical_formula_structural   Yb12Al8Si9(GeO16)3
_chemical_formula_sum   'Yb12 Al8 Si9 Ge3 O48'
_cell_volume   851.04569770
_cell_formula_units_Z   1
loop_
 _symmetry_equiv_pos_site_id
 _symmetry_equiv_pos_as_xyz
  1  'x, y, z'
loop_
 _atom_site_type_symbol
 _atom_site_label
 _atom_site_symmetry_multiplicity
 _atom_site_fract_x
 _atom_site_fract_y
 _atom_site_fract_z
 _atom_site_occupancy
  Yb  Yb0  1  0.374242  0.750033  0.126112  1
  Yb  Yb1  1  0.249996  0.374979  0.125663  1
  Yb  Yb2  1  0.373343  0.123346  0.250549  1
  Yb  Yb3  1  0.876389  0.626367  0.248945  1
  Yb  Yb4  1  0.749908  0.125421  0.378298  1
  Yb  Yb5  1  0.127287  0.251355  0.378312  1
  Yb  Yb6  1  0.876006  0.751371  0.625185  1
  Yb  Yb7  1  0.249946  0.874938  0.624323  1
  Yb  Yb8  1  0.124993  0.375051  0.750721  1
  Yb  Yb9  1  0.623829  0.873844  0.747031  1
  Yb  Yb10  1  0.750039  0.623561  0.872633  1
  Yb  Yb11  1  0.623858  0.250087  0.872061  1
  Al  Al12  1  0.002875  0.998759  0.997876  1
  Al  Al13  1  0.494084  0.996281  0.996966  1
  Al  Al14  1  0.000496  0.502057  0.998981  1
  Al  Al15  1  0.498460  0.497838  0.996861  1
  Al  Al16  1  0.001824  0.001760  0.502916  1
  Al  Al17  1  0.497932  0.500151  0.501259  1
  Al  Al18  1  0.003942  0.503038  0.504652  1
  Al  Al19  1  0.500187  0.000069  0.500281  1
  Si  Si20  1  0.125998  0.875220  0.250578  1
  Si  Si21  1  0.250733  0.626005  0.375451  1
  Si  Si22  1  0.625018  0.750152  0.375135  1
  Si  Si23  1  0.749399  0.375260  0.624733  1
  Si  Si24  1  0.374374  0.248763  0.624429  1
  Si  Si25  1  0.875289  0.125857  0.750478  1
  Si  Si26  1  0.375207  0.624652  0.750523  1
  Si  Si27  1  0.249306  0.124552  0.874028  1
  Si  Si28  1  0.124477  0.748844  0.874417  1
  Ge  Ge29  1  0.875367  0.250119  0.124626  1
  Ge  Ge30  1  0.750609  0.875174  0.124768  1
  Ge  Ge31  1  0.624626  0.375837  0.251225  1
  O  O32  1  0.198728  0.112988  0.007739  1
  O  O33  1  0.308671  0.893366  0.008613  1
  O  O34  1  0.699244  0.677449  0.079616  1
  O  O35  1  0.882678  0.403917  0.080582  1
  O  O36  1  0.615890  0.416399  0.095578  1
  O  O37  1  0.993022  0.690831  0.104907  1
  O  O38  1  0.022149  0.198418  0.118574  1
  O  O39  1  0.595797  0.917158  0.117115  1
  O  O40  1  0.197858  0.583393  0.189222  1
  O  O41  1  0.492569  0.605395  0.188991  1
  O  O42  1  0.113551  0.007331  0.197257  1
  O  O43  1  0.580761  0.178010  0.198644  1
  O  O44  1  0.311718  0.916468  0.302852  1
  O  O45  1  0.477132  0.382041  0.301601  1
  O  O46  1  0.918154  0.302676  0.322639  1
  O  O47  1  0.904404  0.021618  0.322878  1
  O  O48  1  0.583015  0.894058  0.386356  1
  O  O49  1  0.302200  0.493033  0.387754  1
  O  O50  1  0.823324  0.522575  0.404157  1
  O  O51  1  0.083904  0.885943  0.394537  1
  O  O52  1  0.810774  0.804049  0.415836  1
  O  O53  1  0.106551  0.614059  0.416810  1
  O  O54  1  0.384897  0.301329  0.491542  1
  O  O55  1  0.605057  0.189534  0.492065  1
  O  O56  1  0.394870  0.811925  0.508986  1
  O  O57  1  0.614753  0.697113  0.508377  1
  O  O58  1  0.894671  0.387022  0.585281  1
  O  O59  1  0.190072  0.198190  0.585988  1
  O  O60  1  0.917916  0.115844  0.607384  1
  O  O61  1  0.189633  0.490783  0.607299  1
  O  O62  1  0.415574  0.104274  0.613379  1
  O  O63  1  0.696318  0.507787  0.611646  1
  O  O64  1  0.105053  0.990272  0.688275  1
  O  O65  1  0.085740  0.699072  0.690142  1
  O  O66  1  0.689461  0.083990  0.697420  1
  O  O67  1  0.508707  0.614129  0.698392  1
  O  O68  1  0.414896  0.809279  0.800891  1
  O  O69  1  0.886685  0.992328  0.801777  1
  O  O70  1  0.507762  0.393622  0.808732  1
  O  O71  1  0.802005  0.417398  0.810314  1
  O  O72  1  0.393377  0.083221  0.885133  1
  O  O73  1  0.990670  0.800435  0.883768  1
  O  O74  1  0.387006  0.584136  0.895672  1
  O  O75  1  0.007927  0.311648  0.895732  1
  O  O76  1  0.301212  0.310563  0.916326  1
  O  O77  1  0.114542  0.604600  0.915845  1
  O  O78  1  0.676776  0.095661  0.978944  1
  O  O79  1  0.802286  0.883924  0.978420  1
