# generated using pymatgen
data_CeTm9Tc4
_symmetry_space_group_name_H-M   'P 1'
_cell_length_a   8.43935153
_cell_length_b   8.41283454
_cell_length_c   7.35276693
_cell_angle_alpha   83.80753814
_cell_angle_beta   82.80114546
_cell_angle_gamma   43.29021945
_symmetry_Int_Tables_number   1
_chemical_formula_structural   CeTm9Tc4
_chemical_formula_sum   'Ce1 Tm9 Tc4'
_cell_volume   355.03032108
_cell_formula_units_Z   1
loop_
 _symmetry_equiv_pos_site_id
 _symmetry_equiv_pos_as_xyz
  1  'x, y, z'
loop_
 _atom_site_type_symbol
 _atom_site_label
 _atom_site_symmetry_multiplicity
 _atom_site_fract_x
 _atom_site_fract_y
 _atom_site_fract_z
 _atom_site_occupancy
  Ce  Ce0  1  0.005404  0.804488  0.898028  1
  Tm  Tm1  1  0.212886  0.974994  0.581634  1
  Tm  Tm2  1  0.973090  0.209687  0.079722  1
  Tm  Tm3  1  0.790199  0.032929  0.419680  1
  Tm  Tm4  1  0.365866  0.197793  0.820749  1
  Tm  Tm5  1  0.797138  0.630599  0.680703  1
  Tm  Tm6  1  0.638745  0.792392  0.189352  1
  Tm  Tm7  1  0.197852  0.363490  0.317621  1
  Tm  Tm8  1  0.579528  0.421608  0.753630  1
  Tm  Tm9  1  0.406893  0.590639  0.243360  1
  Tc  Tc10  1  0.161139  0.621182  0.601253  1
  Tc  Tc11  1  0.407534  0.821855  0.923375  1
  Tc  Tc12  1  0.811047  0.402124  0.422763  1
  Tc  Tc13  1  0.652679  0.136221  0.068132  1
