# generated using pymatgen
data_K4TlCu(ReH9)3
_symmetry_space_group_name_H-M   'P 1'
_cell_length_a   9.45988255
_cell_length_b   9.32556303
_cell_length_c   5.78393500
_cell_angle_alpha   90.00000000
_cell_angle_beta   90.00000000
_cell_angle_gamma   119.53141557
_symmetry_Int_Tables_number   1
_chemical_formula_structural   K4TlCu(ReH9)3
_chemical_formula_sum   'K4 Tl1 Cu1 Re3 H27'
_cell_volume   443.96238349
_cell_formula_units_Z   1
loop_
 _symmetry_equiv_pos_site_id
 _symmetry_equiv_pos_as_xyz
  1  'x, y, z'
loop_
 _atom_site_type_symbol
 _atom_site_label
 _atom_site_symmetry_multiplicity
 _atom_site_fract_x
 _atom_site_fract_y
 _atom_site_fract_z
 _atom_site_occupancy
  K  K0  1  0.748138  0.754659  0.500000  1
  K  K1  1  0.251862  0.006521  0.500000  1
  K  K2  1  0.372797  0.399167  0.000000  1
  K  K3  1  0.627203  0.026369  0.000000  1
  Tl  Tl4  1  0.000000  0.605361  0.000000  1
  Cu  Cu5  1  0.000000  0.442103  0.500000  1
  Re  Re6  1  0.684405  0.330182  0.500000  1
  Re  Re7  1  0.315595  0.645777  0.500000  1
  Re  Re8  1  0.000000  0.995470  0.000000  1
  H  H9  1  0.823078  0.316048  0.687449  1
  H  H10  1  0.693218  0.431977  0.746344  1
  H  H11  1  0.535429  0.208348  0.689713  1
  H  H12  1  0.176922  0.492970  0.312551  1
  H  H13  1  0.535429  0.208348  0.310287  1
  H  H14  1  0.823078  0.316048  0.312551  1
  H  H15  1  0.693218  0.431977  0.253656  1
  H  H16  1  0.306782  0.738760  0.746344  1
  H  H17  1  0.464571  0.672920  0.689713  1
  H  H18  1  0.185488  0.008144  0.000000  1
  H  H19  1  0.814512  0.822656  0.000000  1
  H  H20  1  0.000000  0.174859  0.000000  1
  H  H21  1  0.881288  0.009229  0.209516  1
  H  H22  1  0.118712  0.127941  0.790484  1
  H  H23  1  0.000000  0.863453  0.789533  1
  H  H24  1  0.000000  0.863453  0.210467  1
  H  H25  1  0.118712  0.127941  0.209516  1
  H  H26  1  0.881288  0.009229  0.790484  1
  H  H27  1  0.150347  0.677020  0.500000  1
  H  H28  1  0.455901  0.849553  0.500000  1
  H  H29  1  0.341913  0.480228  0.500000  1
  H  H30  1  0.544099  0.393652  0.500000  1
  H  H31  1  0.849653  0.526673  0.500000  1
  H  H32  1  0.658087  0.138315  0.500000  1
  H  H33  1  0.176922  0.492970  0.687449  1
  H  H34  1  0.306782  0.738760  0.253656  1
  H  H35  1  0.464571  0.672920  0.310287  1
