# generated using pymatgen
data_DyY11Tc4
_symmetry_space_group_name_H-M   'P 1'
_cell_length_a   6.27800951
_cell_length_b   7.48057563
_cell_length_c   9.22552802
_cell_angle_alpha   90.02127755
_cell_angle_beta   90.10431158
_cell_angle_gamma   89.93387979
_symmetry_Int_Tables_number   1
_chemical_formula_structural   DyY11Tc4
_chemical_formula_sum   'Dy1 Y11 Tc4'
_cell_volume   433.25858860
_cell_formula_units_Z   1
loop_
 _symmetry_equiv_pos_site_id
 _symmetry_equiv_pos_as_xyz
  1  'x, y, z'
loop_
 _atom_site_type_symbol
 _atom_site_label
 _atom_site_symmetry_multiplicity
 _atom_site_fract_x
 _atom_site_fract_y
 _atom_site_fract_z
 _atom_site_occupancy
  Dy  Dy0  1  0.338799  0.675046  0.436588  1
  Y  Y1  1  0.126905  0.457027  0.749648  1
  Y  Y2  1  0.661076  0.324821  0.936578  1
  Y  Y3  1  0.372317  0.957019  0.749769  1
  Y  Y4  1  0.872996  0.542748  0.250394  1
  Y  Y5  1  0.627249  0.042620  0.249876  1
  Y  Y6  1  0.161003  0.176122  0.436844  1
  Y  Y7  1  0.839424  0.824034  0.563145  1
  Y  Y8  1  0.161083  0.175931  0.062937  1
  Y  Y9  1  0.838303  0.823793  0.936956  1
  Y  Y10  1  0.661197  0.324265  0.562916  1
  Y  Y11  1  0.338557  0.675671  0.063187  1
  Tc  Tc12  1  0.540833  0.614596  0.749243  1
  Tc  Tc13  1  0.958422  0.114506  0.750304  1
  Tc  Tc14  1  0.043566  0.885095  0.250635  1
  Tc  Tc15  1  0.458268  0.386708  0.250980  1
