# generated using pymatgen
data_HoEr3(GaRu)4
_symmetry_space_group_name_H-M   'P 1'
_cell_length_a   4.49939700
_cell_length_b   7.08478461
_cell_length_c   7.15577648
_cell_angle_alpha   89.98986607
_cell_angle_beta   90.00000000
_cell_angle_gamma   90.00000000
_symmetry_Int_Tables_number   1
_chemical_formula_structural   HoEr3(GaRu)4
_chemical_formula_sum   'Ho1 Er3 Ga4 Ru4'
_cell_volume   228.10653380
_cell_formula_units_Z   1
loop_
 _symmetry_equiv_pos_site_id
 _symmetry_equiv_pos_as_xyz
  1  'x, y, z'
loop_
 _atom_site_type_symbol
 _atom_site_label
 _atom_site_symmetry_multiplicity
 _atom_site_fract_x
 _atom_site_fract_y
 _atom_site_fract_z
 _atom_site_occupancy
  Ho  Ho0  1  0.750000  0.803822  0.980538  1
  Er  Er1  1  0.250000  0.303146  0.519671  1
  Er  Er2  1  0.250000  0.197116  0.019780  1
  Er  Er3  1  0.750000  0.696727  0.480581  1
  Ga  Ga4  1  0.250000  0.893505  0.697685  1
  Ga  Ga5  1  0.250000  0.606052  0.198776  1
  Ga  Ga6  1  0.750000  0.106613  0.301824  1
  Ga  Ga7  1  0.750000  0.393321  0.801766  1
  Ru  Ru8  1  0.250000  0.937774  0.341245  1
  Ru  Ru9  1  0.250000  0.561816  0.841459  1
  Ru  Ru10  1  0.750000  0.062569  0.657931  1
  Ru  Ru11  1  0.750000  0.437540  0.158746  1
