# generated using pymatgen
data_SrAc2Sn5
_symmetry_space_group_name_H-M   'P 1'
_cell_length_a   6.88594487
_cell_length_b   6.88594319
_cell_length_c   10.95175300
_cell_angle_alpha   90.00000000
_cell_angle_beta   90.00000000
_cell_angle_gamma   101.90508277
_symmetry_Int_Tables_number   1
_chemical_formula_structural   SrAc2Sn5
_chemical_formula_sum   'Sr2 Ac4 Sn10'
_cell_volume   508.12119915
_cell_formula_units_Z   2
loop_
 _symmetry_equiv_pos_site_id
 _symmetry_equiv_pos_as_xyz
  1  'x, y, z'
loop_
 _atom_site_type_symbol
 _atom_site_label
 _atom_site_symmetry_multiplicity
 _atom_site_fract_x
 _atom_site_fract_y
 _atom_site_fract_z
 _atom_site_occupancy
  Sr  Sr0  1  0.636296  0.636296  0.250000  1
  Sr  Sr1  1  0.363704  0.363704  0.750000  1
  Ac  Ac2  1  0.201302  0.798698  0.500000  1
  Ac  Ac3  1  0.201302  0.798698  0.000000  1
  Ac  Ac4  1  0.798698  0.201302  0.500000  1
  Ac  Ac5  1  0.798698  0.201302  0.000000  1
  Sn  Sn6  1  0.031205  0.031205  0.250000  1
  Sn  Sn7  1  0.968795  0.968795  0.750000  1
  Sn  Sn8  1  0.317910  0.317910  0.048104  1
  Sn  Sn9  1  0.682090  0.682090  0.951896  1
  Sn  Sn10  1  0.317910  0.317910  0.451896  1
  Sn  Sn11  1  0.682090  0.682090  0.548104  1
  Sn  Sn12  1  0.488450  0.081329  0.250000  1
  Sn  Sn13  1  0.918671  0.511550  0.750000  1
  Sn  Sn14  1  0.511550  0.918671  0.750000  1
  Sn  Sn15  1  0.081329  0.488450  0.250000  1
