# generated using pymatgen
data_Y4OsWC4
_symmetry_space_group_name_H-M   'P 1'
_cell_length_a   5.12184300
_cell_length_b   6.61276612
_cell_length_c   9.93999430
_cell_angle_alpha   89.28788893
_cell_angle_beta   90.00000000
_cell_angle_gamma   90.00000000
_symmetry_Int_Tables_number   1
_chemical_formula_structural   Y4OsWC4
_chemical_formula_sum   'Y8 Os2 W2 C8'
_cell_volume   336.63713033
_cell_formula_units_Z   2
loop_
 _symmetry_equiv_pos_site_id
 _symmetry_equiv_pos_as_xyz
  1  'x, y, z'
loop_
 _atom_site_type_symbol
 _atom_site_label
 _atom_site_symmetry_multiplicity
 _atom_site_fract_x
 _atom_site_fract_y
 _atom_site_fract_z
 _atom_site_occupancy
  Y  Y0  1  0.250000  0.679511  0.556704  1
  Y  Y1  1  0.750000  0.320489  0.443296  1
  Y  Y2  1  0.750000  0.822092  0.057188  1
  Y  Y3  1  0.250000  0.177908  0.942812  1
  Y  Y4  1  0.250000  0.538091  0.218016  1
  Y  Y5  1  0.750000  0.461909  0.781984  1
  Y  Y6  1  0.750000  0.968931  0.717375  1
  Y  Y7  1  0.250000  0.031069  0.282625  1
  Os  Os8  1  0.750000  0.777679  0.365261  1
  Os  Os9  1  0.250000  0.222321  0.634739  1
  W  W10  1  0.250000  0.718450  0.866188  1
  W  W11  1  0.750000  0.281550  0.133812  1
  C  C12  1  0.250000  0.451844  0.758230  1
  C  C13  1  0.750000  0.548156  0.241770  1
  C  C14  1  0.750000  0.044409  0.260088  1
  C  C15  1  0.250000  0.955591  0.739912  1
  C  C16  1  0.250000  0.822903  0.051288  1
  C  C17  1  0.750000  0.177097  0.948712  1
  C  C18  1  0.750000  0.678800  0.546745  1
  C  C19  1  0.250000  0.321200  0.453255  1
