# generated using pymatgen
data_Dy4Sc4CuPt3
_symmetry_space_group_name_H-M   'P 1'
_cell_length_a   4.64297100
_cell_length_b   6.92483090
_cell_length_c   8.40237561
_cell_angle_alpha   89.42565811
_cell_angle_beta   90.00000000
_cell_angle_gamma   90.00000000
_symmetry_Int_Tables_number   1
_chemical_formula_structural   Dy4Sc4CuPt3
_chemical_formula_sum   'Dy4 Sc4 Cu1 Pt3'
_cell_volume   270.13783506
_cell_formula_units_Z   1
loop_
 _symmetry_equiv_pos_site_id
 _symmetry_equiv_pos_as_xyz
  1  'x, y, z'
loop_
 _atom_site_type_symbol
 _atom_site_label
 _atom_site_symmetry_multiplicity
 _atom_site_fract_x
 _atom_site_fract_y
 _atom_site_fract_z
 _atom_site_occupancy
  Dy  Dy0  1  0.250000  0.481492  0.176282  1
  Dy  Dy1  1  0.750000  0.517289  0.823827  1
  Dy  Dy2  1  0.750000  0.023026  0.678072  1
  Dy  Dy3  1  0.250000  0.981127  0.324548  1
  Sc  Sc4  1  0.250000  0.858676  0.926809  1
  Sc  Sc5  1  0.750000  0.138958  0.074464  1
  Sc  Sc6  1  0.750000  0.642807  0.422737  1
  Sc  Sc7  1  0.250000  0.359906  0.571673  1
  Cu  Cu8  1  0.250000  0.742070  0.602509  1
  Pt  Pt9  1  0.750000  0.255048  0.401922  1
  Pt  Pt10  1  0.750000  0.754321  0.096766  1
  Pt  Pt11  1  0.250000  0.245277  0.900391  1
