# generated using pymatgen
data_Tb17(NdRh4)3
_symmetry_space_group_name_H-M   'P 1'
_cell_length_a   10.95311557
_cell_length_b   10.95764196
_cell_length_c   6.39260700
_cell_angle_alpha   90.01273223
_cell_angle_beta   90.03065368
_cell_angle_gamma   90.04012455
_symmetry_Int_Tables_number   1
_chemical_formula_structural   Tb17(NdRh4)3
_chemical_formula_sum   'Tb17 Nd3 Rh12'
_cell_volume   767.24241263
_cell_formula_units_Z   1
loop_
 _symmetry_equiv_pos_site_id
 _symmetry_equiv_pos_as_xyz
  1  'x, y, z'
loop_
 _atom_site_type_symbol
 _atom_site_label
 _atom_site_symmetry_multiplicity
 _atom_site_fract_x
 _atom_site_fract_y
 _atom_site_fract_z
 _atom_site_occupancy
  Tb  Tb0  1  0.090648  0.291291  0.118394  1
  Tb  Tb1  1  0.791130  0.410411  0.118253  1
  Tb  Tb2  1  0.208872  0.591793  0.118746  1
  Tb  Tb3  1  0.911252  0.710036  0.119102  1
  Tb  Tb4  1  0.411241  0.791109  0.382424  1
  Tb  Tb5  1  0.588277  0.209012  0.381251  1
  Tb  Tb6  1  0.291077  0.088114  0.381394  1
  Tb  Tb7  1  0.708945  0.911897  0.382494  1
  Tb  Tb8  1  0.413078  0.207257  0.883869  1
  Tb  Tb9  1  0.707657  0.086396  0.883737  1
  Tb  Tb10  1  0.290477  0.911699  0.882686  1
  Tb  Tb11  1  0.586128  0.792469  0.883339  1
  Tb  Tb12  1  0.091662  0.709891  0.618908  1
  Tb  Tb13  1  0.000084  0.999985  0.999215  1
  Tb  Tb14  1  0.499406  0.500328  0.997826  1
  Tb  Tb15  1  0.500246  0.500526  0.495779  1
  Tb  Tb16  1  0.001032  0.998224  0.497195  1
  Nd  Nd17  1  0.907751  0.287105  0.621177  1
  Nd  Nd18  1  0.212465  0.409262  0.621189  1
  Nd  Nd19  1  0.788372  0.592953  0.621465  1
  Rh  Rh20  1  0.154578  0.845417  0.249944  1
  Rh  Rh21  1  0.346806  0.344884  0.244841  1
  Rh  Rh22  1  0.652927  0.655230  0.244095  1
  Rh  Rh23  1  0.844780  0.153023  0.244609  1
  Rh  Rh24  1  0.347938  0.657413  0.750966  1
  Rh  Rh25  1  0.157174  0.148469  0.753508  1
  Rh  Rh26  1  0.846630  0.849231  0.750460  1
  Rh  Rh27  1  0.648258  0.343011  0.753105  1
  Rh  Rh28  1  0.001018  0.502131  0.367415  1
  Rh  Rh29  1  0.499783  0.999548  0.129789  1
  Rh  Rh30  1  0.499400  0.999732  0.627055  1
  Rh  Rh31  1  0.000909  0.502153  0.875773  1
