# generated using pymatgen
data_Lu8GaPd23Pt
_symmetry_space_group_name_H-M   'P 1'
_cell_length_a   8.28262200
_cell_length_b   8.28090300
_cell_length_c   8.28373900
_cell_angle_alpha   90.00000000
_cell_angle_beta   90.00000000
_cell_angle_gamma   90.00000000
_symmetry_Int_Tables_number   1
_chemical_formula_structural   Lu8GaPd23Pt
_chemical_formula_sum   'Lu8 Ga1 Pd23 Pt1'
_cell_volume   568.16168896
_cell_formula_units_Z   1
loop_
 _symmetry_equiv_pos_site_id
 _symmetry_equiv_pos_as_xyz
  1  'x, y, z'
loop_
 _atom_site_type_symbol
 _atom_site_label
 _atom_site_symmetry_multiplicity
 _atom_site_fract_x
 _atom_site_fract_y
 _atom_site_fract_z
 _atom_site_occupancy
  Lu  Lu0  1  0.251149  0.252254  0.748179  1
  Lu  Lu1  1  0.251869  0.748259  0.251791  1
  Lu  Lu2  1  0.748131  0.251741  0.251791  1
  Lu  Lu3  1  0.748851  0.747746  0.748179  1
  Lu  Lu4  1  0.748131  0.748259  0.251791  1
  Lu  Lu5  1  0.748851  0.252254  0.748179  1
  Lu  Lu6  1  0.251149  0.747746  0.748179  1
  Lu  Lu7  1  0.251869  0.251741  0.251791  1
  Ga  Ga8  1  0.000000  0.000000  0.999888  1
  Pd  Pd9  1  0.500000  0.500000  0.747084  1
  Pd  Pd10  1  0.500000  0.252929  0.499853  1
  Pd  Pd11  1  0.252950  0.500000  0.500019  1
  Pd  Pd12  1  0.500000  0.500000  0.252929  1
  Pd  Pd13  1  0.500000  0.747071  0.499853  1
  Pd  Pd14  1  0.747050  0.500000  0.500019  1
  Pd  Pd15  1  0.000000  0.000000  0.708190  1
  Pd  Pd16  1  0.000000  0.291343  0.000455  1
  Pd  Pd17  1  0.291758  0.000000  0.999996  1
  Pd  Pd18  1  0.000000  0.000000  0.291568  1
  Pd  Pd19  1  0.000000  0.708657  0.000455  1
  Pd  Pd20  1  0.708242  0.000000  0.999996  1
  Pd  Pd21  1  0.500000  0.260299  0.000042  1
  Pd  Pd22  1  0.260333  0.000000  0.499953  1
  Pd  Pd23  1  0.000000  0.259961  0.499709  1
  Pd  Pd24  1  0.500000  0.000000  0.739596  1
  Pd  Pd25  1  0.260453  0.500000  0.000071  1
  Pd  Pd26  1  0.000000  0.500000  0.260316  1
  Pd  Pd27  1  0.500000  0.739701  0.000042  1
  Pd  Pd28  1  0.000000  0.740039  0.499709  1
  Pd  Pd29  1  0.500000  0.000000  0.260382  1
  Pd  Pd30  1  0.739667  0.000000  0.499953  1
  Pd  Pd31  1  0.739547  0.500000  0.000071  1
  Pt  Pt32  1  0.000000  0.500000  0.739966  1
