# generated using pymatgen
data_CsKAlCoH8
_symmetry_space_group_name_H-M   'P 1'
_cell_length_a   5.83807000
_cell_length_b   4.36038327
_cell_length_c   7.27995951
_cell_angle_alpha   91.91867198
_cell_angle_beta   114.65481667
_cell_angle_gamma   89.15562657
_symmetry_Int_Tables_number   1
_chemical_formula_structural   CsKAlCoH8
_chemical_formula_sum   'Cs1 K1 Al1 Co1 H8'
_cell_volume   168.33151037
_cell_formula_units_Z   1
loop_
 _symmetry_equiv_pos_site_id
 _symmetry_equiv_pos_as_xyz
  1  'x, y, z'
loop_
 _atom_site_type_symbol
 _atom_site_label
 _atom_site_symmetry_multiplicity
 _atom_site_fract_x
 _atom_site_fract_y
 _atom_site_fract_z
 _atom_site_occupancy
  Cs  Cs0  1  0.192716  0.680603  0.346246  1
  K  K1  1  0.874693  0.175504  0.743330  1
  Al  Al2  1  0.566506  0.170764  0.070407  1
  Co  Co3  1  0.395680  0.662239  0.920102  1
  H  H4  1  0.282123  0.912244  0.008265  1
  H  H5  1  0.871149  0.165467  0.113043  1
  H  H6  1  0.272887  0.436873  0.007624  1
  H  H7  1  0.505209  0.883559  0.819917  1
  H  H8  1  0.143863  0.669341  0.730935  1
  H  H9  1  0.609104  0.180072  0.318139  1
  H  H10  1  0.475928  0.406134  0.811294  1
  H  H11  1  0.640797  0.657200  0.110695  1
