# generated using pymatgen
data_GeTe28
_symmetry_space_group_name_H-M   'P 1'
_cell_length_a   12.07044839
_cell_length_b   10.81983923
_cell_length_c   12.67756400
_cell_angle_alpha   115.00825248
_cell_angle_beta   124.68022695
_cell_angle_gamma   88.22720311
_symmetry_Int_Tables_number   1
_chemical_formula_structural   GeTe28
_chemical_formula_sum   'Ge1 Te28'
_cell_volume   1184.08520647
_cell_formula_units_Z   1
loop_
 _symmetry_equiv_pos_site_id
 _symmetry_equiv_pos_as_xyz
  1  'x, y, z'
loop_
 _atom_site_type_symbol
 _atom_site_label
 _atom_site_symmetry_multiplicity
 _atom_site_fract_x
 _atom_site_fract_y
 _atom_site_fract_z
 _atom_site_occupancy
  Ge  Ge0  1  0.500000  0.000000  0.000000  1
  Te  Te1  1  0.234958  0.106817  0.411105  1
  Te  Te2  1  0.600068  0.146901  0.414428  1
  Te  Te3  1  0.267431  0.255166  0.904487  1
  Te  Te4  1  0.909607  0.304659  0.898696  1
  Te  Te5  1  0.210580  0.555296  0.728883  1
  Te  Te6  1  0.807513  0.521891  0.626681  1
  Te  Te7  1  0.399932  0.853099  0.585572  1
  Te  Te8  1  0.765042  0.893183  0.588895  1
  Te  Te9  1  0.090393  0.695341  0.101304  1
  Te  Te10  1  0.732569  0.744834  0.095513  1
  Te  Te11  1  0.192487  0.478109  0.373319  1
  Te  Te12  1  0.789420  0.444704  0.271117  1
  Te  Te13  1  0.755940  0.079472  0.855828  1
  Te  Te14  1  0.238647  0.971597  0.742164  1
  Te  Te15  1  0.811759  0.681249  0.895475  1
  Te  Te16  1  0.392507  0.780083  0.032807  1
  Te  Te17  1  0.512013  0.254586  0.216948  1
  Te  Te18  1  0.035433  0.274417  0.359405  1
  Te  Te19  1  0.761353  0.028403  0.257836  1
  Te  Te20  1  0.244060  0.920528  0.144172  1
  Te  Te21  1  0.607493  0.219917  0.967193  1
  Te  Te22  1  0.188241  0.318751  0.104525  1
  Te  Te23  1  0.964567  0.725583  0.640595  1
  Te  Te24  1  0.487987  0.745414  0.783052  1
  Te  Te25  1  0.033390  0.389123  0.729819  1
  Te  Te26  1  0.497930  0.293316  0.571084  1
  Te  Te27  1  0.502070  0.706684  0.428916  1
  Te  Te28  1  0.966610  0.610877  0.270181  1
