# generated using pymatgen
data_HgBi3Ru3RhO14
_symmetry_space_group_name_H-M   'P 1'
_cell_length_a   7.41981947
_cell_length_b   7.24230178
_cell_length_c   7.41982000
_cell_angle_alpha   59.18580547
_cell_angle_beta   59.99999764
_cell_angle_gamma   59.18580096
_symmetry_Int_Tables_number   1
_chemical_formula_structural   HgBi3Ru3RhO14
_chemical_formula_sum   'Hg1 Bi3 Ru3 Rh1 O14'
_cell_volume   278.41494649
_cell_formula_units_Z   1
loop_
 _symmetry_equiv_pos_site_id
 _symmetry_equiv_pos_as_xyz
  1  'x, y, z'
loop_
 _atom_site_type_symbol
 _atom_site_label
 _atom_site_symmetry_multiplicity
 _atom_site_fract_x
 _atom_site_fract_y
 _atom_site_fract_z
 _atom_site_occupancy
  Hg  Hg0  1  0.125000  0.625000  0.125000  1
  Bi  Bi1  1  0.125000  0.125000  0.125000  1
  Bi  Bi2  1  0.625000  0.125000  0.125000  1
  Bi  Bi3  1  0.125000  0.125000  0.625000  1
  Ru  Ru4  1  0.625000  0.625000  0.625000  1
  Ru  Ru5  1  0.625000  0.625000  0.125000  1
  Ru  Ru6  1  0.125000  0.625000  0.625000  1
  Rh  Rh7  1  0.625000  0.125000  0.625000  1
  O  O8  1  0.244366  0.266903  0.244366  1
  O  O9  1  0.305320  0.703510  0.305320  1
  O  O10  1  0.958233  0.958729  0.541520  1
  O  O11  1  0.541520  0.958729  0.541520  1
  O  O12  1  0.685849  0.703510  0.305320  1
  O  O13  1  0.944680  0.546490  0.564151  1
  O  O14  1  0.708480  0.291271  0.708480  1
  O  O15  1  0.291767  0.291271  0.708480  1
  O  O16  1  0.708480  0.291271  0.291767  1
  O  O17  1  0.305320  0.703510  0.685849  1
  O  O18  1  0.944680  0.546490  0.944680  1
  O  O19  1  0.564151  0.546490  0.944680  1
  O  O20  1  0.005634  0.983097  0.005634  1
  O  O21  1  0.541520  0.958729  0.958233  1
