# generated using pymatgen
data_DyYSi2NiRu
_symmetry_space_group_name_H-M   'P 1'
_cell_length_a   4.26209800
_cell_length_b   6.96304209
_cell_length_c   7.14846913
_cell_angle_alpha   91.38947819
_cell_angle_beta   90.00000000
_cell_angle_gamma   90.00000000
_symmetry_Int_Tables_number   1
_chemical_formula_structural   DyYSi2NiRu
_chemical_formula_sum   'Dy2 Y2 Si4 Ni2 Ru2'
_cell_volume   212.08393814
_cell_formula_units_Z   2
loop_
 _symmetry_equiv_pos_site_id
 _symmetry_equiv_pos_as_xyz
  1  'x, y, z'
loop_
 _atom_site_type_symbol
 _atom_site_label
 _atom_site_symmetry_multiplicity
 _atom_site_fract_x
 _atom_site_fract_y
 _atom_site_fract_z
 _atom_site_occupancy
  Dy  Dy0  1  0.250000  0.487055  0.681279  1
  Dy  Dy1  1  0.750000  0.512945  0.318721  1
  Y  Y2  1  0.250000  0.988905  0.800321  1
  Y  Y3  1  0.750000  0.011095  0.199679  1
  Si  Si4  1  0.250000  0.301820  0.099415  1
  Si  Si5  1  0.750000  0.698180  0.900585  1
  Si  Si6  1  0.250000  0.805367  0.396418  1
  Si  Si7  1  0.750000  0.194633  0.603582  1
  Ni  Ni8  1  0.750000  0.837022  0.574873  1
  Ni  Ni9  1  0.250000  0.162978  0.425127  1
  Ru  Ru10  1  0.750000  0.346356  0.930433  1
  Ru  Ru11  1  0.250000  0.653644  0.069567  1
