# generated using pymatgen
data_Tb4Tm6Sn5Sb3
_symmetry_space_group_name_H-M   'P 1'
_cell_length_a   8.05533900
_cell_length_b   8.08837131
_cell_length_c   15.23461861
_cell_angle_alpha   90.17405593
_cell_angle_beta   90.00000000
_cell_angle_gamma   90.00000000
_symmetry_Int_Tables_number   1
_chemical_formula_structural   Tb4Tm6Sn5Sb3
_chemical_formula_sum   'Tb8 Tm12 Sn10 Sb6'
_cell_volume   992.60048826
_cell_formula_units_Z   2
loop_
 _symmetry_equiv_pos_site_id
 _symmetry_equiv_pos_as_xyz
  1  'x, y, z'
loop_
 _atom_site_type_symbol
 _atom_site_label
 _atom_site_symmetry_multiplicity
 _atom_site_fract_x
 _atom_site_fract_y
 _atom_site_fract_z
 _atom_site_occupancy
  Tb  Tb0  1  0.532363  0.325873  0.899495  1
  Tb  Tb1  1  0.032363  0.174127  0.600505  1
  Tb  Tb2  1  0.469256  0.677879  0.399054  1
  Tb  Tb3  1  0.969256  0.822121  0.100946  1
  Tb  Tb4  1  0.472653  0.674512  0.100153  1
  Tb  Tb5  1  0.972653  0.825488  0.399847  1
  Tb  Tb6  1  0.527618  0.320465  0.599917  1
  Tb  Tb7  1  0.027618  0.179535  0.900083  1
  Tm  Tm8  1  0.368512  0.840576  0.876403  1
  Tm  Tm9  1  0.868512  0.659424  0.623597  1
  Tm  Tm10  1  0.629619  0.159289  0.376039  1
  Tm  Tm11  1  0.129619  0.340711  0.123961  1
  Tm  Tm12  1  0.632132  0.161031  0.123303  1
  Tm  Tm13  1  0.132132  0.338969  0.376697  1
  Tm  Tm14  1  0.367700  0.840879  0.623971  1
  Tm  Tm15  1  0.867700  0.659121  0.876029  1
  Tm  Tm16  1  0.198240  0.501017  0.749666  1
  Tm  Tm17  1  0.698240  0.998983  0.750334  1
  Tm  Tm18  1  0.802066  0.498481  0.248964  1
  Tm  Tm19  1  0.302066  0.001519  0.251036  1
  Sn  Sn20  1  0.288941  0.035254  0.457851  1
  Sn  Sn21  1  0.788941  0.464746  0.042149  1
  Sn  Sn22  1  0.563456  0.622878  0.749458  1
  Sn  Sn23  1  0.063456  0.877122  0.750542  1
  Sn  Sn24  1  0.435850  0.377174  0.250095  1
  Sn  Sn25  1  0.935850  0.122826  0.249905  1
  Sn  Sn26  1  0.336457  0.148099  0.750742  1
  Sn  Sn27  1  0.836457  0.351901  0.749258  1
  Sn  Sn28  1  0.664495  0.852413  0.249909  1
  Sn  Sn29  1  0.164495  0.647587  0.250091  1
  Sb  Sb30  1  0.285556  0.034515  0.043391  1
  Sb  Sb31  1  0.785556  0.465485  0.456609  1
  Sb  Sb32  1  0.711920  0.964541  0.543171  1
  Sb  Sb33  1  0.211920  0.535459  0.956829  1
  Sb  Sb34  1  0.713168  0.965588  0.956266  1
  Sb  Sb35  1  0.213168  0.534412  0.543734  1
