# generated using pymatgen
data_Pr2PSe
_symmetry_space_group_name_H-M   'P 1'
_cell_length_a   7.40132804
_cell_length_b   7.40132787
_cell_length_c   7.40132775
_cell_angle_alpha   33.15750113
_cell_angle_beta   33.15749888
_cell_angle_gamma   33.15750341
_symmetry_Int_Tables_number   1
_chemical_formula_structural   Pr2PSe
_chemical_formula_sum   'Pr2 P1 Se1'
_cell_volume   107.96203843
_cell_formula_units_Z   1
loop_
 _symmetry_equiv_pos_site_id
 _symmetry_equiv_pos_as_xyz
  1  'x, y, z'
loop_
 _atom_site_type_symbol
 _atom_site_label
 _atom_site_symmetry_multiplicity
 _atom_site_fract_x
 _atom_site_fract_y
 _atom_site_fract_z
 _atom_site_occupancy
  Pr  Pr0  1  0.256638  0.256638  0.256638  1
  Pr  Pr1  1  0.743362  0.743362  0.743362  1
  P  P2  1  0.000000  0.000000  0.000000  1
  Se  Se3  1  0.500000  0.500000  0.500000  1
