# generated using pymatgen
data_Nb6Ga4ReRhC2
_symmetry_space_group_name_H-M   'P 1'
_cell_length_a   8.35780941
_cell_length_b   8.33399801
_cell_length_c   8.35780274
_cell_angle_alpha   60.09418588
_cell_angle_beta   60.25793538
_cell_angle_gamma   60.09420901
_symmetry_Int_Tables_number   1
_chemical_formula_structural   Nb6Ga4ReRhC2
_chemical_formula_sum   'Nb12 Ga8 Re2 Rh2 C4'
_cell_volume   413.03011124
_cell_formula_units_Z   2
loop_
 _symmetry_equiv_pos_site_id
 _symmetry_equiv_pos_as_xyz
  1  'x, y, z'
loop_
 _atom_site_type_symbol
 _atom_site_label
 _atom_site_symmetry_multiplicity
 _atom_site_fract_x
 _atom_site_fract_y
 _atom_site_fract_z
 _atom_site_occupancy
  Nb  Nb0  1  0.807067  0.805538  0.186588  1
  Nb  Nb1  1  0.186591  0.200805  0.807068  1
  Nb  Nb2  1  0.811492  0.188507  0.811491  1
  Nb  Nb3  1  0.199427  0.800571  0.199428  1
  Nb  Nb4  1  0.186592  0.805536  0.807065  1
  Nb  Nb5  1  0.807068  0.200808  0.186589  1
  Nb  Nb6  1  0.442933  0.444462  0.063412  1
  Nb  Nb7  1  0.063409  0.049195  0.442932  1
  Nb  Nb8  1  0.438508  0.061493  0.438509  1
  Nb  Nb9  1  0.050573  0.449429  0.050572  1
  Nb  Nb10  1  0.063408  0.444464  0.442935  1
  Nb  Nb11  1  0.442932  0.049192  0.063411  1
  Ga  Ga12  1  0.763940  0.409090  0.417884  1
  Ga  Ga13  1  0.417659  0.756060  0.417662  1
  Ga  Ga14  1  0.417885  0.409088  0.763940  1
  Ga  Ga15  1  0.417660  0.408620  0.417660  1
  Ga  Ga16  1  0.486060  0.840910  0.832116  1
  Ga  Ga17  1  0.832341  0.493940  0.832338  1
  Ga  Ga18  1  0.832115  0.840912  0.486060  1
  Ga  Ga19  1  0.832340  0.841380  0.832340  1
  Re  Re20  1  0.125000  0.625000  0.625000  1
  Re  Re21  1  0.625000  0.625000  0.125000  1
  Rh  Rh22  1  0.625000  0.125000  0.625000  1
  Rh  Rh23  1  0.625000  0.625000  0.625000  1
  C  C24  1  0.625000  0.125000  0.125000  1
  C  C25  1  0.125000  0.625000  0.125000  1
  C  C26  1  0.125000  0.125000  0.625000  1
  C  C27  1  0.125000  0.125000  0.125000  1
