# generated using pymatgen
data_Lu4Sc(CoTe)2
_symmetry_space_group_name_H-M   'P 1'
_cell_length_a   7.52685556
_cell_length_b   7.52685691
_cell_length_c   14.63318100
_cell_angle_alpha   90.00000000
_cell_angle_beta   90.00000000
_cell_angle_gamma   149.90543405
_symmetry_Int_Tables_number   1
_chemical_formula_structural   Lu4Sc(CoTe)2
_chemical_formula_sum   'Lu8 Sc2 Co4 Te4'
_cell_volume   415.69534247
_cell_formula_units_Z   2
loop_
 _symmetry_equiv_pos_site_id
 _symmetry_equiv_pos_as_xyz
  1  'x, y, z'
loop_
 _atom_site_type_symbol
 _atom_site_label
 _atom_site_symmetry_multiplicity
 _atom_site_fract_x
 _atom_site_fract_y
 _atom_site_fract_z
 _atom_site_occupancy
  Lu  Lu0  1  0.742776  0.257224  0.634283  1
  Lu  Lu1  1  0.963679  0.036321  0.129752  1
  Lu  Lu2  1  0.036321  0.963679  0.870248  1
  Lu  Lu3  1  0.963679  0.036321  0.370248  1
  Lu  Lu4  1  0.036321  0.963679  0.629752  1
  Lu  Lu5  1  0.257224  0.742776  0.134283  1
  Lu  Lu6  1  0.257224  0.742776  0.365717  1
  Lu  Lu7  1  0.742776  0.257224  0.865717  1
  Sc  Sc8  1  0.606523  0.393477  0.250000  1
  Sc  Sc9  1  0.393477  0.606523  0.750000  1
  Co  Co10  1  0.415720  0.584280  0.250000  1
  Co  Co11  1  0.584280  0.415720  0.750000  1
  Co  Co12  1  0.817004  0.182996  0.250000  1
  Co  Co13  1  0.182996  0.817004  0.750000  1
  Te  Te14  1  0.619266  0.380734  0.039174  1
  Te  Te15  1  0.619266  0.380734  0.460826  1
  Te  Te16  1  0.380734  0.619266  0.539174  1
  Te  Te17  1  0.380734  0.619266  0.960826  1
