# generated using pymatgen
data_Ba20Si8Bi3Pb
_symmetry_space_group_name_H-M   'P 1'
_cell_length_a   8.69579400
_cell_length_b   8.69579400
_cell_length_c   17.12403200
_cell_angle_alpha   90.00000000
_cell_angle_beta   90.00000000
_cell_angle_gamma   90.00000000
_symmetry_Int_Tables_number   1
_chemical_formula_structural   Ba20Si8Bi3Pb
_chemical_formula_sum   'Ba20 Si8 Bi3 Pb1'
_cell_volume   1294.86507300
_cell_formula_units_Z   1
loop_
 _symmetry_equiv_pos_site_id
 _symmetry_equiv_pos_as_xyz
  1  'x, y, z'
loop_
 _atom_site_type_symbol
 _atom_site_label
 _atom_site_symmetry_multiplicity
 _atom_site_fract_x
 _atom_site_fract_y
 _atom_site_fract_z
 _atom_site_occupancy
  Ba  Ba0  1  0.314459  0.667098  0.113092  1
  Ba  Ba1  1  0.167098  0.185541  0.113092  1
  Ba  Ba2  1  0.500000  0.000000  0.731969  1
  Ba  Ba3  1  0.332758  0.684264  0.386944  1
  Ba  Ba4  1  0.667852  0.684475  0.886828  1
  Ba  Ba5  1  0.184264  0.167242  0.386944  1
  Ba  Ba6  1  0.667242  0.315736  0.386944  1
  Ba  Ba7  1  0.166935  0.815616  0.613099  1
  Ba  Ba8  1  0.332148  0.315525  0.886828  1
  Ba  Ba9  1  0.184475  0.832148  0.886828  1
  Ba  Ba10  1  0.500000  0.000000  0.230929  1
  Ba  Ba11  1  0.833065  0.184384  0.613099  1
  Ba  Ba12  1  0.315616  0.333065  0.613099  1
  Ba  Ba13  1  0.815736  0.832758  0.386944  1
  Ba  Ba14  1  0.815525  0.167852  0.886828  1
  Ba  Ba15  1  0.832902  0.814459  0.113092  1
  Ba  Ba16  1  0.000000  0.500000  0.266983  1
  Ba  Ba17  1  0.000000  0.500000  0.769885  1
  Ba  Ba18  1  0.685541  0.332902  0.113092  1
  Ba  Ba19  1  0.684384  0.666935  0.613099  1
  Si  Si20  1  0.102146  0.101770  0.749069  1
  Si  Si21  1  0.398230  0.602146  0.749069  1
  Si  Si22  1  0.602117  0.602126  0.250902  1
  Si  Si23  1  0.102126  0.897883  0.250902  1
  Si  Si24  1  0.601770  0.397854  0.749069  1
  Si  Si25  1  0.897854  0.898230  0.749069  1
  Si  Si26  1  0.397883  0.397874  0.250902  1
  Si  Si27  1  0.897874  0.102117  0.250902  1
  Bi  Bi28  1  0.500000  0.000000  0.010098  1
  Bi  Bi29  1  0.500000  0.000000  0.510200  1
  Bi  Bi30  1  0.000000  0.500000  0.489625  1
  Pb  Pb31  1  0.000000  0.500000  0.990577  1
