# generated using pymatgen
data_Nd12Os2PdRh
_symmetry_space_group_name_H-M   'P 1'
_cell_length_a   6.52845605
_cell_length_b   7.49391609
_cell_length_c   9.80952200
_cell_angle_alpha   90.00000000
_cell_angle_beta   90.00000000
_cell_angle_gamma   90.74272314
_symmetry_Int_Tables_number   1
_chemical_formula_structural   Nd12Os2PdRh
_chemical_formula_sum   'Nd12 Os2 Pd1 Rh1'
_cell_volume   479.87780772
_cell_formula_units_Z   1
loop_
 _symmetry_equiv_pos_site_id
 _symmetry_equiv_pos_as_xyz
  1  'x, y, z'
loop_
 _atom_site_type_symbol
 _atom_site_label
 _atom_site_symmetry_multiplicity
 _atom_site_fract_x
 _atom_site_fract_y
 _atom_site_fract_z
 _atom_site_occupancy
  Nd  Nd0  1  0.338356  0.671821  0.061414  1
  Nd  Nd1  1  0.169333  0.185476  0.435638  1
  Nd  Nd2  1  0.668446  0.323627  0.564895  1
  Nd  Nd3  1  0.829574  0.821258  0.931154  1
  Nd  Nd4  1  0.668446  0.323627  0.935105  1
  Nd  Nd5  1  0.829574  0.821258  0.568846  1
  Nd  Nd6  1  0.338356  0.671821  0.438586  1
  Nd  Nd7  1  0.169333  0.185476  0.064362  1
  Nd  Nd8  1  0.854581  0.527054  0.250000  1
  Nd  Nd9  1  0.633392  0.041387  0.250000  1
  Nd  Nd10  1  0.140387  0.466428  0.750000  1
  Nd  Nd11  1  0.358487  0.959281  0.750000  1
  Os  Os12  1  0.440602  0.382106  0.250000  1
  Os  Os13  1  0.555690  0.617212  0.750000  1
  Pd  Pd14  1  0.069148  0.883742  0.250000  1
  Rh  Rh15  1  0.936296  0.118424  0.750000  1
