# generated using pymatgen
data_Ac8ErPt6
_symmetry_space_group_name_H-M   'P 1'
_cell_length_a   8.08065842
_cell_length_b   8.08065800
_cell_length_c   8.08065761
_cell_angle_alpha   71.86238993
_cell_angle_beta   71.86239045
_cell_angle_gamma   71.86239637
_symmetry_Int_Tables_number   1
_chemical_formula_structural   Ac8ErPt6
_chemical_formula_sum   'Ac8 Er1 Pt6'
_cell_volume   462.88798145
_cell_formula_units_Z   1
loop_
 _symmetry_equiv_pos_site_id
 _symmetry_equiv_pos_as_xyz
  1  'x, y, z'
loop_
 _atom_site_type_symbol
 _atom_site_label
 _atom_site_symmetry_multiplicity
 _atom_site_fract_x
 _atom_site_fract_y
 _atom_site_fract_z
 _atom_site_occupancy
  Ac  Ac0  1  0.802500  0.802500  0.802500  1
  Ac  Ac1  1  0.197500  0.197500  0.197500  1
  Ac  Ac2  1  0.322515  0.614307  0.840273  1
  Ac  Ac3  1  0.840273  0.322515  0.614307  1
  Ac  Ac4  1  0.614307  0.840273  0.322515  1
  Ac  Ac5  1  0.677485  0.385693  0.159727  1
  Ac  Ac6  1  0.159727  0.677485  0.385693  1
  Ac  Ac7  1  0.385693  0.159727  0.677485  1
  Er  Er8  1  0.000000  0.000000  0.000000  1
  Pt  Pt9  1  0.156196  0.962023  0.603307  1
  Pt  Pt10  1  0.603307  0.156196  0.962023  1
  Pt  Pt11  1  0.962023  0.603307  0.156196  1
  Pt  Pt12  1  0.843804  0.037977  0.396693  1
  Pt  Pt13  1  0.396693  0.843804  0.037977  1
  Pt  Pt14  1  0.037977  0.396693  0.843804  1
