# generated using pymatgen
data_Dy3YFe5Os3
_symmetry_space_group_name_H-M   'P 1'
_cell_length_a   5.26149959
_cell_length_b   5.23665935
_cell_length_c   9.05143913
_cell_angle_alpha   72.92421704
_cell_angle_beta   90.61472729
_cell_angle_gamma   120.19786574
_symmetry_Int_Tables_number   1
_chemical_formula_structural   Dy3YFe5Os3
_chemical_formula_sum   'Dy3 Y1 Fe5 Os3'
_cell_volume   203.19434283
_cell_formula_units_Z   1
loop_
 _symmetry_equiv_pos_site_id
 _symmetry_equiv_pos_as_xyz
  1  'x, y, z'
loop_
 _atom_site_type_symbol
 _atom_site_label
 _atom_site_symmetry_multiplicity
 _atom_site_fract_x
 _atom_site_fract_y
 _atom_site_fract_z
 _atom_site_occupancy
  Dy  Dy0  1  0.375755  0.749778  0.873611  1
  Dy  Dy1  1  0.998618  0.999229  0.998871  1
  Dy  Dy2  1  0.499157  0.000244  0.501393  1
  Y  Y3  1  0.876333  0.750834  0.376142  1
  Fe  Fe4  1  0.937471  0.874790  0.687929  1
  Fe  Fe5  1  0.184255  0.369712  0.443828  1
  Fe  Fe6  1  0.690802  0.380300  0.931304  1
  Fe  Fe7  1  0.937499  0.375297  0.187021  1
  Fe  Fe8  1  0.437350  0.374625  0.687962  1
  Os  Os9  1  0.437541  0.375488  0.187022  1
  Os  Os10  1  0.937655  0.374476  0.687901  1
  Os  Os11  1  0.437561  0.875226  0.187014  1
