# generated using pymatgen
data_ErTm11(Si3Pt)4
_symmetry_space_group_name_H-M   'P 1'
_cell_length_a   4.19595500
_cell_length_b   10.56533975
_cell_length_c   12.19195500
_cell_angle_alpha   90.02154556
_cell_angle_beta   90.00000000
_cell_angle_gamma   90.00000000
_symmetry_Int_Tables_number   1
_chemical_formula_structural   ErTm11(Si3Pt)4
_chemical_formula_sum   'Er1 Tm11 Si12 Pt4'
_cell_volume   540.48993302
_cell_formula_units_Z   1
loop_
 _symmetry_equiv_pos_site_id
 _symmetry_equiv_pos_as_xyz
  1  'x, y, z'
loop_
 _atom_site_type_symbol
 _atom_site_label
 _atom_site_symmetry_multiplicity
 _atom_site_fract_x
 _atom_site_fract_y
 _atom_site_fract_z
 _atom_site_occupancy
  Er  Er0  1  0.750000  0.160359  0.698631  1
  Tm  Tm1  1  0.250000  0.878459  0.021005  1
  Tm  Tm2  1  0.250000  0.621506  0.520805  1
  Tm  Tm3  1  0.750000  0.121579  0.979261  1
  Tm  Tm4  1  0.750000  0.378585  0.479030  1
  Tm  Tm5  1  0.250000  0.919734  0.600931  1
  Tm  Tm6  1  0.250000  0.580035  0.101045  1
  Tm  Tm7  1  0.750000  0.080044  0.398885  1
  Tm  Tm8  1  0.750000  0.420173  0.899136  1
  Tm  Tm9  1  0.250000  0.660918  0.801198  1
  Tm  Tm10  1  0.250000  0.839232  0.301171  1
  Tm  Tm11  1  0.750000  0.338901  0.198829  1
  Si  Si12  1  0.250000  0.016385  0.823551  1
  Si  Si13  1  0.250000  0.483317  0.323221  1
  Si  Si14  1  0.750000  0.983424  0.176701  1
  Si  Si15  1  0.750000  0.516655  0.676729  1
  Si  Si16  1  0.250000  0.246272  0.843805  1
  Si  Si17  1  0.250000  0.253934  0.343539  1
  Si  Si18  1  0.750000  0.753980  0.156401  1
  Si  Si19  1  0.750000  0.746069  0.656361  1
  Si  Si20  1  0.250000  0.193813  0.541177  1
  Si  Si21  1  0.250000  0.306551  0.041671  1
  Si  Si22  1  0.750000  0.806371  0.458273  1
  Si  Si23  1  0.750000  0.693650  0.958429  1
  Pt  Pt24  1  0.250000  0.390445  0.681217  1
  Pt  Pt25  1  0.250000  0.109979  0.181168  1
  Pt  Pt26  1  0.750000  0.609938  0.318705  1
  Pt  Pt27  1  0.750000  0.889696  0.819126  1
