# generated using pymatgen
data_Dy8In4Pt3Au5
_symmetry_space_group_name_H-M   'P 1'
_cell_length_a   7.96684321
_cell_length_b   7.96684375
_cell_length_c   7.30773854
_cell_angle_alpha   90.05107466
_cell_angle_beta   90.05106937
_cell_angle_gamma   90.60511916
_symmetry_Int_Tables_number   1
_chemical_formula_structural   Dy8In4Pt3Au5
_chemical_formula_sum   'Dy8 In4 Pt3 Au5'
_cell_volume   463.80027338
_cell_formula_units_Z   1
loop_
 _symmetry_equiv_pos_site_id
 _symmetry_equiv_pos_as_xyz
  1  'x, y, z'
loop_
 _atom_site_type_symbol
 _atom_site_label
 _atom_site_symmetry_multiplicity
 _atom_site_fract_x
 _atom_site_fract_y
 _atom_site_fract_z
 _atom_site_occupancy
  Dy  Dy0  1  0.164933  0.164933  0.005219  1
  Dy  Dy1  1  0.828330  0.828330  0.998926  1
  Dy  Dy2  1  0.661203  0.347759  0.495913  1
  Dy  Dy3  1  0.347759  0.661203  0.495913  1
  Dy  Dy4  1  0.675898  0.332879  0.002807  1
  Dy  Dy5  1  0.332879  0.675898  0.002807  1
  Dy  Dy6  1  0.812151  0.812151  0.500715  1
  Dy  Dy7  1  0.183599  0.183599  0.496107  1
  In  In8  1  0.500143  0.003362  0.249863  1
  In  In9  1  0.500948  0.996908  0.748996  1
  In  In10  1  0.003362  0.500143  0.249863  1
  In  In11  1  0.996908  0.500948  0.748996  1
  Pt  Pt12  1  0.370296  0.370296  0.235332  1
  Pt  Pt13  1  0.627008  0.627008  0.764416  1
  Pt  Pt14  1  0.628879  0.628879  0.234675  1
  Au  Au15  1  0.870458  0.128647  0.732116  1
  Au  Au16  1  0.869593  0.126511  0.268234  1
  Au  Au17  1  0.370496  0.370496  0.768753  1
  Au  Au18  1  0.126511  0.869593  0.268234  1
  Au  Au19  1  0.128647  0.870458  0.732116  1
