# generated using pymatgen
data_LiHo2Tm4Co17P12
_symmetry_space_group_name_H-M   'P 1'
_cell_length_a   3.68330200
_cell_length_b   10.50073400
_cell_length_c   12.12449600
_cell_angle_alpha   90.00000000
_cell_angle_beta   90.00000000
_cell_angle_gamma   90.00000000
_symmetry_Int_Tables_number   1
_chemical_formula_structural   LiHo2Tm4Co17P12
_chemical_formula_sum   'Li1 Ho2 Tm4 Co17 P12'
_cell_volume   468.94367295
_cell_formula_units_Z   1
loop_
 _symmetry_equiv_pos_site_id
 _symmetry_equiv_pos_as_xyz
  1  'x, y, z'
loop_
 _atom_site_type_symbol
 _atom_site_label
 _atom_site_symmetry_multiplicity
 _atom_site_fract_x
 _atom_site_fract_y
 _atom_site_fract_z
 _atom_site_occupancy
  Li  Li0  1  0.500000  0.500000  0.152076  1
  Ho  Ho1  1  0.000000  0.500000  0.523155  1
  Ho  Ho2  1  0.500000  0.000000  0.477709  1
  Tm  Tm3  1  0.500000  0.819902  0.206387  1
  Tm  Tm4  1  0.500000  0.180098  0.206387  1
  Tm  Tm5  1  0.000000  0.681777  0.794573  1
  Tm  Tm6  1  0.000000  0.318223  0.794573  1
  Co  Co7  1  0.000000  0.000000  0.839936  1
  Co  Co8  1  0.500000  0.500000  0.704966  1
  Co  Co9  1  0.000000  0.000000  0.296086  1
  Co  Co10  1  0.000000  0.500000  0.986263  1
  Co  Co11  1  0.500000  0.000000  0.012129  1
  Co  Co12  1  0.500000  0.330727  0.995059  1
  Co  Co13  1  0.500000  0.669273  0.995059  1
  Co  Co14  1  0.000000  0.165003  0.003185  1
  Co  Co15  1  0.000000  0.834997  0.003185  1
  Co  Co16  1  0.500000  0.296319  0.431962  1
  Co  Co17  1  0.500000  0.703681  0.431962  1
  Co  Co18  1  0.000000  0.202469  0.570473  1
  Co  Co19  1  0.000000  0.797531  0.570473  1
  Co  Co20  1  0.500000  0.879113  0.709234  1
  Co  Co21  1  0.500000  0.120887  0.709234  1
  Co  Co22  1  0.000000  0.622795  0.292578  1
  Co  Co23  1  0.000000  0.377205  0.292578  1
  P  P24  1  0.500000  0.500000  0.884155  1
  P  P25  1  0.000000  0.000000  0.117043  1
  P  P26  1  0.500000  0.500000  0.345838  1
  P  P27  1  0.000000  0.000000  0.655030  1
  P  P28  1  0.500000  0.310779  0.617692  1
  P  P29  1  0.500000  0.689221  0.617692  1
  P  P30  1  0.000000  0.189020  0.384342  1
  P  P31  1  0.000000  0.810980  0.384342  1
  P  P32  1  0.500000  0.847086  0.890919  1
  P  P33  1  0.500000  0.152914  0.890919  1
  P  P34  1  0.000000  0.658001  0.106402  1
  P  P35  1  0.000000  0.341999  0.106402  1
