# generated using pymatgen
data_Ta9Nb3Al4Re4(SiC)4
_symmetry_space_group_name_H-M   'P 1'
_cell_length_a   8.26755860
_cell_length_b   8.26755876
_cell_length_c   8.26755900
_cell_angle_alpha   60.13626876
_cell_angle_beta   60.13626814
_cell_angle_gamma   60.13626294
_symmetry_Int_Tables_number   1
_chemical_formula_structural   Ta9Nb3Al4Re4(SiC)4
_chemical_formula_sum   'Ta9 Nb3 Al4 Re4 Si4 C4'
_cell_volume   400.82556173
_cell_formula_units_Z   1
loop_
 _symmetry_equiv_pos_site_id
 _symmetry_equiv_pos_as_xyz
  1  'x, y, z'
loop_
 _atom_site_type_symbol
 _atom_site_label
 _atom_site_symmetry_multiplicity
 _atom_site_fract_x
 _atom_site_fract_y
 _atom_site_fract_z
 _atom_site_occupancy
  Ta  Ta0  1  0.304647  0.697674  0.304863  1
  Ta  Ta1  1  0.691658  0.691085  0.309072  1
  Ta  Ta2  1  0.304837  0.304775  0.697669  1
  Ta  Ta3  1  0.554377  0.554507  0.945541  1
  Ta  Ta4  1  0.946448  0.553423  0.553919  1
  Ta  Ta5  1  0.560883  0.942121  0.942245  1
  Ta  Ta6  1  0.941772  0.941628  0.561499  1
  Ta  Ta7  1  0.692275  0.308243  0.691778  1
  Ta  Ta8  1  0.941296  0.561795  0.941112  1
  Nb  Nb9  1  0.554073  0.945547  0.554503  1
  Nb  Nb10  1  0.309375  0.690930  0.691001  1
  Nb  Nb11  1  0.697016  0.305473  0.305699  1
  Al  Al12  1  0.917713  0.251219  0.919175  1
  Al  Al13  1  0.916777  0.919197  0.251519  1
  Al  Al14  1  0.251209  0.917901  0.917084  1
  Al  Al15  1  0.336130  0.333700  0.334309  1
  Re  Re16  1  0.133224  0.130294  0.130433  1
  Re  Re17  1  0.622377  0.121280  0.118442  1
  Re  Re18  1  0.120495  0.622121  0.123461  1
  Re  Re19  1  0.118767  0.124123  0.622114  1
  Si  Si20  1  0.917191  0.914935  0.915555  1
  Si  Si21  1  0.988664  0.339279  0.338418  1
  Si  Si22  1  0.339396  0.988730  0.340681  1
  Si  Si23  1  0.338588  0.340893  0.988561  1
  C  C24  1  0.628255  0.623758  0.626135  1
  C  C25  1  0.123325  0.624468  0.624482  1
  C  C26  1  0.624785  0.124240  0.627242  1
  C  C27  1  0.624448  0.626661  0.123488  1
