# generated using pymatgen
data_Dy6Er4Si5P
_symmetry_space_group_name_H-M   'P 1'
_cell_length_a   8.38559100
_cell_length_b   8.39203185
_cell_length_c   6.26796500
_cell_angle_alpha   90.00000000
_cell_angle_beta   90.00000000
_cell_angle_gamma   119.97460286
_symmetry_Int_Tables_number   1
_chemical_formula_structural   Dy6Er4Si5P
_chemical_formula_sum   'Dy6 Er4 Si5 P1'
_cell_volume   382.09299985
_cell_formula_units_Z   1
loop_
 _symmetry_equiv_pos_site_id
 _symmetry_equiv_pos_as_xyz
  1  'x, y, z'
loop_
 _atom_site_type_symbol
 _atom_site_label
 _atom_site_symmetry_multiplicity
 _atom_site_fract_x
 _atom_site_fract_y
 _atom_site_fract_z
 _atom_site_occupancy
  Dy  Dy0  1  0.001024  0.756932  0.750000  1
  Dy  Dy1  1  0.000768  0.244183  0.250000  1
  Dy  Dy2  1  0.756584  0.755817  0.250000  1
  Dy  Dy3  1  0.755233  0.000000  0.750000  1
  Dy  Dy4  1  0.244092  0.243068  0.750000  1
  Dy  Dy5  1  0.243611  0.000000  0.250000  1
  Er  Er6  1  0.333666  0.667358  0.500217  1
  Er  Er7  1  0.666309  0.332642  0.999783  1
  Er  Er8  1  0.666309  0.332642  0.500217  1
  Er  Er9  1  0.333666  0.667358  0.999783  1
  Si  Si10  1  0.394917  0.394379  0.250000  1
  Si  Si11  1  0.000538  0.605621  0.250000  1
  Si  Si12  1  0.000083  0.394376  0.750000  1
  Si  Si13  1  0.605708  0.605624  0.750000  1
  Si  Si14  1  0.606235  0.000000  0.250000  1
  P  P15  1  0.391257  0.000000  0.750000  1
