# generated using pymatgen
data_CaHoNb2(B6Os)2
_symmetry_space_group_name_H-M   'P 1'
_cell_length_a   3.50612700
_cell_length_b   8.98226892
_cell_length_c   11.31393990
_cell_angle_alpha   90.02981209
_cell_angle_beta   90.00000000
_cell_angle_gamma   90.00000000
_symmetry_Int_Tables_number   1
_chemical_formula_structural   CaHoNb2(B6Os)2
_chemical_formula_sum   'Ca2 Ho2 Nb4 B24 Os4'
_cell_volume   356.30958474
_cell_formula_units_Z   2
loop_
 _symmetry_equiv_pos_site_id
 _symmetry_equiv_pos_as_xyz
  1  'x, y, z'
loop_
 _atom_site_type_symbol
 _atom_site_label
 _atom_site_symmetry_multiplicity
 _atom_site_fract_x
 _atom_site_fract_y
 _atom_site_fract_z
 _atom_site_occupancy
  Ca  Ca0  1  0.000000  0.322872  0.413624  1
  Ca  Ca1  1  0.000000  0.677128  0.586376  1
  Ho  Ho2  1  0.000000  0.822853  0.086096  1
  Ho  Ho3  1  0.000000  0.177147  0.913904  1
  Nb  Nb4  1  0.000000  0.945780  0.376361  1
  Nb  Nb5  1  0.000000  0.054220  0.623639  1
  Nb  Nb6  1  0.000000  0.446477  0.122852  1
  Nb  Nb7  1  0.000000  0.553523  0.877148  1
  B  B8  1  0.500000  0.555153  0.433376  1
  B  B9  1  0.500000  0.444847  0.566624  1
  B  B10  1  0.500000  0.055422  0.065495  1
  B  B11  1  0.500000  0.944578  0.934505  1
  B  B12  1  0.500000  0.753141  0.418506  1
  B  B13  1  0.500000  0.246859  0.581494  1
  B  B14  1  0.500000  0.253929  0.081311  1
  B  B15  1  0.500000  0.746071  0.918689  1
  B  B16  1  0.500000  0.797696  0.262382  1
  B  B17  1  0.500000  0.202304  0.737617  1
  B  B18  1  0.500000  0.297675  0.237084  1
  B  B19  1  0.500000  0.702325  0.762917  1
  B  B20  1  0.500000  0.629596  0.181086  1
  B  B21  1  0.500000  0.370404  0.818914  1
  B  B22  1  0.500000  0.130270  0.318646  1
  B  B23  1  0.500000  0.869730  0.681354  1
  B  B24  1  0.500000  0.981752  0.213369  1
  B  B25  1  0.500000  0.018248  0.786631  1
  B  B26  1  0.500000  0.481426  0.286930  1
  B  B27  1  0.500000  0.518574  0.713070  1
  B  B28  1  0.500000  0.600294  0.026684  1
  B  B29  1  0.500000  0.399706  0.973316  1
  B  B30  1  0.500000  0.099676  0.473591  1
  B  B31  1  0.500000  0.900324  0.526409  1
  Os  Os32  1  0.000000  0.644810  0.316777  1
  Os  Os33  1  0.000000  0.355190  0.683223  1
  Os  Os34  1  0.000000  0.142696  0.181478  1
  Os  Os35  1  0.000000  0.857304  0.818522  1
