# generated using pymatgen
data_CsS2IO8
_symmetry_space_group_name_H-M   'P 1'
_cell_length_a   5.18706708
_cell_length_b   5.76476218
_cell_length_c   19.44151036
_cell_angle_alpha   71.58332926
_cell_angle_beta   89.99272046
_cell_angle_gamma   63.33932574
_symmetry_Int_Tables_number   1
_chemical_formula_structural   CsS2IO8
_chemical_formula_sum   'Cs2 S4 I2 O16'
_cell_volume   486.00175054
_cell_formula_units_Z   2
loop_
 _symmetry_equiv_pos_site_id
 _symmetry_equiv_pos_as_xyz
  1  'x, y, z'
loop_
 _atom_site_type_symbol
 _atom_site_label
 _atom_site_symmetry_multiplicity
 _atom_site_fract_x
 _atom_site_fract_y
 _atom_site_fract_z
 _atom_site_occupancy
  Cs  Cs0  1  0.967139  0.000091  0.249946  1
  Cs  Cs1  1  0.967343  0.999708  0.749900  1
  S  S2  1  0.391765  0.225954  0.381962  1
  S  S3  1  0.391960  0.225414  0.881978  1
  S  S4  1  0.616238  0.774494  0.118055  1
  S  S5  1  0.616379  0.774279  0.618031  1
  I  I6  1  0.031636  0.000048  0.499919  1
  I  I7  1  0.031480  0.999852  0.999962  1
  O  O8  1  0.307021  0.286088  0.304358  1
  O  O9  1  0.307189  0.285391  0.804394  1
  O  O10  1  0.591863  0.714902  0.195665  1
  O  O11  1  0.592148  0.714462  0.695695  1
  O  O12  1  0.723508  0.071584  0.399859  1
  O  O13  1  0.723432  0.071125  0.899878  1
  O  O14  1  0.313237  0.983741  0.426155  1
  O  O15  1  0.313292  0.983363  0.926190  1
  O  O16  1  0.793593  0.928955  0.099862  1
  O  O17  1  0.794089  0.928692  0.599913  1
  O  O18  1  0.258028  0.453571  0.408750  1
  O  O19  1  0.258183  0.453075  0.908702  1
  O  O20  1  0.295778  0.016129  0.073995  1
  O  O21  1  0.296070  0.016141  0.574005  1
  O  O22  1  0.709243  0.546547  0.091437  1
  O  O23  1  0.709382  0.546393  0.591388  1
