# generated using pymatgen
data_Sr8Yb9Dy3Pt16
_symmetry_space_group_name_H-M   'P 1'
_cell_length_a   7.68266845
_cell_length_b   7.82192528
_cell_length_c   14.87466642
_cell_angle_alpha   90.00094866
_cell_angle_beta   89.97294647
_cell_angle_gamma   89.93465950
_symmetry_Int_Tables_number   1
_chemical_formula_structural   Sr8Yb9Dy3Pt16
_chemical_formula_sum   'Sr8 Yb9 Dy3 Pt16'
_cell_volume   893.86649455
_cell_formula_units_Z   1
loop_
 _symmetry_equiv_pos_site_id
 _symmetry_equiv_pos_as_xyz
  1  'x, y, z'
loop_
 _atom_site_type_symbol
 _atom_site_label
 _atom_site_symmetry_multiplicity
 _atom_site_fract_x
 _atom_site_fract_y
 _atom_site_fract_z
 _atom_site_occupancy
  Sr  Sr0  1  0.500761  0.325443  0.905057  1
  Sr  Sr1  1  0.000535  0.175174  0.595408  1
  Sr  Sr2  1  0.498831  0.674138  0.403474  1
  Sr  Sr3  1  0.999472  0.823753  0.095686  1
  Sr  Sr4  1  0.498678  0.674188  0.097280  1
  Sr  Sr5  1  0.000706  0.823989  0.402063  1
  Sr  Sr6  1  0.500047  0.323246  0.596979  1
  Sr  Sr7  1  0.000739  0.177904  0.904849  1
  Yb  Yb8  1  0.160948  0.334534  0.123106  1
  Yb  Yb9  1  0.661790  0.166942  0.122777  1
  Yb  Yb10  1  0.161256  0.333730  0.377073  1
  Yb  Yb11  1  0.338925  0.832854  0.622823  1
  Yb  Yb12  1  0.838464  0.667172  0.877368  1
  Yb  Yb13  1  0.177963  0.495015  0.750399  1
  Yb  Yb14  1  0.678133  0.005245  0.750691  1
  Yb  Yb15  1  0.824487  0.503851  0.248524  1
  Yb  Yb16  1  0.320701  0.996534  0.248950  1
  Dy  Dy17  1  0.338444  0.833702  0.876369  1
  Dy  Dy18  1  0.839305  0.666012  0.623861  1
  Dy  Dy19  1  0.660877  0.166901  0.375762  1
  Pt  Pt20  1  0.332278  0.036949  0.040411  1
  Pt  Pt21  1  0.830455  0.455073  0.458458  1
  Pt  Pt22  1  0.669735  0.954772  0.541849  1
  Pt  Pt23  1  0.167423  0.547530  0.956042  1
  Pt  Pt24  1  0.659554  0.959109  0.955309  1
  Pt  Pt25  1  0.156980  0.541801  0.544232  1
  Pt  Pt26  1  0.343472  0.042155  0.455987  1
  Pt  Pt27  1  0.838994  0.461036  0.042592  1
  Pt  Pt28  1  0.545843  0.635307  0.751707  1
  Pt  Pt29  1  0.045459  0.865480  0.747889  1
  Pt  Pt30  1  0.456360  0.365445  0.253145  1
  Pt  Pt31  1  0.951166  0.133715  0.251979  1
  Pt  Pt32  1  0.303606  0.120747  0.753126  1
  Pt  Pt33  1  0.804081  0.379299  0.747239  1
  Pt  Pt34  1  0.694081  0.877335  0.252009  1
  Pt  Pt35  1  0.199450  0.623921  0.249531  1
