# generated using pymatgen
data_AlCu2Pd5
_symmetry_space_group_name_H-M   'P 1'
_cell_length_a   4.11575900
_cell_length_b   5.34936200
_cell_length_c   10.41043100
_cell_angle_alpha   90.00000000
_cell_angle_beta   90.00000000
_cell_angle_gamma   90.00000000
_symmetry_Int_Tables_number   1
_chemical_formula_structural   AlCu2Pd5
_chemical_formula_sum   'Al2 Cu4 Pd10'
_cell_volume   229.20317791
_cell_formula_units_Z   2
loop_
 _symmetry_equiv_pos_site_id
 _symmetry_equiv_pos_as_xyz
  1  'x, y, z'
loop_
 _atom_site_type_symbol
 _atom_site_label
 _atom_site_symmetry_multiplicity
 _atom_site_fract_x
 _atom_site_fract_y
 _atom_site_fract_z
 _atom_site_occupancy
  Al  Al0  1  0.000000  0.000000  0.000000  1
  Al  Al1  1  0.000000  0.500000  0.500000  1
  Cu  Cu2  1  0.500000  0.171995  0.364755  1
  Cu  Cu3  1  0.500000  0.828005  0.635245  1
  Cu  Cu4  1  0.500000  0.671995  0.135245  1
  Cu  Cu5  1  0.500000  0.328005  0.864755  1
  Pd  Pd6  1  0.500000  0.178780  0.109472  1
  Pd  Pd7  1  0.500000  0.821220  0.890528  1
  Pd  Pd8  1  0.500000  0.678780  0.390528  1
  Pd  Pd9  1  0.500000  0.321220  0.609472  1
  Pd  Pd10  1  0.000000  0.000000  0.500000  1
  Pd  Pd11  1  0.000000  0.500000  0.000000  1
  Pd  Pd12  1  0.000000  0.903736  0.237638  1
  Pd  Pd13  1  0.000000  0.096264  0.762362  1
  Pd  Pd14  1  0.000000  0.403736  0.262362  1
  Pd  Pd15  1  0.000000  0.596264  0.737638  1
