# generated using pymatgen
data_Nd3AlPt3Au2
_symmetry_space_group_name_H-M   'P 1'
_cell_length_a   7.64972101
_cell_length_b   7.43402959
_cell_length_c   3.96961900
_cell_angle_alpha   90.00000000
_cell_angle_beta   90.00000000
_cell_angle_gamma   119.07159061
_symmetry_Int_Tables_number   1
_chemical_formula_structural   Nd3AlPt3Au2
_chemical_formula_sum   'Nd3 Al1 Pt3 Au2'
_cell_volume   197.30438084
_cell_formula_units_Z   1
loop_
 _symmetry_equiv_pos_site_id
 _symmetry_equiv_pos_as_xyz
  1  'x, y, z'
loop_
 _atom_site_type_symbol
 _atom_site_label
 _atom_site_symmetry_multiplicity
 _atom_site_fract_x
 _atom_site_fract_y
 _atom_site_fract_z
 _atom_site_occupancy
  Nd  Nd0  1  0.408378  0.396197  0.500000  1
  Nd  Nd1  1  0.591622  0.987821  0.500000  1
  Nd  Nd2  1  0.000000  0.618710  0.500000  1
  Al  Al3  1  0.000000  0.252457  0.000000  1
  Pt  Pt4  1  0.695693  0.327184  0.000000  1
  Pt  Pt5  1  0.304307  0.631491  0.000000  1
  Pt  Pt6  1  0.000000  0.044501  0.500000  1
  Au  Au7  1  0.735558  0.738598  0.000000  1
  Au  Au8  1  0.264442  0.003041  0.000000  1
