# generated using pymatgen
data_Pr2Ga9RuPt2
_symmetry_space_group_name_H-M   'P 1'
_cell_length_a   7.72922833
_cell_length_b   7.72922812
_cell_length_c   9.68852176
_cell_angle_alpha   89.91384880
_cell_angle_beta   89.91384584
_cell_angle_gamma   119.84944356
_symmetry_Int_Tables_number   1
_chemical_formula_structural   Pr2Ga9RuPt2
_chemical_formula_sum   'Pr4 Ga18 Ru2 Pt4'
_cell_volume   502.01342589
_cell_formula_units_Z   2
loop_
 _symmetry_equiv_pos_site_id
 _symmetry_equiv_pos_as_xyz
  1  'x, y, z'
loop_
 _atom_site_type_symbol
 _atom_site_label
 _atom_site_symmetry_multiplicity
 _atom_site_fract_x
 _atom_site_fract_y
 _atom_site_fract_z
 _atom_site_occupancy
  Pr  Pr0  1  0.996628  0.668651  0.249287  1
  Pr  Pr1  1  0.003372  0.331349  0.750713  1
  Pr  Pr2  1  0.668651  0.996628  0.249287  1
  Pr  Pr3  1  0.331349  0.003372  0.750713  1
  Ga  Ga4  1  0.133355  0.133355  0.251063  1
  Ga  Ga5  1  0.866645  0.866645  0.748937  1
  Ga  Ga6  1  0.002391  0.333923  0.081574  1
  Ga  Ga7  1  0.997609  0.666077  0.918426  1
  Ga  Ga8  1  0.999476  0.659574  0.574109  1
  Ga  Ga9  1  0.340426  0.000524  0.425891  1
  Ga  Ga10  1  0.000524  0.340426  0.425891  1
  Ga  Ga11  1  0.659574  0.999476  0.574109  1
  Ga  Ga12  1  0.666077  0.997609  0.918426  1
  Ga  Ga13  1  0.333923  0.002391  0.081574  1
  Ga  Ga14  1  0.339175  0.339175  0.558133  1
  Ga  Ga15  1  0.660825  0.660825  0.441867  1
  Ga  Ga16  1  0.663669  0.663669  0.067317  1
  Ga  Ga17  1  0.336331  0.336331  0.932683  1
  Ga  Ga18  1  0.337431  0.543814  0.256144  1
  Ga  Ga19  1  0.662569  0.456186  0.743856  1
  Ga  Ga20  1  0.543814  0.337431  0.256144  1
  Ga  Ga21  1  0.456186  0.662569  0.743856  1
  Ru  Ru22  1  0.328658  0.671342  0.500000  1
  Ru  Ru23  1  0.671342  0.328658  0.500000  1
  Pt  Pt24  1  0.669948  0.330052  0.000000  1
  Pt  Pt25  1  0.330052  0.669948  0.000000  1
  Pt  Pt26  1  0.000000  0.000000  0.000000  1
  Pt  Pt27  1  0.000000  0.000000  0.500000  1
