# generated using pymatgen
data_HgRh4Pb3O14
_symmetry_space_group_name_H-M   'P 1'
_cell_length_a   7.36941523
_cell_length_b   7.24940652
_cell_length_c   7.36941500
_cell_angle_alpha   59.45084838
_cell_angle_beta   59.99998756
_cell_angle_gamma   59.45084997
_symmetry_Int_Tables_number   1
_chemical_formula_structural   HgRh4Pb3O14
_chemical_formula_sum   'Hg1 Rh4 Pb3 O14'
_cell_volume   276.05671626
_cell_formula_units_Z   1
loop_
 _symmetry_equiv_pos_site_id
 _symmetry_equiv_pos_as_xyz
  1  'x, y, z'
loop_
 _atom_site_type_symbol
 _atom_site_label
 _atom_site_symmetry_multiplicity
 _atom_site_fract_x
 _atom_site_fract_y
 _atom_site_fract_z
 _atom_site_occupancy
  Hg  Hg0  1  0.125000  0.625000  0.125000  1
  Rh  Rh1  1  0.625000  0.625000  0.125000  1
  Rh  Rh2  1  0.625000  0.625000  0.625000  1
  Rh  Rh3  1  0.625000  0.125000  0.625000  1
  Rh  Rh4  1  0.125000  0.625000  0.625000  1
  Pb  Pb5  1  0.125000  0.125000  0.125000  1
  Pb  Pb6  1  0.625000  0.125000  0.125000  1
  Pb  Pb7  1  0.125000  0.125000  0.625000  1
  O  O8  1  0.708082  0.289378  0.294458  1
  O  O9  1  0.708082  0.289378  0.708082  1
  O  O10  1  0.006152  0.981542  0.006152  1
  O  O11  1  0.300270  0.710853  0.300270  1
  O  O12  1  0.688608  0.710853  0.300270  1
  O  O13  1  0.949730  0.539147  0.561392  1
  O  O14  1  0.300270  0.710853  0.688608  1
  O  O15  1  0.243848  0.268458  0.243848  1
  O  O16  1  0.949730  0.539147  0.949730  1
  O  O17  1  0.541918  0.960622  0.541918  1
  O  O18  1  0.561392  0.539147  0.949730  1
  O  O19  1  0.955542  0.960622  0.541918  1
  O  O20  1  0.541918  0.960622  0.955542  1
  O  O21  1  0.294458  0.289378  0.708082  1
