# generated using pymatgen
data_Ce(ReO4)3
_symmetry_space_group_name_H-M   'P 1'
_cell_length_a   10.21375300
_cell_length_b   10.21375185
_cell_length_c   6.48209300
_cell_angle_alpha   90.00000000
_cell_angle_beta   90.00000000
_cell_angle_gamma   120.00001194
_symmetry_Int_Tables_number   1
_chemical_formula_structural   Ce(ReO4)3
_chemical_formula_sum   'Ce2 Re6 O24'
_cell_volume   585.62079569
_cell_formula_units_Z   2
loop_
 _symmetry_equiv_pos_site_id
 _symmetry_equiv_pos_as_xyz
  1  'x, y, z'
loop_
 _atom_site_type_symbol
 _atom_site_label
 _atom_site_symmetry_multiplicity
 _atom_site_fract_x
 _atom_site_fract_y
 _atom_site_fract_z
 _atom_site_occupancy
  Ce  Ce0  1  0.666667  0.333333  0.750000  1
  Ce  Ce1  1  0.333333  0.666667  0.250000  1
  Re  Re2  1  0.605995  0.703175  0.750000  1
  Re  Re3  1  0.097182  0.394005  0.750000  1
  Re  Re4  1  0.296825  0.902818  0.750000  1
  Re  Re5  1  0.394005  0.296825  0.250000  1
  Re  Re6  1  0.902818  0.605995  0.250000  1
  Re  Re7  1  0.703175  0.097182  0.250000  1
  O  O8  1  0.560840  0.512646  0.750000  1
  O  O9  1  0.951805  0.439160  0.750000  1
  O  O10  1  0.487354  0.048195  0.750000  1
  O  O11  1  0.439160  0.487354  0.250000  1
  O  O12  1  0.048195  0.560840  0.250000  1
  O  O13  1  0.512646  0.951805  0.250000  1
  O  O14  1  0.470416  0.259442  0.027511  1
  O  O15  1  0.789026  0.529584  0.027511  1
  O  O16  1  0.740558  0.210974  0.027511  1
  O  O17  1  0.529584  0.740558  0.527511  1
  O  O18  1  0.210974  0.470416  0.527511  1
  O  O19  1  0.259442  0.789026  0.527511  1
  O  O20  1  0.529584  0.740558  0.972489  1
  O  O21  1  0.210974  0.470416  0.972489  1
  O  O22  1  0.259442  0.789026  0.972489  1
  O  O23  1  0.470416  0.259442  0.472489  1
  O  O24  1  0.789026  0.529584  0.472489  1
  O  O25  1  0.740558  0.210974  0.472489  1
  O  O26  1  0.799158  0.818798  0.750000  1
  O  O27  1  0.019640  0.200842  0.750000  1
  O  O28  1  0.181202  0.980360  0.750000  1
  O  O29  1  0.200842  0.181202  0.250000  1
  O  O30  1  0.980360  0.799158  0.250000  1
  O  O31  1  0.818798  0.019640  0.250000  1
