# generated using pymatgen
data_Y7Ho9Cd4Pd3Pt
_symmetry_space_group_name_H-M   'P 1'
_cell_length_a   9.68281792
_cell_length_b   9.67763658
_cell_length_c   9.67635200
_cell_angle_alpha   60.00439763
_cell_angle_beta   60.02209412
_cell_angle_gamma   60.08153075
_symmetry_Int_Tables_number   1
_chemical_formula_structural   Y7Ho9Cd4Pd3Pt
_chemical_formula_sum   'Y7 Ho9 Cd4 Pd3 Pt1'
_cell_volume   641.68461630
_cell_formula_units_Z   1
loop_
 _symmetry_equiv_pos_site_id
 _symmetry_equiv_pos_as_xyz
  1  'x, y, z'
loop_
 _atom_site_type_symbol
 _atom_site_label
 _atom_site_symmetry_multiplicity
 _atom_site_fract_x
 _atom_site_fract_y
 _atom_site_fract_z
 _atom_site_occupancy
  Y  Y0  1  0.809680  0.811859  0.189231  1
  Y  Y1  1  0.934906  0.564837  0.565589  1
  Y  Y2  1  0.564904  0.935336  0.935158  1
  Y  Y3  1  0.564904  0.935336  0.564602  1
  Y  Y4  1  0.934906  0.564837  0.934667  1
  Y  Y5  1  0.565427  0.564419  0.935077  1
  Y  Y6  1  0.935031  0.934944  0.565012  1
  Ho  Ho7  1  0.355065  0.352714  0.351813  1
  Ho  Ho8  1  0.355065  0.352714  0.940407  1
  Ho  Ho9  1  0.355652  0.938935  0.352706  1
  Ho  Ho10  1  0.937391  0.354667  0.353971  1
  Ho  Ho11  1  0.809528  0.189417  0.189363  1
  Ho  Ho12  1  0.189547  0.810751  0.810321  1
  Ho  Ho13  1  0.189547  0.810751  0.189382  1
  Ho  Ho14  1  0.809528  0.189417  0.811693  1
  Ho  Ho15  1  0.189698  0.189562  0.810370  1
  Cd  Cd16  1  0.581795  0.582094  0.582380  1
  Cd  Cd17  1  0.581795  0.582094  0.253731  1
  Cd  Cd18  1  0.581689  0.253577  0.582367  1
  Cd  Cd19  1  0.254043  0.581789  0.582084  1
  Pd  Pd20  1  0.143960  0.144535  0.145106  1
  Pd  Pd21  1  0.143960  0.144535  0.566399  1
  Pd  Pd22  1  0.144629  0.566115  0.144628  1
  Pt  Pt23  1  0.567348  0.144763  0.143944  1
