# generated using pymatgen
data_Ho8TaTi10Si16Rh
_symmetry_space_group_name_H-M   'P 1'
_cell_length_a   7.03652520
_cell_length_b   7.03670596
_cell_length_c   12.87863457
_cell_angle_alpha   90.17550955
_cell_angle_beta   89.86448171
_cell_angle_gamma   89.73895550
_symmetry_Int_Tables_number   1
_chemical_formula_structural   Ho8TaTi10Si16Rh
_chemical_formula_sum   'Ho8 Ta1 Ti10 Si16 Rh1'
_cell_volume   637.66076638
_cell_formula_units_Z   1
loop_
 _symmetry_equiv_pos_site_id
 _symmetry_equiv_pos_as_xyz
  1  'x, y, z'
loop_
 _atom_site_type_symbol
 _atom_site_label
 _atom_site_symmetry_multiplicity
 _atom_site_fract_x
 _atom_site_fract_y
 _atom_site_fract_z
 _atom_site_occupancy
  Ho  Ho0  1  0.340790  0.003738  0.467324  1
  Ho  Ho1  1  0.496826  0.841844  0.717930  1
  Ho  Ho2  1  0.501101  0.158209  0.214894  1
  Ho  Ho3  1  0.842190  0.497152  0.282019  1
  Ho  Ho4  1  0.158454  0.501297  0.785146  1
  Ho  Ho5  1  0.657269  0.998490  0.968276  1
  Ho  Ho6  1  0.003945  0.340332  0.532695  1
  Ho  Ho7  1  0.998461  0.657359  0.031634  1
  Ta  Ta8  1  0.175062  0.826491  0.248324  1
  Ti  Ti9  1  0.826396  0.175409  0.751596  1
  Ti  Ti10  1  0.673347  0.673820  0.500040  1
  Ti  Ti11  1  0.149411  0.003240  0.876020  1
  Ti  Ti12  1  0.493436  0.656466  0.125229  1
  Ti  Ti13  1  0.506908  0.349420  0.627599  1
  Ti  Ti14  1  0.655990  0.493892  0.875096  1
  Ti  Ti15  1  0.348507  0.507622  0.371986  1
  Ti  Ti16  1  0.849520  0.993340  0.374226  1
  Ti  Ti17  1  0.003328  0.148230  0.124522  1
  Ti  Ti18  1  0.994122  0.849343  0.625249  1
  Si  Si19  1  0.202134  0.132898  0.685232  1
  Si  Si20  1  0.371966  0.703268  0.933552  1
  Si  Si21  1  0.631372  0.295355  0.433863  1
  Si  Si22  1  0.703272  0.371917  0.066009  1
  Si  Si23  1  0.295639  0.630883  0.566330  1
  Si  Si24  1  0.796662  0.868186  0.183630  1
  Si  Si25  1  0.132995  0.202338  0.315184  1
  Si  Si26  1  0.868097  0.796658  0.816240  1
  Si  Si27  1  0.287642  0.951216  0.062438  1
  Si  Si28  1  0.547277  0.792340  0.315701  1
  Si  Si29  1  0.449158  0.209694  0.817709  1
  Si  Si30  1  0.792251  0.547318  0.684526  1
  Si  Si31  1  0.209697  0.449051  0.182617  1
  Si  Si32  1  0.708258  0.047919  0.565666  1
  Si  Si33  1  0.950103  0.286546  0.936149  1
  Si  Si34  1  0.047369  0.707512  0.435047  1
  Rh  Rh35  1  0.331044  0.331208  0.000302  1
