# generated using pymatgen
data_Tb6CrCo16ReP12
_symmetry_space_group_name_H-M   'P 1'
_cell_length_a   3.71404800
_cell_length_b   10.54979400
_cell_length_c   12.23128100
_cell_angle_alpha   90.00000000
_cell_angle_beta   90.00000000
_cell_angle_gamma   90.00000000
_symmetry_Int_Tables_number   1
_chemical_formula_structural   Tb6CrCo16ReP12
_chemical_formula_sum   'Tb6 Cr1 Co16 Re1 P12'
_cell_volume   479.25144988
_cell_formula_units_Z   1
loop_
 _symmetry_equiv_pos_site_id
 _symmetry_equiv_pos_as_xyz
  1  'x, y, z'
loop_
 _atom_site_type_symbol
 _atom_site_label
 _atom_site_symmetry_multiplicity
 _atom_site_fract_x
 _atom_site_fract_y
 _atom_site_fract_z
 _atom_site_occupancy
  Tb  Tb0  1  0.000000  0.500000  0.523992  1
  Tb  Tb1  1  0.500000  0.000000  0.478129  1
  Tb  Tb2  1  0.500000  0.818304  0.205400  1
  Tb  Tb3  1  0.500000  0.181696  0.205400  1
  Tb  Tb4  1  0.000000  0.682510  0.794913  1
  Tb  Tb5  1  0.000000  0.317490  0.794913  1
  Cr  Cr6  1  0.000000  0.000000  0.843163  1
  Co  Co7  1  0.500000  0.500000  0.702316  1
  Co  Co8  1  0.000000  0.000000  0.297437  1
  Co  Co9  1  0.000000  0.500000  0.987669  1
  Co  Co10  1  0.500000  0.000000  0.013505  1
  Co  Co11  1  0.500000  0.332451  0.990341  1
  Co  Co12  1  0.500000  0.667549  0.990341  1
  Co  Co13  1  0.000000  0.167273  0.007166  1
  Co  Co14  1  0.000000  0.832727  0.007166  1
  Co  Co15  1  0.500000  0.296450  0.430752  1
  Co  Co16  1  0.500000  0.703550  0.430752  1
  Co  Co17  1  0.000000  0.203860  0.569188  1
  Co  Co18  1  0.000000  0.796140  0.569188  1
  Co  Co19  1  0.500000  0.879562  0.709091  1
  Co  Co20  1  0.500000  0.120438  0.709091  1
  Co  Co21  1  0.000000  0.620336  0.291437  1
  Co  Co22  1  0.000000  0.379664  0.291437  1
  Re  Re23  1  0.500000  0.500000  0.155737  1
  P  P24  1  0.500000  0.500000  0.881051  1
  P  P25  1  0.000000  0.000000  0.117214  1
  P  P26  1  0.500000  0.500000  0.348178  1
  P  P27  1  0.000000  0.000000  0.655965  1
  P  P28  1  0.500000  0.310614  0.615957  1
  P  P29  1  0.500000  0.689386  0.615957  1
  P  P30  1  0.000000  0.188985  0.384537  1
  P  P31  1  0.000000  0.811015  0.384537  1
  P  P32  1  0.500000  0.848805  0.892376  1
  P  P33  1  0.500000  0.151195  0.892376  1
  P  P34  1  0.000000  0.654794  0.106667  1
  P  P35  1  0.000000  0.345206  0.106667  1
