# generated using pymatgen
data_Ac2CuAu3
_symmetry_space_group_name_H-M   'P 1'
_cell_length_a   9.12470247
_cell_length_b   9.44489432
_cell_length_c   6.17752821
_cell_angle_alpha   67.79118407
_cell_angle_beta   73.39543432
_cell_angle_gamma   38.81337258
_symmetry_Int_Tables_number   1
_chemical_formula_structural   Ac2CuAu3
_chemical_formula_sum   'Ac4 Cu2 Au6'
_cell_volume   308.90375025
_cell_formula_units_Z   2
loop_
 _symmetry_equiv_pos_site_id
 _symmetry_equiv_pos_as_xyz
  1  'x, y, z'
loop_
 _atom_site_type_symbol
 _atom_site_label
 _atom_site_symmetry_multiplicity
 _atom_site_fract_x
 _atom_site_fract_y
 _atom_site_fract_z
 _atom_site_occupancy
  Ac  Ac0  1  0.247343  0.752657  0.247343  1
  Ac  Ac1  1  0.250001  0.249999  0.250001  1
  Ac  Ac2  1  0.750000  0.750000  0.750000  1
  Ac  Ac3  1  0.752657  0.247343  0.752657  1
  Cu  Cu4  1  0.666935  0.666935  0.333065  1
  Cu  Cu5  1  0.333065  0.333065  0.666935  1
  Au  Au6  1  0.826385  0.826385  0.173615  1
  Au  Au7  1  0.824430  0.347412  0.175569  1
  Au  Au8  1  0.652588  0.175570  0.347412  1
  Au  Au9  1  0.347412  0.824431  0.652588  1
  Au  Au10  1  0.175569  0.652588  0.824430  1
  Au  Au11  1  0.173615  0.173615  0.826385  1
