# generated using pymatgen
data_NdGdTmSi2
_symmetry_space_group_name_H-M   'P 1'
_cell_length_a   7.50647958
_cell_length_b   7.50647958
_cell_length_c   4.34205500
_cell_angle_alpha   90.00000000
_cell_angle_beta   90.00000000
_cell_angle_gamma   90.95848253
_symmetry_Int_Tables_number   1
_chemical_formula_structural   NdGdTmSi2
_chemical_formula_sum   'Nd2 Gd2 Tm2 Si4'
_cell_volume   244.62856318
_cell_formula_units_Z   2
loop_
 _symmetry_equiv_pos_site_id
 _symmetry_equiv_pos_as_xyz
  1  'x, y, z'
loop_
 _atom_site_type_symbol
 _atom_site_label
 _atom_site_symmetry_multiplicity
 _atom_site_fract_x
 _atom_site_fract_y
 _atom_site_fract_z
 _atom_site_occupancy
  Nd  Nd0  1  0.177615  0.322385  0.500000  1
  Nd  Nd1  1  0.822385  0.677615  0.500000  1
  Gd  Gd2  1  0.676057  0.176057  0.500000  1
  Gd  Gd3  1  0.323943  0.823943  0.500000  1
  Tm  Tm4  1  0.000000  0.000000  0.000000  1
  Tm  Tm5  1  0.500000  0.500000  0.000000  1
  Si  Si6  1  0.116432  0.616432  0.000000  1
  Si  Si7  1  0.883568  0.383568  0.000000  1
  Si  Si8  1  0.614281  0.885719  0.000000  1
  Si  Si9  1  0.385719  0.114281  0.000000  1
