# generated using pymatgen
data_CaLa2(SmSn2)2
_symmetry_space_group_name_H-M   'P 1'
_cell_length_a   8.16247400
_cell_length_b   8.57294600
_cell_length_c   16.16812700
_cell_angle_alpha   90.00000000
_cell_angle_beta   90.00000000
_cell_angle_gamma   90.00000000
_symmetry_Int_Tables_number   1
_chemical_formula_structural   CaLa2(SmSn2)2
_chemical_formula_sum   'Ca4 La8 Sm8 Sn16'
_cell_volume   1131.38811167
_cell_formula_units_Z   4
loop_
 _symmetry_equiv_pos_site_id
 _symmetry_equiv_pos_as_xyz
  1  'x, y, z'
loop_
 _atom_site_type_symbol
 _atom_site_label
 _atom_site_symmetry_multiplicity
 _atom_site_fract_x
 _atom_site_fract_y
 _atom_site_fract_z
 _atom_site_occupancy
  Ca  Ca0  1  0.174174  0.496785  0.750000  1
  Ca  Ca1  1  0.674174  0.003215  0.750000  1
  Ca  Ca2  1  0.825826  0.503215  0.250000  1
  Ca  Ca3  1  0.325826  0.996785  0.250000  1
  La  La4  1  0.497537  0.318569  0.905263  1
  La  La5  1  0.997537  0.181431  0.594737  1
  La  La6  1  0.502463  0.681431  0.405263  1
  La  La7  1  0.002463  0.818569  0.094737  1
  La  La8  1  0.502463  0.681431  0.094737  1
  La  La9  1  0.002463  0.818569  0.405263  1
  La  La10  1  0.497537  0.318569  0.594737  1
  La  La11  1  0.997537  0.181431  0.905263  1
  Sm  Sm12  1  0.341077  0.829352  0.876170  1
  Sm  Sm13  1  0.841077  0.670648  0.623830  1
  Sm  Sm14  1  0.658923  0.170648  0.376170  1
  Sm  Sm15  1  0.158923  0.329352  0.123830  1
  Sm  Sm16  1  0.658923  0.170648  0.123830  1
  Sm  Sm17  1  0.158923  0.329352  0.376170  1
  Sm  Sm18  1  0.341077  0.829352  0.623830  1
  Sm  Sm19  1  0.841077  0.670648  0.876170  1
  Sn  Sn20  1  0.320309  0.039460  0.037267  1
  Sn  Sn21  1  0.820309  0.460540  0.462733  1
  Sn  Sn22  1  0.679691  0.960540  0.537267  1
  Sn  Sn23  1  0.179691  0.539460  0.962733  1
  Sn  Sn24  1  0.679691  0.960540  0.962733  1
  Sn  Sn25  1  0.179691  0.539460  0.537267  1
  Sn  Sn26  1  0.320309  0.039460  0.462733  1
  Sn  Sn27  1  0.820309  0.460540  0.037267  1
  Sn  Sn28  1  0.541424  0.613078  0.750000  1
  Sn  Sn29  1  0.041424  0.886922  0.750000  1
  Sn  Sn30  1  0.458576  0.386922  0.250000  1
  Sn  Sn31  1  0.958576  0.113078  0.250000  1
  Sn  Sn32  1  0.300405  0.136264  0.750000  1
  Sn  Sn33  1  0.800405  0.363736  0.750000  1
  Sn  Sn34  1  0.699595  0.863736  0.250000  1
  Sn  Sn35  1  0.199595  0.636264  0.250000  1
