# generated using pymatgen
data_Tl(NO3)3
_symmetry_space_group_name_H-M   'P 1'
_cell_length_a   6.31535000
_cell_length_b   10.02099585
_cell_length_c   11.42367200
_cell_angle_alpha   87.00290508
_cell_angle_beta   90.00000000
_cell_angle_gamma   90.00000000
_symmetry_Int_Tables_number   1
_chemical_formula_structural   Tl(NO3)3
_chemical_formula_sum   'Tl4 N12 O36'
_cell_volume   721.97073082
_cell_formula_units_Z   4
loop_
 _symmetry_equiv_pos_site_id
 _symmetry_equiv_pos_as_xyz
  1  'x, y, z'
loop_
 _atom_site_type_symbol
 _atom_site_label
 _atom_site_symmetry_multiplicity
 _atom_site_fract_x
 _atom_site_fract_y
 _atom_site_fract_z
 _atom_site_occupancy
  Tl  Tl0  1  0.662028  0.287603  0.728109  1
  Tl  Tl1  1  0.162028  0.212396  0.271891  1
  Tl  Tl2  1  0.337972  0.712397  0.271891  1
  Tl  Tl3  1  0.837972  0.787604  0.728109  1
  N  N4  1  0.384680  0.172634  0.486245  1
  N  N5  1  0.884679  0.327365  0.513755  1
  N  N6  1  0.615320  0.827366  0.513755  1
  N  N7  1  0.115321  0.672635  0.486245  1
  N  N8  1  0.731431  0.199293  0.216162  1
  N  N9  1  0.231431  0.300706  0.783838  1
  N  N10  1  0.268569  0.800707  0.783838  1
  N  N11  1  0.768569  0.699294  0.216162  1
  N  N12  1  0.721540  0.531731  0.879846  1
  N  N13  1  0.221540  0.968270  0.120153  1
  N  N14  1  0.278460  0.468269  0.120154  1
  N  N15  1  0.778460  0.031730  0.879847  1
  O  O16  1  0.429248  0.282058  0.433776  1
  O  O17  1  0.929247  0.217942  0.566225  1
  O  O18  1  0.570752  0.717942  0.566224  1
  O  O19  1  0.070753  0.782058  0.433775  1
  O  O20  1  0.259026  0.089945  0.433952  1
  O  O21  1  0.759026  0.410055  0.566048  1
  O  O22  1  0.740974  0.910055  0.566048  1
  O  O23  1  0.240974  0.589945  0.433952  1
  O  O24  1  0.451303  0.136450  0.585696  1
  O  O25  1  0.951303  0.363550  0.414304  1
  O  O26  1  0.548697  0.863550  0.414304  1
  O  O27  1  0.048697  0.636450  0.585696  1
  O  O28  1  0.807691  0.112660  0.290853  1
  O  O29  1  0.307691  0.387340  0.709147  1
  O  O30  1  0.192309  0.887340  0.709147  1
  O  O31  1  0.692309  0.612660  0.290853  1
  O  O32  1  0.542752  0.198132  0.184777  1
  O  O33  1  0.042752  0.301868  0.815223  1
  O  O34  1  0.457248  0.801868  0.815223  1
  O  O35  1  0.957248  0.698132  0.184777  1
  O  O36  1  0.856821  0.289524  0.170992  1
  O  O37  1  0.356821  0.210475  0.829008  1
  O  O38  1  0.143179  0.710476  0.829008  1
  O  O39  1  0.643179  0.789525  0.170992  1
  O  O40  1  0.734107  0.570960  0.768856  1
  O  O41  1  0.234107  0.929040  0.231143  1
  O  O42  1  0.265893  0.429040  0.231144  1
  O  O43  1  0.765893  0.070960  0.768857  1
  O  O44  1  0.671521  0.408199  0.899358  1
  O  O45  1  0.171520  0.091801  0.100641  1
  O  O46  1  0.328479  0.591801  0.100642  1
  O  O47  1  0.828480  0.908199  0.899359  1
  O  O48  1  0.753398  0.606363  0.958836  1
  O  O49  1  0.253397  0.893636  0.041162  1
  O  O50  1  0.246602  0.393637  0.041164  1
  O  O51  1  0.746603  0.106364  0.958838  1
