# generated using pymatgen
data_La5Nd11AlCd3Ir4
_symmetry_space_group_name_H-M   'P 1'
_cell_length_a   9.96299186
_cell_length_b   10.01041778
_cell_length_c   10.01041811
_cell_angle_alpha   59.88284459
_cell_angle_beta   60.11167697
_cell_angle_gamma   60.11168335
_symmetry_Int_Tables_number   1
_chemical_formula_structural   La5Nd11AlCd3Ir4
_chemical_formula_sum   'La5 Nd11 Al1 Cd3 Ir4'
_cell_volume   706.51755516
_cell_formula_units_Z   1
loop_
 _symmetry_equiv_pos_site_id
 _symmetry_equiv_pos_as_xyz
  1  'x, y, z'
loop_
 _atom_site_type_symbol
 _atom_site_label
 _atom_site_symmetry_multiplicity
 _atom_site_fract_x
 _atom_site_fract_y
 _atom_site_fract_z
 _atom_site_occupancy
  La  La0  1  0.345962  0.348122  0.348122  1
  La  La1  1  0.350347  0.349097  0.953766  1
  La  La2  1  0.350347  0.953766  0.349097  1
  La  La3  1  0.953173  0.350972  0.350972  1
  La  La4  1  0.812577  0.187160  0.187160  1
  Nd  Nd5  1  0.190562  0.808197  0.808197  1
  Nd  Nd6  1  0.190818  0.809122  0.188754  1
  Nd  Nd7  1  0.807696  0.190672  0.805962  1
  Nd  Nd8  1  0.190818  0.188754  0.809122  1
  Nd  Nd9  1  0.807696  0.805962  0.190672  1
  Nd  Nd10  1  0.935657  0.563858  0.563858  1
  Nd  Nd11  1  0.561735  0.937170  0.937170  1
  Nd  Nd12  1  0.561849  0.936403  0.563580  1
  Nd  Nd13  1  0.938540  0.562073  0.937465  1
  Nd  Nd14  1  0.561849  0.563580  0.936403  1
  Nd  Nd15  1  0.938540  0.937465  0.562073  1
  Al  Al16  1  0.580787  0.580567  0.580567  1
  Cd  Cd17  1  0.579555  0.581504  0.261821  1
  Cd  Cd18  1  0.579555  0.261821  0.581504  1
  Cd  Cd19  1  0.261495  0.580274  0.580274  1
  Ir  Ir20  1  0.138492  0.143047  0.143047  1
  Ir  Ir21  1  0.142541  0.141629  0.575426  1
  Ir  Ir22  1  0.142541  0.575426  0.141629  1
  Ir  Ir23  1  0.576869  0.143357  0.143357  1
