# generated using pymatgen
data_YScSb5
_symmetry_space_group_name_H-M   'P 1'
_cell_length_a   4.20135900
_cell_length_b   13.06525681
_cell_length_c   14.23485153
_cell_angle_alpha   78.77250313
_cell_angle_beta   90.00000000
_cell_angle_gamma   90.00000000
_symmetry_Int_Tables_number   1
_chemical_formula_structural   YScSb5
_chemical_formula_sum   'Y4 Sc4 Sb20'
_cell_volume   766.42298114
_cell_formula_units_Z   4
loop_
 _symmetry_equiv_pos_site_id
 _symmetry_equiv_pos_as_xyz
  1  'x, y, z'
loop_
 _atom_site_type_symbol
 _atom_site_label
 _atom_site_symmetry_multiplicity
 _atom_site_fract_x
 _atom_site_fract_y
 _atom_site_fract_z
 _atom_site_occupancy
  Y  Y0  1  0.250000  0.669186  0.576436  1
  Y  Y1  1  0.750000  0.330814  0.423564  1
  Y  Y2  1  0.250000  0.953084  0.354713  1
  Y  Y3  1  0.750000  0.046916  0.645287  1
  Sc  Sc4  1  0.250000  0.397007  0.772921  1
  Sc  Sc5  1  0.750000  0.602993  0.227079  1
  Sc  Sc6  1  0.250000  0.657575  0.858696  1
  Sc  Sc7  1  0.750000  0.342425  0.141304  1
  Sb  Sb8  1  0.250000  0.148654  0.781127  1
  Sb  Sb9  1  0.750000  0.851346  0.218873  1
  Sb  Sb10  1  0.250000  0.142896  0.482582  1
  Sb  Sb11  1  0.750000  0.857104  0.517418  1
  Sb  Sb12  1  0.250000  0.162675  0.161079  1
  Sb  Sb13  1  0.750000  0.837325  0.838921  1
  Sb  Sb14  1  0.250000  0.422139  0.974894  1
  Sb  Sb15  1  0.750000  0.577861  0.025106  1
  Sb  Sb16  1  0.750000  0.028408  0.913289  1
  Sb  Sb17  1  0.250000  0.971592  0.086711  1
  Sb  Sb18  1  0.750000  0.142772  0.315614  1
  Sb  Sb19  1  0.250000  0.857228  0.684386  1
  Sb  Sb20  1  0.750000  0.280459  0.936661  1
  Sb  Sb21  1  0.250000  0.719541  0.063339  1
  Sb  Sb22  1  0.750000  0.289826  0.659486  1
  Sb  Sb23  1  0.250000  0.710174  0.340514  1
  Sb  Sb24  1  0.750000  0.572919  0.742387  1
  Sb  Sb25  1  0.250000  0.427081  0.257613  1
  Sb  Sb26  1  0.750000  0.570272  0.443552  1
  Sb  Sb27  1  0.250000  0.429728  0.556448  1
