# generated using pymatgen
data_Hf4AlFeRe6
_symmetry_space_group_name_H-M   'P 1'
_cell_length_a   5.23775700
_cell_length_b   5.23775708
_cell_length_c   8.54342900
_cell_angle_alpha   90.00000000
_cell_angle_beta   90.00000000
_cell_angle_gamma   119.99999319
_symmetry_Int_Tables_number   1
_chemical_formula_structural   Hf4AlFeRe6
_chemical_formula_sum   'Hf4 Al1 Fe1 Re6'
_cell_volume   202.98015250
_cell_formula_units_Z   1
loop_
 _symmetry_equiv_pos_site_id
 _symmetry_equiv_pos_as_xyz
  1  'x, y, z'
loop_
 _atom_site_type_symbol
 _atom_site_label
 _atom_site_symmetry_multiplicity
 _atom_site_fract_x
 _atom_site_fract_y
 _atom_site_fract_z
 _atom_site_occupancy
  Hf  Hf0  1  0.333333  0.666667  0.432390  1
  Hf  Hf1  1  0.666667  0.333333  0.936195  1
  Hf  Hf2  1  0.666667  0.333333  0.567610  1
  Hf  Hf3  1  0.333333  0.666667  0.063805  1
  Al  Al4  1  0.000000  0.000000  0.500000  1
  Fe  Fe5  1  0.000000  0.000000  0.000000  1
  Re  Re6  1  0.169412  0.338825  0.753469  1
  Re  Re7  1  0.830588  0.169412  0.246531  1
  Re  Re8  1  0.338825  0.169412  0.246531  1
  Re  Re9  1  0.661175  0.830588  0.753469  1
  Re  Re10  1  0.830588  0.661175  0.246531  1
  Re  Re11  1  0.169412  0.830588  0.753469  1
