# generated using pymatgen
data_Zr6Tl4FeCl18
_symmetry_space_group_name_H-M   'P 1'
_cell_length_a   10.24439072
_cell_length_b   10.40911770
_cell_length_c   10.53957100
_cell_angle_alpha   118.35878765
_cell_angle_beta   100.08973324
_cell_angle_gamma   104.47525459
_symmetry_Int_Tables_number   1
_chemical_formula_structural   Zr6Tl4FeCl18
_chemical_formula_sum   'Zr6 Tl4 Fe1 Cl18'
_cell_volume   898.83634286
_cell_formula_units_Z   1
loop_
 _symmetry_equiv_pos_site_id
 _symmetry_equiv_pos_as_xyz
  1  'x, y, z'
loop_
 _atom_site_type_symbol
 _atom_site_label
 _atom_site_symmetry_multiplicity
 _atom_site_fract_x
 _atom_site_fract_y
 _atom_site_fract_z
 _atom_site_occupancy
  Zr  Zr0  1  0.158099  0.059226  0.240024  1
  Zr  Zr1  1  0.841901  0.940774  0.759976  1
  Zr  Zr2  1  0.855471  0.131314  0.138111  1
  Zr  Zr3  1  0.144529  0.868686  0.861889  1
  Zr  Zr4  1  0.153068  0.249659  0.046852  1
  Zr  Zr5  1  0.846932  0.750341  0.953148  1
  Tl  Tl6  1  0.651342  0.536256  0.224806  1
  Tl  Tl7  1  0.348658  0.463744  0.775194  1
  Tl  Tl8  1  0.684563  0.226852  0.562361  1
  Tl  Tl9  1  0.315437  0.773148  0.437639  1
  Fe  Fe10  1  0.000000  0.000000  0.000000  1
  Cl  Cl11  1  0.011046  0.404615  0.193913  1
  Cl  Cl12  1  0.988954  0.595385  0.806087  1
  Cl  Cl13  1  0.327064  0.330715  0.306552  1
  Cl  Cl14  1  0.672936  0.669285  0.693448  1
  Cl  Cl15  1  0.330275  0.521482  0.102327  1
  Cl  Cl16  1  0.669725  0.478518  0.897673  1
  Cl  Cl17  1  0.003116  0.797742  0.205349  1
  Cl  Cl18  1  0.996884  0.202258  0.794651  1
  Cl  Cl19  1  0.705947  0.276713  0.290176  1
  Cl  Cl20  1  0.294053  0.723287  0.709824  1
  Cl  Cl21  1  0.313968  0.127362  0.904839  1
  Cl  Cl22  1  0.686032  0.872638  0.095161  1
  Cl  Cl23  1  0.016063  0.200420  0.400019  1
  Cl  Cl24  1  0.983937  0.799580  0.599981  1
  Cl  Cl25  1  0.315621  0.923123  0.107791  1
  Cl  Cl26  1  0.684379  0.076877  0.892209  1
  Cl  Cl27  1  0.338797  0.122855  0.500086  1
  Cl  Cl28  1  0.661203  0.877145  0.499914  1
