# generated using pymatgen
data_AgBi3Ru2(PtO7)2
_symmetry_space_group_name_H-M   'P 1'
_cell_length_a   7.42176445
_cell_length_b   7.44238861
_cell_length_c   7.26573514
_cell_angle_alpha   59.19241061
_cell_angle_beta   58.88475995
_cell_angle_gamma   59.90804099
_symmetry_Int_Tables_number   1
_chemical_formula_structural   AgBi3Ru2(PtO7)2
_chemical_formula_sum   'Ag1 Bi3 Ru2 Pt2 O14'
_cell_volume   279.39447520
_cell_formula_units_Z   1
loop_
 _symmetry_equiv_pos_site_id
 _symmetry_equiv_pos_as_xyz
  1  'x, y, z'
loop_
 _atom_site_type_symbol
 _atom_site_label
 _atom_site_symmetry_multiplicity
 _atom_site_fract_x
 _atom_site_fract_y
 _atom_site_fract_z
 _atom_site_occupancy
  Ag  Ag0  1  0.125000  0.125000  0.625000  1
  Bi  Bi1  1  0.125000  0.625000  0.125000  1
  Bi  Bi2  1  0.625000  0.125000  0.125000  1
  Bi  Bi3  1  0.125000  0.125000  0.125000  1
  Ru  Ru4  1  0.625000  0.125000  0.625000  1
  Ru  Ru5  1  0.625000  0.625000  0.625000  1
  Pt  Pt6  1  0.625000  0.625000  0.125000  1
  Pt  Pt7  1  0.125000  0.625000  0.625000  1
  O  O8  1  0.246481  0.246076  0.261367  1
  O  O9  1  0.003519  0.003924  0.988633  1
  O  O10  1  0.573349  0.940212  0.546227  1
  O  O11  1  0.291130  0.711655  0.285559  1
  O  O12  1  0.543905  0.539561  0.959346  1
  O  O13  1  0.947119  0.550825  0.545282  1
  O  O14  1  0.543905  0.957188  0.959346  1
  O  O15  1  0.947119  0.956774  0.545282  1
  O  O16  1  0.958870  0.538345  0.964441  1
  O  O17  1  0.706095  0.292812  0.290654  1
  O  O18  1  0.302881  0.699175  0.704718  1
  O  O19  1  0.676651  0.309788  0.703773  1
  O  O20  1  0.302881  0.293226  0.704718  1
  O  O21  1  0.706095  0.710439  0.290654  1
