# generated using pymatgen
data_TaTi3GaC2O
_symmetry_space_group_name_H-M   'P 1'
_cell_length_a   3.06606300
_cell_length_b   3.06606323
_cell_length_c   23.69707700
_cell_angle_alpha   90.00000000
_cell_angle_beta   90.00000000
_cell_angle_gamma   119.99998675
_symmetry_Int_Tables_number   1
_chemical_formula_structural   TaTi3GaC2O
_chemical_formula_sum   'Ta2 Ti6 Ga2 C4 O2'
_cell_volume   192.92461859
_cell_formula_units_Z   2
loop_
 _symmetry_equiv_pos_site_id
 _symmetry_equiv_pos_as_xyz
  1  'x, y, z'
loop_
 _atom_site_type_symbol
 _atom_site_label
 _atom_site_symmetry_multiplicity
 _atom_site_fract_x
 _atom_site_fract_y
 _atom_site_fract_z
 _atom_site_occupancy
  Ta  Ta0  1  0.000000  0.000000  0.341730  1
  Ta  Ta1  1  0.000000  0.000000  0.658270  1
  Ti  Ti2  1  0.000000  0.000000  0.844821  1
  Ti  Ti3  1  0.000000  0.000000  0.155179  1
  Ti  Ti4  1  0.333333  0.666667  0.442376  1
  Ti  Ti5  1  0.666667  0.333333  0.557624  1
  Ti  Ti6  1  0.666667  0.333333  0.942090  1
  Ti  Ti7  1  0.333333  0.666667  0.057910  1
  Ga  Ga8  1  0.333333  0.666667  0.246571  1
  Ga  Ga9  1  0.666667  0.333333  0.753429  1
  C  C10  1  0.666667  0.333333  0.394148  1
  C  C11  1  0.333333  0.666667  0.605852  1
  C  C12  1  0.333333  0.666667  0.893446  1
  C  C13  1  0.666667  0.333333  0.106554  1
  O  O14  1  0.000000  0.000000  0.500000  1
  O  O15  1  0.000000  0.000000  0.000000  1
