# generated using pymatgen
data_Yb2Tm2Sb6Rh7
_symmetry_space_group_name_H-M   'P 1'
_cell_length_a   7.57442664
_cell_length_b   7.59930041
_cell_length_c   7.57442686
_cell_angle_alpha   109.45455609
_cell_angle_beta   109.37165594
_cell_angle_gamma   109.45454960
_symmetry_Int_Tables_number   1
_chemical_formula_structural   Yb2Tm2Sb6Rh7
_chemical_formula_sum   'Yb2 Tm2 Sb6 Rh7'
_cell_volume   336.17182467
_cell_formula_units_Z   1
loop_
 _symmetry_equiv_pos_site_id
 _symmetry_equiv_pos_as_xyz
  1  'x, y, z'
loop_
 _atom_site_type_symbol
 _atom_site_label
 _atom_site_symmetry_multiplicity
 _atom_site_fract_x
 _atom_site_fract_y
 _atom_site_fract_z
 _atom_site_occupancy
  Yb  Yb0  1  0.500000  0.000000  0.000000  1
  Yb  Yb1  1  0.000000  0.000000  0.500000  1
  Tm  Tm2  1  0.000000  0.500000  0.000000  1
  Tm  Tm3  1  0.500000  0.500000  0.500000  1
  Sb  Sb4  1  0.317417  0.000000  0.317417  1
  Sb  Sb5  1  0.001354  0.684104  0.682750  1
  Sb  Sb6  1  0.682750  0.684104  0.001354  1
  Sb  Sb7  1  0.682583  0.000000  0.682583  1
  Sb  Sb8  1  0.998646  0.315896  0.317250  1
  Sb  Sb9  1  0.317250  0.315896  0.998646  1
  Rh  Rh10  1  0.250000  0.500000  0.750000  1
  Rh  Rh11  1  0.503879  0.253961  0.750082  1
  Rh  Rh12  1  0.750082  0.253961  0.503879  1
  Rh  Rh13  1  0.496121  0.746039  0.249918  1
  Rh  Rh14  1  0.000000  0.000000  0.000000  1
  Rh  Rh15  1  0.249918  0.746039  0.496121  1
  Rh  Rh16  1  0.750000  0.500000  0.250000  1
