# generated using pymatgen
data_YThOsC2
_symmetry_space_group_name_H-M   'P 1'
_cell_length_a   5.28487600
_cell_length_b   6.59847900
_cell_length_c   9.80308000
_cell_angle_alpha   90.00000000
_cell_angle_beta   90.00000000
_cell_angle_gamma   90.00000000
_symmetry_Int_Tables_number   1
_chemical_formula_structural   YThOsC2
_chemical_formula_sum   'Y4 Th4 Os4 C8'
_cell_volume   341.85441058
_cell_formula_units_Z   4
loop_
 _symmetry_equiv_pos_site_id
 _symmetry_equiv_pos_as_xyz
  1  'x, y, z'
loop_
 _atom_site_type_symbol
 _atom_site_label
 _atom_site_symmetry_multiplicity
 _atom_site_fract_x
 _atom_site_fract_y
 _atom_site_fract_z
 _atom_site_occupancy
  Y  Y0  1  0.250000  0.676309  0.550194  1
  Y  Y1  1  0.750000  0.323691  0.449806  1
  Y  Y2  1  0.750000  0.823691  0.050194  1
  Y  Y3  1  0.250000  0.176309  0.949806  1
  Th  Th4  1  0.250000  0.524934  0.214349  1
  Th  Th5  1  0.750000  0.475066  0.785651  1
  Th  Th6  1  0.750000  0.975066  0.714349  1
  Th  Th7  1  0.250000  0.024934  0.285651  1
  Os  Os8  1  0.250000  0.729933  0.861869  1
  Os  Os9  1  0.750000  0.270067  0.138131  1
  Os  Os10  1  0.750000  0.770067  0.361869  1
  Os  Os11  1  0.250000  0.229933  0.638131  1
  C  C12  1  0.250000  0.464500  0.760823  1
  C  C13  1  0.750000  0.535500  0.239177  1
  C  C14  1  0.750000  0.035500  0.260823  1
  C  C15  1  0.250000  0.964500  0.739177  1
  C  C16  1  0.250000  0.832449  0.054927  1
  C  C17  1  0.750000  0.167551  0.945073  1
  C  C18  1  0.750000  0.667551  0.554927  1
  C  C19  1  0.250000  0.332449  0.445073  1
