# generated using pymatgen
data_NaSb12(PdRu)2
_symmetry_space_group_name_H-M   'P 1'
_cell_length_a   8.19348349
_cell_length_b   8.19902719
_cell_length_c   8.19348500
_cell_angle_alpha   109.53304822
_cell_angle_beta   109.34758001
_cell_angle_gamma   109.50562603
_symmetry_Int_Tables_number   1
_chemical_formula_structural   NaSb12(PdRu)2
_chemical_formula_sum   'Na1 Sb12 Pd2 Ru2'
_cell_volume   423.86104046
_cell_formula_units_Z   1
loop_
 _symmetry_equiv_pos_site_id
 _symmetry_equiv_pos_as_xyz
  1  'x, y, z'
loop_
 _atom_site_type_symbol
 _atom_site_label
 _atom_site_symmetry_multiplicity
 _atom_site_fract_x
 _atom_site_fract_y
 _atom_site_fract_z
 _atom_site_occupancy
  Na  Na0  1  0.000000  0.000000  0.000000  1
  Sb  Sb1  1  0.157609  0.494625  0.337016  1
  Sb  Sb2  1  0.502940  0.653716  0.839874  1
  Sb  Sb3  1  0.337373  0.840036  0.185943  1
  Sb  Sb4  1  0.813841  0.653716  0.150776  1
  Sb  Sb5  1  0.654094  0.840036  0.502663  1
  Sb  Sb6  1  0.186159  0.346284  0.849224  1
  Sb  Sb7  1  0.662627  0.159964  0.814057  1
  Sb  Sb8  1  0.345906  0.159964  0.497337  1
  Sb  Sb9  1  0.497060  0.346284  0.160126  1
  Sb  Sb10  1  0.842391  0.505375  0.662984  1
  Sb  Sb11  1  0.846883  0.193252  0.346367  1
  Sb  Sb12  1  0.153117  0.806748  0.653633  1
  Pd  Pd13  1  0.500000  0.000000  0.000000  1
  Pd  Pd14  1  0.000000  0.000000  0.500000  1
  Ru  Ru15  1  0.500000  0.500000  0.500000  1
  Ru  Ru16  1  0.000000  0.500000  0.000000  1
