# generated using pymatgen
data_Ba4TaCrO8
_symmetry_space_group_name_H-M   'P 1'
_cell_length_a   7.36587798
_cell_length_b   7.36587849
_cell_length_c   5.76790800
_cell_angle_alpha   90.00000000
_cell_angle_beta   90.00000000
_cell_angle_gamma   133.86373187
_symmetry_Int_Tables_number   1
_chemical_formula_structural   Ba4TaCrO8
_chemical_formula_sum   'Ba4 Ta1 Cr1 O8'
_cell_volume   225.62985771
_cell_formula_units_Z   1
loop_
 _symmetry_equiv_pos_site_id
 _symmetry_equiv_pos_as_xyz
  1  'x, y, z'
loop_
 _atom_site_type_symbol
 _atom_site_label
 _atom_site_symmetry_multiplicity
 _atom_site_fract_x
 _atom_site_fract_y
 _atom_site_fract_z
 _atom_site_occupancy
  Ba  Ba0  1  0.647206  0.352794  0.000000  1
  Ba  Ba1  1  0.144712  0.855288  0.500000  1
  Ba  Ba2  1  0.855288  0.144712  0.500000  1
  Ba  Ba3  1  0.352794  0.647206  0.000000  1
  Ta  Ta4  1  0.500000  0.500000  0.500000  1
  Cr  Cr5  1  0.000000  0.000000  0.000000  1
  O  O6  1  0.746726  0.746726  0.745422  1
  O  O7  1  0.253274  0.253274  0.254578  1
  O  O8  1  0.253274  0.253274  0.745422  1
  O  O9  1  0.746726  0.746726  0.254578  1
  O  O10  1  0.846968  0.153032  0.000000  1
  O  O11  1  0.349629  0.650371  0.500000  1
  O  O12  1  0.650371  0.349629  0.500000  1
  O  O13  1  0.153032  0.846968  0.000000  1
