# generated using pymatgen
data_NdDyZnIn2Hg
_symmetry_space_group_name_H-M   'P 1'
_cell_length_a   4.80289200
_cell_length_b   4.80289158
_cell_length_c   7.53207500
_cell_angle_alpha   90.00000000
_cell_angle_beta   90.00000000
_cell_angle_gamma   120.00000288
_symmetry_Int_Tables_number   1
_chemical_formula_structural   NdDyZnIn2Hg
_chemical_formula_sum   'Nd1 Dy1 Zn1 In2 Hg1'
_cell_volume   150.47032501
_cell_formula_units_Z   1
loop_
 _symmetry_equiv_pos_site_id
 _symmetry_equiv_pos_as_xyz
  1  'x, y, z'
loop_
 _atom_site_type_symbol
 _atom_site_label
 _atom_site_symmetry_multiplicity
 _atom_site_fract_x
 _atom_site_fract_y
 _atom_site_fract_z
 _atom_site_occupancy
  Nd  Nd0  1  0.000000  0.000000  0.486700  1
  Dy  Dy1  1  0.000000  0.000000  0.992806  1
  Zn  Zn2  1  0.666667  0.333333  0.285346  1
  In  In3  1  0.333333  0.666667  0.219663  1
  In  In4  1  0.666667  0.333333  0.708277  1
  Hg  Hg5  1  0.333333  0.666667  0.807207  1
