# generated using pymatgen
data_Hf6Ti3NbGa5Sb
_symmetry_space_group_name_H-M   'P 1'
_cell_length_a   7.97101075
_cell_length_b   7.96585461
_cell_length_c   5.44791199
_cell_angle_alpha   89.94294526
_cell_angle_beta   89.99479301
_cell_angle_gamma   119.97186689
_symmetry_Int_Tables_number   1
_chemical_formula_structural   Hf6Ti3NbGa5Sb
_chemical_formula_sum   'Hf6 Ti3 Nb1 Ga5 Sb1'
_cell_volume   299.66030539
_cell_formula_units_Z   1
loop_
 _symmetry_equiv_pos_site_id
 _symmetry_equiv_pos_as_xyz
  1  'x, y, z'
loop_
 _atom_site_type_symbol
 _atom_site_label
 _atom_site_symmetry_multiplicity
 _atom_site_fract_x
 _atom_site_fract_y
 _atom_site_fract_z
 _atom_site_occupancy
  Hf  Hf0  1  0.232840  0.998456  0.248754  1
  Hf  Hf1  1  0.758890  0.998456  0.751719  1
  Hf  Hf2  1  0.011642  0.252270  0.247781  1
  Hf  Hf3  1  0.999269  0.753936  0.751097  1
  Hf  Hf4  1  0.757738  0.748467  0.248963  1
  Hf  Hf5  1  0.243904  0.246954  0.751465  1
  Ti  Ti6  1  0.669610  0.341866  0.995999  1
  Ti  Ti7  1  0.669507  0.341527  0.503827  1
  Ti  Ti8  1  0.328352  0.658601  0.502836  1
  Nb  Nb9  1  0.328879  0.659551  0.996631  1
  Ga  Ga10  1  0.396717  0.001851  0.748870  1
  Ga  Ga11  1  0.000669  0.600600  0.251811  1
  Ga  Ga12  1  0.995472  0.395222  0.747618  1
  Ga  Ga13  1  0.402261  0.396936  0.251963  1
  Ga  Ga14  1  0.602314  0.602325  0.748008  1
  Sb  Sb15  1  0.601938  0.002982  0.252658  1
