# generated using pymatgen
data_Cs4CrOsCl12
_symmetry_space_group_name_H-M   'P 1'
_cell_length_a   10.46987068
_cell_length_b   10.50452372
_cell_length_c   12.69382900
_cell_angle_alpha   114.43710171
_cell_angle_beta   114.34737097
_cell_angle_gamma   90.00129564
_symmetry_Int_Tables_number   1
_chemical_formula_structural   Cs4CrOsCl12
_chemical_formula_sum   'Cs8 Cr2 Os2 Cl24'
_cell_volume   1133.22221137
_cell_formula_units_Z   2
loop_
 _symmetry_equiv_pos_site_id
 _symmetry_equiv_pos_as_xyz
  1  'x, y, z'
loop_
 _atom_site_type_symbol
 _atom_site_label
 _atom_site_symmetry_multiplicity
 _atom_site_fract_x
 _atom_site_fract_y
 _atom_site_fract_z
 _atom_site_occupancy
  Cs  Cs0  1  0.229738  0.000080  0.000054  1
  Cs  Cs1  1  0.770262  0.999920  0.999946  1
  Cs  Cs2  1  0.229808  0.500138  0.000100  1
  Cs  Cs3  1  0.770192  0.499862  0.999900  1
  Cs  Cs4  1  0.999929  0.269900  0.499950  1
  Cs  Cs5  1  0.000071  0.730099  0.500048  1
  Cs  Cs6  1  0.499941  0.270023  0.499974  1
  Cs  Cs7  1  0.500059  0.729976  0.500024  1
  Cr  Cr8  1  0.125225  0.375268  0.250400  1
  Cr  Cr9  1  0.874775  0.624732  0.749601  1
  Os  Os10  1  0.625072  0.875080  0.250252  1
  Os  Os11  1  0.374928  0.124920  0.749749  1
  Cl  Cl12  1  0.011131  0.261183  0.022284  1
  Cl  Cl13  1  0.511940  0.762009  0.024073  1
  Cl  Cl14  1  0.347624  0.373110  0.246071  1
  Cl  Cl15  1  0.898564  0.373144  0.246161  1
  Cl  Cl16  1  0.624124  0.096472  0.248125  1
  Cl  Cl17  1  0.623956  0.651540  0.248126  1
  Cl  Cl18  1  0.403048  0.876278  0.252349  1
  Cl  Cl19  1  0.849071  0.876049  0.252212  1
  Cl  Cl20  1  0.127160  0.153251  0.254354  1
  Cl  Cl21  1  0.127115  0.601175  0.254301  1
  Cl  Cl22  1  0.738246  0.988142  0.476484  1
  Cl  Cl23  1  0.239268  0.489325  0.478497  1
  Cl  Cl24  1  0.760732  0.510675  0.521503  1
  Cl  Cl25  1  0.261755  0.011859  0.523516  1
  Cl  Cl26  1  0.872885  0.398825  0.745698  1
  Cl  Cl27  1  0.872840  0.846748  0.745645  1
  Cl  Cl28  1  0.150929  0.123951  0.747789  1
  Cl  Cl29  1  0.596952  0.123722  0.747652  1
  Cl  Cl30  1  0.376044  0.348459  0.751873  1
  Cl  Cl31  1  0.375876  0.903528  0.751874  1
  Cl  Cl32  1  0.101437  0.626856  0.753839  1
  Cl  Cl33  1  0.652376  0.626890  0.753929  1
  Cl  Cl34  1  0.488060  0.237991  0.975926  1
  Cl  Cl35  1  0.988869  0.738817  0.977716  1
