# generated using pymatgen
data_HoTm5(B7W)2
_symmetry_space_group_name_H-M   'P 1'
_cell_length_a   8.06935104
_cell_length_b   8.06935125
_cell_length_c   9.42542800
_cell_angle_alpha   90.00000000
_cell_angle_beta   90.00000000
_cell_angle_gamma   155.50329914
_symmetry_Int_Tables_number   1
_chemical_formula_structural   HoTm5(B7W)2
_chemical_formula_sum   'Ho1 Tm5 B14 W2'
_cell_volume   254.47808655
_cell_formula_units_Z   1
loop_
 _symmetry_equiv_pos_site_id
 _symmetry_equiv_pos_as_xyz
  1  'x, y, z'
loop_
 _atom_site_type_symbol
 _atom_site_label
 _atom_site_symmetry_multiplicity
 _atom_site_fract_x
 _atom_site_fract_y
 _atom_site_fract_z
 _atom_site_occupancy
  Ho  Ho0  1  0.753583  0.246417  0.750000  1
  Tm  Tm1  1  0.892507  0.107493  0.439915  1
  Tm  Tm2  1  0.107345  0.892655  0.559148  1
  Tm  Tm3  1  0.892507  0.107493  0.060085  1
  Tm  Tm4  1  0.107345  0.892655  0.940852  1
  Tm  Tm5  1  0.245454  0.754546  0.250000  1
  B  B6  1  0.728148  0.271852  0.465735  1
  B  B7  1  0.272217  0.727783  0.531834  1
  B  B8  1  0.728148  0.271852  0.034265  1
  B  B9  1  0.272217  0.727783  0.968166  1
  B  B10  1  0.635483  0.364517  0.147102  1
  B  B11  1  0.364613  0.635387  0.853640  1
  B  B12  1  0.635483  0.364517  0.352898  1
  B  B13  1  0.364613  0.635387  0.646360  1
  B  B14  1  0.518889  0.481111  0.091022  1
  B  B15  1  0.481175  0.518825  0.909031  1
  B  B16  1  0.518889  0.481111  0.408978  1
  B  B17  1  0.481175  0.518825  0.590969  1
  B  B18  1  0.452607  0.547393  0.250000  1
  B  B19  1  0.547635  0.452365  0.750000  1
  W  W20  1  0.052772  0.947228  0.250000  1
  W  W21  1  0.947194  0.052806  0.750000  1
