# generated using pymatgen
data_Ho4Lu4Re(B8Ru)3
_symmetry_space_group_name_H-M   'P 1'
_cell_length_a   3.62482900
_cell_length_b   9.06648434
_cell_length_c   11.45386102
_cell_angle_alpha   90.10840865
_cell_angle_beta   90.00000000
_cell_angle_gamma   90.00000000
_symmetry_Int_Tables_number   1
_chemical_formula_structural   Ho4Lu4Re(B8Ru)3
_chemical_formula_sum   'Ho4 Lu4 Re1 B24 Ru3'
_cell_volume   376.42423070
_cell_formula_units_Z   1
loop_
 _symmetry_equiv_pos_site_id
 _symmetry_equiv_pos_as_xyz
  1  'x, y, z'
loop_
 _atom_site_type_symbol
 _atom_site_label
 _atom_site_symmetry_multiplicity
 _atom_site_fract_x
 _atom_site_fract_y
 _atom_site_fract_z
 _atom_site_occupancy
  Ho  Ho0  1  0.000000  0.322235  0.415052  1
  Ho  Ho1  1  0.000000  0.680608  0.587870  1
  Ho  Ho2  1  0.000000  0.821898  0.083650  1
  Ho  Ho3  1  0.000000  0.176910  0.913356  1
  Lu  Lu4  1  0.000000  0.943476  0.371478  1
  Lu  Lu5  1  0.000000  0.055998  0.627613  1
  Lu  Lu6  1  0.000000  0.442976  0.128181  1
  Lu  Lu7  1  0.000000  0.555734  0.872644  1
  Re  Re8  1  0.000000  0.861633  0.820453  1
  B  B9  1  0.500000  0.554417  0.433326  1
  B  B10  1  0.500000  0.445850  0.566989  1
  B  B11  1  0.500000  0.054165  0.067491  1
  B  B12  1  0.500000  0.946821  0.933297  1
  B  B13  1  0.500000  0.749905  0.419376  1
  B  B14  1  0.500000  0.250414  0.580417  1
  B  B15  1  0.500000  0.249725  0.080845  1
  B  B16  1  0.500000  0.749586  0.919344  1
  B  B17  1  0.500000  0.791459  0.265619  1
  B  B18  1  0.500000  0.208300  0.733368  1
  B  B19  1  0.500000  0.291881  0.234401  1
  B  B20  1  0.500000  0.707243  0.765682  1
  B  B21  1  0.500000  0.630279  0.184601  1
  B  B22  1  0.500000  0.369121  0.815048  1
  B  B23  1  0.500000  0.131025  0.315529  1
  B  B24  1  0.500000  0.869481  0.684701  1
  B  B25  1  0.500000  0.982875  0.213063  1
  B  B26  1  0.500000  0.018556  0.786789  1
  B  B27  1  0.500000  0.482758  0.287488  1
  B  B28  1  0.500000  0.517103  0.713085  1
  B  B29  1  0.500000  0.602721  0.029150  1
  B  B30  1  0.500000  0.395202  0.971663  1
  B  B31  1  0.500000  0.104518  0.470763  1
  B  B32  1  0.500000  0.896335  0.527891  1
  Ru  Ru33  1  0.000000  0.638505  0.320326  1
  Ru  Ru34  1  0.000000  0.361606  0.679259  1
  Ru  Ru35  1  0.000000  0.138683  0.180194  1
