# generated using pymatgen
data_Dy2Lu10Os3Ru
_symmetry_space_group_name_H-M   'P 1'
_cell_length_a   6.19906203
_cell_length_b   7.30638316
_cell_length_c   8.86376100
_cell_angle_alpha   90.00000000
_cell_angle_beta   90.00000000
_cell_angle_gamma   90.05875723
_symmetry_Int_Tables_number   1
_chemical_formula_structural   Dy2Lu10Os3Ru
_chemical_formula_sum   'Dy2 Lu10 Os3 Ru1'
_cell_volume   401.46365537
_cell_formula_units_Z   1
loop_
 _symmetry_equiv_pos_site_id
 _symmetry_equiv_pos_as_xyz
  1  'x, y, z'
loop_
 _atom_site_type_symbol
 _atom_site_label
 _atom_site_symmetry_multiplicity
 _atom_site_fract_x
 _atom_site_fract_y
 _atom_site_fract_z
 _atom_site_occupancy
  Dy  Dy0  1  0.871844  0.540666  0.250000  1
  Dy  Dy1  1  0.630322  0.039374  0.250000  1
  Lu  Lu2  1  0.333868  0.674075  0.061001  1
  Lu  Lu3  1  0.166655  0.174904  0.438468  1
  Lu  Lu4  1  0.667619  0.325022  0.563536  1
  Lu  Lu5  1  0.831498  0.824533  0.935162  1
  Lu  Lu6  1  0.667619  0.325022  0.936464  1
  Lu  Lu7  1  0.831498  0.824533  0.564838  1
  Lu  Lu8  1  0.333868  0.674075  0.438999  1
  Lu  Lu9  1  0.166655  0.174904  0.061532  1
  Lu  Lu10  1  0.129356  0.460233  0.750000  1
  Lu  Lu11  1  0.370374  0.960554  0.750000  1
  Os  Os12  1  0.457281  0.383557  0.250000  1
  Os  Os13  1  0.962125  0.117180  0.750000  1
  Os  Os14  1  0.537819  0.617481  0.750000  1
  Ru  Ru15  1  0.041598  0.883889  0.250000  1
