# generated using pymatgen
data_Nd17Y3Sn16
_symmetry_space_group_name_H-M   'P 1'
_cell_length_a   8.25855717
_cell_length_b   8.41589921
_cell_length_c   15.96213000
_cell_angle_alpha   90.00000000
_cell_angle_beta   90.00000000
_cell_angle_gamma   89.91278125
_symmetry_Int_Tables_number   1
_chemical_formula_structural   Nd17Y3Sn16
_chemical_formula_sum   'Nd17 Y3 Sn16'
_cell_volume   1109.41758514
_cell_formula_units_Z   1
loop_
 _symmetry_equiv_pos_site_id
 _symmetry_equiv_pos_as_xyz
  1  'x, y, z'
loop_
 _atom_site_type_symbol
 _atom_site_label
 _atom_site_symmetry_multiplicity
 _atom_site_fract_x
 _atom_site_fract_y
 _atom_site_fract_z
 _atom_site_occupancy
  Nd  Nd0  1  0.018060  0.181484  0.401840  1
  Nd  Nd1  1  0.365102  0.838426  0.121332  1
  Nd  Nd2  1  0.135043  0.337740  0.620532  1
  Nd  Nd3  1  0.482202  0.681443  0.902630  1
  Nd  Nd4  1  0.864944  0.662083  0.122582  1
  Nd  Nd5  1  0.135043  0.337740  0.879468  1
  Nd  Nd6  1  0.482202  0.681443  0.597370  1
  Nd  Nd7  1  0.634301  0.162177  0.620261  1
  Nd  Nd8  1  0.803984  0.498339  0.750000  1
  Nd  Nd9  1  0.864944  0.662083  0.377418  1
  Nd  Nd10  1  0.018060  0.181484  0.098160  1
  Nd  Nd11  1  0.982333  0.818990  0.902602  1
  Nd  Nd12  1  0.634301  0.162177  0.879739  1
  Nd  Nd13  1  0.518364  0.318864  0.099189  1
  Nd  Nd14  1  0.365102  0.838426  0.378668  1
  Nd  Nd15  1  0.982333  0.818990  0.597398  1
  Nd  Nd16  1  0.518364  0.318864  0.400811  1
  Y  Y17  1  0.197481  0.501597  0.250000  1
  Y  Y18  1  0.697599  0.998767  0.250000  1
  Y  Y19  1  0.302528  0.002775  0.750000  1
  Sn  Sn20  1  0.793575  0.462993  0.541041  1
  Sn  Sn21  1  0.706742  0.965255  0.454986  1
  Sn  Sn22  1  0.674021  0.857160  0.750000  1
  Sn  Sn23  1  0.206403  0.534979  0.455144  1
  Sn  Sn24  1  0.293615  0.034025  0.955820  1
  Sn  Sn25  1  0.824480  0.351817  0.250000  1
  Sn  Sn26  1  0.793575  0.462993  0.958959  1
  Sn  Sn27  1  0.561525  0.615782  0.250000  1
  Sn  Sn28  1  0.206403  0.534979  0.044856  1
  Sn  Sn29  1  0.433883  0.382316  0.750000  1
  Sn  Sn30  1  0.178866  0.648562  0.750000  1
  Sn  Sn31  1  0.938435  0.113891  0.750000  1
  Sn  Sn32  1  0.293615  0.034025  0.544180  1
  Sn  Sn33  1  0.706742  0.965255  0.045014  1
  Sn  Sn34  1  0.323389  0.146962  0.250000  1
  Sn  Sn35  1  0.062438  0.885122  0.250000  1
