# generated using pymatgen
data_Dy8ScSi16Tc11
_symmetry_space_group_name_H-M   'P 1'
_cell_length_a   6.84769274
_cell_length_b   6.83490092
_cell_length_c   12.78553214
_cell_angle_alpha   90.15152335
_cell_angle_beta   90.10011389
_cell_angle_gamma   89.85856136
_symmetry_Int_Tables_number   1
_chemical_formula_structural   Dy8ScSi16Tc11
_chemical_formula_sum   'Dy8 Sc1 Si16 Tc11'
_cell_volume   598.40029160
_cell_formula_units_Z   1
loop_
 _symmetry_equiv_pos_site_id
 _symmetry_equiv_pos_as_xyz
  1  'x, y, z'
loop_
 _atom_site_type_symbol
 _atom_site_label
 _atom_site_symmetry_multiplicity
 _atom_site_fract_x
 _atom_site_fract_y
 _atom_site_fract_z
 _atom_site_occupancy
  Dy  Dy0  1  0.008474  0.661223  0.034547  1
  Dy  Dy1  1  0.999650  0.335268  0.528436  1
  Dy  Dy2  1  0.665055  0.002465  0.969501  1
  Dy  Dy3  1  0.158556  0.497311  0.780661  1
  Dy  Dy4  1  0.838007  0.502820  0.281111  1
  Dy  Dy5  1  0.495710  0.159552  0.221287  1
  Dy  Dy6  1  0.504055  0.834345  0.716547  1
  Dy  Dy7  1  0.338973  0.993676  0.468822  1
  Sc  Sc8  1  0.671511  0.494960  0.871647  1
  Si  Si9  1  0.023910  0.721805  0.434511  1
  Si  Si10  1  0.985148  0.275344  0.941859  1
  Si  Si11  1  0.719002  0.027852  0.564376  1
  Si  Si12  1  0.232025  0.480319  0.189884  1
  Si  Si13  1  0.781224  0.535102  0.674425  1
  Si  Si14  1  0.454884  0.204629  0.812692  1
  Si  Si15  1  0.518468  0.769379  0.312442  1
  Si  Si16  1  0.278513  0.977460  0.063070  1
  Si  Si17  1  0.808347  0.886053  0.188599  1
  Si  Si18  1  0.304060  0.616997  0.562943  1
  Si  Si19  1  0.697855  0.383996  0.070518  1
  Si  Si20  1  0.616405  0.306574  0.438614  1
  Si  Si21  1  0.376067  0.705755  0.936757  1
  Si  Si22  1  0.114850  0.190527  0.314482  1
  Si  Si23  1  0.190425  0.114689  0.687601  1
  Si  Si24  1  0.885291  0.818035  0.807215  1
  Tc  Tc25  1  0.318338  0.474203  0.381962  1
  Tc  Tc26  1  0.820237  0.016171  0.374825  1
  Tc  Tc27  1  0.993439  0.179169  0.132711  1
  Tc  Tc28  1  0.018320  0.827158  0.619062  1
  Tc  Tc29  1  0.477605  0.325948  0.625396  1
  Tc  Tc30  1  0.179803  0.995490  0.873569  1
  Tc  Tc31  1  0.666197  0.665767  0.496738  1
  Tc  Tc32  1  0.834548  0.168423  0.747299  1
  Tc  Tc33  1  0.164651  0.830899  0.252734  1
  Tc  Tc34  1  0.338353  0.334228  0.001580  1
  Tc  Tc35  1  0.522048  0.686412  0.121576  1
