# generated using pymatgen
data_Gd2Tm4RuO12
_symmetry_space_group_name_H-M   'P 1'
_cell_length_a   6.44686432
_cell_length_b   6.41546118
_cell_length_c   6.43850255
_cell_angle_alpha   98.80466691
_cell_angle_beta   98.55412240
_cell_angle_gamma   98.38331077
_symmetry_Int_Tables_number   1
_chemical_formula_structural   Gd2Tm4RuO12
_chemical_formula_sum   'Gd2 Tm4 Ru1 O12'
_cell_volume   256.32795332
_cell_formula_units_Z   1
loop_
 _symmetry_equiv_pos_site_id
 _symmetry_equiv_pos_as_xyz
  1  'x, y, z'
loop_
 _atom_site_type_symbol
 _atom_site_label
 _atom_site_symmetry_multiplicity
 _atom_site_fract_x
 _atom_site_fract_y
 _atom_site_fract_z
 _atom_site_occupancy
  Gd  Gd0  1  0.392053  0.688888  0.858194  1
  Gd  Gd1  1  0.141880  0.611575  0.311473  1
  Tm  Tm2  1  0.854271  0.384420  0.683270  1
  Tm  Tm3  1  0.611379  0.310966  0.143766  1
  Tm  Tm4  1  0.317828  0.144813  0.611230  1
  Tm  Tm5  1  0.687437  0.857183  0.390116  1
  Ru  Ru6  1  0.999324  0.001130  0.999166  1
  O  O7  1  0.925536  0.034245  0.698598  1
  O  O8  1  0.958567  0.298440  0.067965  1
  O  O9  1  0.591742  0.177155  0.432205  1
  O  O10  1  0.818570  0.565721  0.414562  1
  O  O11  1  0.299136  0.077200  0.962331  1
  O  O12  1  0.568698  0.400748  0.822370  1
  O  O13  1  0.440636  0.588580  0.180902  1
  O  O14  1  0.702161  0.931281  0.044436  1
  O  O15  1  0.174451  0.428015  0.591463  1
  O  O16  1  0.413233  0.827005  0.564756  1
  O  O17  1  0.028874  0.701412  0.923470  1
  O  O18  1  0.074226  0.971224  0.299726  1
