# generated using pymatgen
data_Tb5Sm(AuO7)2
_symmetry_space_group_name_H-M   'P 1'
_cell_length_a   6.53993177
_cell_length_b   6.53993261
_cell_length_c   7.50688422
_cell_angle_alpha   89.97727874
_cell_angle_beta   90.02272357
_cell_angle_gamma   108.90098706
_symmetry_Int_Tables_number   1
_chemical_formula_structural   Tb5Sm(AuO7)2
_chemical_formula_sum   'Tb5 Sm1 Au2 O14'
_cell_volume   303.76233142
_cell_formula_units_Z   1
loop_
 _symmetry_equiv_pos_site_id
 _symmetry_equiv_pos_as_xyz
  1  'x, y, z'
loop_
 _atom_site_type_symbol
 _atom_site_label
 _atom_site_symmetry_multiplicity
 _atom_site_fract_x
 _atom_site_fract_y
 _atom_site_fract_z
 _atom_site_occupancy
  Tb  Tb0  1  0.500000  0.500000  0.000000  1
  Tb  Tb1  1  0.528800  0.997829  0.751094  1
  Tb  Tb2  1  0.997829  0.528800  0.248906  1
  Tb  Tb3  1  0.471200  0.002171  0.248906  1
  Tb  Tb4  1  0.002171  0.471200  0.751094  1
  Sm  Sm5  1  0.500000  0.500000  0.500000  1
  Au  Au6  1  0.000000  0.000000  0.500000  1
  Au  Au7  1  0.000000  0.000000  0.000000  1
  O  O8  1  0.671688  0.921330  0.475536  1
  O  O9  1  0.921330  0.671688  0.524464  1
  O  O10  1  0.671630  0.918918  0.024502  1
  O  O11  1  0.918918  0.671630  0.975498  1
  O  O12  1  0.328312  0.078670  0.524464  1
  O  O13  1  0.078670  0.328312  0.475536  1
  O  O14  1  0.328370  0.081082  0.975498  1
  O  O15  1  0.081082  0.328370  0.024502  1
  O  O16  1  0.921907  0.078093  0.750028  1
  O  O17  1  0.078093  0.921907  0.249972  1
  O  O18  1  0.366890  0.633110  0.754042  1
  O  O19  1  0.633110  0.366890  0.245958  1
  O  O20  1  0.639602  0.360398  0.753588  1
  O  O21  1  0.360398  0.639602  0.246412  1
