# generated using pymatgen
data_Er4Os5Ru2W
_symmetry_space_group_name_H-M   'P 1'
_cell_length_a   5.41483900
_cell_length_b   5.20928408
_cell_length_c   9.02899900
_cell_angle_alpha   90.00000000
_cell_angle_beta   90.00000000
_cell_angle_gamma   121.31411365
_symmetry_Int_Tables_number   1
_chemical_formula_structural   Er4Os5Ru2W
_chemical_formula_sum   'Er4 Os5 Ru2 W1'
_cell_volume   217.58516137
_cell_formula_units_Z   1
loop_
 _symmetry_equiv_pos_site_id
 _symmetry_equiv_pos_as_xyz
  1  'x, y, z'
loop_
 _atom_site_type_symbol
 _atom_site_label
 _atom_site_symmetry_multiplicity
 _atom_site_fract_x
 _atom_site_fract_y
 _atom_site_fract_z
 _atom_site_occupancy
  Er  Er0  1  0.334688  0.669378  0.433257  1
  Er  Er1  1  0.671531  0.343061  0.563359  1
  Er  Er2  1  0.671531  0.343061  0.936641  1
  Er  Er3  1  0.334688  0.669378  0.066743  1
  Os  Os4  1  0.171945  0.821907  0.750000  1
  Os  Os5  1  0.335736  0.165840  0.250000  1
  Os  Os6  1  0.824894  0.649788  0.250000  1
  Os  Os7  1  0.649960  0.821907  0.750000  1
  Os  Os8  1  0.830104  0.165840  0.250000  1
  Ru  Ru9  1  0.007869  0.015737  0.002030  1
  Ru  Ru10  1  0.007869  0.015737  0.497970  1
  W  W11  1  0.159184  0.318367  0.750000  1
