# generated using pymatgen
data_Y6Tm14Cd6NiOs
_symmetry_space_group_name_H-M   'P 1'
_cell_length_a   9.52899400
_cell_length_b   9.52899151
_cell_length_c   9.69005600
_cell_angle_alpha   90.00000000
_cell_angle_beta   90.00000000
_cell_angle_gamma   120.00001466
_symmetry_Int_Tables_number   1
_chemical_formula_structural   Y6Tm14Cd6NiOs
_chemical_formula_sum   'Y6 Tm14 Cd6 Ni1 Os1'
_cell_volume   761.99276514
_cell_formula_units_Z   1
loop_
 _symmetry_equiv_pos_site_id
 _symmetry_equiv_pos_as_xyz
  1  'x, y, z'
loop_
 _atom_site_type_symbol
 _atom_site_label
 _atom_site_symmetry_multiplicity
 _atom_site_fract_x
 _atom_site_fract_y
 _atom_site_fract_z
 _atom_site_occupancy
  Y  Y0  1  0.540140  0.459861  0.250000  1
  Y  Y1  1  0.540139  0.080278  0.250000  1
  Y  Y2  1  0.919722  0.459860  0.250000  1
  Y  Y3  1  0.457540  0.542461  0.750000  1
  Y  Y4  1  0.457540  0.915081  0.750000  1
  Y  Y5  1  0.084919  0.542460  0.750000  1
  Tm  Tm6  1  0.000000  0.000000  0.499893  1
  Tm  Tm7  1  0.000000  0.000000  0.000107  1
  Tm  Tm8  1  0.209253  0.790747  0.440265  1
  Tm  Tm9  1  0.209253  0.418507  0.440265  1
  Tm  Tm10  1  0.581493  0.790747  0.440265  1
  Tm  Tm11  1  0.788923  0.211077  0.562598  1
  Tm  Tm12  1  0.788923  0.577846  0.562598  1
  Tm  Tm13  1  0.422154  0.211077  0.562598  1
  Tm  Tm14  1  0.788923  0.211077  0.937402  1
  Tm  Tm15  1  0.788923  0.577846  0.937402  1
  Tm  Tm16  1  0.422154  0.211077  0.937402  1
  Tm  Tm17  1  0.209253  0.790747  0.059735  1
  Tm  Tm18  1  0.209253  0.418507  0.059735  1
  Tm  Tm19  1  0.581493  0.790747  0.059735  1
  Cd  Cd20  1  0.885593  0.114407  0.250000  1
  Cd  Cd21  1  0.885593  0.771186  0.250000  1
  Cd  Cd22  1  0.228814  0.114407  0.250000  1
  Cd  Cd23  1  0.114472  0.885527  0.750000  1
  Cd  Cd24  1  0.114472  0.228945  0.750000  1
  Cd  Cd25  1  0.771055  0.885528  0.750000  1
  Ni  Ni26  1  0.666668  0.333333  0.750000  1
  Os  Os27  1  0.333333  0.666667  0.250000  1
