# generated using pymatgen
data_Cs8ThBi4
_symmetry_space_group_name_H-M   'P 1'
_cell_length_a   12.89525151
_cell_length_b   12.89508247
_cell_length_c   12.89302400
_cell_angle_alpha   60.00509419
_cell_angle_beta   60.00567571
_cell_angle_gamma   60.01097745
_symmetry_Int_Tables_number   1
_chemical_formula_structural   Cs8ThBi4
_chemical_formula_sum   'Cs16 Th2 Bi8'
_cell_volume   1516.23005542
_cell_formula_units_Z   2
loop_
 _symmetry_equiv_pos_site_id
 _symmetry_equiv_pos_as_xyz
  1  'x, y, z'
loop_
 _atom_site_type_symbol
 _atom_site_label
 _atom_site_symmetry_multiplicity
 _atom_site_fract_x
 _atom_site_fract_y
 _atom_site_fract_z
 _atom_site_occupancy
  Cs  Cs0  1  0.625000  0.125000  0.625000  1
  Cs  Cs1  1  0.625000  0.625000  0.125000  1
  Cs  Cs2  1  0.125000  0.625000  0.625000  1
  Cs  Cs3  1  0.625000  0.625000  0.625000  1
  Cs  Cs4  1  0.029509  0.029506  0.470493  1
  Cs  Cs5  1  0.779501  0.220490  0.220495  1
  Cs  Cs6  1  0.220493  0.779499  0.779515  1
  Cs  Cs7  1  0.779513  0.779503  0.220492  1
  Cs  Cs8  1  0.779501  0.220489  0.779514  1
  Cs  Cs9  1  0.220493  0.779499  0.220494  1
  Cs  Cs10  1  0.470499  0.029511  0.470486  1
  Cs  Cs11  1  0.470499  0.029510  0.029505  1
  Cs  Cs12  1  0.029507  0.470501  0.470485  1
  Cs  Cs13  1  0.029507  0.470501  0.029506  1
  Cs  Cs14  1  0.220491  0.220494  0.779507  1
  Cs  Cs15  1  0.470487  0.470497  0.029508  1
  Th  Th16  1  0.749985  0.749984  0.750016  1
  Th  Th17  1  0.500015  0.500016  0.499984  1
  Bi  Bi18  1  0.398795  0.803615  0.398795  1
  Bi  Bi19  1  0.851207  0.851202  0.446390  1
  Bi  Bi20  1  0.446394  0.851203  0.851201  1
  Bi  Bi21  1  0.851207  0.851202  0.851201  1
  Bi  Bi22  1  0.803606  0.398797  0.398799  1
  Bi  Bi23  1  0.398793  0.398798  0.398799  1
  Bi  Bi24  1  0.398793  0.398798  0.803610  1
  Bi  Bi25  1  0.851205  0.446385  0.851205  1
