# generated using pymatgen
data_Tb3Ga2Co7(NiB2)2
_symmetry_space_group_name_H-M   'P 1'
_cell_length_a   5.15238062
_cell_length_b   5.18043364
_cell_length_c   9.59404700
_cell_angle_alpha   89.99982427
_cell_angle_beta   90.00015164
_cell_angle_gamma   120.20576229
_symmetry_Int_Tables_number   1
_chemical_formula_structural   Tb3Ga2Co7(NiB2)2
_chemical_formula_sum   'Tb3 Ga2 Co7 Ni2 B4'
_cell_volume   221.31065429
_cell_formula_units_Z   1
loop_
 _symmetry_equiv_pos_site_id
 _symmetry_equiv_pos_as_xyz
  1  'x, y, z'
loop_
 _atom_site_type_symbol
 _atom_site_label
 _atom_site_symmetry_multiplicity
 _atom_site_fract_x
 _atom_site_fract_y
 _atom_site_fract_z
 _atom_site_occupancy
  Tb  Tb0  1  0.999990  0.000000  0.000008  1
  Tb  Tb1  1  0.999995  0.000000  0.341275  1
  Tb  Tb2  1  0.999997  0.000000  0.658708  1
  Ga  Ga3  1  0.340375  0.670219  0.000014  1
  Ga  Ga4  1  0.659608  0.329781  0.000014  1
  Co  Co5  1  0.499996  0.000000  0.500001  1
  Co  Co6  1  0.499995  0.500001  0.500012  1
  Co  Co7  1  0.999995  0.500000  0.500006  1
  Co  Co8  1  0.499995  0.000001  0.209052  1
  Co  Co9  1  0.499995  0.500000  0.209078  1
  Co  Co10  1  0.499996  0.000000  0.790983  1
  Co  Co11  1  0.499996  0.500000  0.790889  1
  Ni  Ni12  1  0.999994  0.500000  0.206362  1
  Ni  Ni13  1  0.999995  0.499999  0.793605  1
  B  B14  1  0.339841  0.669920  0.350582  1
  B  B15  1  0.660148  0.330081  0.350582  1
  B  B16  1  0.660149  0.330013  0.649417  1
  B  B17  1  0.339841  0.669988  0.649418  1
