# generated using pymatgen
data_Hf4TiNbSb6
_symmetry_space_group_name_H-M   'P 1'
_cell_length_a   5.44944032
_cell_length_b   5.44944015
_cell_length_c   13.70957900
_cell_angle_alpha   90.00000000
_cell_angle_beta   90.00000000
_cell_angle_gamma   138.92101349
_symmetry_Int_Tables_number   1
_chemical_formula_structural   Hf4TiNbSb6
_chemical_formula_sum   'Hf4 Ti1 Nb1 Sb6'
_cell_volume   267.52144373
_cell_formula_units_Z   1
loop_
 _symmetry_equiv_pos_site_id
 _symmetry_equiv_pos_as_xyz
  1  'x, y, z'
loop_
 _atom_site_type_symbol
 _atom_site_label
 _atom_site_symmetry_multiplicity
 _atom_site_fract_x
 _atom_site_fract_y
 _atom_site_fract_z
 _atom_site_occupancy
  Hf  Hf0  1  0.930541  0.069459  0.611390  1
  Hf  Hf1  1  0.070780  0.929220  0.388038  1
  Hf  Hf2  1  0.070780  0.929220  0.111962  1
  Hf  Hf3  1  0.930541  0.069459  0.888610  1
  Ti  Ti4  1  0.389215  0.610785  0.250000  1
  Nb  Nb5  1  0.608577  0.391423  0.750000  1
  Sb  Sb6  1  0.684187  0.315813  0.250000  1
  Sb  Sb7  1  0.316165  0.683835  0.750000  1
  Sb  Sb8  1  0.641568  0.358432  0.549039  1
  Sb  Sb9  1  0.358039  0.641961  0.448616  1
  Sb  Sb10  1  0.358039  0.641961  0.051384  1
  Sb  Sb11  1  0.641568  0.358432  0.950961  1
