# generated using pymatgen
data_Na2GeSbAu2
_symmetry_space_group_name_H-M   'P 1'
_cell_length_a   5.95461200
_cell_length_b   5.89593320
_cell_length_c   5.89593432
_cell_angle_alpha   134.06765831
_cell_angle_beta   102.69171834
_cell_angle_gamma   94.69128683
_symmetry_Int_Tables_number   1
_chemical_formula_structural   Na2GeSbAu2
_chemical_formula_sum   'Na2 Ge1 Sb1 Au2'
_cell_volume   136.72838694
_cell_formula_units_Z   1
loop_
 _symmetry_equiv_pos_site_id
 _symmetry_equiv_pos_as_xyz
  1  'x, y, z'
loop_
 _atom_site_type_symbol
 _atom_site_label
 _atom_site_symmetry_multiplicity
 _atom_site_fract_x
 _atom_site_fract_y
 _atom_site_fract_z
 _atom_site_occupancy
  Na  Na0  1  0.210186  0.710779  0.499407  1
  Na  Na1  1  0.599390  0.601305  0.998085  1
  Ge  Ge2  1  0.636545  0.325939  0.310606  1
  Sb  Sb3  1  0.007431  0.322217  0.685215  1
  Au  Au4  1  0.230416  0.015833  0.214583  1
  Au  Au5  1  0.773891  0.981788  0.792104  1
