# generated using pymatgen
data_HfZrSc4Co16(P6Ru)2
_symmetry_space_group_name_H-M   'P 1'
_cell_length_a   11.92608000
_cell_length_b   11.95818279
_cell_length_c   3.61759800
_cell_angle_alpha   90.00000000
_cell_angle_beta   90.00000000
_cell_angle_gamma   120.08909562
_symmetry_Int_Tables_number   1
_chemical_formula_structural   HfZrSc4Co16(P6Ru)2
_chemical_formula_sum   'Hf1 Zr1 Sc4 Co16 P12 Ru2'
_cell_volume   446.39902575
_cell_formula_units_Z   1
loop_
 _symmetry_equiv_pos_site_id
 _symmetry_equiv_pos_as_xyz
  1  'x, y, z'
loop_
 _atom_site_type_symbol
 _atom_site_label
 _atom_site_symmetry_multiplicity
 _atom_site_fract_x
 _atom_site_fract_y
 _atom_site_fract_z
 _atom_site_occupancy
  Hf  Hf0  1  0.000189  0.556326  0.000000  1
  Zr  Zr1  1  0.818660  0.816278  0.500000  1
  Sc  Sc2  1  0.000413  0.176614  0.500000  1
  Sc  Sc3  1  0.333955  0.666640  0.000000  1
  Sc  Sc4  1  0.666150  0.332930  0.000000  1
  Sc  Sc5  1  0.180706  0.997672  0.500000  1
  Co  Co6  1  0.624889  0.822509  0.000000  1
  Co  Co7  1  0.375369  0.198052  0.000000  1
  Co  Co8  1  0.999163  0.720854  0.500000  1
  Co  Co9  1  0.282962  0.281678  0.500000  1
  Co  Co10  1  0.871411  0.350592  0.500000  1
  Co  Co11  1  0.717297  0.998738  0.500000  1
  Co  Co12  1  0.817325  0.627291  0.000000  1
  Co  Co13  1  0.183126  0.810277  0.000000  1
  Co  Co14  1  0.358449  0.876865  0.500000  1
  Co  Co15  1  0.128091  0.478842  0.500000  1
  Co  Co16  1  0.642185  0.518542  0.500000  1
  Co  Co17  1  0.999547  0.000261  0.000000  1
  Co  Co18  1  0.515860  0.646486  0.500000  1
  Co  Co19  1  0.484256  0.130818  0.500000  1
  Co  Co20  1  0.196496  0.369482  0.000000  1
  Co  Co21  1  0.803746  0.173666  0.000000  1
  P  P22  1  0.000157  0.345971  0.000000  1
  P  P23  1  0.824173  0.514626  0.500000  1
  P  P24  1  0.684449  0.165591  0.500000  1
  P  P25  1  0.177122  0.174013  0.000000  1
  P  P26  1  0.639081  0.644118  0.000000  1
  P  P27  1  0.822655  0.998108  0.000000  1
  P  P28  1  0.516596  0.833608  0.500000  1
  P  P29  1  0.175883  0.691047  0.500000  1
  P  P30  1  0.359943  0.005110  0.000000  1
  P  P31  1  0.483215  0.316779  0.500000  1
  P  P32  1  0.001543  0.825304  0.000000  1
  P  P33  1  0.315223  0.481037  0.500000  1
  Ru  Ru34  1  0.447604  0.450253  0.000000  1
  Ru  Ru35  1  0.552112  0.003022  0.000000  1
