# generated using pymatgen
data_Dy(HfS2)4
_symmetry_space_group_name_H-M   'P 1'
_cell_length_a   7.62933382
_cell_length_b   7.62933236
_cell_length_c   7.62933274
_cell_angle_alpha   56.42157612
_cell_angle_beta   56.42158132
_cell_angle_gamma   56.42157540
_symmetry_Int_Tables_number   1
_chemical_formula_structural   Dy(HfS2)4
_chemical_formula_sum   'Dy1 Hf4 S8'
_cell_volume   288.02941309
_cell_formula_units_Z   1
loop_
 _symmetry_equiv_pos_site_id
 _symmetry_equiv_pos_as_xyz
  1  'x, y, z'
loop_
 _atom_site_type_symbol
 _atom_site_label
 _atom_site_symmetry_multiplicity
 _atom_site_fract_x
 _atom_site_fract_y
 _atom_site_fract_z
 _atom_site_occupancy
  Dy  Dy0  1  0.500000  0.500000  0.500000  1
  Hf  Hf1  1  0.000000  0.500000  0.500000  1
  Hf  Hf2  1  0.500000  0.000000  0.500000  1
  Hf  Hf3  1  0.500000  0.500000  0.000000  1
  Hf  Hf4  1  0.000000  0.000000  0.000000  1
  S  S5  1  0.247633  0.756997  0.756997  1
  S  S6  1  0.243003  0.243003  0.752367  1
  S  S7  1  0.752367  0.243003  0.243003  1
  S  S8  1  0.243003  0.752367  0.243003  1
  S  S9  1  0.257583  0.257583  0.257583  1
  S  S10  1  0.742417  0.742417  0.742417  1
  S  S11  1  0.756997  0.247633  0.756997  1
  S  S12  1  0.756997  0.756997  0.247633  1
