# generated using pymatgen
data_MoPb2(SeO3)4
_symmetry_space_group_name_H-M   'P 1'
_cell_length_a   6.92156700
_cell_length_b   9.28521978
_cell_length_c   9.67189700
_cell_angle_alpha   83.77643637
_cell_angle_beta   90.00000000
_cell_angle_gamma   90.00000000
_symmetry_Int_Tables_number   1
_chemical_formula_structural   MoPb2(SeO3)4
_chemical_formula_sum   'Mo2 Pb4 Se8 O24'
_cell_volume   617.93269654
_cell_formula_units_Z   2
loop_
 _symmetry_equiv_pos_site_id
 _symmetry_equiv_pos_as_xyz
  1  'x, y, z'
loop_
 _atom_site_type_symbol
 _atom_site_label
 _atom_site_symmetry_multiplicity
 _atom_site_fract_x
 _atom_site_fract_y
 _atom_site_fract_z
 _atom_site_occupancy
  Mo  Mo0  1  0.000000  0.000000  0.500000  1
  Mo  Mo1  1  0.500000  0.000000  0.000000  1
  Pb  Pb2  1  0.246049  0.539780  0.598266  1
  Pb  Pb3  1  0.746049  0.460220  0.901734  1
  Pb  Pb4  1  0.753951  0.460220  0.401734  1
  Pb  Pb5  1  0.253951  0.539780  0.098266  1
  Se  Se6  1  0.189954  0.835592  0.791450  1
  Se  Se7  1  0.689954  0.164408  0.708550  1
  Se  Se8  1  0.810046  0.164408  0.208550  1
  Se  Se9  1  0.310046  0.835592  0.291450  1
  Se  Se10  1  0.186219  0.247338  0.865142  1
  Se  Se11  1  0.686219  0.752662  0.634858  1
  Se  Se12  1  0.813781  0.752662  0.134858  1
  Se  Se13  1  0.313781  0.247338  0.365142  1
  O  O14  1  0.370107  0.963503  0.812097  1
  O  O15  1  0.870107  0.036497  0.687903  1
  O  O16  1  0.629893  0.036497  0.187903  1
  O  O17  1  0.129893  0.963503  0.312097  1
  O  O18  1  0.192974  0.861312  0.606315  1
  O  O19  1  0.692974  0.138688  0.893685  1
  O  O20  1  0.807026  0.138688  0.393685  1
  O  O21  1  0.307026  0.861312  0.106315  1
  O  O22  1  0.308038  0.673522  0.813413  1
  O  O23  1  0.808038  0.326478  0.686587  1
  O  O24  1  0.691962  0.326478  0.186587  1
  O  O25  1  0.191962  0.673522  0.313413  1
  O  O26  1  0.360211  0.352215  0.777101  1
  O  O27  1  0.860211  0.647785  0.722899  1
  O  O28  1  0.639789  0.647785  0.222899  1
  O  O29  1  0.139789  0.352215  0.277101  1
  O  O30  1  0.062732  0.376637  0.948891  1
  O  O31  1  0.562732  0.623363  0.551109  1
  O  O32  1  0.937268  0.623363  0.051109  1
  O  O33  1  0.437268  0.376637  0.448891  1
  O  O34  1  0.321268  0.173554  0.011211  1
  O  O35  1  0.821268  0.826446  0.488789  1
  O  O36  1  0.678732  0.826446  0.988789  1
  O  O37  1  0.178732  0.173554  0.511211  1
