# generated using pymatgen
data_La4Ho3Lu3Ru4
_symmetry_space_group_name_H-M   'P 1'
_cell_length_a   6.47977084
_cell_length_b   7.22388226
_cell_length_c   8.71069225
_cell_angle_alpha   96.55870633
_cell_angle_beta   111.79399121
_cell_angle_gamma   90.11518481
_symmetry_Int_Tables_number   1
_chemical_formula_structural   La4Ho3Lu3Ru4
_chemical_formula_sum   'La4 Ho3 Lu3 Ru4'
_cell_volume   375.68232544
_cell_formula_units_Z   1
loop_
 _symmetry_equiv_pos_site_id
 _symmetry_equiv_pos_as_xyz
  1  'x, y, z'
loop_
 _atom_site_type_symbol
 _atom_site_label
 _atom_site_symmetry_multiplicity
 _atom_site_fract_x
 _atom_site_fract_y
 _atom_site_fract_z
 _atom_site_occupancy
  La  La0  1  0.520992  0.088745  0.806018  1
  La  La1  1  0.478177  0.908878  0.196954  1
  La  La2  1  0.722291  0.410999  0.196702  1
  La  La3  1  0.282912  0.590766  0.802384  1
  Ho  Ho4  1  0.298219  0.314356  0.430324  1
  Ho  Ho5  1  0.699215  0.685326  0.570067  1
  Ho  Ho6  1  0.868875  0.186120  0.570111  1
  Lu  Lu7  1  0.127206  0.815530  0.428225  1
  Lu  Lu8  1  0.075268  0.249851  0.999988  1
  Lu  Lu9  1  0.927366  0.749368  0.000053  1
  Ru  Ru10  1  0.320410  0.582950  0.225040  1
  Ru  Ru11  1  0.678682  0.417881  0.777918  1
  Ru  Ru12  1  0.097895  0.918890  0.774270  1
  Ru  Ru13  1  0.902491  0.080340  0.221947  1
