# generated using pymatgen
data_Rb6AsP3W
_symmetry_space_group_name_H-M   'P 1'
_cell_length_a   10.54923360
_cell_length_b   10.54923246
_cell_length_c   8.43212856
_cell_angle_alpha   90.03600242
_cell_angle_beta   89.96399607
_cell_angle_gamma   120.05207730
_symmetry_Int_Tables_number   1
_chemical_formula_structural   Rb6AsP3W
_chemical_formula_sum   'Rb12 As2 P6 W2'
_cell_volume   812.23437712
_cell_formula_units_Z   2
loop_
 _symmetry_equiv_pos_site_id
 _symmetry_equiv_pos_as_xyz
  1  'x, y, z'
loop_
 _atom_site_type_symbol
 _atom_site_label
 _atom_site_symmetry_multiplicity
 _atom_site_fract_x
 _atom_site_fract_y
 _atom_site_fract_z
 _atom_site_occupancy
  Rb  Rb0  1  0.145071  0.295302  0.285262  1
  Rb  Rb1  1  0.853814  0.146186  0.786369  1
  Rb  Rb2  1  0.531867  0.468133  0.100814  1
  Rb  Rb3  1  0.070082  0.534461  0.605850  1
  Rb  Rb4  1  0.465539  0.929918  0.605850  1
  Rb  Rb5  1  0.533911  0.064591  0.102500  1
  Rb  Rb6  1  0.935409  0.466089  0.102500  1
  Rb  Rb7  1  0.465509  0.534491  0.605926  1
  Rb  Rb8  1  0.147909  0.852091  0.283604  1
  Rb  Rb9  1  0.704698  0.854929  0.285262  1
  Rb  Rb10  1  0.854041  0.707553  0.792757  1
  Rb  Rb11  1  0.292447  0.145959  0.792757  1
  As  As12  1  0.794803  0.587765  0.407274  1
  As  As13  1  0.412235  0.205197  0.407274  1
  P  P14  1  0.333586  0.666414  0.273930  1
  P  P15  1  0.668010  0.331990  0.774604  1
  P  P16  1  0.788806  0.211194  0.411522  1
  P  P17  1  0.211796  0.788204  0.909276  1
  P  P18  1  0.210875  0.422004  0.909329  1
  P  P19  1  0.577996  0.789125  0.909329  1
  W  W20  1  0.668065  0.331935  0.500172  1
  W  W21  1  0.333531  0.666469  0.997638  1
