# generated using pymatgen
data_LaMgInH
_symmetry_space_group_name_H-M   'P 1'
_cell_length_a   4.50418000
_cell_length_b   4.50418000
_cell_length_c   8.47670400
_cell_angle_alpha   90.00000000
_cell_angle_beta   90.00000000
_cell_angle_gamma   90.00000000
_symmetry_Int_Tables_number   1
_chemical_formula_structural   LaMgInH
_chemical_formula_sum   'La2 Mg2 In2 H2'
_cell_volume   171.97229771
_cell_formula_units_Z   2
loop_
 _symmetry_equiv_pos_site_id
 _symmetry_equiv_pos_as_xyz
  1  'x, y, z'
loop_
 _atom_site_type_symbol
 _atom_site_label
 _atom_site_symmetry_multiplicity
 _atom_site_fract_x
 _atom_site_fract_y
 _atom_site_fract_z
 _atom_site_occupancy
  La  La0  1  0.500000  0.000000  0.366706  1
  La  La1  1  0.000000  0.500000  0.633294  1
  Mg  Mg2  1  0.500000  0.500000  0.000000  1
  Mg  Mg3  1  0.000000  0.000000  0.000000  1
  In  In4  1  0.500000  0.000000  0.772825  1
  In  In5  1  0.000000  0.500000  0.227175  1
  H  H6  1  0.000000  0.000000  0.500000  1
  H  H7  1  0.500000  0.500000  0.500000  1
