# generated using pymatgen
data_Ho2ThSi6(Pd9Pt)2
_symmetry_space_group_name_H-M   'P 1'
_cell_length_a   8.73526662
_cell_length_b   8.73526749
_cell_length_c   8.73526799
_cell_angle_alpha   59.92261844
_cell_angle_beta   59.92261814
_cell_angle_gamma   59.92261499
_symmetry_Int_Tables_number   1
_chemical_formula_structural   Ho2ThSi6(Pd9Pt)2
_chemical_formula_sum   'Ho2 Th1 Si6 Pd18 Pt2'
_cell_volume   470.49023654
_cell_formula_units_Z   1
loop_
 _symmetry_equiv_pos_site_id
 _symmetry_equiv_pos_as_xyz
  1  'x, y, z'
loop_
 _atom_site_type_symbol
 _atom_site_label
 _atom_site_symmetry_multiplicity
 _atom_site_fract_x
 _atom_site_fract_y
 _atom_site_fract_z
 _atom_site_occupancy
  Ho  Ho0  1  0.749708  0.749708  0.749708  1
  Ho  Ho1  1  0.999991  0.999991  0.999991  1
  Th  Th2  1  0.249914  0.249914  0.249914  1
  Si  Si3  1  0.732501  0.266832  0.266832  1
  Si  Si4  1  0.267598  0.733106  0.733106  1
  Si  Si5  1  0.266832  0.732501  0.266832  1
  Si  Si6  1  0.733106  0.267598  0.733106  1
  Si  Si7  1  0.266832  0.266832  0.732501  1
  Si  Si8  1  0.733106  0.733106  0.267598  1
  Pd  Pd9  1  0.383755  0.383755  0.847152  1
  Pd  Pd10  1  0.383755  0.847152  0.383755  1
  Pd  Pd11  1  0.617351  0.617351  0.149544  1
  Pd  Pd12  1  0.617351  0.149544  0.617351  1
  Pd  Pd13  1  0.847152  0.383755  0.383755  1
  Pd  Pd14  1  0.149544  0.617351  0.617351  1
  Pd  Pd15  1  0.345449  0.000451  0.000451  1
  Pd  Pd16  1  0.653597  0.000561  0.000561  1
  Pd  Pd17  1  0.000435  0.345094  0.654015  1
  Pd  Pd18  1  0.000435  0.654015  0.345094  1
  Pd  Pd19  1  0.000451  0.345449  0.000451  1
  Pd  Pd20  1  0.654015  0.000435  0.345094  1
  Pd  Pd21  1  0.000561  0.653597  0.000561  1
  Pd  Pd22  1  0.345094  0.000435  0.654015  1
  Pd  Pd23  1  0.000451  0.000451  0.345449  1
  Pd  Pd24  1  0.000561  0.000561  0.653597  1
  Pd  Pd25  1  0.654015  0.345094  0.000435  1
  Pd  Pd26  1  0.345094  0.654015  0.000435  1
  Pt  Pt27  1  0.385031  0.385031  0.385031  1
  Pt  Pt28  1  0.616317  0.616317  0.616317  1
