# generated using pymatgen
data_Zr10BeSi(Bi2Pb)2
_symmetry_space_group_name_H-M   'P 1'
_cell_length_a   8.80615500
_cell_length_b   8.80615450
_cell_length_c   5.93169000
_cell_angle_alpha   89.99981699
_cell_angle_beta   89.99981407
_cell_angle_gamma   119.94861891
_symmetry_Int_Tables_number   1
_chemical_formula_structural   Zr10BeSi(Bi2Pb)2
_chemical_formula_sum   'Zr10 Be1 Si1 Bi4 Pb2'
_cell_volume   398.57157890
_cell_formula_units_Z   1
loop_
 _symmetry_equiv_pos_site_id
 _symmetry_equiv_pos_as_xyz
  1  'x, y, z'
loop_
 _atom_site_type_symbol
 _atom_site_label
 _atom_site_symmetry_multiplicity
 _atom_site_fract_x
 _atom_site_fract_y
 _atom_site_fract_z
 _atom_site_occupancy
  Zr  Zr0  1  0.666887  0.334021  0.501337  1
  Zr  Zr1  1  0.334021  0.666887  0.501337  1
  Zr  Zr2  1  0.332957  0.666415  0.998445  1
  Zr  Zr3  1  0.666415  0.332957  0.998445  1
  Zr  Zr4  1  0.749309  0.749309  0.255717  1
  Zr  Zr5  1  0.250397  0.000119  0.255656  1
  Zr  Zr6  1  0.000119  0.250397  0.255656  1
  Zr  Zr7  1  0.251144  0.251144  0.744043  1
  Zr  Zr8  1  0.748976  0.000400  0.744571  1
  Zr  Zr9  1  0.000400  0.748976  0.744571  1
  Be  Be10  1  0.000311  0.000311  0.499483  1
  Si  Si11  1  0.000190  0.000190  0.000444  1
  Bi  Bi12  1  0.392542  0.392542  0.248919  1
  Bi  Bi13  1  0.605939  0.000838  0.249571  1
  Bi  Bi14  1  0.000838  0.605939  0.249571  1
  Bi  Bi15  1  0.607843  0.607843  0.750618  1
  Pb  Pb16  1  0.391479  0.000232  0.750808  1
  Pb  Pb17  1  0.000232  0.391479  0.750808  1
