# generated using pymatgen
data_LuSc2Sn3Ir2Rh
_symmetry_space_group_name_H-M   'P 1'
_cell_length_a   7.60810737
_cell_length_b   7.57347842
_cell_length_c   3.51489200
_cell_angle_alpha   90.00000000
_cell_angle_beta   90.00000000
_cell_angle_gamma   119.84954581
_symmetry_Int_Tables_number   1
_chemical_formula_structural   LuSc2Sn3Ir2Rh
_chemical_formula_sum   'Lu1 Sc2 Sn3 Ir2 Rh1'
_cell_volume   175.65926906
_cell_formula_units_Z   1
loop_
 _symmetry_equiv_pos_site_id
 _symmetry_equiv_pos_as_xyz
  1  'x, y, z'
loop_
 _atom_site_type_symbol
 _atom_site_label
 _atom_site_symmetry_multiplicity
 _atom_site_fract_x
 _atom_site_fract_y
 _atom_site_fract_z
 _atom_site_occupancy
  Lu  Lu0  1  0.000000  0.602176  0.500000  1
  Sc  Sc1  1  0.397110  0.398816  0.500000  1
  Sc  Sc2  1  0.602890  0.001706  0.500000  1
  Sn  Sn3  1  0.723345  0.727512  0.000000  1
  Sn  Sn4  1  0.276655  0.004165  0.000000  1
  Sn  Sn5  1  0.000000  0.268683  0.000000  1
  Ir  Ir6  1  0.664375  0.331181  0.000000  1
  Ir  Ir7  1  0.335625  0.666806  0.000000  1
  Rh  Rh8  1  0.000000  0.998955  0.500000  1
