# generated using pymatgen
data_DyTmCo9P6Ru
_symmetry_space_group_name_H-M   'P 1'
_cell_length_a   3.67565900
_cell_length_b   10.33962600
_cell_length_c   11.76974900
_cell_angle_alpha   90.00000000
_cell_angle_beta   90.00000000
_cell_angle_gamma   90.00000000
_symmetry_Int_Tables_number   1
_chemical_formula_structural   DyTmCo9P6Ru
_chemical_formula_sum   'Dy2 Tm2 Co18 P12 Ru2'
_cell_volume   447.30859707
_cell_formula_units_Z   2
loop_
 _symmetry_equiv_pos_site_id
 _symmetry_equiv_pos_as_xyz
  1  'x, y, z'
loop_
 _atom_site_type_symbol
 _atom_site_label
 _atom_site_symmetry_multiplicity
 _atom_site_fract_x
 _atom_site_fract_y
 _atom_site_fract_z
 _atom_site_occupancy
  Dy  Dy0  1  0.250000  0.582404  0.702345  1
  Dy  Dy1  1  0.250000  0.917596  0.202345  1
  Tm  Tm2  1  0.750000  0.414104  0.295561  1
  Tm  Tm3  1  0.750000  0.085896  0.795561  1
  Co  Co4  1  0.750000  0.283637  0.008636  1
  Co  Co5  1  0.750000  0.216363  0.508636  1
  Co  Co6  1  0.250000  0.405817  0.486863  1
  Co  Co7  1  0.250000  0.094183  0.986863  1
  Co  Co8  1  0.750000  0.590661  0.509858  1
  Co  Co9  1  0.750000  0.909339  0.009858  1
  Co  Co10  1  0.250000  0.221140  0.176766  1
  Co  Co11  1  0.250000  0.278860  0.676766  1
  Co  Co12  1  0.750000  0.778636  0.822893  1
  Co  Co13  1  0.750000  0.721364  0.322893  1
  Co  Co14  1  0.250000  0.887385  0.702042  1
  Co  Co15  1  0.250000  0.612615  0.202042  1
  Co  Co16  1  0.750000  0.117136  0.301098  1
  Co  Co17  1  0.750000  0.382864  0.801098  1
  Co  Co18  1  0.250000  0.463746  0.932868  1
  Co  Co19  1  0.250000  0.036254  0.432868  1
  Co  Co20  1  0.750000  0.532358  0.069513  1
  Co  Co21  1  0.750000  0.967642  0.569513  1
  P  P22  1  0.250000  0.417155  0.112909  1
  P  P23  1  0.250000  0.082845  0.612909  1
  P  P24  1  0.750000  0.578389  0.887396  1
  P  P25  1  0.750000  0.921611  0.387396  1
  P  P26  1  0.250000  0.269480  0.868879  1
  P  P27  1  0.250000  0.230520  0.368879  1
  P  P28  1  0.750000  0.728560  0.132482  1
  P  P29  1  0.750000  0.771440  0.632482  1
  P  P30  1  0.250000  0.594182  0.390070  1
  P  P31  1  0.250000  0.905818  0.890070  1
  P  P32  1  0.750000  0.396836  0.608449  1
  P  P33  1  0.750000  0.103164  0.108449  1
  Ru  Ru34  1  0.250000  0.715335  0.991372  1
  Ru  Ru35  1  0.250000  0.784665  0.491372  1
