# generated using pymatgen
data_Lu20ZnBi8Sb3
_symmetry_space_group_name_H-M   'P 1'
_cell_length_a   8.02139444
_cell_length_b   9.30045900
_cell_length_c   11.72226390
_cell_angle_alpha   90.00000000
_cell_angle_beta   89.76828421
_cell_angle_gamma   90.00000000
_symmetry_Int_Tables_number   1
_chemical_formula_structural   Lu20ZnBi8Sb3
_chemical_formula_sum   'Lu20 Zn1 Bi8 Sb3'
_cell_volume   874.50480115
_cell_formula_units_Z   1
loop_
 _symmetry_equiv_pos_site_id
 _symmetry_equiv_pos_as_xyz
  1  'x, y, z'
loop_
 _atom_site_type_symbol
 _atom_site_label
 _atom_site_symmetry_multiplicity
 _atom_site_fract_x
 _atom_site_fract_y
 _atom_site_fract_z
 _atom_site_occupancy
  Lu  Lu0  1  0.182682  0.570182  0.445042  1
  Lu  Lu1  1  0.689262  0.934189  0.058792  1
  Lu  Lu2  1  0.811589  0.052995  0.557567  1
  Lu  Lu3  1  0.310783  0.434115  0.942077  1
  Lu  Lu4  1  0.811589  0.447005  0.557567  1
  Lu  Lu5  1  0.310783  0.065885  0.942077  1
  Lu  Lu6  1  0.182682  0.929818  0.445042  1
  Lu  Lu7  1  0.689262  0.565811  0.058792  1
  Lu  Lu8  1  0.026544  0.750000  0.989681  1
  Lu  Lu9  1  0.536154  0.750000  0.509420  1
  Lu  Lu10  1  0.973832  0.250000  0.010157  1
  Lu  Lu11  1  0.476417  0.250000  0.489323  1
  Lu  Lu12  1  0.177353  0.750000  0.711594  1
  Lu  Lu13  1  0.685753  0.750000  0.782305  1
  Lu  Lu14  1  0.816042  0.250000  0.283016  1
  Lu  Lu15  1  0.314170  0.250000  0.215506  1
  Lu  Lu16  1  0.855327  0.750000  0.293108  1
  Lu  Lu17  1  0.353164  0.750000  0.214090  1
  Lu  Lu18  1  0.146799  0.250000  0.715045  1
  Lu  Lu19  1  0.649119  0.250000  0.785335  1
  Zn  Zn20  1  0.905656  0.750000  0.541113  1
  Bi  Bi21  1  0.935903  0.497883  0.824244  1
  Bi  Bi22  1  0.435956  0.003156  0.676250  1
  Bi  Bi23  1  0.064148  0.996828  0.174886  1
  Bi  Bi24  1  0.562970  0.502394  0.323191  1
  Bi  Bi25  1  0.064148  0.503172  0.174886  1
  Bi  Bi26  1  0.562970  0.997606  0.323191  1
  Bi  Bi27  1  0.935903  0.002117  0.824244  1
  Bi  Bi28  1  0.435956  0.496844  0.676250  1
  Sb  Sb29  1  0.402842  0.750000  0.956273  1
  Sb  Sb30  1  0.096766  0.250000  0.457383  1
  Sb  Sb31  1  0.597476  0.250000  0.042557  1
