# generated using pymatgen
data_Tb4ThPb3C
_symmetry_space_group_name_H-M   'P 1'
_cell_length_a   9.10235100
_cell_length_b   9.18234126
_cell_length_c   6.65788900
_cell_angle_alpha   90.00000000
_cell_angle_beta   90.00000000
_cell_angle_gamma   119.71225159
_symmetry_Int_Tables_number   1
_chemical_formula_structural   Tb4ThPb3C
_chemical_formula_sum   'Tb8 Th2 Pb6 C2'
_cell_volume   483.31041875
_cell_formula_units_Z   2
loop_
 _symmetry_equiv_pos_site_id
 _symmetry_equiv_pos_as_xyz
  1  'x, y, z'
loop_
 _atom_site_type_symbol
 _atom_site_label
 _atom_site_symmetry_multiplicity
 _atom_site_fract_x
 _atom_site_fract_y
 _atom_site_fract_z
 _atom_site_occupancy
  Tb  Tb0  1  0.998364  0.214359  0.250000  1
  Tb  Tb1  1  0.001636  0.785641  0.750000  1
  Tb  Tb2  1  0.784005  0.785641  0.250000  1
  Tb  Tb3  1  0.215995  0.214359  0.750000  1
  Tb  Tb4  1  0.333039  0.666078  0.000000  1
  Tb  Tb5  1  0.666961  0.333922  0.000000  1
  Tb  Tb6  1  0.666961  0.333922  0.500000  1
  Tb  Tb7  1  0.333039  0.666078  0.500000  1
  Th  Th8  1  0.212994  0.000000  0.250000  1
  Th  Th9  1  0.787006  0.000000  0.750000  1
  Pb  Pb10  1  0.595209  0.000000  0.250000  1
  Pb  Pb11  1  0.404791  0.000000  0.750000  1
  Pb  Pb12  1  0.997100  0.591279  0.250000  1
  Pb  Pb13  1  0.002900  0.408721  0.750000  1
  Pb  Pb14  1  0.405821  0.408721  0.250000  1
  Pb  Pb15  1  0.594179  0.591279  0.750000  1
  C  C16  1  0.000000  0.000000  0.000000  1
  C  C17  1  0.000000  0.000000  0.500000  1
