# generated using pymatgen
data_Cs11Bi5Pb2
_symmetry_space_group_name_H-M   'P 1'
_cell_length_a   11.06520038
_cell_length_b   13.46770964
_cell_length_c   14.43176305
_cell_angle_alpha   103.52069629
_cell_angle_beta   96.76413868
_cell_angle_gamma   107.54322185
_symmetry_Int_Tables_number   1
_chemical_formula_structural   Cs11Bi5Pb2
_chemical_formula_sum   'Cs22 Bi10 Pb4'
_cell_volume   1952.26278915
_cell_formula_units_Z   2
loop_
 _symmetry_equiv_pos_site_id
 _symmetry_equiv_pos_as_xyz
  1  'x, y, z'
loop_
 _atom_site_type_symbol
 _atom_site_label
 _atom_site_symmetry_multiplicity
 _atom_site_fract_x
 _atom_site_fract_y
 _atom_site_fract_z
 _atom_site_occupancy
  Cs  Cs0  1  0.855033  0.574370  0.963572  1
  Cs  Cs1  1  0.144967  0.425630  0.036428  1
  Cs  Cs2  1  0.309115  0.895666  0.774571  1
  Cs  Cs3  1  0.690885  0.104334  0.225429  1
  Cs  Cs4  1  0.628992  0.164771  0.528847  1
  Cs  Cs5  1  0.371008  0.835229  0.471153  1
  Cs  Cs6  1  0.628134  0.672099  0.557348  1
  Cs  Cs7  1  0.371866  0.327901  0.442652  1
  Cs  Cs8  1  0.191040  0.556011  0.570112  1
  Cs  Cs9  1  0.808960  0.443989  0.429888  1
  Cs  Cs10  1  0.051150  0.704376  0.265606  1
  Cs  Cs11  1  0.948850  0.295624  0.734394  1
  Cs  Cs12  1  0.194665  0.075811  0.569668  1
  Cs  Cs13  1  0.805335  0.924189  0.430332  1
  Cs  Cs14  1  0.878176  0.094770  0.986442  1
  Cs  Cs15  1  0.121824  0.905230  0.013558  1
  Cs  Cs16  1  0.584741  0.225999  0.865971  1
  Cs  Cs17  1  0.415259  0.774001  0.134029  1
  Cs  Cs18  1  0.384033  0.244172  0.141092  1
  Cs  Cs19  1  0.615967  0.755828  0.858908  1
  Cs  Cs20  1  0.355502  0.416265  0.788383  1
  Cs  Cs21  1  0.644498  0.583735  0.211617  1
  Bi  Bi22  1  0.000286  0.765964  0.554441  1
  Bi  Bi23  1  0.999714  0.234036  0.445559  1
  Bi  Bi24  1  0.675659  0.459156  0.689521  1
  Bi  Bi25  1  0.324341  0.540844  0.310479  1
  Bi  Bi26  1  0.676457  0.979097  0.700099  1
  Bi  Bi27  1  0.323543  0.020903  0.299901  1
  Bi  Bi28  1  0.187369  0.145665  0.858899  1
  Bi  Bi29  1  0.812631  0.854335  0.141101  1
  Bi  Bi30  1  0.181243  0.630182  0.858850  1
  Bi  Bi31  1  0.818757  0.369818  0.141150  1
  Pb  Pb32  1  0.941290  0.930607  0.740470  1
  Pb  Pb33  1  0.058710  0.069393  0.259530  1
  Pb  Pb34  1  0.938917  0.668138  0.737589  1
  Pb  Pb35  1  0.061083  0.331862  0.262411  1
