# generated using pymatgen
data_Th10Al2InSb5
_symmetry_space_group_name_H-M   'P 1'
_cell_length_a   9.58248992
_cell_length_b   9.58248869
_cell_length_c   6.49900800
_cell_angle_alpha   90.00000000
_cell_angle_beta   90.00000000
_cell_angle_gamma   120.05012791
_symmetry_Int_Tables_number   1
_chemical_formula_structural   Th10Al2InSb5
_chemical_formula_sum   'Th10 Al2 In1 Sb5'
_cell_volume   516.55289071
_cell_formula_units_Z   1
loop_
 _symmetry_equiv_pos_site_id
 _symmetry_equiv_pos_as_xyz
  1  'x, y, z'
loop_
 _atom_site_type_symbol
 _atom_site_label
 _atom_site_symmetry_multiplicity
 _atom_site_fract_x
 _atom_site_fract_y
 _atom_site_fract_z
 _atom_site_occupancy
  Th  Th0  1  0.729169  0.729169  0.750000  1
  Th  Th1  1  0.273240  0.997459  0.750000  1
  Th  Th2  1  0.997459  0.273240  0.750000  1
  Th  Th3  1  0.271253  0.271253  0.250000  1
  Th  Th4  1  0.729377  0.000880  0.250000  1
  Th  Th5  1  0.000880  0.729377  0.250000  1
  Th  Th6  1  0.667006  0.332134  0.000427  1
  Th  Th7  1  0.332134  0.667006  0.000427  1
  Th  Th8  1  0.332134  0.667006  0.499573  1
  Th  Th9  1  0.667006  0.332134  0.499573  1
  Al  Al10  1  0.001351  0.001351  0.997294  1
  Al  Al11  1  0.001351  0.001351  0.502706  1
  In  In12  1  0.378132  0.378132  0.750000  1
  Sb  Sb13  1  0.618039  0.999218  0.750000  1
  Sb  Sb14  1  0.999218  0.618039  0.750000  1
  Sb  Sb15  1  0.617653  0.617653  0.250000  1
  Sb  Sb16  1  0.382328  0.002272  0.250000  1
  Sb  Sb17  1  0.002272  0.382328  0.250000  1
