# generated using pymatgen
data_Nd3Sm2(TcB3)2
_symmetry_space_group_name_H-M   'P 1'
_cell_length_a   8.75696006
_cell_length_b   8.75696026
_cell_length_c   8.75696048
_cell_angle_alpha   37.30381831
_cell_angle_beta   37.30381768
_cell_angle_gamma   37.30381534
_symmetry_Int_Tables_number   1
_chemical_formula_structural   Nd3Sm2(TcB3)2
_chemical_formula_sum   'Nd3 Sm2 Tc2 B6'
_cell_volume   221.11488503
_cell_formula_units_Z   1
loop_
 _symmetry_equiv_pos_site_id
 _symmetry_equiv_pos_as_xyz
  1  'x, y, z'
loop_
 _atom_site_type_symbol
 _atom_site_label
 _atom_site_symmetry_multiplicity
 _atom_site_fract_x
 _atom_site_fract_y
 _atom_site_fract_z
 _atom_site_occupancy
  Nd  Nd0  1  0.750201  0.750201  0.750201  1
  Nd  Nd1  1  0.249799  0.249799  0.249799  1
  Nd  Nd2  1  0.000000  0.000000  0.000000  1
  Sm  Sm3  1  0.580601  0.580601  0.580601  1
  Sm  Sm4  1  0.419399  0.419399  0.419399  1
  Tc  Tc5  1  0.886153  0.886153  0.886153  1
  Tc  Tc6  1  0.113847  0.113847  0.113847  1
  B  B7  1  0.500000  0.831190  0.168810  1
  B  B8  1  0.168810  0.500000  0.831190  1
  B  B9  1  0.831190  0.168810  0.500000  1
  B  B10  1  0.500000  0.168810  0.831190  1
  B  B11  1  0.831190  0.500000  0.168810  1
  B  B12  1  0.168810  0.831190  0.500000  1
