# generated using pymatgen
data_Dy4Y(In2Pd)2
_symmetry_space_group_name_H-M   'P 1'
_cell_length_a   3.66329000
_cell_length_b   8.11727000
_cell_length_c   18.31301600
_cell_angle_alpha   90.00000000
_cell_angle_beta   90.00000000
_cell_angle_gamma   90.00000000
_symmetry_Int_Tables_number   1
_chemical_formula_structural   Dy4Y(In2Pd)2
_chemical_formula_sum   'Dy8 Y2 In8 Pd4'
_cell_volume   544.55426919
_cell_formula_units_Z   2
loop_
 _symmetry_equiv_pos_site_id
 _symmetry_equiv_pos_as_xyz
  1  'x, y, z'
loop_
 _atom_site_type_symbol
 _atom_site_label
 _atom_site_symmetry_multiplicity
 _atom_site_fract_x
 _atom_site_fract_y
 _atom_site_fract_z
 _atom_site_occupancy
  Dy  Dy0  1  0.000000  0.743061  0.279890  1
  Dy  Dy1  1  0.000000  0.256939  0.720110  1
  Dy  Dy2  1  0.000000  0.756939  0.779890  1
  Dy  Dy3  1  0.000000  0.243061  0.220110  1
  Dy  Dy4  1  0.000000  0.618778  0.083798  1
  Dy  Dy5  1  0.000000  0.381222  0.916202  1
  Dy  Dy6  1  0.000000  0.881222  0.583798  1
  Dy  Dy7  1  0.000000  0.118778  0.416202  1
  Y  Y8  1  0.000000  0.500000  0.500000  1
  Y  Y9  1  0.000000  0.000000  0.000000  1
  In  In10  1  0.500000  0.707988  0.931831  1
  In  In11  1  0.500000  0.292012  0.068169  1
  In  In12  1  0.500000  0.792012  0.431831  1
  In  In13  1  0.500000  0.207988  0.568169  1
  In  In14  1  0.500000  0.576412  0.650005  1
  In  In15  1  0.500000  0.423588  0.349995  1
  In  In16  1  0.500000  0.923588  0.150005  1
  In  In17  1  0.500000  0.076412  0.849995  1
  Pd  Pd18  1  0.500000  0.525071  0.195824  1
  Pd  Pd19  1  0.500000  0.474929  0.804176  1
  Pd  Pd20  1  0.500000  0.974929  0.695824  1
  Pd  Pd21  1  0.500000  0.025071  0.304176  1
