# generated using pymatgen
data_Ca4Sb(MoO4)3
_symmetry_space_group_name_H-M   'P 1'
_cell_length_a   5.53898260
_cell_length_b   5.74302641
_cell_length_c   7.95441700
_cell_angle_alpha   89.96302678
_cell_angle_beta   90.37965187
_cell_angle_gamma   90.46532824
_symmetry_Int_Tables_number   1
_chemical_formula_structural   Ca4Sb(MoO4)3
_chemical_formula_sum   'Ca4 Sb1 Mo3 O12'
_cell_volume   253.02022362
_cell_formula_units_Z   1
loop_
 _symmetry_equiv_pos_site_id
 _symmetry_equiv_pos_as_xyz
  1  'x, y, z'
loop_
 _atom_site_type_symbol
 _atom_site_label
 _atom_site_symmetry_multiplicity
 _atom_site_fract_x
 _atom_site_fract_y
 _atom_site_fract_z
 _atom_site_occupancy
  Ca  Ca0  1  0.986100  0.949476  0.753272  1
  Ca  Ca1  1  0.485931  0.554505  0.251291  1
  Ca  Ca2  1  0.514069  0.445495  0.748709  1
  Ca  Ca3  1  0.013900  0.050524  0.246728  1
  Sb  Sb4  1  0.000000  0.500000  0.500000  1
  Mo  Mo5  1  0.500000  0.000000  0.000000  1
  Mo  Mo6  1  0.500000  0.000000  0.500000  1
  Mo  Mo7  1  0.000000  0.500000  0.000000  1
  O  O8  1  0.603274  0.957793  0.243028  1
  O  O9  1  0.185100  0.789819  0.439573  1
  O  O10  1  0.199708  0.795638  0.049040  1
  O  O11  1  0.707956  0.699239  0.941816  1
  O  O12  1  0.705034  0.687845  0.551754  1
  O  O13  1  0.108360  0.544102  0.742348  1
  O  O14  1  0.891640  0.455898  0.257652  1
  O  O15  1  0.294966  0.312155  0.448246  1
  O  O16  1  0.292044  0.300761  0.058184  1
  O  O17  1  0.800292  0.204362  0.950960  1
  O  O18  1  0.814900  0.210181  0.560427  1
  O  O19  1  0.396726  0.042207  0.756972  1
