# generated using pymatgen
data_Tm5Lu5(InSb)3
_symmetry_space_group_name_H-M   'P 1'
_cell_length_a   6.38000201
_cell_length_b   8.81297570
_cell_length_c   8.81833909
_cell_angle_alpha   120.03360767
_cell_angle_beta   89.99806886
_cell_angle_gamma   90.00052929
_symmetry_Int_Tables_number   1
_chemical_formula_structural   Tm5Lu5(InSb)3
_chemical_formula_sum   'Tm5 Lu5 In3 Sb3'
_cell_volume   429.25329746
_cell_formula_units_Z   1
loop_
 _symmetry_equiv_pos_site_id
 _symmetry_equiv_pos_as_xyz
  1  'x, y, z'
loop_
 _atom_site_type_symbol
 _atom_site_label
 _atom_site_symmetry_multiplicity
 _atom_site_fract_x
 _atom_site_fract_y
 _atom_site_fract_z
 _atom_site_occupancy
  Tm  Tm0  1  0.750116  0.236907  0.999944  1
  Tm  Tm1  1  0.750016  0.763444  0.763240  1
  Tm  Tm2  1  0.750134  0.000180  0.237458  1
  Tm  Tm3  1  0.250016  0.762333  0.999768  1
  Tm  Tm4  1  0.250001  0.237258  0.237283  1
  Lu  Lu5  1  0.496407  0.333464  0.666839  1
  Lu  Lu6  1  0.496428  0.666652  0.333310  1
  Lu  Lu7  1  0.003540  0.666824  0.333341  1
  Lu  Lu8  1  0.003543  0.333233  0.666681  1
  Lu  Lu9  1  0.250042  0.999808  0.762426  1
  In  In10  1  0.249893  0.394216  0.999572  1
  In  In11  1  0.249777  0.605388  0.604763  1
  In  In12  1  0.250157  0.999951  0.395249  1
  Sb  Sb13  1  0.750035  0.603528  0.999948  1
  Sb  Sb14  1  0.749964  0.396787  0.396693  1
  Sb  Sb15  1  0.749933  0.000029  0.603484  1
