# generated using pymatgen
data_LiTi2Al(B4Ru5)2
_symmetry_space_group_name_H-M   'P 1'
_cell_length_a   2.94177900
_cell_length_b   8.31495007
_cell_length_c   10.03932206
_cell_angle_alpha   91.42742342
_cell_angle_beta   90.00000000
_cell_angle_gamma   90.00000000
_symmetry_Int_Tables_number   1
_chemical_formula_structural   LiTi2Al(B4Ru5)2
_chemical_formula_sum   'Li1 Ti2 Al1 B8 Ru10'
_cell_volume   245.49309725
_cell_formula_units_Z   1
loop_
 _symmetry_equiv_pos_site_id
 _symmetry_equiv_pos_as_xyz
  1  'x, y, z'
loop_
 _atom_site_type_symbol
 _atom_site_label
 _atom_site_symmetry_multiplicity
 _atom_site_fract_x
 _atom_site_fract_y
 _atom_site_fract_z
 _atom_site_occupancy
  Li  Li0  1  0.500000  0.147842  0.680732  1
  Ti  Ti1  1  0.500000  0.649563  0.815424  1
  Ti  Ti2  1  0.500000  0.349146  0.185662  1
  Al  Al3  1  0.500000  0.855137  0.326348  1
  B  B4  1  0.500000  0.856411  0.605428  1
  B  B5  1  0.500000  0.146244  0.403369  1
  B  B6  1  0.500000  0.345317  0.891062  1
  B  B7  1  0.500000  0.651384  0.100643  1
  B  B8  1  0.500000  0.966209  0.908955  1
  B  B9  1  0.500000  0.039404  0.088088  1
  B  B10  1  0.500000  0.454814  0.586871  1
  B  B11  1  0.500000  0.541534  0.411119  1
  Ru  Ru12  1  0.000000  0.399012  0.737068  1
  Ru  Ru13  1  0.000000  0.615016  0.263524  1
  Ru  Ru14  1  0.000000  0.894697  0.763347  1
  Ru  Ru15  1  0.000000  0.098736  0.237798  1
  Ru  Ru16  1  0.000000  0.993865  0.497869  1
  Ru  Ru17  1  0.000000  0.497644  0.001365  1
  Ru  Ru18  1  0.000000  0.655462  0.553418  1
  Ru  Ru19  1  0.000000  0.342306  0.443085  1
  Ru  Ru20  1  0.000000  0.160499  0.956120  1
  Ru  Ru21  1  0.000000  0.839758  0.042706  1
