# generated using pymatgen
data_TbHo11OsRh3
_symmetry_space_group_name_H-M   'P 1'
_cell_length_a   6.35998289
_cell_length_b   7.23493325
_cell_length_c   9.19586700
_cell_angle_alpha   90.00000000
_cell_angle_beta   90.00000000
_cell_angle_gamma   90.07510750
_symmetry_Int_Tables_number   1
_chemical_formula_structural   TbHo11OsRh3
_chemical_formula_sum   'Tb1 Ho11 Os1 Rh3'
_cell_volume   423.13873565
_cell_formula_units_Z   1
loop_
 _symmetry_equiv_pos_site_id
 _symmetry_equiv_pos_as_xyz
  1  'x, y, z'
loop_
 _atom_site_type_symbol
 _atom_site_label
 _atom_site_symmetry_multiplicity
 _atom_site_fract_x
 _atom_site_fract_y
 _atom_site_fract_z
 _atom_site_occupancy
  Tb  Tb0  1  0.873258  0.536869  0.250000  1
  Ho  Ho1  1  0.332863  0.677328  0.058172  1
  Ho  Ho2  1  0.171698  0.178303  0.436950  1
  Ho  Ho3  1  0.671980  0.323684  0.563980  1
  Ho  Ho4  1  0.824700  0.819356  0.934989  1
  Ho  Ho5  1  0.671980  0.323684  0.936020  1
  Ho  Ho6  1  0.824700  0.819356  0.565011  1
  Ho  Ho7  1  0.332863  0.677328  0.441828  1
  Ho  Ho8  1  0.171698  0.178303  0.063050  1
  Ho  Ho9  1  0.630721  0.035161  0.250000  1
  Ho  Ho10  1  0.128586  0.464375  0.750000  1
  Ho  Ho11  1  0.371359  0.966073  0.750000  1
  Os  Os12  1  0.536664  0.614846  0.750000  1
  Rh  Rh13  1  0.047616  0.886581  0.250000  1
  Rh  Rh14  1  0.454743  0.384456  0.250000  1
  Rh  Rh15  1  0.954570  0.114297  0.750000  1
