# generated using pymatgen
data_NdThAl2SiAu
_symmetry_space_group_name_H-M   'P 1'
_cell_length_a   4.04241691
_cell_length_b   4.47895181
_cell_length_c   8.14990623
_cell_angle_alpha   74.05077008
_cell_angle_beta   75.64056511
_cell_angle_gamma   89.99999703
_symmetry_Int_Tables_number   1
_chemical_formula_structural   NdThAl2SiAu
_chemical_formula_sum   'Nd1 Th1 Al2 Si1 Au1'
_cell_volume   137.07940605
_cell_formula_units_Z   1
loop_
 _symmetry_equiv_pos_site_id
 _symmetry_equiv_pos_as_xyz
  1  'x, y, z'
loop_
 _atom_site_type_symbol
 _atom_site_label
 _atom_site_symmetry_multiplicity
 _atom_site_fract_x
 _atom_site_fract_y
 _atom_site_fract_z
 _atom_site_occupancy
  Nd  Nd0  1  0.740276  0.240276  0.519447  1
  Th  Th1  1  0.009570  0.009570  0.980859  1
  Al  Al2  1  0.414563  0.414563  0.170873  1
  Al  Al3  1  0.170122  0.670122  0.659757  1
  Si  Si4  1  0.577997  0.577997  0.844006  1
  Au  Au5  1  0.337471  0.837471  0.325057  1
