# generated using pymatgen
data_Tb2Ce2TiAl3Ir4
_symmetry_space_group_name_H-M   'P 1'
_cell_length_a   6.98163782
_cell_length_b   4.32549400
_cell_length_c   7.94737021
_cell_angle_alpha   90.00000000
_cell_angle_beta   91.23271118
_cell_angle_gamma   90.00000000
_symmetry_Int_Tables_number   1
_chemical_formula_structural   Tb2Ce2TiAl3Ir4
_chemical_formula_sum   'Tb2 Ce2 Ti1 Al3 Ir4'
_cell_volume   239.94734577
_cell_formula_units_Z   1
loop_
 _symmetry_equiv_pos_site_id
 _symmetry_equiv_pos_as_xyz
  1  'x, y, z'
loop_
 _atom_site_type_symbol
 _atom_site_label
 _atom_site_symmetry_multiplicity
 _atom_site_fract_x
 _atom_site_fract_y
 _atom_site_fract_z
 _atom_site_occupancy
  Tb  Tb0  1  0.963895  0.250000  0.178810  1
  Tb  Tb1  1  0.461015  0.250000  0.313854  1
  Ce  Ce2  1  0.034024  0.750000  0.827560  1
  Ce  Ce3  1  0.528872  0.750000  0.681766  1
  Ti  Ti4  1  0.879815  0.250000  0.558810  1
  Al  Al5  1  0.361736  0.250000  0.941043  1
  Al  Al6  1  0.138950  0.750000  0.432582  1
  Al  Al7  1  0.636713  0.750000  0.069030  1
  Ir  Ir8  1  0.730640  0.250000  0.869983  1
  Ir  Ir9  1  0.233869  0.250000  0.620724  1
  Ir  Ir10  1  0.263887  0.750000  0.110813  1
  Ir  Ir11  1  0.766584  0.750000  0.395026  1
