# generated using pymatgen
data_Zr12TiSn3(Rh2N)4
_symmetry_space_group_name_H-M   'P 1'
_cell_length_a   8.69032758
_cell_length_b   8.69032760
_cell_length_c   8.74189788
_cell_angle_alpha   60.19494847
_cell_angle_beta   60.19495363
_cell_angle_gamma   60.00000216
_symmetry_Int_Tables_number   1
_chemical_formula_structural   Zr12TiSn3(Rh2N)4
_chemical_formula_sum   'Zr12 Ti1 Sn3 Rh8 N4'
_cell_volume   468.20548547
_cell_formula_units_Z   1
loop_
 _symmetry_equiv_pos_site_id
 _symmetry_equiv_pos_as_xyz
  1  'x, y, z'
loop_
 _atom_site_type_symbol
 _atom_site_label
 _atom_site_symmetry_multiplicity
 _atom_site_fract_x
 _atom_site_fract_y
 _atom_site_fract_z
 _atom_site_occupancy
  Zr  Zr0  1  0.811873  0.811873  0.188956  1
  Zr  Zr1  1  0.185069  0.185069  0.816706  1
  Zr  Zr2  1  0.813154  0.185069  0.816706  1
  Zr  Zr3  1  0.187296  0.811873  0.188956  1
  Zr  Zr4  1  0.185069  0.813154  0.816706  1
  Zr  Zr5  1  0.811873  0.187296  0.188956  1
  Zr  Zr6  1  0.438127  0.438127  0.061044  1
  Zr  Zr7  1  0.064931  0.064931  0.433294  1
  Zr  Zr8  1  0.436846  0.064931  0.433294  1
  Zr  Zr9  1  0.062704  0.438127  0.061044  1
  Zr  Zr10  1  0.064931  0.436846  0.433294  1
  Zr  Zr11  1  0.438127  0.062704  0.061044  1
  Ti  Ti12  1  0.625000  0.625000  0.125000  1
  Sn  Sn13  1  0.125000  0.625000  0.625000  1
  Sn  Sn14  1  0.625000  0.125000  0.625000  1
  Sn  Sn15  1  0.625000  0.625000  0.625000  1
  Rh  Rh16  1  0.764975  0.420015  0.394995  1
  Rh  Rh17  1  0.420015  0.764975  0.394995  1
  Rh  Rh18  1  0.409178  0.409178  0.772465  1
  Rh  Rh19  1  0.420015  0.420015  0.394995  1
  Rh  Rh20  1  0.485025  0.829985  0.855005  1
  Rh  Rh21  1  0.829985  0.485025  0.855005  1
  Rh  Rh22  1  0.840822  0.840822  0.477535  1
  Rh  Rh23  1  0.829985  0.829985  0.855005  1
  N  N24  1  0.625000  0.125000  0.125000  1
  N  N25  1  0.125000  0.625000  0.125000  1
  N  N26  1  0.125000  0.125000  0.625000  1
  N  N27  1  0.125000  0.125000  0.125000  1
