# generated using pymatgen
data_Ba2SrIn2(PO4)4
_symmetry_space_group_name_H-M   'P 1'
_cell_length_a   8.87550775
_cell_length_b   9.71904700
_cell_length_c   9.15536628
_cell_angle_alpha   90.00000000
_cell_angle_beta   114.74394325
_cell_angle_gamma   90.00000000
_symmetry_Int_Tables_number   1
_chemical_formula_structural   Ba2SrIn2(PO4)4
_chemical_formula_sum   'Ba4 Sr2 In4 P8 O32'
_cell_volume   717.24593948
_cell_formula_units_Z   2
loop_
 _symmetry_equiv_pos_site_id
 _symmetry_equiv_pos_as_xyz
  1  'x, y, z'
loop_
 _atom_site_type_symbol
 _atom_site_label
 _atom_site_symmetry_multiplicity
 _atom_site_fract_x
 _atom_site_fract_y
 _atom_site_fract_z
 _atom_site_occupancy
  Ba  Ba0  1  0.731490  0.812631  0.060585  1
  Ba  Ba1  1  0.268510  0.312631  0.439416  1
  Ba  Ba2  1  0.731490  0.687369  0.560585  1
  Ba  Ba3  1  0.268510  0.187369  0.939416  1
  Sr  Sr4  1  0.000000  0.500000  0.000000  1
  Sr  Sr5  1  0.000000  0.000000  0.500000  1
  In  In6  1  0.740775  0.368736  0.241067  1
  In  In7  1  0.259226  0.868737  0.258933  1
  In  In8  1  0.740774  0.131264  0.741066  1
  In  In9  1  0.259225  0.631263  0.758933  1
  P  P10  1  0.956839  0.128317  0.143673  1
  P  P11  1  0.408169  0.580761  0.175571  1
  P  P12  1  0.591831  0.080761  0.324429  1
  P  P13  1  0.043160  0.628318  0.356327  1
  P  P14  1  0.956840  0.371683  0.643673  1
  P  P15  1  0.408169  0.919239  0.675571  1
  P  P16  1  0.591831  0.419239  0.824429  1
  P  P17  1  0.043160  0.871682  0.856327  1
  O  O18  1  0.284516  0.624937  0.004318  1
  O  O19  1  0.200594  0.913198  0.007948  1
  O  O20  1  0.077966  0.221483  0.109267  1
  O  O21  1  0.584322  0.550835  0.183792  1
  O  O22  1  0.562786  0.205873  0.205901  1
  O  O23  1  0.037429  0.989558  0.228547  1
  O  O24  1  0.330239  0.455956  0.221774  1
  O  O25  1  0.084910  0.698055  0.223379  1
  O  O26  1  0.915090  0.198054  0.276622  1
  O  O27  1  0.669761  0.955957  0.278226  1
  O  O28  1  0.962571  0.489557  0.271453  1
  O  O29  1  0.437213  0.705873  0.294099  1
  O  O30  1  0.415678  0.050834  0.316209  1
  O  O31  1  0.922035  0.721484  0.390733  1
  O  O32  1  0.799406  0.413198  0.492052  1
  O  O33  1  0.715484  0.124937  0.495682  1
  O  O34  1  0.284516  0.875063  0.504317  1
  O  O35  1  0.200594  0.586802  0.507949  1
  O  O36  1  0.077965  0.278517  0.609267  1
  O  O37  1  0.584322  0.949165  0.683792  1
  O  O38  1  0.562787  0.294127  0.705901  1
  O  O39  1  0.037428  0.510443  0.728546  1
  O  O40  1  0.330239  0.044044  0.721775  1
  O  O41  1  0.084910  0.801946  0.723378  1
  O  O42  1  0.915090  0.301945  0.776622  1
  O  O43  1  0.669762  0.544043  0.778226  1
  O  O44  1  0.962571  0.010442  0.771453  1
  O  O45  1  0.437214  0.794127  0.794099  1
  O  O46  1  0.415678  0.449165  0.816209  1
  O  O47  1  0.922034  0.778516  0.890733  1
  O  O48  1  0.799406  0.086802  0.992052  1
  O  O49  1  0.715484  0.375063  0.995682  1
