# generated using pymatgen
data_CaCe2Pa(Ga3Ir)6
_symmetry_space_group_name_H-M   'P 1'
_cell_length_a   7.66706645
_cell_length_b   7.67237324
_cell_length_c   9.47487500
_cell_angle_alpha   90.00000000
_cell_angle_beta   90.00000000
_cell_angle_gamma   119.83536221
_symmetry_Int_Tables_number   1
_chemical_formula_structural   CaCe2Pa(Ga3Ir)6
_chemical_formula_sum   'Ca1 Ce2 Pa1 Ga18 Ir6'
_cell_volume   483.48296493
_cell_formula_units_Z   1
loop_
 _symmetry_equiv_pos_site_id
 _symmetry_equiv_pos_as_xyz
  1  'x, y, z'
loop_
 _atom_site_type_symbol
 _atom_site_label
 _atom_site_symmetry_multiplicity
 _atom_site_fract_x
 _atom_site_fract_y
 _atom_site_fract_z
 _atom_site_occupancy
  Ca  Ca0  1  0.670128  0.996113  0.250000  1
  Ce  Ce1  1  0.001960  0.331056  0.750000  1
  Ce  Ce2  1  0.331213  0.002543  0.750000  1
  Pa  Pa3  1  0.998867  0.669678  0.250000  1
  Ga  Ga4  1  0.129943  0.128564  0.250000  1
  Ga  Ga5  1  0.869329  0.871230  0.750000  1
  Ga  Ga6  1  0.997587  0.329682  0.081622  1
  Ga  Ga7  1  0.998453  0.665317  0.918894  1
  Ga  Ga8  1  0.998453  0.665317  0.581106  1
  Ga  Ga9  1  0.340267  0.002727  0.418403  1
  Ga  Ga10  1  0.997587  0.329682  0.418378  1
  Ga  Ga11  1  0.665369  0.999450  0.577170  1
  Ga  Ga12  1  0.665369  0.999450  0.922830  1
  Ga  Ga13  1  0.340267  0.002727  0.081597  1
  Ga  Ga14  1  0.333141  0.333076  0.565003  1
  Ga  Ga15  1  0.664501  0.668663  0.433541  1
  Ga  Ga16  1  0.664501  0.668663  0.066459  1
  Ga  Ga17  1  0.333141  0.333076  0.934997  1
  Ga  Ga18  1  0.338338  0.546026  0.250000  1
  Ga  Ga19  1  0.659738  0.455299  0.750000  1
  Ga  Ga20  1  0.547264  0.342934  0.250000  1
  Ga  Ga21  1  0.455413  0.661819  0.750000  1
  Ir  Ir22  1  0.673699  0.332618  0.000282  1
  Ir  Ir23  1  0.324111  0.669277  0.000385  1
  Ir  Ir24  1  0.324111  0.669277  0.499615  1
  Ir  Ir25  1  0.673699  0.332618  0.499718  1
  Ir  Ir26  1  0.001774  0.996560  0.000999  1
  Ir  Ir27  1  0.001774  0.996560  0.499001  1
