# generated using pymatgen
data_Lu8Hf11Si16Au
_symmetry_space_group_name_H-M   'P 1'
_cell_length_a   7.23245017
_cell_length_b   7.23244981
_cell_length_c   13.12467500
_cell_angle_alpha   89.76051235
_cell_angle_beta   90.23949070
_cell_angle_gamma   89.94240308
_symmetry_Int_Tables_number   1
_chemical_formula_structural   Lu8Hf11Si16Au
_chemical_formula_sum   'Lu8 Hf11 Si16 Au1'
_cell_volume   686.51751578
_cell_formula_units_Z   1
loop_
 _symmetry_equiv_pos_site_id
 _symmetry_equiv_pos_as_xyz
  1  'x, y, z'
loop_
 _atom_site_type_symbol
 _atom_site_label
 _atom_site_symmetry_multiplicity
 _atom_site_fract_x
 _atom_site_fract_y
 _atom_site_fract_z
 _atom_site_occupancy
  Lu  Lu0  1  0.996051  0.347549  0.211339  1
  Lu  Lu1  1  0.005523  0.653292  0.716564  1
  Lu  Lu2  1  0.154029  0.495841  0.465041  1
  Lu  Lu3  1  0.497582  0.847603  0.032292  1
  Lu  Lu4  1  0.847603  0.497582  0.967708  1
  Lu  Lu5  1  0.495841  0.154029  0.534959  1
  Lu  Lu6  1  0.347549  0.996051  0.788661  1
  Lu  Lu7  1  0.653292  0.005523  0.283436  1
  Hf  Hf8  1  0.824923  0.824923  0.500000  1
  Hf  Hf9  1  0.322229  0.678256  0.248570  1
  Hf  Hf10  1  0.678256  0.322229  0.751430  1
  Hf  Hf11  1  0.143333  0.999343  0.374404  1
  Hf  Hf12  1  0.858522  0.002549  0.880314  1
  Hf  Hf13  1  0.504009  0.643914  0.626638  1
  Hf  Hf14  1  0.358603  0.493904  0.876387  1
  Hf  Hf15  1  0.493904  0.358603  0.123613  1
  Hf  Hf16  1  0.643914  0.504009  0.373362  1
  Hf  Hf17  1  0.999343  0.143333  0.625596  1
  Hf  Hf18  1  0.002549  0.858522  0.119686  1
  Si  Si19  1  0.355578  0.296884  0.317393  1
  Si  Si20  1  0.645173  0.703555  0.820684  1
  Si  Si21  1  0.207556  0.857657  0.569846  1
  Si  Si22  1  0.132983  0.772819  0.924405  1
  Si  Si23  1  0.772819  0.132983  0.075595  1
  Si  Si24  1  0.857657  0.207556  0.430154  1
  Si  Si25  1  0.296884  0.355578  0.682607  1
  Si  Si26  1  0.703555  0.645173  0.179316  1
  Si  Si27  1  0.296479  0.053600  0.187874  1
  Si  Si28  1  0.703532  0.949996  0.686975  1
  Si  Si29  1  0.449556  0.798696  0.435462  1
  Si  Si30  1  0.206985  0.563763  0.063672  1
  Si  Si31  1  0.563763  0.206985  0.936328  1
  Si  Si32  1  0.798696  0.449556  0.564538  1
  Si  Si33  1  0.053600  0.296479  0.812126  1
  Si  Si34  1  0.949996  0.703532  0.313025  1
  Au  Au35  1  0.178130  0.178130  0.000000  1
