# generated using pymatgen
data_Ti4Fe2P4IrPt
_symmetry_space_group_name_H-M   'P 1'
_cell_length_a   3.65303000
_cell_length_b   6.16814058
_cell_length_c   7.05094220
_cell_angle_alpha   89.71187480
_cell_angle_beta   90.00000000
_cell_angle_gamma   90.00000000
_symmetry_Int_Tables_number   1
_chemical_formula_structural   Ti4Fe2P4IrPt
_chemical_formula_sum   'Ti4 Fe2 P4 Ir1 Pt1'
_cell_volume   158.87265929
_cell_formula_units_Z   1
loop_
 _symmetry_equiv_pos_site_id
 _symmetry_equiv_pos_as_xyz
  1  'x, y, z'
loop_
 _atom_site_type_symbol
 _atom_site_label
 _atom_site_symmetry_multiplicity
 _atom_site_fract_x
 _atom_site_fract_y
 _atom_site_fract_z
 _atom_site_occupancy
  Ti  Ti0  1  0.250000  0.022572  0.821349  1
  Ti  Ti1  1  0.250000  0.523450  0.681733  1
  Ti  Ti2  1  0.750000  0.972081  0.169370  1
  Ti  Ti3  1  0.750000  0.476921  0.327384  1
  Fe  Fe4  1  0.750000  0.858068  0.559185  1
  Fe  Fe5  1  0.750000  0.357796  0.942649  1
  P  P6  1  0.250000  0.757931  0.392190  1
  P  P7  1  0.250000  0.264443  0.103678  1
  P  P8  1  0.750000  0.234732  0.645212  1
  P  P9  1  0.750000  0.732766  0.860798  1
  Ir  Ir10  1  0.250000  0.649717  0.066439  1
  Pt  Pt11  1  0.250000  0.149520  0.430015  1
