# generated using pymatgen
data_Tb3DyHf3O12
_symmetry_space_group_name_H-M   'P 1'
_cell_length_a   6.37946688
_cell_length_b   6.47937858
_cell_length_c   12.83403269
_cell_angle_alpha   99.18738073
_cell_angle_beta   99.29215710
_cell_angle_gamma   99.27378830
_symmetry_Int_Tables_number   1
_chemical_formula_structural   Tb3DyHf3O12
_chemical_formula_sum   'Tb6 Dy2 Hf6 O24'
_cell_volume   507.21377978
_cell_formula_units_Z   2
loop_
 _symmetry_equiv_pos_site_id
 _symmetry_equiv_pos_as_xyz
  1  'x, y, z'
loop_
 _atom_site_type_symbol
 _atom_site_label
 _atom_site_symmetry_multiplicity
 _atom_site_fract_x
 _atom_site_fract_y
 _atom_site_fract_z
 _atom_site_occupancy
  Tb  Tb0  1  0.295072  0.610336  0.818053  1
  Tb  Tb1  1  0.386054  0.866591  0.598011  1
  Tb  Tb2  1  0.858259  0.696005  0.947799  1
  Tb  Tb3  1  0.309099  0.612891  0.318148  1
  Tb  Tb4  1  0.141613  0.303709  0.051961  1
  Tb  Tb5  1  0.705009  0.388961  0.181918  1
  Dy  Dy6  1  0.690885  0.387673  0.681768  1
  Dy  Dy7  1  0.614350  0.134003  0.402592  1
  Hf  Hf8  1  0.008838  0.007006  0.254444  1
  Hf  Hf9  1  0.393398  0.856503  0.093432  1
  Hf  Hf10  1  0.990954  0.992953  0.745718  1
  Hf  Hf11  1  0.852309  0.669415  0.448050  1
  Hf  Hf12  1  0.147183  0.329389  0.552085  1
  Hf  Hf13  1  0.607057  0.143975  0.906395  1
  O  O14  1  0.315350  0.968841  0.796330  1
  O  O15  1  0.080844  0.923814  0.096772  1
  O  O16  1  0.319352  0.948749  0.286377  1
  O  O17  1  0.022614  0.882041  0.589753  1
  O  O18  1  0.563449  0.834341  0.962572  1
  O  O19  1  0.592989  0.818160  0.461616  1
  O  O20  1  0.188149  0.598704  0.972715  1
  O  O21  1  0.927371  0.684130  0.777784  1
  O  O22  1  0.429797  0.588415  0.157423  1
  O  O23  1  0.169576  0.576017  0.466300  1
  O  O24  1  0.926550  0.701935  0.295887  1
  O  O25  1  0.570878  0.411376  0.842062  1
  O  O26  1  0.404422  0.563158  0.656174  1
  O  O27  1  0.071301  0.315129  0.221495  1
  O  O28  1  0.811647  0.401150  0.027065  1
  O  O29  1  0.596982  0.435255  0.344129  1
  O  O30  1  0.073469  0.297967  0.704267  1
  O  O31  1  0.829111  0.423198  0.534361  1
  O  O32  1  0.436594  0.165610  0.037265  1
  O  O33  1  0.408172  0.183330  0.537683  1
  O  O34  1  0.919312  0.075620  0.903335  1
  O  O35  1  0.684405  0.030834  0.203597  1
  O  O36  1  0.975988  0.118342  0.410323  1
  O  O37  1  0.681598  0.054476  0.714340  1
