# generated using pymatgen
data_Ho5Co16Mo2P12W
_symmetry_space_group_name_H-M   'P 1'
_cell_length_a   12.05099300
_cell_length_b   12.05099367
_cell_length_c   3.70302800
_cell_angle_alpha   90.00000000
_cell_angle_beta   90.00000000
_cell_angle_gamma   119.99759098
_symmetry_Int_Tables_number   1
_chemical_formula_structural   Ho5Co16Mo2P12W
_chemical_formula_sum   'Ho5 Co16 Mo2 P12 W1'
_cell_volume   465.74034671
_cell_formula_units_Z   1
loop_
 _symmetry_equiv_pos_site_id
 _symmetry_equiv_pos_as_xyz
  1  'x, y, z'
loop_
 _atom_site_type_symbol
 _atom_site_label
 _atom_site_symmetry_multiplicity
 _atom_site_fract_x
 _atom_site_fract_y
 _atom_site_fract_z
 _atom_site_occupancy
  Ho  Ho0  1  0.666851  0.333381  0.000000  1
  Ho  Ho1  1  0.333381  0.666851  0.000000  1
  Ho  Ho2  1  0.815033  0.815033  0.500000  1
  Ho  Ho3  1  0.185041  0.000003  0.500000  1
  Ho  Ho4  1  0.000003  0.185041  0.500000  1
  Co  Co5  1  0.872868  0.355209  0.500000  1
  Co  Co6  1  0.644106  0.517170  0.500000  1
  Co  Co7  1  0.482430  0.127283  0.500000  1
  Co  Co8  1  0.355209  0.872868  0.500000  1
  Co  Co9  1  0.517170  0.644106  0.500000  1
  Co  Co10  1  0.127283  0.482430  0.500000  1
  Co  Co11  1  0.802302  0.177320  0.000000  1
  Co  Co12  1  0.822769  0.625077  0.000000  1
  Co  Co13  1  0.374963  0.197973  0.000000  1
  Co  Co14  1  0.177320  0.802302  0.000000  1
  Co  Co15  1  0.625077  0.822769  0.000000  1
  Co  Co16  1  0.197973  0.374963  0.000000  1
  Co  Co17  1  0.280445  0.280445  0.500000  1
  Co  Co18  1  0.719797  0.000023  0.500000  1
  Co  Co19  1  0.000023  0.719797  0.500000  1
  Co  Co20  1  0.999827  0.999827  0.000000  1
  Mo  Mo21  1  0.553873  0.999984  0.000000  1
  Mo  Mo22  1  0.999984  0.553873  0.000000  1
  P  P23  1  0.686268  0.165853  0.500000  1
  P  P24  1  0.834260  0.520478  0.500000  1
  P  P25  1  0.479846  0.313782  0.500000  1
  P  P26  1  0.165853  0.686268  0.500000  1
  P  P27  1  0.520478  0.834260  0.500000  1
  P  P28  1  0.313782  0.479846  0.500000  1
  P  P29  1  0.177454  0.177454  0.000000  1
  P  P30  1  0.822056  0.000004  0.000000  1
  P  P31  1  0.000004  0.822056  0.000000  1
  P  P32  1  0.640094  0.640094  0.000000  1
  P  P33  1  0.360469  0.999828  0.000000  1
  P  P34  1  0.999828  0.360469  0.000000  1
  W  W35  1  0.445881  0.445881  0.000000  1
