# generated using pymatgen
data_TbHo3Er4(SiBr6)2
_symmetry_space_group_name_H-M   'P 1'
_cell_length_a   4.02676300
_cell_length_b   13.14858807
_cell_length_c   13.90778208
_cell_angle_alpha   89.98814255
_cell_angle_beta   90.00000000
_cell_angle_gamma   90.00000000
_symmetry_Int_Tables_number   1
_chemical_formula_structural   TbHo3Er4(SiBr6)2
_chemical_formula_sum   'Tb1 Ho3 Er4 Si2 Br12'
_cell_volume   736.36486230
_cell_formula_units_Z   1
loop_
 _symmetry_equiv_pos_site_id
 _symmetry_equiv_pos_as_xyz
  1  'x, y, z'
loop_
 _atom_site_type_symbol
 _atom_site_label
 _atom_site_symmetry_multiplicity
 _atom_site_fract_x
 _atom_site_fract_y
 _atom_site_fract_z
 _atom_site_occupancy
  Tb  Tb0  1  0.000000  0.381342  0.078947  1
  Ho  Ho1  1  0.000000  0.117909  0.578446  1
  Ho  Ho2  1  0.000000  0.882085  0.421568  1
  Ho  Ho3  1  0.000000  0.618568  0.921138  1
  Er  Er4  1  0.500000  0.117697  0.341604  1
  Er  Er5  1  0.500000  0.882287  0.658379  1
  Er  Er6  1  0.500000  0.617733  0.158298  1
  Er  Er7  1  0.500000  0.382372  0.841622  1
  Si  Si8  1  0.500000  0.000002  0.500011  1
  Si  Si9  1  0.500000  0.500895  0.999317  1
  Br  Br10  1  0.500000  0.241772  0.164660  1
  Br  Br11  1  0.500000  0.757042  0.836075  1
  Br  Br12  1  0.500000  0.743370  0.336552  1
  Br  Br13  1  0.500000  0.256636  0.663462  1
  Br  Br14  1  0.000000  0.255207  0.410169  1
  Br  Br15  1  0.000000  0.744803  0.589869  1
  Br  Br16  1  0.000000  0.755320  0.089904  1
  Br  Br17  1  0.000000  0.244385  0.909411  1
  Br  Br18  1  0.000000  0.003179  0.242711  1
  Br  Br19  1  0.000000  0.996761  0.757319  1
  Br  Br20  1  0.000000  0.503808  0.258200  1
  Br  Br21  1  0.000000  0.496827  0.742338  1
