# generated using pymatgen
data_SiNi20AsP14
_symmetry_space_group_name_H-M   'P 1'
_cell_length_a   6.80378600
_cell_length_b   6.80378555
_cell_length_c   11.02480100
_cell_angle_alpha   90.00000000
_cell_angle_beta   90.00000000
_cell_angle_gamma   120.00000218
_symmetry_Int_Tables_number   1
_chemical_formula_structural   SiNi20AsP14
_chemical_formula_sum   'Si1 Ni20 As1 P14'
_cell_volume   441.98002602
_cell_formula_units_Z   1
loop_
 _symmetry_equiv_pos_site_id
 _symmetry_equiv_pos_as_xyz
  1  'x, y, z'
loop_
 _atom_site_type_symbol
 _atom_site_label
 _atom_site_symmetry_multiplicity
 _atom_site_fract_x
 _atom_site_fract_y
 _atom_site_fract_z
 _atom_site_occupancy
  Si  Si0  1  0.666667  0.333333  0.555171  1
  Ni  Ni1  1  0.920504  0.460251  0.379029  1
  Ni  Ni2  1  0.461669  0.538331  0.876231  1
  Ni  Ni3  1  0.000000  0.000000  0.199892  1
  Ni  Ni4  1  0.000000  0.000000  0.700629  1
  Ni  Ni5  1  0.539749  0.079496  0.379029  1
  Ni  Ni6  1  0.461669  0.923339  0.876231  1
  Ni  Ni7  1  0.076661  0.538331  0.876231  1
  Ni  Ni8  1  0.539749  0.460251  0.379029  1
  Ni  Ni9  1  0.792909  0.207091  0.737105  1
  Ni  Ni10  1  0.588571  0.794285  0.240977  1
  Ni  Ni11  1  0.205715  0.411429  0.240977  1
  Ni  Ni12  1  0.792909  0.585818  0.737105  1
  Ni  Ni13  1  0.414182  0.207091  0.737105  1
  Ni  Ni14  1  0.205715  0.794285  0.240977  1
  Ni  Ni15  1  0.461019  0.538981  0.589330  1
  Ni  Ni16  1  0.919417  0.459708  0.089450  1
  Ni  Ni17  1  0.540292  0.080583  0.089450  1
  Ni  Ni18  1  0.461019  0.922038  0.589330  1
  Ni  Ni19  1  0.077962  0.538981  0.589330  1
  Ni  Ni20  1  0.540292  0.459708  0.089450  1
  As  As21  1  0.333333  0.666667  0.057047  1
  P  P22  1  0.000000  0.000000  0.501395  1
  P  P23  1  0.000000  0.000000  0.000780  1
  P  P24  1  0.821066  0.178934  0.942175  1
  P  P25  1  0.641918  0.820960  0.444127  1
  P  P26  1  0.179040  0.358082  0.444127  1
  P  P27  1  0.821066  0.642129  0.942175  1
  P  P28  1  0.357871  0.178934  0.942175  1
  P  P29  1  0.179040  0.820960  0.444127  1
  P  P30  1  0.181814  0.818186  0.730576  1
  P  P31  1  0.363255  0.181627  0.232479  1
  P  P32  1  0.818373  0.636745  0.232479  1
  P  P33  1  0.181814  0.363628  0.730576  1
  P  P34  1  0.636372  0.818186  0.730576  1
  P  P35  1  0.818373  0.181627  0.232479  1
