# generated using pymatgen
data_Tb4IrRh3O14
_symmetry_space_group_name_H-M   'P 1'
_cell_length_a   7.25866014
_cell_length_b   7.25866045
_cell_length_c   7.25866023
_cell_angle_alpha   59.95601297
_cell_angle_beta   59.95601286
_cell_angle_gamma   59.95601596
_symmetry_Int_Tables_number   1
_chemical_formula_structural   Tb4IrRh3O14
_chemical_formula_sum   'Tb4 Ir1 Rh3 O14'
_cell_volume   270.15994980
_cell_formula_units_Z   1
loop_
 _symmetry_equiv_pos_site_id
 _symmetry_equiv_pos_as_xyz
  1  'x, y, z'
loop_
 _atom_site_type_symbol
 _atom_site_label
 _atom_site_symmetry_multiplicity
 _atom_site_fract_x
 _atom_site_fract_y
 _atom_site_fract_z
 _atom_site_occupancy
  Tb  Tb0  1  0.625000  0.125000  0.125000  1
  Tb  Tb1  1  0.125000  0.625000  0.125000  1
  Tb  Tb2  1  0.125000  0.125000  0.625000  1
  Tb  Tb3  1  0.125000  0.125000  0.125000  1
  Ir  Ir4  1  0.625000  0.625000  0.625000  1
  Rh  Rh5  1  0.125000  0.625000  0.625000  1
  Rh  Rh6  1  0.625000  0.125000  0.625000  1
  Rh  Rh7  1  0.625000  0.625000  0.125000  1
  O  O8  1  0.709775  0.709775  0.292633  1
  O  O9  1  0.286769  0.286769  0.710146  1
  O  O10  1  0.709775  0.292633  0.709775  1
  O  O11  1  0.286769  0.710146  0.286769  1
  O  O12  1  0.292633  0.709775  0.709775  1
  O  O13  1  0.710146  0.286769  0.286769  1
  O  O14  1  0.540225  0.540225  0.957367  1
  O  O15  1  0.963231  0.963231  0.539854  1
  O  O16  1  0.540225  0.957367  0.540225  1
  O  O17  1  0.963231  0.539854  0.963231  1
  O  O18  1  0.957367  0.540225  0.540225  1
  O  O19  1  0.539854  0.963231  0.963231  1
  O  O20  1  0.250395  0.250395  0.250395  1
  O  O21  1  0.999605  0.999605  0.999605  1
