# generated using pymatgen
data_YHo3(Co5As3)4
_symmetry_space_group_name_H-M   'P 1'
_cell_length_a   3.79002200
_cell_length_b   12.19049014
_cell_length_c   10.69571311
_cell_angle_alpha   89.98283143
_cell_angle_beta   90.00000000
_cell_angle_gamma   90.00000000
_symmetry_Int_Tables_number   1
_chemical_formula_structural   YHo3(Co5As3)4
_chemical_formula_sum   'Y1 Ho3 Co20 As12'
_cell_volume   494.16573058
_cell_formula_units_Z   1
loop_
 _symmetry_equiv_pos_site_id
 _symmetry_equiv_pos_as_xyz
  1  'x, y, z'
loop_
 _atom_site_type_symbol
 _atom_site_label
 _atom_site_symmetry_multiplicity
 _atom_site_fract_x
 _atom_site_fract_y
 _atom_site_fract_z
 _atom_site_occupancy
  Y  Y0  1  0.750000  0.201604  0.418252  1
  Ho  Ho1  1  0.750000  0.701531  0.081551  1
  Ho  Ho2  1  0.250000  0.298480  0.918561  1
  Ho  Ho3  1  0.250000  0.798681  0.581430  1
  Co  Co4  1  0.750000  0.697218  0.383936  1
  Co  Co5  1  0.250000  0.303164  0.616488  1
  Co  Co6  1  0.250000  0.802817  0.884069  1
  Co  Co7  1  0.750000  0.197056  0.115615  1
  Co  Co8  1  0.750000  0.990984  0.211836  1
  Co  Co9  1  0.250000  0.008604  0.788213  1
  Co  Co10  1  0.250000  0.508960  0.711946  1
  Co  Co11  1  0.750000  0.491326  0.287981  1
  Co  Co12  1  0.750000  0.677549  0.783919  1
  Co  Co13  1  0.250000  0.322478  0.216021  1
  Co  Co14  1  0.250000  0.822301  0.283681  1
  Co  Co15  1  0.750000  0.177564  0.716322  1
  Co  Co16  1  0.750000  0.931986  0.969244  1
  Co  Co17  1  0.250000  0.067816  0.030360  1
  Co  Co18  1  0.250000  0.568300  0.469348  1
  Co  Co19  1  0.750000  0.432615  0.531021  1
  Co  Co20  1  0.750000  0.987600  0.593092  1
  Co  Co21  1  0.250000  0.011418  0.407122  1
  Co  Co22  1  0.250000  0.512170  0.092901  1
  Co  Co23  1  0.750000  0.487826  0.907143  1
  As  As24  1  0.750000  0.614615  0.584497  1
  As  As25  1  0.250000  0.386344  0.415601  1
  As  As26  1  0.250000  0.885661  0.084422  1
  As  As27  1  0.750000  0.114208  0.915424  1
  As  As28  1  0.750000  0.890544  0.399287  1
  As  As29  1  0.250000  0.109124  0.601083  1
  As  As30  1  0.250000  0.609382  0.899355  1
  As  As31  1  0.750000  0.390595  0.100725  1
  As  As32  1  0.750000  0.869993  0.769053  1
  As  As33  1  0.250000  0.129476  0.230479  1
  As  As34  1  0.250000  0.629853  0.268896  1
  As  As35  1  0.750000  0.370153  0.731122  1
