# generated using pymatgen
data_CaTmV3Co9As7
_symmetry_space_group_name_H-M   'P 1'
_cell_length_a   3.75860800
_cell_length_b   9.40314969
_cell_length_c   9.40315000
_cell_angle_alpha   119.99999404
_cell_angle_beta   90.00000000
_cell_angle_gamma   90.00000000
_symmetry_Int_Tables_number   1
_chemical_formula_structural   CaTmV3Co9As7
_chemical_formula_sum   'Ca1 Tm1 V3 Co9 As7'
_cell_volume   287.80902325
_cell_formula_units_Z   1
loop_
 _symmetry_equiv_pos_site_id
 _symmetry_equiv_pos_as_xyz
  1  'x, y, z'
loop_
 _atom_site_type_symbol
 _atom_site_label
 _atom_site_symmetry_multiplicity
 _atom_site_fract_x
 _atom_site_fract_y
 _atom_site_fract_z
 _atom_site_occupancy
  Ca  Ca0  1  0.000000  0.666667  0.333333  1
  Tm  Tm1  1  0.500000  0.333333  0.666667  1
  V  V2  1  0.500000  0.782797  0.900088  1
  V  V3  1  0.500000  0.117292  0.217203  1
  V  V4  1  0.500000  0.099912  0.882708  1
  Co  Co5  1  0.000000  0.569278  0.939560  1
  Co  Co6  1  0.000000  0.370281  0.430722  1
  Co  Co7  1  0.000000  0.060440  0.629719  1
  Co  Co8  1  0.000000  0.878787  0.156099  1
  Co  Co9  1  0.000000  0.277311  0.121213  1
  Co  Co10  1  0.000000  0.843901  0.722689  1
  Co  Co11  1  0.500000  0.954194  0.384474  1
  Co  Co12  1  0.500000  0.430280  0.045806  1
  Co  Co13  1  0.500000  0.615526  0.569720  1
  As  As14  1  0.000000  0.000000  0.000000  1
  As  As15  1  0.500000  0.708189  0.119363  1
  As  As16  1  0.500000  0.411174  0.291811  1
  As  As17  1  0.500000  0.880637  0.588826  1
  As  As18  1  0.000000  0.586455  0.702053  1
  As  As19  1  0.000000  0.115599  0.413545  1
  As  As20  1  0.000000  0.297947  0.884401  1
