# generated using pymatgen
data_Zr(PaI4)3
_symmetry_space_group_name_H-M   'P 1'
_cell_length_a   6.85696995
_cell_length_b   8.43386840
_cell_length_c   14.76775100
_cell_angle_alpha   90.00000000
_cell_angle_beta   90.00000000
_cell_angle_gamma   90.08644683
_symmetry_Int_Tables_number   1
_chemical_formula_structural   Zr(PaI4)3
_chemical_formula_sum   'Zr1 Pa3 I12'
_cell_volume   854.02961945
_cell_formula_units_Z   1
loop_
 _symmetry_equiv_pos_site_id
 _symmetry_equiv_pos_as_xyz
  1  'x, y, z'
loop_
 _atom_site_type_symbol
 _atom_site_label
 _atom_site_symmetry_multiplicity
 _atom_site_fract_x
 _atom_site_fract_y
 _atom_site_fract_z
 _atom_site_occupancy
  Zr  Zr0  1  0.749985  0.247892  0.000000  1
  Pa  Pa1  1  0.245219  0.752048  0.500000  1
  Pa  Pa2  1  0.754746  0.752064  0.500000  1
  Pa  Pa3  1  0.250112  0.247987  0.000000  1
  I  I4  1  0.999704  0.598481  0.653052  1
  I  I5  1  0.000514  0.061031  0.500000  1
  I  I6  1  0.986636  0.103362  0.854593  1
  I  I7  1  0.986636  0.103362  0.145407  1
  I  I8  1  0.500301  0.903664  0.348807  1
  I  I9  1  0.513411  0.392595  0.145505  1
  I  I10  1  0.499557  0.447119  0.500000  1
  I  I11  1  0.500301  0.903664  0.651193  1
  I  I12  1  0.513411  0.392595  0.854495  1
  I  I13  1  0.513758  0.954319  0.000000  1
  I  I14  1  0.986007  0.541336  0.000000  1
  I  I15  1  0.999704  0.598481  0.346948  1
