# generated using pymatgen
data_Er6VCo17(Si5P)2
_symmetry_space_group_name_H-M   'P 1'
_cell_length_a   3.74138900
_cell_length_b   10.69639900
_cell_length_c   12.27937600
_cell_angle_alpha   90.00000000
_cell_angle_beta   90.00000000
_cell_angle_gamma   90.00000000
_symmetry_Int_Tables_number   1
_chemical_formula_structural   Er6VCo17(Si5P)2
_chemical_formula_sum   'Er6 V1 Co17 Si10 P2'
_cell_volume   491.41313168
_cell_formula_units_Z   1
loop_
 _symmetry_equiv_pos_site_id
 _symmetry_equiv_pos_as_xyz
  1  'x, y, z'
loop_
 _atom_site_type_symbol
 _atom_site_label
 _atom_site_symmetry_multiplicity
 _atom_site_fract_x
 _atom_site_fract_y
 _atom_site_fract_z
 _atom_site_occupancy
  Er  Er0  1  0.750000  0.250000  0.475013  1
  Er  Er1  1  0.250000  0.750000  0.526801  1
  Er  Er2  1  0.250000  0.930446  0.794400  1
  Er  Er3  1  0.250000  0.569554  0.794400  1
  Er  Er4  1  0.750000  0.070778  0.202217  1
  Er  Er5  1  0.750000  0.429222  0.202217  1
  V  V6  1  0.250000  0.250000  0.849831  1
  Co  Co7  1  0.750000  0.750000  0.152429  1
  Co  Co8  1  0.250000  0.250000  0.298603  1
  Co  Co9  1  0.750000  0.750000  0.696150  1
  Co  Co10  1  0.750000  0.250000  0.019396  1
  Co  Co11  1  0.250000  0.750000  0.983455  1
  Co  Co12  1  0.250000  0.417996  0.008208  1
  Co  Co13  1  0.250000  0.082004  0.008208  1
  Co  Co14  1  0.750000  0.582753  0.996377  1
  Co  Co15  1  0.750000  0.917247  0.996377  1
  Co  Co16  1  0.250000  0.444644  0.569975  1
  Co  Co17  1  0.250000  0.055356  0.569975  1
  Co  Co18  1  0.750000  0.550566  0.428815  1
  Co  Co19  1  0.750000  0.949434  0.428815  1
  Co  Co20  1  0.250000  0.867245  0.293411  1
  Co  Co21  1  0.250000  0.632755  0.293411  1
  Co  Co22  1  0.750000  0.132639  0.706507  1
  Co  Co23  1  0.750000  0.367361  0.706507  1
  Si  Si24  1  0.750000  0.750000  0.883030  1
  Si  Si25  1  0.750000  0.750000  0.339816  1
  Si  Si26  1  0.250000  0.443610  0.383997  1
  Si  Si27  1  0.250000  0.056390  0.383997  1
  Si  Si28  1  0.750000  0.553931  0.613678  1
  Si  Si29  1  0.750000  0.946069  0.613678  1
  Si  Si30  1  0.250000  0.896729  0.108905  1
  Si  Si31  1  0.250000  0.603271  0.108905  1
  Si  Si32  1  0.750000  0.096531  0.895026  1
  Si  Si33  1  0.750000  0.403469  0.895026  1
  P  P34  1  0.250000  0.250000  0.115884  1
  P  P35  1  0.250000  0.250000  0.656556  1
