# generated using pymatgen
data_PmNi4Sn
_symmetry_space_group_name_H-M   'P 1'
_cell_length_a   5.16633117
_cell_length_b   5.16822774
_cell_length_c   4.11204800
_cell_angle_alpha   90.00000000
_cell_angle_beta   90.00000000
_cell_angle_gamma   59.21680032
_symmetry_Int_Tables_number   1
_chemical_formula_structural   PmNi4Sn
_chemical_formula_sum   'Pm1 Ni4 Sn1'
_cell_volume   94.32587345
_cell_formula_units_Z   1
loop_
 _symmetry_equiv_pos_site_id
 _symmetry_equiv_pos_as_xyz
  1  'x, y, z'
loop_
 _atom_site_type_symbol
 _atom_site_label
 _atom_site_symmetry_multiplicity
 _atom_site_fract_x
 _atom_site_fract_y
 _atom_site_fract_z
 _atom_site_occupancy
  Pm  Pm0  1  0.999969  0.000041  0.000000  1
  Ni  Ni1  1  0.315227  0.315474  0.000000  1
  Ni  Ni2  1  0.684736  0.684572  0.000000  1
  Ni  Ni3  1  0.500144  0.999889  0.499999  1
  Ni  Ni4  1  0.000031  0.499920  0.499999  1
  Sn  Sn5  1  0.499887  0.500107  0.499999  1
