# generated using pymatgen
data_Be15Nb6Co2(Cu2Ni)2
_symmetry_space_group_name_H-M   'P 1'
_cell_length_a   7.62317927
_cell_length_b   7.62441192
_cell_length_c   7.62441102
_cell_angle_alpha   59.74720971
_cell_angle_beta   59.78848054
_cell_angle_gamma   59.78847338
_symmetry_Int_Tables_number   1
_chemical_formula_structural   Be15Nb6Co2(Cu2Ni)2
_chemical_formula_sum   'Be15 Nb6 Co2 Cu4 Ni2'
_cell_volume   311.75009608
_cell_formula_units_Z   1
loop_
 _symmetry_equiv_pos_site_id
 _symmetry_equiv_pos_as_xyz
  1  'x, y, z'
loop_
 _atom_site_type_symbol
 _atom_site_label
 _atom_site_symmetry_multiplicity
 _atom_site_fract_x
 _atom_site_fract_y
 _atom_site_fract_z
 _atom_site_occupancy
  Be  Be0  1  0.330041  0.325619  0.325619  1
  Be  Be1  1  0.669959  0.674381  0.674381  1
  Be  Be2  1  0.326454  0.320965  0.023688  1
  Be  Be3  1  0.326454  0.023688  0.320965  1
  Be  Be4  1  0.673546  0.679035  0.976312  1
  Be  Be5  1  0.673546  0.976312  0.679035  1
  Be  Be6  1  0.022459  0.323605  0.323605  1
  Be  Be7  1  0.977541  0.676395  0.676395  1
  Be  Be8  1  0.500000  0.000000  0.000000  1
  Be  Be9  1  0.000000  0.500000  0.500000  1
  Be  Be10  1  0.000000  0.500000  0.000000  1
  Be  Be11  1  0.500000  0.000000  0.500000  1
  Be  Be12  1  0.000000  0.000000  0.500000  1
  Be  Be13  1  0.500000  0.500000  0.000000  1
  Be  Be14  1  0.000000  0.000000  0.000000  1
  Nb  Nb15  1  0.704741  0.299122  0.299122  1
  Nb  Nb16  1  0.295259  0.700878  0.700878  1
  Nb  Nb17  1  0.303071  0.709123  0.294568  1
  Nb  Nb18  1  0.696929  0.290877  0.705432  1
  Nb  Nb19  1  0.303071  0.294568  0.709123  1
  Nb  Nb20  1  0.696929  0.705432  0.290877  1
  Co  Co21  1  0.121402  0.122872  0.122872  1
  Co  Co22  1  0.878598  0.877128  0.877128  1
  Cu  Cu23  1  0.122917  0.123253  0.632207  1
  Cu  Cu24  1  0.122917  0.632207  0.123253  1
  Cu  Cu25  1  0.877083  0.876747  0.367793  1
  Cu  Cu26  1  0.877083  0.367793  0.876747  1
  Ni  Ni27  1  0.632076  0.123644  0.123644  1
  Ni  Ni28  1  0.367924  0.876356  0.876356  1
