# generated using pymatgen
data_CeDyHgRh2
_symmetry_space_group_name_H-M   'P 1'
_cell_length_a   7.74858000
_cell_length_b   7.63360400
_cell_length_c   3.64616700
_cell_angle_alpha   90.00000000
_cell_angle_beta   90.00000000
_cell_angle_gamma   90.00000000
_symmetry_Int_Tables_number   1
_chemical_formula_structural   CeDyHgRh2
_chemical_formula_sum   'Ce2 Dy2 Hg2 Rh4'
_cell_volume   215.66928780
_cell_formula_units_Z   2
loop_
 _symmetry_equiv_pos_site_id
 _symmetry_equiv_pos_as_xyz
  1  'x, y, z'
loop_
 _atom_site_type_symbol
 _atom_site_label
 _atom_site_symmetry_multiplicity
 _atom_site_fract_x
 _atom_site_fract_y
 _atom_site_fract_z
 _atom_site_occupancy
  Ce  Ce0  1  0.329375  0.165705  0.500001  1
  Ce  Ce1  1  0.829375  0.334296  0.500001  1
  Dy  Dy2  1  0.167644  0.667193  0.500001  1
  Dy  Dy3  1  0.667644  0.832808  0.500001  1
  Hg  Hg4  1  0.994638  0.988858  0.000000  1
  Hg  Hg5  1  0.494638  0.511142  0.000000  1
  Rh  Rh6  1  0.640633  0.147516  0.000000  1
  Rh  Rh7  1  0.140635  0.352485  0.000000  1
  Rh  Rh8  1  0.867710  0.616327  0.000000  1
  Rh  Rh9  1  0.367710  0.883672  0.000000  1
