# generated using pymatgen
data_Tb16Tl3HgPd4
_symmetry_space_group_name_H-M   'P 1'
_cell_length_a   9.76642495
_cell_length_b   9.75953257
_cell_length_c   9.75953300
_cell_angle_alpha   60.00000194
_cell_angle_beta   60.02334428
_cell_angle_gamma   60.02333403
_symmetry_Int_Tables_number   1
_chemical_formula_structural   Tb16Tl3HgPd4
_chemical_formula_sum   'Tb16 Tl3 Hg1 Pd4'
_cell_volume   658.00894426
_cell_formula_units_Z   1
loop_
 _symmetry_equiv_pos_site_id
 _symmetry_equiv_pos_as_xyz
  1  'x, y, z'
loop_
 _atom_site_type_symbol
 _atom_site_label
 _atom_site_symmetry_multiplicity
 _atom_site_fract_x
 _atom_site_fract_y
 _atom_site_fract_z
 _atom_site_occupancy
  Tb  Tb0  1  0.352433  0.353578  0.353578  1
  Tb  Tb1  1  0.352433  0.353578  0.940412  1
  Tb  Tb2  1  0.352433  0.940412  0.353578  1
  Tb  Tb3  1  0.942376  0.352542  0.352542  1
  Tb  Tb4  1  0.810538  0.189468  0.189468  1
  Tb  Tb5  1  0.189484  0.810754  0.810754  1
  Tb  Tb6  1  0.189484  0.810754  0.189009  1
  Tb  Tb7  1  0.810538  0.189468  0.810528  1
  Tb  Tb8  1  0.189484  0.189009  0.810754  1
  Tb  Tb9  1  0.810538  0.810528  0.189468  1
  Tb  Tb10  1  0.940332  0.563030  0.563030  1
  Tb  Tb11  1  0.564295  0.936403  0.936403  1
  Tb  Tb12  1  0.564295  0.936403  0.562897  1
  Tb  Tb13  1  0.940332  0.563030  0.933609  1
  Tb  Tb14  1  0.564295  0.562897  0.936403  1
  Tb  Tb15  1  0.940332  0.933609  0.563030  1
  Tl  Tl16  1  0.583590  0.586056  0.586056  1
  Tl  Tl17  1  0.583590  0.586056  0.244296  1
  Tl  Tl18  1  0.583590  0.244296  0.586056  1
  Hg  Hg19  1  0.235325  0.588225  0.588225  1
  Pd  Pd20  1  0.144401  0.144031  0.144031  1
  Pd  Pd21  1  0.144401  0.144031  0.567537  1
  Pd  Pd22  1  0.144401  0.567537  0.144031  1
  Pd  Pd23  1  0.567085  0.144305  0.144305  1
