# generated using pymatgen
data_Dy3Y(NbRu3)2
_symmetry_space_group_name_H-M   'P 1'
_cell_length_a   5.69663841
_cell_length_b   5.69679188
_cell_length_c   8.05389300
_cell_angle_alpha   90.00066135
_cell_angle_beta   89.99954111
_cell_angle_gamma   119.97158586
_symmetry_Int_Tables_number   1
_chemical_formula_structural   Dy3Y(NbRu3)2
_chemical_formula_sum   'Dy3 Y1 Nb2 Ru6'
_cell_volume   226.41738496
_cell_formula_units_Z   1
loop_
 _symmetry_equiv_pos_site_id
 _symmetry_equiv_pos_as_xyz
  1  'x, y, z'
loop_
 _atom_site_type_symbol
 _atom_site_label
 _atom_site_symmetry_multiplicity
 _atom_site_fract_x
 _atom_site_fract_y
 _atom_site_fract_z
 _atom_site_occupancy
  Dy  Dy0  1  0.333352  0.666657  0.439045  1
  Dy  Dy1  1  0.333348  0.666660  0.061109  1
  Dy  Dy2  1  0.666689  0.333314  0.939850  1
  Y  Y3  1  0.666691  0.333313  0.562210  1
  Nb  Nb4  1  0.999968  0.000022  0.500058  1
  Nb  Nb5  1  0.999965  0.000017  0.999802  1
  Ru  Ru6  1  0.171919  0.343862  0.750375  1
  Ru  Ru7  1  0.171848  0.828153  0.750366  1
  Ru  Ru8  1  0.656142  0.828085  0.750376  1
  Ru  Ru9  1  0.828438  0.656814  0.248935  1
  Ru  Ru10  1  0.828459  0.171543  0.248939  1
  Ru  Ru11  1  0.343180  0.171561  0.248935  1
