# generated using pymatgen
data_Cd3IrRu3PbO14
_symmetry_space_group_name_H-M   'P 1'
_cell_length_a   7.27373090
_cell_length_b   7.30435934
_cell_length_c   7.25830691
_cell_angle_alpha   60.12420579
_cell_angle_beta   59.92968793
_cell_angle_gamma   60.13862133
_symmetry_Int_Tables_number   1
_chemical_formula_structural   Cd3IrRu3PbO14
_chemical_formula_sum   'Cd3 Ir1 Ru3 Pb1 O14'
_cell_volume   273.07833946
_cell_formula_units_Z   1
loop_
 _symmetry_equiv_pos_site_id
 _symmetry_equiv_pos_as_xyz
  1  'x, y, z'
loop_
 _atom_site_type_symbol
 _atom_site_label
 _atom_site_symmetry_multiplicity
 _atom_site_fract_x
 _atom_site_fract_y
 _atom_site_fract_z
 _atom_site_occupancy
  Cd  Cd0  1  0.125000  0.125000  0.625000  1
  Cd  Cd1  1  0.625000  0.125000  0.125000  1
  Cd  Cd2  1  0.125000  0.125000  0.125000  1
  Ir  Ir3  1  0.625000  0.625000  0.125000  1
  Ru  Ru4  1  0.625000  0.125000  0.625000  1
  Ru  Ru5  1  0.125000  0.625000  0.625000  1
  Ru  Ru6  1  0.625000  0.625000  0.625000  1
  Pb  Pb7  1  0.125000  0.625000  0.125000  1
  O  O8  1  0.706836  0.694076  0.299082  1
  O  O9  1  0.946887  0.559073  0.547154  1
  O  O10  1  0.553262  0.945175  0.948301  1
  O  O11  1  0.941560  0.938266  0.562907  1
  O  O12  1  0.949995  0.555924  0.950918  1
  O  O13  1  0.557268  0.938266  0.562907  1
  O  O14  1  0.300005  0.694076  0.299082  1
  O  O15  1  0.303113  0.690927  0.702846  1
  O  O16  1  0.696738  0.304825  0.301699  1
  O  O17  1  0.692732  0.311734  0.687093  1
  O  O18  1  0.543164  0.555924  0.950918  1
  O  O19  1  0.308440  0.311734  0.687093  1
  O  O20  1  0.255831  0.230470  0.257868  1
  O  O21  1  0.994169  0.019530  0.992132  1
