# generated using pymatgen
data_Zr6Ta8IrOs3
_symmetry_space_group_name_H-M   'P 1'
_cell_length_a   9.63321000
_cell_length_b   9.60999233
_cell_length_c   8.89991800
_cell_angle_alpha   90.00000000
_cell_angle_beta   90.00000000
_cell_angle_gamma   120.23520997
_symmetry_Int_Tables_number   1
_chemical_formula_structural   Zr6Ta8IrOs3
_chemical_formula_sum   'Zr12 Ta16 Ir2 Os6'
_cell_volume   711.83032171
_cell_formula_units_Z   2
loop_
 _symmetry_equiv_pos_site_id
 _symmetry_equiv_pos_as_xyz
  1  'x, y, z'
loop_
 _atom_site_type_symbol
 _atom_site_label
 _atom_site_symmetry_multiplicity
 _atom_site_fract_x
 _atom_site_fract_y
 _atom_site_fract_z
 _atom_site_occupancy
  Zr  Zr0  1  0.334286  0.998569  0.060545  1
  Zr  Zr1  1  0.665714  0.001431  0.939455  1
  Zr  Zr2  1  0.000765  0.334905  0.062352  1
  Zr  Zr3  1  0.665714  0.001431  0.560545  1
  Zr  Zr4  1  0.000765  0.334905  0.437648  1
  Zr  Zr5  1  0.999235  0.665095  0.937648  1
  Zr  Zr6  1  0.334286  0.998569  0.439455  1
  Zr  Zr7  1  0.999235  0.665095  0.562352  1
  Zr  Zr8  1  0.663392  0.661424  0.061978  1
  Zr  Zr9  1  0.336608  0.338576  0.938022  1
  Zr  Zr10  1  0.336608  0.338576  0.561978  1
  Zr  Zr11  1  0.663392  0.661424  0.438022  1
  Ta  Ta12  1  0.340407  0.844165  0.750000  1
  Ta  Ta13  1  0.659137  0.501233  0.750000  1
  Ta  Ta14  1  0.659593  0.155835  0.250000  1
  Ta  Ta15  1  0.340863  0.498767  0.250000  1
  Ta  Ta16  1  0.839159  0.336206  0.750000  1
  Ta  Ta17  1  0.160841  0.663794  0.250000  1
  Ta  Ta18  1  0.336840  0.665547  0.507073  1
  Ta  Ta19  1  0.663160  0.334453  0.492927  1
  Ta  Ta20  1  0.663160  0.334453  0.007073  1
  Ta  Ta21  1  0.336840  0.665547  0.992927  1
  Ta  Ta22  1  0.173133  0.007140  0.750000  1
  Ta  Ta23  1  0.826867  0.992860  0.250000  1
  Ta  Ta24  1  0.004864  0.173235  0.750000  1
  Ta  Ta25  1  0.995136  0.826765  0.250000  1
  Ta  Ta26  1  0.828809  0.833433  0.750000  1
  Ta  Ta27  1  0.171191  0.166567  0.250000  1
  Ir  Ir28  1  0.000000  0.000000  0.500000  1
  Ir  Ir29  1  0.000000  0.000000  0.000000  1
  Os  Os30  1  0.161258  0.494635  0.750000  1
  Os  Os31  1  0.838742  0.505365  0.250000  1
  Os  Os32  1  0.507211  0.670230  0.750000  1
  Os  Os33  1  0.500252  0.168892  0.750000  1
  Os  Os34  1  0.492789  0.329770  0.250000  1
  Os  Os35  1  0.499748  0.831108  0.250000  1
