# generated using pymatgen
data_La8HoLuSn8
_symmetry_space_group_name_H-M   'P 1'
_cell_length_a   8.40969600
_cell_length_b   8.50719600
_cell_length_c   16.26589100
_cell_angle_alpha   90.00000000
_cell_angle_beta   90.00000000
_cell_angle_gamma   90.00000000
_symmetry_Int_Tables_number   1
_chemical_formula_structural   La8HoLuSn8
_chemical_formula_sum   'La16 Ho2 Lu2 Sn16'
_cell_volume   1163.70953654
_cell_formula_units_Z   2
loop_
 _symmetry_equiv_pos_site_id
 _symmetry_equiv_pos_as_xyz
  1  'x, y, z'
loop_
 _atom_site_type_symbol
 _atom_site_label
 _atom_site_symmetry_multiplicity
 _atom_site_fract_x
 _atom_site_fract_y
 _atom_site_fract_z
 _atom_site_occupancy
  La  La0  1  0.972561  0.818844  0.899798  1
  La  La1  1  0.472561  0.681156  0.600202  1
  La  La2  1  0.527301  0.318659  0.100418  1
  La  La3  1  0.027301  0.181341  0.399582  1
  La  La4  1  0.972561  0.818844  0.600202  1
  La  La5  1  0.472561  0.681156  0.899798  1
  La  La6  1  0.527301  0.318659  0.399582  1
  La  La7  1  0.027301  0.181341  0.100418  1
  La  La8  1  0.879546  0.660250  0.382115  1
  La  La9  1  0.379546  0.839750  0.117885  1
  La  La10  1  0.620754  0.159963  0.617726  1
  La  La11  1  0.120754  0.340037  0.882274  1
  La  La12  1  0.120754  0.340037  0.617726  1
  La  La13  1  0.620754  0.159963  0.882274  1
  La  La14  1  0.379546  0.839750  0.382115  1
  La  La15  1  0.879546  0.660250  0.117885  1
  Ho  Ho16  1  0.288264  0.002922  0.750000  1
  Ho  Ho17  1  0.788264  0.497078  0.750000  1
  Lu  Lu18  1  0.212412  0.502927  0.250000  1
  Lu  Lu19  1  0.712412  0.997073  0.250000  1
  Sn  Sn20  1  0.781240  0.470189  0.546360  1
  Sn  Sn21  1  0.281240  0.029811  0.953640  1
  Sn  Sn22  1  0.718517  0.970587  0.453248  1
  Sn  Sn23  1  0.218517  0.529413  0.046752  1
  Sn  Sn24  1  0.218517  0.529413  0.453248  1
  Sn  Sn25  1  0.718517  0.970587  0.046752  1
  Sn  Sn26  1  0.281240  0.029811  0.546360  1
  Sn  Sn27  1  0.781240  0.470189  0.953640  1
  Sn  Sn28  1  0.168257  0.645178  0.750000  1
  Sn  Sn29  1  0.668257  0.854822  0.750000  1
  Sn  Sn30  1  0.331462  0.145825  0.250000  1
  Sn  Sn31  1  0.831462  0.354175  0.250000  1
  Sn  Sn32  1  0.923963  0.117453  0.750000  1
  Sn  Sn33  1  0.423963  0.382547  0.750000  1
  Sn  Sn34  1  0.575806  0.617572  0.250000  1
  Sn  Sn35  1  0.075806  0.882428  0.250000  1
