# generated using pymatgen
data_MnCo(MoH2)2
_symmetry_space_group_name_H-M   'P 1'
_cell_length_a   4.70079000
_cell_length_b   4.70078778
_cell_length_c   2.74807900
_cell_angle_alpha   90.00000000
_cell_angle_beta   90.00000000
_cell_angle_gamma   98.78164848
_symmetry_Int_Tables_number   1
_chemical_formula_structural   MnCo(MoH2)2
_chemical_formula_sum   'Mn1 Co1 Mo2 H4'
_cell_volume   60.01358107
_cell_formula_units_Z   1
loop_
 _symmetry_equiv_pos_site_id
 _symmetry_equiv_pos_as_xyz
  1  'x, y, z'
loop_
 _atom_site_type_symbol
 _atom_site_label
 _atom_site_symmetry_multiplicity
 _atom_site_fract_x
 _atom_site_fract_y
 _atom_site_fract_z
 _atom_site_occupancy
  Mn  Mn0  1  0.698389  0.698389  0.000000  1
  Co  Co1  1  0.292896  0.292896  0.000000  1
  Mo  Mo2  1  0.215779  0.790038  0.500000  1
  Mo  Mo3  1  0.790038  0.215779  0.500000  1
  H  H4  1  0.501757  0.999662  0.000000  1
  H  H5  1  0.994579  0.994579  0.000000  1
  H  H6  1  0.999662  0.501757  0.000000  1
  H  H7  1  0.506900  0.506900  0.500000  1
