# generated using pymatgen
data_Ac2BeCu25
_symmetry_space_group_name_H-M   'P 1'
_cell_length_a   8.22231281
_cell_length_b   8.22231147
_cell_length_c   8.22231200
_cell_angle_alpha   59.99999789
_cell_angle_beta   60.00000324
_cell_angle_gamma   59.99999913
_symmetry_Int_Tables_number   1
_chemical_formula_structural   Ac2BeCu25
_chemical_formula_sum   'Ac2 Be1 Cu25'
_cell_volume   393.06726300
_cell_formula_units_Z   1
loop_
 _symmetry_equiv_pos_site_id
 _symmetry_equiv_pos_as_xyz
  1  'x, y, z'
loop_
 _atom_site_type_symbol
 _atom_site_label
 _atom_site_symmetry_multiplicity
 _atom_site_fract_x
 _atom_site_fract_y
 _atom_site_fract_z
 _atom_site_occupancy
  Ac  Ac0  1  0.250000  0.250000  0.250000  1
  Ac  Ac1  1  0.750000  0.750000  0.750000  1
  Be  Be2  1  0.000000  0.000000  0.000000  1
  Cu  Cu3  1  0.500000  0.500000  0.500000  1
  Cu  Cu4  1  0.800728  0.558891  0.199272  1
  Cu  Cu5  1  0.199272  0.441109  0.800728  1
  Cu  Cu6  1  0.558891  0.800728  0.441109  1
  Cu  Cu7  1  0.441109  0.199272  0.558891  1
  Cu  Cu8  1  0.286971  0.934468  0.713029  1
  Cu  Cu9  1  0.713029  0.065532  0.286971  1
  Cu  Cu10  1  0.934468  0.286971  0.065532  1
  Cu  Cu11  1  0.065532  0.713029  0.934468  1
  Cu  Cu12  1  0.199272  0.800728  0.558891  1
  Cu  Cu13  1  0.800728  0.199272  0.441109  1
  Cu  Cu14  1  0.441109  0.558891  0.800728  1
  Cu  Cu15  1  0.558891  0.441109  0.199272  1
  Cu  Cu16  1  0.713029  0.286971  0.934468  1
  Cu  Cu17  1  0.286971  0.713029  0.065532  1
  Cu  Cu18  1  0.065532  0.934468  0.286971  1
  Cu  Cu19  1  0.934468  0.065532  0.713029  1
  Cu  Cu20  1  0.558891  0.199272  0.800728  1
  Cu  Cu21  1  0.441109  0.800728  0.199272  1
  Cu  Cu22  1  0.800728  0.441109  0.558891  1
  Cu  Cu23  1  0.199272  0.558891  0.441109  1
  Cu  Cu24  1  0.934468  0.713029  0.286971  1
  Cu  Cu25  1  0.065532  0.286971  0.713029  1
  Cu  Cu26  1  0.286971  0.065532  0.934468  1
  Cu  Cu27  1  0.713029  0.934468  0.065532  1
