# generated using pymatgen
data_Pu2Th2FeNiB20
_symmetry_space_group_name_H-M   'P 1'
_cell_length_a   4.16138800
_cell_length_b   5.59675500
_cell_length_c   11.15239741
_cell_angle_alpha   90.63408113
_cell_angle_beta   90.00000000
_cell_angle_gamma   90.00000000
_symmetry_Int_Tables_number   1
_chemical_formula_structural   Pu2Th2FeNiB20
_chemical_formula_sum   'Pu2 Th2 Fe1 Ni1 B20'
_cell_volume   259.72643094
_cell_formula_units_Z   1
loop_
 _symmetry_equiv_pos_site_id
 _symmetry_equiv_pos_as_xyz
  1  'x, y, z'
loop_
 _atom_site_type_symbol
 _atom_site_label
 _atom_site_symmetry_multiplicity
 _atom_site_fract_x
 _atom_site_fract_y
 _atom_site_fract_z
 _atom_site_occupancy
  Pu  Pu0  1  0.500000  0.311493  0.863999  1
  Pu  Pu1  1  0.500000  0.688507  0.136001  1
  Th  Th2  1  0.500000  0.795474  0.634032  1
  Th  Th3  1  0.500000  0.204526  0.365968  1
  Fe  Fe4  1  0.000000  0.500000  0.500000  1
  Ni  Ni5  1  0.000000  0.000000  0.000000  1
  B  B6  1  0.000000  0.128413  0.540076  1
  B  B7  1  0.000000  0.871587  0.459924  1
  B  B8  1  0.000000  0.624947  0.960215  1
  B  B9  1  0.000000  0.375053  0.039785  1
  B  B10  1  0.000000  0.153928  0.699370  1
  B  B11  1  0.000000  0.846072  0.300630  1
  B  B12  1  0.301600  0.202218  0.112550  1
  B  B13  1  0.301600  0.797782  0.887450  1
  B  B14  1  0.700092  0.702739  0.386085  1
  B  B15  1  0.700092  0.297261  0.613915  1
  B  B16  1  0.698400  0.797782  0.887450  1
  B  B17  1  0.698400  0.202218  0.112550  1
  B  B18  1  0.299908  0.297261  0.613915  1
  B  B19  1  0.299908  0.702739  0.386085  1
  B  B20  1  0.000000  0.033881  0.186913  1
  B  B21  1  0.000000  0.966119  0.813087  1
  B  B22  1  0.000000  0.534833  0.312144  1
  B  B23  1  0.000000  0.465167  0.687856  1
  B  B24  1  0.000000  0.346842  0.195830  1
  B  B25  1  0.000000  0.653158  0.804170  1
