# generated using pymatgen
data_TbPrY5FeI12
_symmetry_space_group_name_H-M   'P 1'
_cell_length_a   9.81107878
_cell_length_b   9.83917864
_cell_length_c   9.83809971
_cell_angle_alpha   106.84672794
_cell_angle_beta   107.29003539
_cell_angle_gamma   106.78727655
_symmetry_Int_Tables_number   1
_chemical_formula_structural   TbPrY5FeI12
_chemical_formula_sum   'Tb1 Pr1 Y5 Fe1 I12'
_cell_volume   791.45151348
_cell_formula_units_Z   1
loop_
 _symmetry_equiv_pos_site_id
 _symmetry_equiv_pos_as_xyz
  1  'x, y, z'
loop_
 _atom_site_type_symbol
 _atom_site_label
 _atom_site_symmetry_multiplicity
 _atom_site_fract_x
 _atom_site_fract_y
 _atom_site_fract_z
 _atom_site_occupancy
  Tb  Tb0  1  0.976819  0.906292  0.707095  1
  Pr  Pr1  1  0.712836  0.978658  0.908058  1
  Y  Y2  1  0.501248  0.498928  0.500006  1
  Y  Y3  1  0.095688  0.293573  0.022927  1
  Y  Y4  1  0.275097  0.021176  0.088683  1
  Y  Y5  1  0.907800  0.707590  0.978413  1
  Y  Y6  1  0.022274  0.094125  0.293945  1
  Fe  Fe7  1  0.995946  0.000464  0.998664  1
  I  I8  1  0.072165  0.224733  0.679600  1
  I  I9  1  0.384593  0.159888  0.458494  1
  I  I10  1  0.613274  0.832521  0.528969  1
  I  I11  1  0.227571  0.683367  0.072329  1
  I  I12  1  0.782532  0.330951  0.931576  1
  I  I13  1  0.684881  0.075254  0.235516  1
  I  I14  1  0.537927  0.606774  0.836737  1
  I  I15  1  0.840632  0.538337  0.615350  1
  I  I16  1  0.930181  0.776287  0.319969  1
  I  I17  1  0.315511  0.928528  0.777883  1
  I  I18  1  0.461189  0.381085  0.161094  1
  I  I19  1  0.161840  0.461469  0.384693  1
