# generated using pymatgen
data_Tb2Cr3Fe9P7
_symmetry_space_group_name_H-M   'P 1'
_cell_length_a   3.63505900
_cell_length_b   9.04787739
_cell_length_c   9.04673401
_cell_angle_alpha   120.00850648
_cell_angle_beta   90.00000000
_cell_angle_gamma   90.00000000
_symmetry_Int_Tables_number   1
_chemical_formula_structural   Tb2Cr3Fe9P7
_chemical_formula_sum   'Tb2 Cr3 Fe9 P7'
_cell_volume   257.65785765
_cell_formula_units_Z   1
loop_
 _symmetry_equiv_pos_site_id
 _symmetry_equiv_pos_as_xyz
  1  'x, y, z'
loop_
 _atom_site_type_symbol
 _atom_site_label
 _atom_site_symmetry_multiplicity
 _atom_site_fract_x
 _atom_site_fract_y
 _atom_site_fract_z
 _atom_site_occupancy
  Tb  Tb0  1  0.000000  0.666757  0.333525  1
  Tb  Tb1  1  0.500000  0.333142  0.666514  1
  Cr  Cr2  1  0.500000  0.115449  0.899853  1
  Cr  Cr3  1  0.500000  0.100235  0.215543  1
  Cr  Cr4  1  0.500000  0.784399  0.884476  1
  Fe  Fe5  1  0.000000  0.373919  0.946438  1
  Fe  Fe6  1  0.000000  0.053630  0.427549  1
  Fe  Fe7  1  0.000000  0.572484  0.626075  1
  Fe  Fe8  1  0.000000  0.879941  0.725338  1
  Fe  Fe9  1  0.000000  0.274719  0.154663  1
  Fe  Fe10  1  0.000000  0.845365  0.120093  1
  Fe  Fe11  1  0.500000  0.952648  0.566720  1
  Fe  Fe12  1  0.500000  0.433311  0.385964  1
  Fe  Fe13  1  0.500000  0.613985  0.047283  1
  P  P14  1  0.000000  0.112651  0.703769  1
  P  P15  1  0.000000  0.296155  0.408872  1
  P  P16  1  0.000000  0.591036  0.887063  1
  P  P17  1  0.500000  0.711618  0.595793  1
  P  P18  1  0.500000  0.403991  0.115770  1
  P  P19  1  0.500000  0.884553  0.288717  1
  P  P20  1  0.000000  0.000014  0.999982  1
