# generated using pymatgen
data_HoTm2Lu2ReRuO12
_symmetry_space_group_name_H-M   'P 1'
_cell_length_a   6.75904530
_cell_length_b   6.75424804
_cell_length_c   7.39301532
_cell_angle_alpha   73.80410834
_cell_angle_beta   73.84355812
_cell_angle_gamma   49.22675524
_symmetry_Int_Tables_number   1
_chemical_formula_structural   HoTm2Lu2ReRuO12
_chemical_formula_sum   'Ho1 Tm2 Lu2 Re1 Ru1 O12'
_cell_volume   243.29846989
_cell_formula_units_Z   1
loop_
 _symmetry_equiv_pos_site_id
 _symmetry_equiv_pos_as_xyz
  1  'x, y, z'
loop_
 _atom_site_type_symbol
 _atom_site_label
 _atom_site_symmetry_multiplicity
 _atom_site_fract_x
 _atom_site_fract_y
 _atom_site_fract_z
 _atom_site_occupancy
  Ho  Ho0  1  0.285034  0.318375  0.359426  1
  Tm  Tm1  1  0.309143  0.320770  0.824279  1
  Tm  Tm2  1  0.678827  0.691356  0.176890  1
  Lu  Lu3  1  0.986692  0.012218  0.500700  1
  Lu  Lu4  1  0.682103  0.714673  0.642185  1
  Re  Re5  1  0.800050  0.200753  0.999305  1
  Ru  Ru6  1  0.234189  0.766343  0.999222  1
  O  O7  1  0.516828  0.484490  0.178086  1
  O  O8  1  0.515922  0.486439  0.819138  1
  O  O9  1  0.004568  0.003132  0.205230  1
  O  O10  1  0.998123  0.995406  0.794019  1
  O  O11  1  0.912672  0.408410  0.909634  1
  O  O12  1  0.592557  0.087562  0.086524  1
  O  O13  1  0.085041  0.562767  0.085266  1
  O  O14  1  0.592221  0.108140  0.568501  1
  O  O15  1  0.885796  0.410807  0.435671  1
  O  O16  1  0.396542  0.910146  0.427375  1
  O  O17  1  0.083831  0.606387  0.577476  1
  O  O18  1  0.439861  0.911822  0.911074  1
