# generated using pymatgen
data_Hf2Nb4C5
_symmetry_space_group_name_H-M   'P 1'
_cell_length_a   5.58088300
_cell_length_b   5.58088273
_cell_length_c   5.53724733
_cell_angle_alpha   80.83649321
_cell_angle_beta   80.83648504
_cell_angle_gamma   120.43371620
_symmetry_Int_Tables_number   1
_chemical_formula_structural   Hf2Nb4C5
_chemical_formula_sum   'Hf2 Nb4 C5'
_cell_volume   140.85189512
_cell_formula_units_Z   1
loop_
 _symmetry_equiv_pos_site_id
 _symmetry_equiv_pos_as_xyz
  1  'x, y, z'
loop_
 _atom_site_type_symbol
 _atom_site_label
 _atom_site_symmetry_multiplicity
 _atom_site_fract_x
 _atom_site_fract_y
 _atom_site_fract_z
 _atom_site_occupancy
  Hf  Hf0  1  0.742797  0.742797  0.740979  1
  Hf  Hf1  1  0.257203  0.257203  0.259021  1
  Nb  Nb2  1  0.086145  0.440732  0.746210  1
  Nb  Nb3  1  0.559268  0.913855  0.253790  1
  Nb  Nb4  1  0.913855  0.559268  0.253790  1
  Nb  Nb5  1  0.440732  0.086145  0.746210  1
  C  C6  1  0.500000  0.500000  0.500000  1
  C  C7  1  0.667675  0.332325  0.000000  1
  C  C8  1  0.332325  0.667675  0.000000  1
  C  C9  1  0.831046  0.168954  0.500000  1
  C  C10  1  0.168954  0.831046  0.500000  1
