# generated using pymatgen
data_Ho2Hf2NbSi4
_symmetry_space_group_name_H-M   'P 1'
_cell_length_a   7.22057500
_cell_length_b   7.22057500
_cell_length_c   13.22780000
_cell_angle_alpha   90.00000000
_cell_angle_beta   90.00000000
_cell_angle_gamma   90.00000000
_symmetry_Int_Tables_number   1
_chemical_formula_structural   Ho2Hf2NbSi4
_chemical_formula_sum   'Ho8 Hf8 Nb4 Si16'
_cell_volume   689.65388432
_cell_formula_units_Z   4
loop_
 _symmetry_equiv_pos_site_id
 _symmetry_equiv_pos_as_xyz
  1  'x, y, z'
loop_
 _atom_site_type_symbol
 _atom_site_label
 _atom_site_symmetry_multiplicity
 _atom_site_fract_x
 _atom_site_fract_y
 _atom_site_fract_z
 _atom_site_occupancy
  Ho  Ho0  1  0.998031  0.344163  0.214986  1
  Ho  Ho1  1  0.001969  0.655837  0.714986  1
  Ho  Ho2  1  0.155837  0.498031  0.464986  1
  Ho  Ho3  1  0.501969  0.844163  0.035014  1
  Ho  Ho4  1  0.844163  0.501969  0.964986  1
  Ho  Ho5  1  0.498031  0.155837  0.535014  1
  Ho  Ho6  1  0.344163  0.998031  0.785014  1
  Ho  Ho7  1  0.655837  0.001969  0.285014  1
  Hf  Hf8  1  0.148253  0.993848  0.374788  1
  Hf  Hf9  1  0.851747  0.006152  0.874788  1
  Hf  Hf10  1  0.506152  0.648253  0.624788  1
  Hf  Hf11  1  0.351747  0.493848  0.875212  1
  Hf  Hf12  1  0.493848  0.351747  0.124788  1
  Hf  Hf13  1  0.648253  0.506152  0.375212  1
  Hf  Hf14  1  0.993848  0.148253  0.625212  1
  Hf  Hf15  1  0.006152  0.851747  0.125212  1
  Nb  Nb16  1  0.175723  0.175723  0.000000  1
  Nb  Nb17  1  0.824277  0.824277  0.500000  1
  Nb  Nb18  1  0.324277  0.675723  0.250000  1
  Nb  Nb19  1  0.675723  0.324277  0.750000  1
  Si  Si20  1  0.362135  0.296025  0.316931  1
  Si  Si21  1  0.637865  0.703975  0.816931  1
  Si  Si22  1  0.203975  0.862135  0.566931  1
  Si  Si23  1  0.137865  0.796025  0.933069  1
  Si  Si24  1  0.796025  0.137865  0.066931  1
  Si  Si25  1  0.862135  0.203975  0.433069  1
  Si  Si26  1  0.296025  0.362135  0.683069  1
  Si  Si27  1  0.703975  0.637865  0.183069  1
  Si  Si28  1  0.296515  0.048840  0.184819  1
  Si  Si29  1  0.703485  0.951160  0.684819  1
  Si  Si30  1  0.451160  0.796515  0.434819  1
  Si  Si31  1  0.203485  0.548840  0.065181  1
  Si  Si32  1  0.548840  0.203485  0.934819  1
  Si  Si33  1  0.796515  0.451160  0.565181  1
  Si  Si34  1  0.048840  0.296515  0.815181  1
  Si  Si35  1  0.951160  0.703485  0.315181  1
