# generated using pymatgen
data_Rb2Tl4(TcH9)3
_symmetry_space_group_name_H-M   'P 1'
_cell_length_a   9.99727300
_cell_length_b   9.75779516
_cell_length_c   5.92758000
_cell_angle_alpha   90.00000000
_cell_angle_beta   90.00000000
_cell_angle_gamma   120.81522217
_symmetry_Int_Tables_number   1
_chemical_formula_structural   Rb2Tl4(TcH9)3
_chemical_formula_sum   'Rb2 Tl4 Tc3 H27'
_cell_volume   496.60919734
_cell_formula_units_Z   1
loop_
 _symmetry_equiv_pos_site_id
 _symmetry_equiv_pos_as_xyz
  1  'x, y, z'
loop_
 _atom_site_type_symbol
 _atom_site_label
 _atom_site_symmetry_multiplicity
 _atom_site_fract_x
 _atom_site_fract_y
 _atom_site_fract_z
 _atom_site_occupancy
  Rb  Rb0  1  0.998628  0.257668  0.500000  1
  Rb  Rb1  1  0.740961  0.742332  0.500000  1
  Tl  Tl2  1  0.276088  0.000000  0.500000  1
  Tl  Tl3  1  0.594541  0.000000  0.000000  1
  Tl  Tl4  1  0.979051  0.587891  0.000000  1
  Tl  Tl5  1  0.391159  0.412109  0.000000  1
  Tc  Tc6  1  0.994815  0.000000  0.000000  1
  Tc  Tc7  1  0.337016  0.667947  0.500000  1
  Tc  Tc8  1  0.669071  0.332053  0.500000  1
  H  H9  1  0.871562  0.000000  0.197037  1
  H  H10  1  0.997442  0.879586  0.202353  1
  H  H11  1  0.871562  0.000000  0.802963  1
  H  H12  1  0.997442  0.879586  0.797647  1
  H  H13  1  0.117856  0.120414  0.202353  1
  H  H14  1  0.117856  0.120414  0.797647  1
  H  H15  1  0.161040  0.000000  0.000000  1
  H  H16  1  0.003618  0.175491  0.000000  1
  H  H17  1  0.828127  0.824509  0.000000  1
  H  H18  1  0.233648  0.537479  0.291503  1
  H  H19  1  0.464487  0.693158  0.292126  1
  H  H20  1  0.233648  0.537479  0.708497  1
  H  H21  1  0.534079  0.224179  0.701792  1
  H  H22  1  0.309899  0.775821  0.298208  1
  H  H23  1  0.464487  0.693158  0.707874  1
  H  H24  1  0.696170  0.462521  0.708497  1
  H  H25  1  0.534079  0.224179  0.298208  1
  H  H26  1  0.309899  0.775821  0.701792  1
  H  H27  1  0.696170  0.462521  0.291503  1
  H  H28  1  0.771328  0.306842  0.707874  1
  H  H29  1  0.771328  0.306842  0.292126  1
  H  H30  1  0.369441  0.516096  0.500000  1
  H  H31  1  0.490416  0.853092  0.500000  1
  H  H32  1  0.530234  0.378045  0.500000  1
  H  H33  1  0.152191  0.621955  0.500000  1
  H  H34  1  0.853344  0.483904  0.500000  1
  H  H35  1  0.637324  0.146908  0.500000  1
