# generated using pymatgen
data_Tb3Pr(CCl)2
_symmetry_space_group_name_H-M   'P 1'
_cell_length_a   3.69354200
_cell_length_b   3.69357592
_cell_length_c   13.99859901
_cell_angle_alpha   90.00122050
_cell_angle_beta   90.00002737
_cell_angle_gamma   120.00015738
_symmetry_Int_Tables_number   1
_chemical_formula_structural   Tb3Pr(CCl)2
_chemical_formula_sum   'Tb3 Pr1 C2 Cl2'
_cell_volume   165.38822590
_cell_formula_units_Z   1
loop_
 _symmetry_equiv_pos_site_id
 _symmetry_equiv_pos_as_xyz
  1  'x, y, z'
loop_
 _atom_site_type_symbol
 _atom_site_label
 _atom_site_symmetry_multiplicity
 _atom_site_fract_x
 _atom_site_fract_y
 _atom_site_fract_z
 _atom_site_occupancy
  Tb  Tb0  1  0.666630  0.333490  0.594682  1
  Tb  Tb1  1  0.666698  0.333167  0.901532  1
  Tb  Tb2  1  0.333286  0.666825  0.409611  1
  Pr  Pr3  1  0.333411  0.666514  0.094705  1
  C  C4  1  0.000049  0.999801  0.987921  1
  C  C5  1  0.999958  0.000149  0.502582  1
  Cl  Cl6  1  0.333318  0.666675  0.745926  1
  Cl  Cl7  1  0.666651  0.333380  0.263041  1
