# generated using pymatgen
data_CaTm2(AsRh)3
_symmetry_space_group_name_H-M   'P 1'
_cell_length_a   6.92174000
_cell_length_b   6.89903603
_cell_length_c   4.01744100
_cell_angle_alpha   90.00000000
_cell_angle_beta   90.00000000
_cell_angle_gamma   120.10892160
_symmetry_Int_Tables_number   1
_chemical_formula_structural   CaTm2(AsRh)3
_chemical_formula_sum   'Ca1 Tm2 As3 Rh3'
_cell_volume   165.96102950
_cell_formula_units_Z   1
loop_
 _symmetry_equiv_pos_site_id
 _symmetry_equiv_pos_as_xyz
  1  'x, y, z'
loop_
 _atom_site_type_symbol
 _atom_site_label
 _atom_site_symmetry_multiplicity
 _atom_site_fract_x
 _atom_site_fract_y
 _atom_site_fract_z
 _atom_site_occupancy
  Ca  Ca0  1  0.414588  0.000000  0.500001  1
  Tm  Tm1  1  0.000271  0.412650  0.500001  1
  Tm  Tm2  1  0.587620  0.587350  0.500001  1
  As  As3  1  0.668614  0.336265  0.000000  1
  As  As4  1  0.332350  0.663735  0.000000  1
  As  As5  1  0.003586  0.000000  0.500001  1
  Rh  Rh6  1  0.764222  0.000000  0.000000  1
  Rh  Rh7  1  0.237422  0.246099  0.000000  1
  Rh  Rh8  1  0.991324  0.753901  0.000000  1
