# generated using pymatgen
data_Tm4GaTc6Os
_symmetry_space_group_name_H-M   'P 1'
_cell_length_a   5.28186425
_cell_length_b   5.28186173
_cell_length_c   8.98601700
_cell_angle_alpha   90.00291269
_cell_angle_beta   89.99708603
_cell_angle_gamma   120.02835268
_symmetry_Int_Tables_number   1
_chemical_formula_structural   Tm4GaTc6Os
_chemical_formula_sum   'Tm4 Ga1 Tc6 Os1'
_cell_volume   217.04409829
_cell_formula_units_Z   1
loop_
 _symmetry_equiv_pos_site_id
 _symmetry_equiv_pos_as_xyz
  1  'x, y, z'
loop_
 _atom_site_type_symbol
 _atom_site_label
 _atom_site_symmetry_multiplicity
 _atom_site_fract_x
 _atom_site_fract_y
 _atom_site_fract_z
 _atom_site_occupancy
  Tm  Tm0  1  0.666672  0.333328  0.568235  1
  Tm  Tm1  1  0.333328  0.666672  0.431765  1
  Tm  Tm2  1  0.333381  0.666619  0.063925  1
  Tm  Tm3  1  0.666619  0.333381  0.936075  1
  Ga  Ga4  1  0.000000  0.000000  0.500000  1
  Tc  Tc5  1  0.170118  0.340242  0.749185  1
  Tc  Tc6  1  0.170092  0.829908  0.749207  1
  Tc  Tc7  1  0.659758  0.829882  0.749185  1
  Tc  Tc8  1  0.829882  0.659758  0.250815  1
  Tc  Tc9  1  0.829908  0.170092  0.250793  1
  Tc  Tc10  1  0.340242  0.170118  0.250815  1
  Os  Os11  1  0.000000  0.000000  0.000000  1
