# generated using pymatgen
data_Pr17Y3Si15Rh
_symmetry_space_group_name_H-M   'P 1'
_cell_length_a   7.90679918
_cell_length_b   7.86024216
_cell_length_c   15.19700186
_cell_angle_alpha   90.14474319
_cell_angle_beta   89.74047324
_cell_angle_gamma   90.26791197
_symmetry_Int_Tables_number   1
_chemical_formula_structural   Pr17Y3Si15Rh
_chemical_formula_sum   'Pr17 Y3 Si15 Rh1'
_cell_volume   944.46090519
_cell_formula_units_Z   1
loop_
 _symmetry_equiv_pos_site_id
 _symmetry_equiv_pos_as_xyz
  1  'x, y, z'
loop_
 _atom_site_type_symbol
 _atom_site_label
 _atom_site_symmetry_multiplicity
 _atom_site_fract_x
 _atom_site_fract_y
 _atom_site_fract_z
 _atom_site_occupancy
  Pr  Pr0  1  0.695017  0.687748  0.500295  1
  Pr  Pr1  1  0.374732  0.010382  0.447803  1
  Pr  Pr2  1  0.488662  0.875265  0.699500  1
  Pr  Pr3  1  0.511374  0.124633  0.197206  1
  Pr  Pr4  1  0.875310  0.486596  0.299727  1
  Pr  Pr5  1  0.124955  0.505604  0.799367  1
  Pr  Pr6  1  0.627056  0.988043  0.949012  1
  Pr  Pr7  1  0.003151  0.375430  0.552026  1
  Pr  Pr8  1  0.987971  0.625937  0.051668  1
  Pr  Pr9  1  0.135036  0.985877  0.873264  1
  Pr  Pr10  1  0.518792  0.631513  0.125289  1
  Pr  Pr11  1  0.471143  0.363378  0.630220  1
  Pr  Pr12  1  0.628812  0.518017  0.874244  1
  Pr  Pr13  1  0.372709  0.480795  0.372738  1
  Pr  Pr14  1  0.873484  0.021979  0.377121  1
  Pr  Pr15  1  0.980292  0.126411  0.123262  1
  Pr  Pr16  1  0.026693  0.882291  0.625205  1
  Y  Y17  1  0.308161  0.308250  0.999122  1
  Y  Y18  1  0.188412  0.809195  0.250184  1
  Y  Y19  1  0.814850  0.188530  0.750724  1
  Si  Si20  1  0.330739  0.691845  0.952167  1
  Si  Si21  1  0.663089  0.303663  0.453664  1
  Si  Si22  1  0.694148  0.332871  0.047727  1
  Si  Si23  1  0.305544  0.668818  0.546612  1
  Si  Si24  1  0.808892  0.831229  0.204321  1
  Si  Si25  1  0.169270  0.192726  0.295215  1
  Si  Si26  1  0.833217  0.807196  0.797284  1
  Si  Si27  1  0.286838  0.924086  0.061202  1
  Si  Si28  1  0.574871  0.787700  0.309268  1
  Si  Si29  1  0.432291  0.208128  0.815558  1
  Si  Si30  1  0.784751  0.577735  0.690695  1
  Si  Si31  1  0.213140  0.424221  0.186962  1
  Si  Si32  1  0.706258  0.076322  0.562486  1
  Si  Si33  1  0.922191  0.285798  0.938875  1
  Si  Si34  1  0.082416  0.716910  0.437634  1
  Rh  Rh35  1  0.185729  0.174879  0.702353  1
