# generated using pymatgen
data_K3Ac(PO4)2
_symmetry_space_group_name_H-M   'P 1'
_cell_length_a   9.74155005
_cell_length_b   5.74995500
_cell_length_c   7.64395500
_cell_angle_alpha   90.00000000
_cell_angle_beta   91.40506976
_cell_angle_gamma   90.00000000
_symmetry_Int_Tables_number   1
_chemical_formula_structural   K3Ac(PO4)2
_chemical_formula_sum   'K6 Ac2 P4 O16'
_cell_volume   428.03573907
_cell_formula_units_Z   2
loop_
 _symmetry_equiv_pos_site_id
 _symmetry_equiv_pos_as_xyz
  1  'x, y, z'
loop_
 _atom_site_type_symbol
 _atom_site_label
 _atom_site_symmetry_multiplicity
 _atom_site_fract_x
 _atom_site_fract_y
 _atom_site_fract_z
 _atom_site_occupancy
  K  K0  1  0.584463  0.250001  0.205271  1
  K  K1  1  0.096564  0.750000  0.361146  1
  K  K2  1  0.309633  0.250001  0.489286  1
  K  K3  1  0.690366  0.750000  0.510714  1
  K  K4  1  0.903436  0.250001  0.638853  1
  K  K5  1  0.415537  0.750000  0.794729  1
  Ac  Ac6  1  0.793250  0.750000  0.009872  1
  Ac  Ac7  1  0.206750  0.250001  0.990127  1
  P  P8  1  0.925092  0.250001  0.210300  1
  P  P9  1  0.417459  0.750000  0.242571  1
  P  P10  1  0.582542  0.250001  0.757428  1
  P  P11  1  0.074907  0.750000  0.789700  1
  O  O12  1  0.066858  0.750000  0.993908  1
  O  O13  1  0.347100  0.528821  0.162338  1
  O  O14  1  0.347100  0.971177  0.162338  1
  O  O15  1  0.571339  0.750000  0.190143  1
  O  O16  1  0.848113  0.028099  0.270585  1
  O  O17  1  0.848113  0.471900  0.270585  1
  O  O18  1  0.074483  0.250001  0.287950  1
  O  O19  1  0.401756  0.750000  0.442053  1
  O  O20  1  0.598243  0.250001  0.557948  1
  O  O21  1  0.925517  0.750000  0.712050  1
  O  O22  1  0.151886  0.528099  0.729415  1
  O  O23  1  0.151886  0.971901  0.729415  1
  O  O24  1  0.428660  0.250001  0.809857  1
  O  O25  1  0.652900  0.028822  0.837662  1
  O  O26  1  0.652900  0.471178  0.837662  1
  O  O27  1  0.933142  0.250001  0.006093  1
