# generated using pymatgen
data_Dy3Er5Re(B8Os)3
_symmetry_space_group_name_H-M   'P 1'
_cell_length_a   3.64804800
_cell_length_b   9.12119908
_cell_length_c   11.50585300
_cell_angle_alpha   90.08668616
_cell_angle_beta   90.00000000
_cell_angle_gamma   90.00000000
_symmetry_Int_Tables_number   1
_chemical_formula_structural   Dy3Er5Re(B8Os)3
_chemical_formula_sum   'Dy3 Er5 Re1 B24 Os3'
_cell_volume   382.85189664
_cell_formula_units_Z   1
loop_
 _symmetry_equiv_pos_site_id
 _symmetry_equiv_pos_as_xyz
  1  'x, y, z'
loop_
 _atom_site_type_symbol
 _atom_site_label
 _atom_site_symmetry_multiplicity
 _atom_site_fract_x
 _atom_site_fract_y
 _atom_site_fract_z
 _atom_site_occupancy
  Dy  Dy0  1  0.000000  0.322130  0.414884  1
  Dy  Dy1  1  0.000000  0.680159  0.588068  1
  Dy  Dy2  1  0.000000  0.822441  0.083758  1
  Er  Er3  1  0.000000  0.176586  0.913229  1
  Er  Er4  1  0.000000  0.943469  0.371911  1
  Er  Er5  1  0.000000  0.055796  0.627813  1
  Er  Er6  1  0.000000  0.443009  0.127712  1
  Er  Er7  1  0.000000  0.556309  0.872750  1
  Re  Re8  1  0.000000  0.862578  0.821286  1
  B  B9  1  0.500000  0.553943  0.433160  1
  B  B10  1  0.500000  0.446127  0.567099  1
  B  B11  1  0.500000  0.053895  0.067106  1
  B  B12  1  0.500000  0.947279  0.933189  1
  B  B13  1  0.500000  0.748809  0.419387  1
  B  B14  1  0.500000  0.251265  0.580511  1
  B  B15  1  0.500000  0.248479  0.080437  1
  B  B16  1  0.500000  0.751156  0.919236  1
  B  B17  1  0.500000  0.790727  0.266040  1
  B  B18  1  0.500000  0.208783  0.733487  1
  B  B19  1  0.500000  0.291157  0.233912  1
  B  B20  1  0.500000  0.708236  0.766059  1
  B  B21  1  0.500000  0.630813  0.185289  1
  B  B22  1  0.500000  0.368533  0.814474  1
  B  B23  1  0.500000  0.131416  0.314818  1
  B  B24  1  0.500000  0.868979  0.685521  1
  B  B25  1  0.500000  0.983219  0.212784  1
  B  B26  1  0.500000  0.018204  0.787280  1
  B  B27  1  0.500000  0.482925  0.287564  1
  B  B28  1  0.500000  0.516998  0.712855  1
  B  B29  1  0.500000  0.604818  0.029688  1
  B  B30  1  0.500000  0.393315  0.970800  1
  B  B31  1  0.500000  0.106102  0.470319  1
  B  B32  1  0.500000  0.894412  0.528707  1
  Os  Os33  1  0.000000  0.637567  0.321206  1
  Os  Os34  1  0.000000  0.362316  0.678438  1
  Os  Os35  1  0.000000  0.138048  0.179220  1
