# generated using pymatgen
data_HoSc3(Zn4Ru)2
_symmetry_space_group_name_H-M   'P 1'
_cell_length_a   6.87091800
_cell_length_b   6.87091800
_cell_length_c   5.00067800
_cell_angle_alpha   90.00000000
_cell_angle_beta   90.00000000
_cell_angle_gamma   90.00000000
_symmetry_Int_Tables_number   1
_chemical_formula_structural   HoSc3(Zn4Ru)2
_chemical_formula_sum   'Ho1 Sc3 Zn8 Ru2'
_cell_volume   236.07957886
_cell_formula_units_Z   1
loop_
 _symmetry_equiv_pos_site_id
 _symmetry_equiv_pos_as_xyz
  1  'x, y, z'
loop_
 _atom_site_type_symbol
 _atom_site_label
 _atom_site_symmetry_multiplicity
 _atom_site_fract_x
 _atom_site_fract_y
 _atom_site_fract_z
 _atom_site_occupancy
  Ho  Ho0  1  0.000000  0.500000  0.755972  1
  Sc  Sc1  1  0.000000  0.000000  0.000066  1
  Sc  Sc2  1  0.500000  0.000000  0.245593  1
  Sc  Sc3  1  0.500000  0.500000  0.000066  1
  Zn  Zn4  1  0.193670  0.693670  0.269413  1
  Zn  Zn5  1  0.806330  0.693670  0.269413  1
  Zn  Zn6  1  0.806330  0.306330  0.269413  1
  Zn  Zn7  1  0.311094  0.188906  0.729390  1
  Zn  Zn8  1  0.193670  0.306330  0.269413  1
  Zn  Zn9  1  0.688906  0.188906  0.729390  1
  Zn  Zn10  1  0.688906  0.811094  0.729390  1
  Zn  Zn11  1  0.311094  0.811094  0.729390  1
  Ru  Ru12  1  0.500000  0.500000  0.501546  1
  Ru  Ru13  1  0.000000  0.000000  0.501546  1
