# generated using pymatgen
data_La9Pr3(PtI3)4
_symmetry_space_group_name_H-M   'P 1'
_cell_length_a   11.05909586
_cell_length_b   11.04529335
_cell_length_c   11.03608182
_cell_angle_alpha   109.19887871
_cell_angle_beta   109.94046894
_cell_angle_gamma   109.28366179
_symmetry_Int_Tables_number   1
_chemical_formula_structural   La9Pr3(PtI3)4
_chemical_formula_sum   'La9 Pr3 Pt4 I12'
_cell_volume   1037.58434464
_cell_formula_units_Z   1
loop_
 _symmetry_equiv_pos_site_id
 _symmetry_equiv_pos_as_xyz
  1  'x, y, z'
loop_
 _atom_site_type_symbol
 _atom_site_label
 _atom_site_symmetry_multiplicity
 _atom_site_fract_x
 _atom_site_fract_y
 _atom_site_fract_z
 _atom_site_occupancy
  La  La0  1  0.020759  0.041519  0.270759  1
  La  La1  1  0.227667  0.267627  0.746225  1
  La  La2  1  0.019502  0.480825  0.751550  1
  La  La3  1  0.479493  0.234924  0.462931  1
  La  La4  1  0.274588  0.015764  0.039813  1
  La  La5  1  0.755431  0.234924  0.271992  1
  La  La6  1  0.741175  0.015764  0.475952  1
  La  La7  1  0.461322  0.480825  0.229275  1
  La  La8  1  0.039962  0.267627  0.021403  1
  Pr  Pr9  1  0.269924  0.747464  0.228552  1
  Pr  Pr10  1  0.477541  0.747464  0.018913  1
  Pr  Pr11  1  0.231447  0.462893  0.481447  1
  Pt  Pt12  1  0.501574  0.003149  0.251574  1
  Pt  Pt13  1  0.248485  0.496971  0.998485  1
  Pt  Pt14  1  0.998700  0.250650  0.500322  1
  Pt  Pt15  1  0.251950  0.250650  0.250328  1
  I  I16  1  0.252041  0.990038  0.507337  1
  I  I17  1  0.517036  0.511395  0.761403  1
  I  I18  1  0.250183  0.755939  0.739014  1
  I  I19  1  0.983855  0.742332  0.992948  1
  I  I20  1  0.994361  0.511395  0.249992  1
  I  I21  1  0.737997  0.990038  0.982701  1
  I  I22  1  0.758476  0.742332  0.249384  1
  I  I23  1  0.505756  0.755939  0.516926  1
  I  I24  1  0.509213  0.249791  0.990979  1
  I  I25  1  0.759779  0.519559  0.509779  1
  I  I26  1  0.740577  0.249791  0.758812  1
  I  I27  1  0.991204  0.982407  0.741204  1
