# generated using pymatgen
data_Th3In5Rh4
_symmetry_space_group_name_H-M   'P 1'
_cell_length_a   4.39901900
_cell_length_b   7.15596276
_cell_length_c   8.48979545
_cell_angle_alpha   88.80834772
_cell_angle_beta   90.00000000
_cell_angle_gamma   90.00000000
_symmetry_Int_Tables_number   1
_chemical_formula_structural   Th3In5Rh4
_chemical_formula_sum   'Th3 In5 Rh4'
_cell_volume   267.19430578
_cell_formula_units_Z   1
loop_
 _symmetry_equiv_pos_site_id
 _symmetry_equiv_pos_as_xyz
  1  'x, y, z'
loop_
 _atom_site_type_symbol
 _atom_site_label
 _atom_site_symmetry_multiplicity
 _atom_site_fract_x
 _atom_site_fract_y
 _atom_site_fract_z
 _atom_site_occupancy
  Th  Th0  1  0.250000  0.038680  0.176703  1
  Th  Th1  1  0.750000  0.955879  0.821989  1
  Th  Th2  1  0.250000  0.534255  0.335353  1
  In  In3  1  0.750000  0.467126  0.665845  1
  In  In4  1  0.750000  0.367433  0.052799  1
  In  In5  1  0.250000  0.625090  0.936846  1
  In  In6  1  0.750000  0.868448  0.443898  1
  In  In7  1  0.250000  0.144309  0.565824  1
  Rh  Rh8  1  0.250000  0.743404  0.622469  1
  Rh  Rh9  1  0.750000  0.260470  0.368520  1
  Rh  Rh10  1  0.250000  0.233064  0.881168  1
  Rh  Rh11  1  0.750000  0.761840  0.128584  1
