# generated using pymatgen
data_Y4Er4B24OsRu3
_symmetry_space_group_name_H-M   'P 1'
_cell_length_a   3.64710700
_cell_length_b   9.12186598
_cell_length_c   11.51014001
_cell_angle_alpha   90.03603234
_cell_angle_beta   90.00000000
_cell_angle_gamma   90.00000000
_symmetry_Int_Tables_number   1
_chemical_formula_structural   Y4Er4B24OsRu3
_chemical_formula_sum   'Y4 Er4 B24 Os1 Ru3'
_cell_volume   382.92411083
_cell_formula_units_Z   1
loop_
 _symmetry_equiv_pos_site_id
 _symmetry_equiv_pos_as_xyz
  1  'x, y, z'
loop_
 _atom_site_type_symbol
 _atom_site_label
 _atom_site_symmetry_multiplicity
 _atom_site_fract_x
 _atom_site_fract_y
 _atom_site_fract_z
 _atom_site_occupancy
  Y  Y0  1  0.000000  0.322254  0.413983  1
  Y  Y1  1  0.000000  0.678304  0.586187  1
  Y  Y2  1  0.000000  0.822013  0.085890  1
  Y  Y3  1  0.000000  0.178014  0.914145  1
  Er  Er4  1  0.000000  0.943741  0.372164  1
  Er  Er5  1  0.000000  0.056490  0.627057  1
  Er  Er6  1  0.000000  0.443608  0.127821  1
  Er  Er7  1  0.000000  0.555616  0.872687  1
  B  B8  1  0.500000  0.554403  0.432833  1
  B  B9  1  0.500000  0.445813  0.567207  1
  B  B10  1  0.500000  0.054302  0.067301  1
  B  B11  1  0.500000  0.945879  0.932866  1
  B  B12  1  0.500000  0.748816  0.419408  1
  B  B13  1  0.500000  0.251477  0.580437  1
  B  B14  1  0.500000  0.248750  0.080672  1
  B  B15  1  0.500000  0.751073  0.919368  1
  B  B16  1  0.500000  0.791128  0.266210  1
  B  B17  1  0.500000  0.208775  0.733612  1
  B  B18  1  0.500000  0.291161  0.233828  1
  B  B19  1  0.500000  0.708520  0.766254  1
  B  B20  1  0.500000  0.631218  0.185001  1
  B  B21  1  0.500000  0.368495  0.815055  1
  B  B22  1  0.500000  0.131312  0.315008  1
  B  B23  1  0.500000  0.868796  0.685032  1
  B  B24  1  0.500000  0.983393  0.213260  1
  B  B25  1  0.500000  0.016869  0.786638  1
  B  B26  1  0.500000  0.483431  0.286826  1
  B  B27  1  0.500000  0.516498  0.713301  1
  B  B28  1  0.500000  0.605648  0.029349  1
  B  B29  1  0.500000  0.393791  0.970910  1
  B  B30  1  0.500000  0.106231  0.470510  1
  B  B31  1  0.500000  0.894194  0.529043  1
  Os  Os32  1  0.000000  0.862078  0.820866  1
  Ru  Ru33  1  0.000000  0.638111  0.320826  1
  Ru  Ru34  1  0.000000  0.361875  0.679347  1
  Ru  Ru35  1  0.000000  0.137922  0.179101  1
