# generated using pymatgen
data_TbHo4Cd3InNi2
_symmetry_space_group_name_H-M   'P 1'
_cell_length_a   3.57429500
_cell_length_b   7.85894140
_cell_length_c   18.15197636
_cell_angle_alpha   89.56189676
_cell_angle_beta   90.00000000
_cell_angle_gamma   90.00000000
_symmetry_Int_Tables_number   1
_chemical_formula_structural   TbHo4Cd3InNi2
_chemical_formula_sum   'Tb2 Ho8 Cd6 In2 Ni4'
_cell_volume   509.87728575
_cell_formula_units_Z   2
loop_
 _symmetry_equiv_pos_site_id
 _symmetry_equiv_pos_as_xyz
  1  'x, y, z'
loop_
 _atom_site_type_symbol
 _atom_site_label
 _atom_site_symmetry_multiplicity
 _atom_site_fract_x
 _atom_site_fract_y
 _atom_site_fract_z
 _atom_site_occupancy
  Tb  Tb0  1  0.000000  0.500000  0.500000  1
  Tb  Tb1  1  0.000000  0.000000  0.000000  1
  Ho  Ho2  1  0.000000  0.749582  0.279147  1
  Ho  Ho3  1  0.000000  0.250418  0.720853  1
  Ho  Ho4  1  0.000000  0.747144  0.777977  1
  Ho  Ho5  1  0.000000  0.252856  0.222023  1
  Ho  Ho6  1  0.000000  0.615268  0.089062  1
  Ho  Ho7  1  0.000000  0.384732  0.910938  1
  Ho  Ho8  1  0.000000  0.886759  0.588405  1
  Ho  Ho9  1  0.000000  0.113241  0.411595  1
  Cd  Cd10  1  0.500000  0.709093  0.930036  1
  Cd  Cd11  1  0.500000  0.290907  0.069964  1
  Cd  Cd12  1  0.500000  0.788926  0.429573  1
  Cd  Cd13  1  0.500000  0.211074  0.570427  1
  Cd  Cd14  1  0.500000  0.568012  0.650556  1
  Cd  Cd15  1  0.500000  0.431988  0.349444  1
  In  In16  1  0.500000  0.934447  0.151710  1
  In  In17  1  0.500000  0.065553  0.848290  1
  Ni  Ni18  1  0.500000  0.530422  0.196333  1
  Ni  Ni19  1  0.500000  0.469578  0.803667  1
  Ni  Ni20  1  0.500000  0.970397  0.696601  1
  Ni  Ni21  1  0.500000  0.029603  0.303399  1
