# generated using pymatgen
data_Eu4Mg4Ir2PdRh
_symmetry_space_group_name_H-M   'P 1'
_cell_length_a   4.24998700
_cell_length_b   7.24076668
_cell_length_c   8.45862255
_cell_angle_alpha   90.50591151
_cell_angle_beta   90.00000000
_cell_angle_gamma   90.00000000
_symmetry_Int_Tables_number   1
_chemical_formula_structural   Eu4Mg4Ir2PdRh
_chemical_formula_sum   'Eu4 Mg4 Ir2 Pd1 Rh1'
_cell_volume   260.28843421
_cell_formula_units_Z   1
loop_
 _symmetry_equiv_pos_site_id
 _symmetry_equiv_pos_as_xyz
  1  'x, y, z'
loop_
 _atom_site_type_symbol
 _atom_site_label
 _atom_site_symmetry_multiplicity
 _atom_site_fract_x
 _atom_site_fract_y
 _atom_site_fract_z
 _atom_site_occupancy
  Eu  Eu0  1  0.250000  0.024648  0.330654  1
  Eu  Eu1  1  0.250000  0.538967  0.180073  1
  Eu  Eu2  1  0.750000  0.971549  0.673780  1
  Eu  Eu3  1  0.750000  0.472086  0.818777  1
  Mg  Mg4  1  0.250000  0.135853  0.936016  1
  Mg  Mg5  1  0.250000  0.637110  0.559089  1
  Mg  Mg6  1  0.750000  0.858710  0.059112  1
  Mg  Mg7  1  0.750000  0.363372  0.443953  1
  Ir  Ir8  1  0.250000  0.266454  0.629845  1
  Ir  Ir9  1  0.750000  0.733752  0.370493  1
  Pd  Pd10  1  0.750000  0.230661  0.125097  1
  Rh  Rh11  1  0.250000  0.766840  0.873111  1
