# generated using pymatgen
data_TbEr5TcBi2
_symmetry_space_group_name_H-M   'P 1'
_cell_length_a   8.26007700
_cell_length_b   8.25608684
_cell_length_c   4.27436600
_cell_angle_alpha   90.00000000
_cell_angle_beta   90.00000000
_cell_angle_gamma   120.01598468
_symmetry_Int_Tables_number   1
_chemical_formula_structural   TbEr5TcBi2
_chemical_formula_sum   'Tb1 Er5 Tc1 Bi2'
_cell_volume   252.40079083
_cell_formula_units_Z   1
loop_
 _symmetry_equiv_pos_site_id
 _symmetry_equiv_pos_as_xyz
  1  'x, y, z'
loop_
 _atom_site_type_symbol
 _atom_site_label
 _atom_site_symmetry_multiplicity
 _atom_site_fract_x
 _atom_site_fract_y
 _atom_site_fract_z
 _atom_site_occupancy
  Tb  Tb0  1  0.608937  0.000000  0.000000  1
  Er  Er1  1  0.231965  0.000000  0.500000  1
  Er  Er2  1  0.000710  0.232284  0.500000  1
  Er  Er3  1  0.768426  0.767716  0.500000  1
  Er  Er4  1  0.999826  0.610213  0.000000  1
  Er  Er5  1  0.389613  0.389787  0.000000  1
  Tc  Tc6  1  0.001684  0.000000  0.000000  1
  Bi  Bi7  1  0.332181  0.665524  0.500000  1
  Bi  Bi8  1  0.666658  0.334476  0.500000  1
