# generated using pymatgen
data_Nb2AlGaI16
_symmetry_space_group_name_H-M   'P 1'
_cell_length_a   11.22038099
_cell_length_b   11.22038140
_cell_length_c   9.92662500
_cell_angle_alpha   90.00000000
_cell_angle_beta   90.00000000
_cell_angle_gamma   128.41572946
_symmetry_Int_Tables_number   1
_chemical_formula_structural   Nb2AlGaI16
_chemical_formula_sum   'Nb2 Al1 Ga1 I16'
_cell_volume   979.19352985
_cell_formula_units_Z   1
loop_
 _symmetry_equiv_pos_site_id
 _symmetry_equiv_pos_as_xyz
  1  'x, y, z'
loop_
 _atom_site_type_symbol
 _atom_site_label
 _atom_site_symmetry_multiplicity
 _atom_site_fract_x
 _atom_site_fract_y
 _atom_site_fract_z
 _atom_site_occupancy
  Nb  Nb0  1  0.610477  0.389523  0.250000  1
  Nb  Nb1  1  0.389506  0.610494  0.750000  1
  Al  Al2  1  0.187455  0.812545  0.750000  1
  Ga  Ga3  1  0.813018  0.186982  0.250000  1
  I  I4  1  0.522316  0.067645  0.250000  1
  I  I5  1  0.068000  0.524383  0.750000  1
  I  I6  1  0.475617  0.932000  0.750000  1
  I  I7  1  0.932355  0.477684  0.250000  1
  I  I8  1  0.631456  0.368544  0.980067  1
  I  I9  1  0.368588  0.631412  0.019900  1
  I  I10  1  0.631456  0.368544  0.519933  1
  I  I11  1  0.368588  0.631412  0.480100  1
  I  I12  1  0.317165  0.259094  0.250000  1
  I  I13  1  0.259104  0.317200  0.750000  1
  I  I14  1  0.682800  0.740896  0.750000  1
  I  I15  1  0.740906  0.682835  0.250000  1
  I  I16  1  0.881874  0.118126  0.464592  1
  I  I17  1  0.118722  0.881278  0.537337  1
  I  I18  1  0.881874  0.118126  0.035408  1
  I  I19  1  0.118722  0.881278  0.962663  1
