# generated using pymatgen
data_Tb4LuPb3
_symmetry_space_group_name_H-M   'P 1'
_cell_length_a   9.06265900
_cell_length_b   9.06265845
_cell_length_c   6.63814500
_cell_angle_alpha   90.00000000
_cell_angle_beta   90.00000000
_cell_angle_gamma   120.00000565
_symmetry_Int_Tables_number   1
_chemical_formula_structural   Tb4LuPb3
_chemical_formula_sum   'Tb8 Lu2 Pb6'
_cell_volume   472.15934940
_cell_formula_units_Z   2
loop_
 _symmetry_equiv_pos_site_id
 _symmetry_equiv_pos_as_xyz
  1  'x, y, z'
loop_
 _atom_site_type_symbol
 _atom_site_label
 _atom_site_symmetry_multiplicity
 _atom_site_fract_x
 _atom_site_fract_y
 _atom_site_fract_z
 _atom_site_occupancy
  Tb  Tb0  1  0.333333  0.666667  0.500000  1
  Tb  Tb1  1  0.666667  0.333333  0.500000  1
  Tb  Tb2  1  0.761170  0.761170  0.750655  1
  Tb  Tb3  1  0.238830  0.000000  0.750655  1
  Tb  Tb4  1  0.000000  0.238830  0.750655  1
  Tb  Tb5  1  0.238830  0.238830  0.249345  1
  Tb  Tb6  1  0.761170  0.000000  0.249345  1
  Tb  Tb7  1  0.000000  0.761170  0.249345  1
  Lu  Lu8  1  0.666667  0.333333  0.000000  1
  Lu  Lu9  1  0.333333  0.666667  0.000000  1
  Pb  Pb10  1  0.395123  0.395123  0.751987  1
  Pb  Pb11  1  0.604877  0.000000  0.751987  1
  Pb  Pb12  1  0.000000  0.604877  0.751987  1
  Pb  Pb13  1  0.604877  0.604877  0.248013  1
  Pb  Pb14  1  0.395123  0.000000  0.248013  1
  Pb  Pb15  1  0.000000  0.395123  0.248013  1
