# generated using pymatgen
data_Nb6Zn4Cu2S
_symmetry_space_group_name_H-M   'P 1'
_cell_length_a   8.31045462
_cell_length_b   8.31045557
_cell_length_c   8.31045400
_cell_angle_alpha   60.00000626
_cell_angle_beta   60.00000248
_cell_angle_gamma   60.00000313
_symmetry_Int_Tables_number   1
_chemical_formula_structural   Nb6Zn4Cu2S
_chemical_formula_sum   'Nb12 Zn8 Cu4 S2'
_cell_volume   405.84425783
_cell_formula_units_Z   2
loop_
 _symmetry_equiv_pos_site_id
 _symmetry_equiv_pos_as_xyz
  1  'x, y, z'
loop_
 _atom_site_type_symbol
 _atom_site_label
 _atom_site_symmetry_multiplicity
 _atom_site_fract_x
 _atom_site_fract_y
 _atom_site_fract_z
 _atom_site_occupancy
  Nb  Nb0  1  0.205493  0.794507  0.205493  1
  Nb  Nb1  1  0.455493  0.044507  0.455493  1
  Nb  Nb2  1  0.455493  0.044507  0.044507  1
  Nb  Nb3  1  0.455493  0.455493  0.044507  1
  Nb  Nb4  1  0.205493  0.794507  0.794507  1
  Nb  Nb5  1  0.044507  0.455493  0.044507  1
  Nb  Nb6  1  0.794507  0.794507  0.205493  1
  Nb  Nb7  1  0.044507  0.455493  0.455493  1
  Nb  Nb8  1  0.205493  0.205493  0.794507  1
  Nb  Nb9  1  0.794507  0.205493  0.205493  1
  Nb  Nb10  1  0.794507  0.205493  0.794507  1
  Nb  Nb11  1  0.044507  0.044507  0.455493  1
  Zn  Zn12  1  0.832736  0.501796  0.832736  1
  Zn  Zn13  1  0.417264  0.417264  0.748204  1
  Zn  Zn14  1  0.748204  0.417264  0.417264  1
  Zn  Zn15  1  0.417264  0.417264  0.417264  1
  Zn  Zn16  1  0.832736  0.832736  0.501796  1
  Zn  Zn17  1  0.417264  0.748204  0.417264  1
  Zn  Zn18  1  0.832736  0.832736  0.832736  1
  Zn  Zn19  1  0.501796  0.832736  0.832736  1
  Cu  Cu20  1  0.625000  0.125000  0.625000  1
  Cu  Cu21  1  0.625000  0.625000  0.125000  1
  Cu  Cu22  1  0.125000  0.625000  0.625000  1
  Cu  Cu23  1  0.625000  0.625000  0.625000  1
  S  S24  1  0.000000  0.000000  0.000000  1
  S  S25  1  0.250000  0.250000  0.250000  1
