# generated using pymatgen
data_Dy4ErReRuO12
_symmetry_space_group_name_H-M   'P 1'
_cell_length_a   6.84566550
_cell_length_b   6.84566636
_cell_length_c   7.49771454
_cell_angle_alpha   73.76849688
_cell_angle_beta   73.76849504
_cell_angle_gamma   48.92011746
_symmetry_Int_Tables_number   1
_chemical_formula_structural   Dy4ErReRuO12
_chemical_formula_sum   'Dy4 Er1 Re1 Ru1 O12'
_cell_volume   252.06108000
_cell_formula_units_Z   1
loop_
 _symmetry_equiv_pos_site_id
 _symmetry_equiv_pos_as_xyz
  1  'x, y, z'
loop_
 _atom_site_type_symbol
 _atom_site_label
 _atom_site_symmetry_multiplicity
 _atom_site_fract_x
 _atom_site_fract_y
 _atom_site_fract_z
 _atom_site_occupancy
  Dy  Dy0  1  0.712531  0.682234  0.642390  1
  Dy  Dy1  1  0.317766  0.287469  0.357610  1
  Dy  Dy2  1  0.690224  0.680009  0.174463  1
  Dy  Dy3  1  0.319991  0.309776  0.825537  1
  Er  Er4  1  0.009730  0.990270  0.500000  1
  Re  Re5  1  0.202248  0.797752  0.000000  1
  Ru  Ru6  1  0.768539  0.231461  0.000000  1
  O  O7  1  0.003810  0.000497  0.203510  1
  O  O8  1  0.999503  0.996190  0.796490  1
  O  O9  1  0.565950  0.086182  0.085775  1
  O  O10  1  0.405472  0.911547  0.914866  1
  O  O11  1  0.913818  0.434050  0.914225  1
  O  O12  1  0.088453  0.594528  0.085134  1
  O  O13  1  0.484792  0.513485  0.175595  1
  O  O14  1  0.486515  0.515208  0.824405  1
  O  O15  1  0.407156  0.891280  0.432580  1
  O  O16  1  0.602825  0.088042  0.575962  1
  O  O17  1  0.108720  0.592844  0.567420  1
  O  O18  1  0.911958  0.397175  0.424038  1
