# generated using pymatgen
data_SmGd(CrN3)2
_symmetry_space_group_name_H-M   'P 1'
_cell_length_a   7.02903738
_cell_length_b   7.02903644
_cell_length_c   5.90789670
_cell_angle_alpha   77.33983431
_cell_angle_beta   77.33983109
_cell_angle_gamma   86.34288424
_symmetry_Int_Tables_number   1
_chemical_formula_structural   SmGd(CrN3)2
_chemical_formula_sum   'Sm2 Gd2 Cr4 N12'
_cell_volume   277.83455324
_cell_formula_units_Z   2
loop_
 _symmetry_equiv_pos_site_id
 _symmetry_equiv_pos_as_xyz
  1  'x, y, z'
loop_
 _atom_site_type_symbol
 _atom_site_label
 _atom_site_symmetry_multiplicity
 _atom_site_fract_x
 _atom_site_fract_y
 _atom_site_fract_z
 _atom_site_occupancy
  Sm  Sm0  1  0.332330  0.667670  0.750000  1
  Sm  Sm1  1  0.667670  0.332330  0.250000  1
  Gd  Gd2  1  0.091623  0.908377  0.250000  1
  Gd  Gd3  1  0.908377  0.091623  0.750000  1
  Cr  Cr4  1  0.377791  0.199193  0.754500  1
  Cr  Cr5  1  0.622209  0.800807  0.245500  1
  Cr  Cr6  1  0.800807  0.622209  0.745500  1
  Cr  Cr7  1  0.199193  0.377791  0.254500  1
  N  N8  1  0.997858  0.771730  0.656743  1
  N  N9  1  0.871093  0.396985  0.845782  1
  N  N10  1  0.771730  0.997858  0.156743  1
  N  N11  1  0.128907  0.603015  0.154218  1
  N  N12  1  0.002142  0.228270  0.343257  1
  N  N13  1  0.228270  0.002142  0.843257  1
  N  N14  1  0.603015  0.128907  0.654218  1
  N  N15  1  0.626934  0.676849  0.998141  1
  N  N16  1  0.373066  0.323151  0.001859  1
  N  N17  1  0.396985  0.871093  0.345782  1
  N  N18  1  0.676849  0.626934  0.498141  1
  N  N19  1  0.323151  0.373066  0.501859  1
