# generated using pymatgen
data_Tb4Y12CdNi2Ag3Ru2
_symmetry_space_group_name_H-M   'P 1'
_cell_length_a   9.50746419
_cell_length_b   9.53575984
_cell_length_c   9.53576000
_cell_angle_alpha   59.99999944
_cell_angle_beta   59.90150024
_cell_angle_gamma   59.90150313
_symmetry_Int_Tables_number   1
_chemical_formula_structural   Tb4Y12CdNi2Ag3Ru2
_chemical_formula_sum   'Tb4 Y12 Cd1 Ni2 Ag3 Ru2'
_cell_volume   610.39663455
_cell_formula_units_Z   1
loop_
 _symmetry_equiv_pos_site_id
 _symmetry_equiv_pos_as_xyz
  1  'x, y, z'
loop_
 _atom_site_type_symbol
 _atom_site_label
 _atom_site_symmetry_multiplicity
 _atom_site_fract_x
 _atom_site_fract_y
 _atom_site_fract_z
 _atom_site_occupancy
  Tb  Tb0  1  0.602479  0.602040  0.595968  1
  Tb  Tb1  1  0.602479  0.602040  0.199512  1
  Tb  Tb2  1  0.604419  0.197701  0.598940  1
  Tb  Tb3  1  0.193556  0.605330  0.600556  1
  Y  Y4  1  0.061099  0.438344  0.438011  1
  Y  Y5  1  0.438179  0.061284  0.062400  1
  Y  Y6  1  0.438179  0.061284  0.438136  1
  Y  Y7  1  0.061099  0.438344  0.062545  1
  Y  Y8  1  0.437383  0.438148  0.062235  1
  Y  Y9  1  0.061025  0.060988  0.438993  1
  Y  Y10  1  0.183942  0.811202  0.815790  1
  Y  Y11  1  0.810321  0.185878  0.187182  1
  Y  Y12  1  0.810321  0.185878  0.816619  1
  Y  Y13  1  0.183942  0.811202  0.189067  1
  Y  Y14  1  0.814610  0.815703  0.184843  1
  Y  Y15  1  0.186051  0.189949  0.812001  1
  Cd  Cd16  1  0.515154  0.827104  0.828870  1
  Ni  Ni17  1  0.392588  0.821197  0.393109  1
  Ni  Ni18  1  0.821361  0.393239  0.392700  1
  Ag  Ag19  1  0.831936  0.831702  0.832316  1
  Ag  Ag20  1  0.831936  0.831702  0.504045  1
  Ag  Ag21  1  0.831551  0.503065  0.832692  1
  Ru  Ru22  1  0.393198  0.393336  0.394153  1
  Ru  Ru23  1  0.393198  0.393336  0.819316  1
