# generated using pymatgen
data_CaYb11(PrSn2)8
_symmetry_space_group_name_H-M   'P 1'
_cell_length_a   7.97076401
_cell_length_b   8.51895101
_cell_length_c   16.09495200
_cell_angle_alpha   90.00000000
_cell_angle_beta   90.00000000
_cell_angle_gamma   90.00448238
_symmetry_Int_Tables_number   1
_chemical_formula_structural   CaYb11(PrSn2)8
_chemical_formula_sum   'Ca1 Yb11 Pr8 Sn16'
_cell_volume   1092.88824824
_cell_formula_units_Z   1
loop_
 _symmetry_equiv_pos_site_id
 _symmetry_equiv_pos_as_xyz
  1  'x, y, z'
loop_
 _atom_site_type_symbol
 _atom_site_label
 _atom_site_symmetry_multiplicity
 _atom_site_fract_x
 _atom_site_fract_y
 _atom_site_fract_z
 _atom_site_occupancy
  Ca  Ca0  1  0.161910  0.503599  0.750000  1
  Yb  Yb1  1  0.334235  0.827035  0.876507  1
  Yb  Yb2  1  0.833761  0.673255  0.623500  1
  Yb  Yb3  1  0.665929  0.173143  0.376440  1
  Yb  Yb4  1  0.165924  0.326804  0.123564  1
  Yb  Yb5  1  0.665929  0.173143  0.123560  1
  Yb  Yb6  1  0.165924  0.326804  0.376436  1
  Yb  Yb7  1  0.334235  0.827035  0.623493  1
  Yb  Yb8  1  0.833761  0.673255  0.876500  1
  Yb  Yb9  1  0.661982  0.995881  0.750000  1
  Yb  Yb10  1  0.837985  0.495862  0.250000  1
  Yb  Yb11  1  0.338014  0.004154  0.250000  1
  Pr  Pr12  1  0.494016  0.315078  0.904052  1
  Pr  Pr13  1  0.993805  0.184832  0.595886  1
  Pr  Pr14  1  0.506214  0.684959  0.404012  1
  Pr  Pr15  1  0.006130  0.815142  0.096018  1
  Pr  Pr16  1  0.506214  0.684959  0.095988  1
  Pr  Pr17  1  0.006130  0.815142  0.403982  1
  Pr  Pr18  1  0.494016  0.315078  0.595948  1
  Pr  Pr19  1  0.993805  0.184832  0.904114  1
  Sn  Sn20  1  0.330515  0.035300  0.038731  1
  Sn  Sn21  1  0.830499  0.464727  0.461283  1
  Sn  Sn22  1  0.669427  0.964771  0.538718  1
  Sn  Sn23  1  0.169514  0.535290  0.961509  1
  Sn  Sn24  1  0.669427  0.964771  0.961282  1
  Sn  Sn25  1  0.169514  0.535290  0.538491  1
  Sn  Sn26  1  0.330515  0.035300  0.461269  1
  Sn  Sn27  1  0.830499  0.464727  0.038717  1
  Sn  Sn28  1  0.535536  0.602527  0.750000  1
  Sn  Sn29  1  0.034708  0.898179  0.750000  1
  Sn  Sn30  1  0.465068  0.397918  0.250000  1
  Sn  Sn31  1  0.965072  0.102045  0.250000  1
  Sn  Sn32  1  0.289980  0.140809  0.750000  1
  Sn  Sn33  1  0.789218  0.358384  0.750000  1
  Sn  Sn34  1  0.710276  0.858689  0.250000  1
  Sn  Sn35  1  0.210312  0.641276  0.250000  1
