# generated using pymatgen
data_Dy6TaTi(Co4P3)4
_symmetry_space_group_name_H-M   'P 1'
_cell_length_a   3.69367900
_cell_length_b   10.59844700
_cell_length_c   12.29706400
_cell_angle_alpha   90.00000000
_cell_angle_beta   90.00000000
_cell_angle_gamma   90.00000000
_symmetry_Int_Tables_number   1
_chemical_formula_structural   Dy6TaTi(Co4P3)4
_chemical_formula_sum   'Dy6 Ta1 Ti1 Co16 P12'
_cell_volume   481.39637537
_cell_formula_units_Z   1
loop_
 _symmetry_equiv_pos_site_id
 _symmetry_equiv_pos_as_xyz
  1  'x, y, z'
loop_
 _atom_site_type_symbol
 _atom_site_label
 _atom_site_symmetry_multiplicity
 _atom_site_fract_x
 _atom_site_fract_y
 _atom_site_fract_z
 _atom_site_occupancy
  Dy  Dy0  1  0.000000  0.500000  0.526552  1
  Dy  Dy1  1  0.500000  0.000000  0.475346  1
  Dy  Dy2  1  0.500000  0.820642  0.205002  1
  Dy  Dy3  1  0.500000  0.179358  0.205002  1
  Dy  Dy4  1  0.000000  0.680279  0.795158  1
  Dy  Dy5  1  0.000000  0.319721  0.795158  1
  Ta  Ta6  1  0.500000  0.500000  0.155866  1
  Ti  Ti7  1  0.000000  0.000000  0.845963  1
  Co  Co8  1  0.500000  0.500000  0.702214  1
  Co  Co9  1  0.000000  0.000000  0.297189  1
  Co  Co10  1  0.000000  0.500000  0.986564  1
  Co  Co11  1  0.500000  0.000000  0.012922  1
  Co  Co12  1  0.500000  0.332226  0.992305  1
  Co  Co13  1  0.500000  0.667774  0.992305  1
  Co  Co14  1  0.000000  0.167258  0.005650  1
  Co  Co15  1  0.000000  0.832742  0.005650  1
  Co  Co16  1  0.500000  0.295536  0.431996  1
  Co  Co17  1  0.500000  0.704464  0.431996  1
  Co  Co18  1  0.000000  0.204058  0.568002  1
  Co  Co19  1  0.000000  0.795942  0.568002  1
  Co  Co20  1  0.500000  0.878367  0.706380  1
  Co  Co21  1  0.500000  0.121633  0.706380  1
  Co  Co22  1  0.000000  0.622059  0.294245  1
  Co  Co23  1  0.000000  0.377941  0.294245  1
  P  P24  1  0.500000  0.500000  0.881600  1
  P  P25  1  0.000000  0.000000  0.116908  1
  P  P26  1  0.500000  0.500000  0.356484  1
  P  P27  1  0.000000  0.000000  0.646841  1
  P  P28  1  0.500000  0.310538  0.615946  1
  P  P29  1  0.500000  0.689462  0.615946  1
  P  P30  1  0.000000  0.188593  0.384598  1
  P  P31  1  0.000000  0.811407  0.384598  1
  P  P32  1  0.500000  0.843498  0.891820  1
  P  P33  1  0.500000  0.156502  0.891820  1
  P  P34  1  0.000000  0.659795  0.106673  1
  P  P35  1  0.000000  0.340205  0.106673  1
