# generated using pymatgen
data_PrGaCo2P
_symmetry_space_group_name_H-M   'P 1'
_cell_length_a   5.89792445
_cell_length_b   5.89792529
_cell_length_c   5.89792437
_cell_angle_alpha   141.13503323
_cell_angle_beta   141.13504646
_cell_angle_gamma   56.13388560
_symmetry_Int_Tables_number   1
_chemical_formula_structural   PrGaCo2P
_chemical_formula_sum   'Pr1 Ga1 Co2 P1'
_cell_volume   80.15248388
_cell_formula_units_Z   1
loop_
 _symmetry_equiv_pos_site_id
 _symmetry_equiv_pos_as_xyz
  1  'x, y, z'
loop_
 _atom_site_type_symbol
 _atom_site_label
 _atom_site_symmetry_multiplicity
 _atom_site_fract_x
 _atom_site_fract_y
 _atom_site_fract_z
 _atom_site_occupancy
  Pr  Pr0  1  0.993283  0.993283  0.000000  1
  Ga  Ga1  1  0.628846  0.628846  0.000000  1
  Co  Co2  1  0.759179  0.259179  0.500000  1
  Co  Co3  1  0.259179  0.759179  0.500000  1
  P  P4  1  0.359513  0.359513  0.000000  1
