# generated using pymatgen
data_Lu12InNi5
_symmetry_space_group_name_H-M   'P 1'
_cell_length_a   8.11919954
_cell_length_b   8.11920011
_cell_length_c   8.11920092
_cell_angle_alpha   111.46383923
_cell_angle_beta   110.28313145
_cell_angle_gamma   106.70395465
_symmetry_Int_Tables_number   1
_chemical_formula_structural   Lu12InNi5
_chemical_formula_sum   'Lu12 In1 Ni5'
_cell_volume   411.25711929
_cell_formula_units_Z   1
loop_
 _symmetry_equiv_pos_site_id
 _symmetry_equiv_pos_as_xyz
  1  'x, y, z'
loop_
 _atom_site_type_symbol
 _atom_site_label
 _atom_site_symmetry_multiplicity
 _atom_site_fract_x
 _atom_site_fract_y
 _atom_site_fract_z
 _atom_site_occupancy
  Lu  Lu0  1  0.408759  0.217537  0.191221  1
  Lu  Lu1  1  0.591241  0.782463  0.808779  1
  Lu  Lu2  1  0.026316  0.217537  0.808779  1
  Lu  Lu3  1  0.973684  0.782463  0.191221  1
  Lu  Lu4  1  0.183756  0.289331  0.473088  1
  Lu  Lu5  1  0.816244  0.710669  0.526912  1
  Lu  Lu6  1  0.183756  0.710669  0.894427  1
  Lu  Lu7  1  0.816244  0.289331  0.105573  1
  Lu  Lu8  1  0.321752  0.627063  0.305309  1
  Lu  Lu9  1  0.678248  0.372937  0.694691  1
  Lu  Lu10  1  0.321752  0.016443  0.694691  1
  Lu  Lu11  1  0.678248  0.983557  0.305309  1
  In  In12  1  0.500000  0.500000  0.000000  1
  Ni  Ni13  1  0.000000  0.000000  0.000000  1
  Ni  Ni14  1  0.361655  0.000000  0.361655  1
  Ni  Ni15  1  0.638345  0.000000  0.638345  1
  Ni  Ni16  1  0.121334  0.621334  0.500000  1
  Ni  Ni17  1  0.878666  0.378666  0.500000  1
