# generated using pymatgen
data_NdDyAl6Si4Pd
_symmetry_space_group_name_H-M   'P 1'
_cell_length_a   4.18566385
_cell_length_b   4.18569835
_cell_length_c   17.24489860
_cell_angle_alpha   96.81269396
_cell_angle_beta   83.18916330
_cell_angle_gamma   120.03343422
_symmetry_Int_Tables_number   1
_chemical_formula_structural   NdDyAl6Si4Pd
_chemical_formula_sum   'Nd1 Dy1 Al6 Si4 Pd1'
_cell_volume   259.09963275
_cell_formula_units_Z   1
loop_
 _symmetry_equiv_pos_site_id
 _symmetry_equiv_pos_as_xyz
  1  'x, y, z'
loop_
 _atom_site_type_symbol
 _atom_site_label
 _atom_site_symmetry_multiplicity
 _atom_site_fract_x
 _atom_site_fract_y
 _atom_site_fract_z
 _atom_site_occupancy
  Nd  Nd0  1  0.565937  0.433989  0.302633  1
  Dy  Dy1  1  0.433687  0.566342  0.698807  1
  Al  Al2  1  0.319152  0.680900  0.044179  1
  Al  Al3  1  0.949237  0.050718  0.147297  1
  Al  Al4  1  0.184491  0.815485  0.449044  1
  Al  Al5  1  0.812751  0.187263  0.559458  1
  Al  Al6  1  0.052198  0.947860  0.847720  1
  Al  Al7  1  0.682741  0.317256  0.950544  1
  Si  Si8  1  0.266694  0.733226  0.196732  1
  Si  Si9  1  0.863292  0.136673  0.411114  1
  Si  Si10  1  0.133827  0.866182  0.597851  1
  Si  Si11  1  0.735043  0.265027  0.797380  1
  Pd  Pd12  1  0.000947  0.999080  0.997241  1
