# generated using pymatgen
data_ErTmZr3Sn4
_symmetry_space_group_name_H-M   'P 1'
_cell_length_a   7.77703300
_cell_length_b   7.82661100
_cell_length_c   14.73077700
_cell_angle_alpha   90.00000000
_cell_angle_beta   90.00000000
_cell_angle_gamma   90.00000000
_symmetry_Int_Tables_number   1
_chemical_formula_structural   ErTmZr3Sn4
_chemical_formula_sum   'Er4 Tm4 Zr12 Sn16'
_cell_volume   896.63016542
_cell_formula_units_Z   4
loop_
 _symmetry_equiv_pos_site_id
 _symmetry_equiv_pos_as_xyz
  1  'x, y, z'
loop_
 _atom_site_type_symbol
 _atom_site_label
 _atom_site_symmetry_multiplicity
 _atom_site_fract_x
 _atom_site_fract_y
 _atom_site_fract_z
 _atom_site_occupancy
  Er  Er0  1  0.513287  0.321863  0.907212  1
  Er  Er1  1  0.013287  0.178137  0.592788  1
  Er  Er2  1  0.486713  0.678137  0.407212  1
  Er  Er3  1  0.986713  0.821863  0.092788  1
  Tm  Tm4  1  0.486794  0.678176  0.092792  1
  Tm  Tm5  1  0.986794  0.821824  0.407208  1
  Tm  Tm6  1  0.513206  0.321824  0.592792  1
  Tm  Tm7  1  0.013206  0.178176  0.907208  1
  Zr  Zr8  1  0.349565  0.837174  0.871017  1
  Zr  Zr9  1  0.849565  0.662826  0.628983  1
  Zr  Zr10  1  0.650435  0.162826  0.371017  1
  Zr  Zr11  1  0.150435  0.337174  0.128983  1
  Zr  Zr12  1  0.650600  0.162775  0.128904  1
  Zr  Zr13  1  0.150600  0.337225  0.371096  1
  Zr  Zr14  1  0.349400  0.837225  0.628904  1
  Zr  Zr15  1  0.849400  0.662775  0.871096  1
  Zr  Zr16  1  0.171769  0.509846  0.749913  1
  Zr  Zr17  1  0.671769  0.990154  0.750087  1
  Zr  Zr18  1  0.828231  0.490154  0.249913  1
  Zr  Zr19  1  0.328231  0.009846  0.250087  1
  Sn  Sn20  1  0.309971  0.039438  0.041951  1
  Sn  Sn21  1  0.809971  0.460562  0.458049  1
  Sn  Sn22  1  0.690029  0.960562  0.541951  1
  Sn  Sn23  1  0.190029  0.539438  0.958049  1
  Sn  Sn24  1  0.690141  0.960420  0.958024  1
  Sn  Sn25  1  0.190141  0.539580  0.541976  1
  Sn  Sn26  1  0.309859  0.039580  0.458024  1
  Sn  Sn27  1  0.809859  0.460420  0.041976  1
  Sn  Sn28  1  0.544158  0.614387  0.749931  1
  Sn  Sn29  1  0.044158  0.885613  0.750069  1
  Sn  Sn30  1  0.455842  0.385613  0.249931  1
  Sn  Sn31  1  0.955842  0.114387  0.250069  1
  Sn  Sn32  1  0.318300  0.155823  0.749934  1
  Sn  Sn33  1  0.818300  0.344177  0.750066  1
  Sn  Sn34  1  0.681700  0.844177  0.249934  1
  Sn  Sn35  1  0.181700  0.655823  0.250066  1
