# generated using pymatgen
data_RbSeOF3
_symmetry_space_group_name_H-M   'P 1'
_cell_length_a   5.09018000
_cell_length_b   6.42917703
_cell_length_c   8.54837391
_cell_angle_alpha   68.89662907
_cell_angle_beta   90.00000000
_cell_angle_gamma   90.00000000
_symmetry_Int_Tables_number   1
_chemical_formula_structural   RbSeOF3
_chemical_formula_sum   'Rb2 Se2 O2 F6'
_cell_volume   260.98899126
_cell_formula_units_Z   2
loop_
 _symmetry_equiv_pos_site_id
 _symmetry_equiv_pos_as_xyz
  1  'x, y, z'
loop_
 _atom_site_type_symbol
 _atom_site_label
 _atom_site_symmetry_multiplicity
 _atom_site_fract_x
 _atom_site_fract_y
 _atom_site_fract_z
 _atom_site_occupancy
  Rb  Rb0  1  0.588096  0.314006  0.294169  1
  Rb  Rb1  1  0.088096  0.685994  0.705831  1
  Se  Se2  1  0.125260  0.836811  0.203830  1
  Se  Se3  1  0.625260  0.163189  0.796170  1
  O  O4  1  0.186943  0.622646  0.372518  1
  O  O5  1  0.686943  0.377354  0.627482  1
  F  F6  1  0.132122  0.666769  0.056606  1
  F  F7  1  0.264272  0.169279  0.812402  1
  F  F8  1  0.764272  0.830721  0.187598  1
  F  F9  1  0.570307  0.956954  0.673798  1
  F  F10  1  0.070307  0.043046  0.326202  1
  F  F11  1  0.632122  0.333231  0.943394  1
