# generated using pymatgen
data_NaUInBr6
_symmetry_space_group_name_H-M   'P 1'
_cell_length_a   8.02238779
_cell_length_b   8.02238734
_cell_length_c   8.02238900
_cell_angle_alpha   57.16916962
_cell_angle_beta   57.16917168
_cell_angle_gamma   57.16917381
_symmetry_Int_Tables_number   1
_chemical_formula_structural   NaUInBr6
_chemical_formula_sum   'Na1 U1 In1 Br6'
_cell_volume   341.27669110
_cell_formula_units_Z   1
loop_
 _symmetry_equiv_pos_site_id
 _symmetry_equiv_pos_as_xyz
  1  'x, y, z'
loop_
 _atom_site_type_symbol
 _atom_site_label
 _atom_site_symmetry_multiplicity
 _atom_site_fract_x
 _atom_site_fract_y
 _atom_site_fract_z
 _atom_site_occupancy
  Na  Na0  1  0.669639  0.669639  0.669639  1
  U  U1  1  0.000311  0.000311  0.000311  1
  In  In2  1  0.329366  0.329366  0.329366  1
  Br  Br3  1  0.229094  0.637262  0.892941  1
  Br  Br4  1  0.637262  0.892941  0.229094  1
  Br  Br5  1  0.892941  0.229094  0.637262  1
  Br  Br6  1  0.788039  0.382625  0.070723  1
  Br  Br7  1  0.382625  0.070723  0.788039  1
  Br  Br8  1  0.070723  0.788039  0.382625  1
