# generated using pymatgen
data_Mg3Bi(Pt2O7)2
_symmetry_space_group_name_H-M   'P 1'
_cell_length_a   7.13076579
_cell_length_b   7.13076613
_cell_length_c   7.13076538
_cell_angle_alpha   59.47906514
_cell_angle_beta   59.47906564
_cell_angle_gamma   59.47906104
_symmetry_Int_Tables_number   1
_chemical_formula_structural   Mg3Bi(Pt2O7)2
_chemical_formula_sum   'Mg3 Bi1 Pt4 O14'
_cell_volume   253.34762365
_cell_formula_units_Z   1
loop_
 _symmetry_equiv_pos_site_id
 _symmetry_equiv_pos_as_xyz
  1  'x, y, z'
loop_
 _atom_site_type_symbol
 _atom_site_label
 _atom_site_symmetry_multiplicity
 _atom_site_fract_x
 _atom_site_fract_y
 _atom_site_fract_z
 _atom_site_occupancy
  Mg  Mg0  1  0.125000  0.125000  0.625000  1
  Mg  Mg1  1  0.125000  0.625000  0.125000  1
  Mg  Mg2  1  0.625000  0.125000  0.125000  1
  Bi  Bi3  1  0.125000  0.125000  0.125000  1
  Pt  Pt4  1  0.625000  0.625000  0.125000  1
  Pt  Pt5  1  0.625000  0.125000  0.625000  1
  Pt  Pt6  1  0.125000  0.625000  0.625000  1
  Pt  Pt7  1  0.625000  0.625000  0.625000  1
  O  O8  1  0.249477  0.249477  0.249477  1
  O  O9  1  0.000523  0.000523  0.000523  1
  O  O10  1  0.533549  0.967100  0.533549  1
  O  O11  1  0.282569  0.714267  0.282569  1
  O  O12  1  0.533549  0.533549  0.967100  1
  O  O13  1  0.967100  0.533549  0.533549  1
  O  O14  1  0.535733  0.967431  0.967431  1
  O  O15  1  0.967431  0.967431  0.535733  1
  O  O16  1  0.967431  0.535733  0.967431  1
  O  O17  1  0.714267  0.282569  0.282569  1
  O  O18  1  0.282900  0.716451  0.716451  1
  O  O19  1  0.716451  0.282900  0.716451  1
  O  O20  1  0.282569  0.282569  0.714267  1
  O  O21  1  0.716451  0.716451  0.282900  1
