# generated using pymatgen
data_Ho4Er4Mn3FeB24
_symmetry_space_group_name_H-M   'P 1'
_cell_length_a   3.53711600
_cell_length_b   9.06432793
_cell_length_c   11.44701578
_cell_angle_alpha   90.11412304
_cell_angle_beta   90.00000000
_cell_angle_gamma   90.00000000
_symmetry_Int_Tables_number   1
_chemical_formula_structural   Ho4Er4Mn3FeB24
_chemical_formula_sum   'Ho4 Er4 Mn3 Fe1 B24'
_cell_volume   367.00867669
_cell_formula_units_Z   1
loop_
 _symmetry_equiv_pos_site_id
 _symmetry_equiv_pos_as_xyz
  1  'x, y, z'
loop_
 _atom_site_type_symbol
 _atom_site_label
 _atom_site_symmetry_multiplicity
 _atom_site_fract_x
 _atom_site_fract_y
 _atom_site_fract_z
 _atom_site_occupancy
  Ho  Ho0  1  0.000000  0.824941  0.084860  1
  Ho  Ho1  1  0.000000  0.174298  0.916335  1
  Ho  Ho2  1  0.000000  0.323076  0.413914  1
  Ho  Ho3  1  0.000000  0.676893  0.585383  1
  Er  Er4  1  0.000000  0.441464  0.130712  1
  Er  Er5  1  0.000000  0.558303  0.868291  1
  Er  Er6  1  0.000000  0.943280  0.368757  1
  Er  Er7  1  0.000000  0.058140  0.631962  1
  Mn  Mn8  1  0.000000  0.138173  0.179780  1
  Mn  Mn9  1  0.000000  0.861417  0.819857  1
  Mn  Mn10  1  0.000000  0.638308  0.320616  1
  Fe  Fe11  1  0.000000  0.361566  0.679721  1
  B  B12  1  0.500000  0.053819  0.068106  1
  B  B13  1  0.500000  0.945831  0.932204  1
  B  B14  1  0.500000  0.553706  0.432492  1
  B  B15  1  0.500000  0.445629  0.568083  1
  B  B16  1  0.500000  0.246614  0.082694  1
  B  B17  1  0.500000  0.753004  0.917201  1
  B  B18  1  0.500000  0.747927  0.418030  1
  B  B19  1  0.500000  0.253438  0.582808  1
  B  B20  1  0.500000  0.289905  0.234426  1
  B  B21  1  0.500000  0.710126  0.764938  1
  B  B22  1  0.500000  0.790536  0.265173  1
  B  B23  1  0.500000  0.210644  0.734798  1
  B  B24  1  0.500000  0.131401  0.313711  1
  B  B25  1  0.500000  0.868967  0.685967  1
  B  B26  1  0.500000  0.630882  0.185822  1
  B  B27  1  0.500000  0.368753  0.813827  1
  B  B28  1  0.500000  0.483471  0.288556  1
  B  B29  1  0.500000  0.514770  0.711019  1
  B  B30  1  0.500000  0.984946  0.211379  1
  B  B31  1  0.500000  0.015094  0.788924  1
  B  B32  1  0.500000  0.103408  0.471840  1
  B  B33  1  0.500000  0.897667  0.528604  1
  B  B34  1  0.500000  0.602386  0.027942  1
  B  B35  1  0.500000  0.397212  0.971269  1
