# generated using pymatgen
data_Tb5Sm3Re(B8Os)3
_symmetry_space_group_name_H-M   'P 1'
_cell_length_a   3.69972900
_cell_length_b   9.23240888
_cell_length_c   11.63152709
_cell_angle_alpha   90.08474519
_cell_angle_beta   90.00000000
_cell_angle_gamma   90.00000000
_symmetry_Int_Tables_number   1
_chemical_formula_structural   Tb5Sm3Re(B8Os)3
_chemical_formula_sum   'Tb5 Sm3 Re1 B24 Os3'
_cell_volume   397.30241513
_cell_formula_units_Z   1
loop_
 _symmetry_equiv_pos_site_id
 _symmetry_equiv_pos_as_xyz
  1  'x, y, z'
loop_
 _atom_site_type_symbol
 _atom_site_label
 _atom_site_symmetry_multiplicity
 _atom_site_fract_x
 _atom_site_fract_y
 _atom_site_fract_z
 _atom_site_occupancy
  Tb  Tb0  1  0.000000  0.175896  0.913062  1
  Tb  Tb1  1  0.000000  0.943524  0.371407  1
  Tb  Tb2  1  0.000000  0.055969  0.628110  1
  Tb  Tb3  1  0.000000  0.442705  0.127600  1
  Tb  Tb4  1  0.000000  0.556352  0.872778  1
  Sm  Sm5  1  0.000000  0.323437  0.414443  1
  Sm  Sm6  1  0.000000  0.678907  0.588204  1
  Sm  Sm7  1  0.000000  0.823374  0.084140  1
  Re  Re8  1  0.000000  0.862965  0.821309  1
  B  B9  1  0.500000  0.554605  0.431860  1
  B  B10  1  0.500000  0.445280  0.568878  1
  B  B11  1  0.500000  0.054678  0.067655  1
  B  B12  1  0.500000  0.947442  0.931924  1
  B  B13  1  0.500000  0.748033  0.418429  1
  B  B14  1  0.500000  0.252120  0.581752  1
  B  B15  1  0.500000  0.247524  0.080607  1
  B  B16  1  0.500000  0.752512  0.918231  1
  B  B17  1  0.500000  0.789506  0.267094  1
  B  B18  1  0.500000  0.209308  0.733024  1
  B  B19  1  0.500000  0.289923  0.232358  1
  B  B20  1  0.500000  0.709560  0.767346  1
  B  B21  1  0.500000  0.630926  0.186191  1
  B  B22  1  0.500000  0.367512  0.814106  1
  B  B23  1  0.500000  0.131832  0.313698  1
  B  B24  1  0.500000  0.868978  0.686722  1
  B  B25  1  0.500000  0.985498  0.212830  1
  B  B26  1  0.500000  0.017053  0.787238  1
  B  B27  1  0.500000  0.484800  0.287169  1
  B  B28  1  0.500000  0.514772  0.713704  1
  B  B29  1  0.500000  0.605931  0.030139  1
  B  B30  1  0.500000  0.390715  0.970065  1
  B  B31  1  0.500000  0.106947  0.469964  1
  B  B32  1  0.500000  0.893778  0.529021  1
  Os  Os33  1  0.000000  0.637915  0.320737  1
  Os  Os34  1  0.000000  0.361535  0.679448  1
  Os  Os35  1  0.000000  0.138185  0.178756  1
