# generated using pymatgen
data_Nd6Dy10Cd4Ni3Os
_symmetry_space_group_name_H-M   'P 1'
_cell_length_a   9.70638482
_cell_length_b   9.70638464
_cell_length_c   9.70638500
_cell_angle_alpha   59.59768662
_cell_angle_beta   59.59769056
_cell_angle_gamma   59.59769332
_symmetry_Int_Tables_number   1
_chemical_formula_structural   Nd6Dy10Cd4Ni3Os
_chemical_formula_sum   'Nd6 Dy10 Cd4 Ni3 Os1'
_cell_volume   640.71957170
_cell_formula_units_Z   1
loop_
 _symmetry_equiv_pos_site_id
 _symmetry_equiv_pos_as_xyz
  1  'x, y, z'
loop_
 _atom_site_type_symbol
 _atom_site_label
 _atom_site_symmetry_multiplicity
 _atom_site_fract_x
 _atom_site_fract_y
 _atom_site_fract_z
 _atom_site_occupancy
  Nd  Nd0  1  0.188456  0.812784  0.812784  1
  Nd  Nd1  1  0.803449  0.191487  0.191487  1
  Nd  Nd2  1  0.812784  0.188456  0.812784  1
  Nd  Nd3  1  0.191487  0.803449  0.191487  1
  Nd  Nd4  1  0.812784  0.812784  0.188456  1
  Nd  Nd5  1  0.191487  0.191487  0.803449  1
  Dy  Dy6  1  0.598008  0.598008  0.598008  1
  Dy  Dy7  1  0.599003  0.599003  0.208882  1
  Dy  Dy8  1  0.599003  0.208882  0.599003  1
  Dy  Dy9  1  0.208882  0.599003  0.599003  1
  Dy  Dy10  1  0.062562  0.436236  0.436236  1
  Dy  Dy11  1  0.433868  0.061821  0.061821  1
  Dy  Dy12  1  0.436236  0.062562  0.436236  1
  Dy  Dy13  1  0.061821  0.433868  0.061821  1
  Dy  Dy14  1  0.436236  0.436236  0.062562  1
  Dy  Dy15  1  0.061821  0.061821  0.433868  1
  Cd  Cd16  1  0.829229  0.829229  0.829229  1
  Cd  Cd17  1  0.828956  0.828956  0.510841  1
  Cd  Cd18  1  0.828956  0.510841  0.828956  1
  Cd  Cd19  1  0.510841  0.828956  0.828956  1
  Ni  Ni20  1  0.393020  0.393020  0.825726  1
  Ni  Ni21  1  0.393020  0.825726  0.393020  1
  Ni  Ni22  1  0.825726  0.393020  0.393020  1
  Os  Os23  1  0.392361  0.392361  0.392361  1
