# generated using pymatgen
data_V5ReSi2
_symmetry_space_group_name_H-M   'P 1'
_cell_length_a   4.67996886
_cell_length_b   4.79129877
_cell_length_c   4.67996886
_cell_angle_alpha   90.01167616
_cell_angle_beta   89.99861302
_cell_angle_gamma   89.98831391
_symmetry_Int_Tables_number   1
_chemical_formula_structural   V5ReSi2
_chemical_formula_sum   'V5 Re1 Si2'
_cell_volume   104.93954125
_cell_formula_units_Z   1
loop_
 _symmetry_equiv_pos_site_id
 _symmetry_equiv_pos_as_xyz
  1  'x, y, z'
loop_
 _atom_site_type_symbol
 _atom_site_label
 _atom_site_symmetry_multiplicity
 _atom_site_fract_x
 _atom_site_fract_y
 _atom_site_fract_z
 _atom_site_occupancy
  V  V0  1  0.499447  0.250000  0.999447  1
  V  V1  1  0.750758  0.998532  0.500429  1
  V  V2  1  0.000429  0.501468  0.250758  1
  V  V3  1  0.249115  0.998676  0.500385  1
  V  V4  1  0.000385  0.501324  0.749115  1
  Re  Re5  1  0.499622  0.750000  0.999622  1
  Si  Si6  1  0.501086  0.492974  0.499158  1
  Si  Si7  1  0.999158  0.007026  0.001086  1
