# generated using pymatgen
data_Hf6BeSi(As2Ru3)2
_symmetry_space_group_name_H-M   'P 1'
_cell_length_a   7.63338977
_cell_length_b   7.63160634
_cell_length_c   7.63339131
_cell_angle_alpha   127.99098708
_cell_angle_beta   122.40727455
_cell_angle_gamma   81.29408578
_symmetry_Int_Tables_number   1
_chemical_formula_structural   Hf6BeSi(As2Ru3)2
_chemical_formula_sum   'Hf6 Be1 Si1 As4 Ru6'
_cell_volume   285.02889605
_cell_formula_units_Z   1
loop_
 _symmetry_equiv_pos_site_id
 _symmetry_equiv_pos_as_xyz
  1  'x, y, z'
loop_
 _atom_site_type_symbol
 _atom_site_label
 _atom_site_symmetry_multiplicity
 _atom_site_fract_x
 _atom_site_fract_y
 _atom_site_fract_z
 _atom_site_occupancy
  Hf  Hf0  1  0.453576  0.659312  0.705735  1
  Hf  Hf1  1  0.549081  0.254326  0.205244  1
  Hf  Hf2  1  0.749915  0.855653  0.605739  1
  Hf  Hf3  1  0.249986  0.841871  0.091884  1
  Hf  Hf4  1  0.046993  0.252293  0.705300  1
  Hf  Hf5  1  0.950506  0.655431  0.204925  1
  Be  Be6  1  0.749495  0.252919  0.003425  1
  Si  Si7  1  0.250674  0.253435  0.502762  1
  As  As8  1  0.333510  0.586796  0.253510  1
  As  As9  1  0.666823  0.919884  0.253641  1
  As  As10  1  0.166243  0.919884  0.753061  1
  As  As11  1  0.833286  0.586796  0.753286  1
  Ru  Ru12  1  0.513146  0.492405  0.005658  1
  Ru  Ru13  1  0.986747  0.492405  0.479259  1
  Ru  Ru14  1  0.107419  0.253693  0.121791  1
  Ru  Ru15  1  0.869575  0.014403  0.123279  1
  Ru  Ru16  1  0.391124  0.014403  0.644829  1
  Ru  Ru17  1  0.631902  0.253693  0.646273  1
