# generated using pymatgen
data_TbEu3(Ga2Ag)4
_symmetry_space_group_name_H-M   'P 1'
_cell_length_a   4.46017800
_cell_length_b   7.10878218
_cell_length_c   10.58147125
_cell_angle_alpha   89.40122977
_cell_angle_beta   90.00000000
_cell_angle_gamma   90.00000000
_symmetry_Int_Tables_number   1
_chemical_formula_structural   TbEu3(Ga2Ag)4
_chemical_formula_sum   'Tb1 Eu3 Ga8 Ag4'
_cell_volume   335.48239839
_cell_formula_units_Z   1
loop_
 _symmetry_equiv_pos_site_id
 _symmetry_equiv_pos_as_xyz
  1  'x, y, z'
loop_
 _atom_site_type_symbol
 _atom_site_label
 _atom_site_symmetry_multiplicity
 _atom_site_fract_x
 _atom_site_fract_y
 _atom_site_fract_z
 _atom_site_occupancy
  Tb  Tb0  1  0.250000  0.284215  0.668215  1
  Eu  Eu1  1  0.250000  0.783412  0.827144  1
  Eu  Eu2  1  0.750000  0.218137  0.171732  1
  Eu  Eu3  1  0.750000  0.718420  0.329352  1
  Ga  Ga4  1  0.250000  0.920745  0.148480  1
  Ga  Ga5  1  0.750000  0.084549  0.846652  1
  Ga  Ga6  1  0.750000  0.575267  0.651443  1
  Ga  Ga7  1  0.250000  0.417231  0.353032  1
  Ga  Ga8  1  0.250000  0.696310  0.536285  1
  Ga  Ga9  1  0.750000  0.295234  0.467162  1
  Ga  Ga10  1  0.750000  0.799086  0.033684  1
  Ga  Ga11  1  0.250000  0.207866  0.960919  1
  Ag  Ag12  1  0.250000  0.539321  0.098811  1
  Ag  Ag13  1  0.750000  0.461262  0.899463  1
  Ag  Ag14  1  0.750000  0.961550  0.600880  1
  Ag  Ag15  1  0.250000  0.037396  0.406746  1
