# generated using pymatgen
data_Sc2Pa(SnIr)3
_symmetry_space_group_name_H-M   'P 1'
_cell_length_a   7.41844780
_cell_length_b   7.53904802
_cell_length_c   3.79951900
_cell_angle_alpha   90.00000000
_cell_angle_beta   90.00000000
_cell_angle_gamma   120.53924575
_symmetry_Int_Tables_number   1
_chemical_formula_structural   Sc2Pa(SnIr)3
_chemical_formula_sum   'Sc2 Pa1 Sn3 Ir3'
_cell_volume   183.02195852
_cell_formula_units_Z   1
loop_
 _symmetry_equiv_pos_site_id
 _symmetry_equiv_pos_as_xyz
  1  'x, y, z'
loop_
 _atom_site_type_symbol
 _atom_site_label
 _atom_site_symmetry_multiplicity
 _atom_site_fract_x
 _atom_site_fract_y
 _atom_site_fract_z
 _atom_site_occupancy
  Sc  Sc0  1  0.400356  0.397090  0.500000  1
  Sc  Sc1  1  0.599644  0.996734  0.500000  1
  Pa  Pa2  1  0.000000  0.590606  0.500000  1
  Sn  Sn3  1  0.718360  0.737300  0.000000  1
  Sn  Sn4  1  0.281640  0.018940  0.000000  1
  Sn  Sn5  1  0.000000  0.247145  0.000000  1
  Ir  Ir6  1  0.687449  0.354741  0.000000  1
  Ir  Ir7  1  0.312551  0.667294  0.000000  1
  Ir  Ir8  1  0.000000  0.990151  0.500000  1
