# generated using pymatgen
data_HoPa3(Rh2Pb)2
_symmetry_space_group_name_H-M   'P 1'
_cell_length_a   7.81326011
_cell_length_b   7.81325935
_cell_length_c   3.58633600
_cell_angle_alpha   90.00000000
_cell_angle_beta   90.00000000
_cell_angle_gamma   87.99884508
_symmetry_Int_Tables_number   1
_chemical_formula_structural   HoPa3(Rh2Pb)2
_chemical_formula_sum   'Ho1 Pa3 Rh4 Pb2'
_cell_volume   218.80162944
_cell_formula_units_Z   1
loop_
 _symmetry_equiv_pos_site_id
 _symmetry_equiv_pos_as_xyz
  1  'x, y, z'
loop_
 _atom_site_type_symbol
 _atom_site_label
 _atom_site_symmetry_multiplicity
 _atom_site_fract_x
 _atom_site_fract_y
 _atom_site_fract_z
 _atom_site_occupancy
  Ho  Ho0  1  0.329406  0.829406  0.500000  1
  Pa  Pa1  1  0.667520  0.167520  0.500000  1
  Pa  Pa2  1  0.171566  0.330556  0.500000  1
  Pa  Pa3  1  0.830556  0.671566  0.500000  1
  Rh  Rh4  1  0.859816  0.359816  0.000000  1
  Rh  Rh5  1  0.376687  0.147020  0.000000  1
  Rh  Rh6  1  0.647020  0.876687  0.000000  1
  Rh  Rh7  1  0.111850  0.611850  0.000000  1
  Pb  Pb8  1  0.009728  0.995850  0.000000  1
  Pb  Pb9  1  0.495850  0.509728  0.000000  1
