# generated using pymatgen
data_NdSm3Y2CoBr10
_symmetry_space_group_name_H-M   'P 1'
_cell_length_a   7.45080132
_cell_length_b   9.26368953
_cell_length_c   9.44555870
_cell_angle_alpha   108.07187122
_cell_angle_beta   96.19383245
_cell_angle_gamma   104.75191663
_symmetry_Int_Tables_number   1
_chemical_formula_structural   NdSm3Y2CoBr10
_chemical_formula_sum   'Nd1 Sm3 Y2 Co1 Br10'
_cell_volume   586.84443493
_cell_formula_units_Z   1
loop_
 _symmetry_equiv_pos_site_id
 _symmetry_equiv_pos_as_xyz
  1  'x, y, z'
loop_
 _atom_site_type_symbol
 _atom_site_label
 _atom_site_symmetry_multiplicity
 _atom_site_fract_x
 _atom_site_fract_y
 _atom_site_fract_z
 _atom_site_occupancy
  Nd  Nd0  1  0.466092  0.786457  0.589295  1
  Sm  Sm1  1  0.533148  0.215354  0.411131  1
  Sm  Sm2  1  0.372457  0.450878  0.744555  1
  Sm  Sm3  1  0.627418  0.548456  0.255169  1
  Y  Y4  1  0.853195  0.628672  0.673445  1
  Y  Y5  1  0.147020  0.370353  0.326410  1
  Co  Co6  1  0.499880  0.499604  0.499843  1
  Br  Br7  1  0.412733  0.130439  0.671351  1
  Br  Br8  1  0.588171  0.871481  0.326542  1
  Br  Br9  1  0.045916  0.677549  0.416111  1
  Br  Br10  1  0.951915  0.321441  0.582734  1
  Br  Br11  1  0.266927  0.749268  0.842913  1
  Br  Br12  1  0.731164  0.249586  0.159011  1
  Br  Br13  1  0.251709  0.417341  0.051158  1
  Br  Br14  1  0.748141  0.582586  0.948880  1
  Br  Br15  1  0.851345  0.945499  0.770259  1
  Br  Br16  1  0.152768  0.055037  0.231194  1
