# generated using pymatgen
data_Dy7Lu9Cd4NiRu3
_symmetry_space_group_name_H-M   'P 1'
_cell_length_a   9.46158340
_cell_length_b   9.51271125
_cell_length_c   9.54094600
_cell_angle_alpha   59.90176711
_cell_angle_beta   59.72214119
_cell_angle_gamma   59.69966311
_symmetry_Int_Tables_number   1
_chemical_formula_structural   Dy7Lu9Cd4NiRu3
_chemical_formula_sum   'Dy7 Lu9 Cd4 Ni1 Ru3'
_cell_volume   604.10482495
_cell_formula_units_Z   1
loop_
 _symmetry_equiv_pos_site_id
 _symmetry_equiv_pos_as_xyz
  1  'x, y, z'
loop_
 _atom_site_type_symbol
 _atom_site_label
 _atom_site_symmetry_multiplicity
 _atom_site_fract_x
 _atom_site_fract_y
 _atom_site_fract_z
 _atom_site_occupancy
  Dy  Dy0  1  0.061118  0.062471  0.438205  1
  Dy  Dy1  1  0.190695  0.808388  0.810121  1
  Dy  Dy2  1  0.806697  0.189389  0.188240  1
  Dy  Dy3  1  0.806697  0.189389  0.815673  1
  Dy  Dy4  1  0.190695  0.808388  0.190796  1
  Dy  Dy5  1  0.806846  0.814996  0.189079  1
  Dy  Dy6  1  0.190483  0.191015  0.809251  1
  Lu  Lu7  1  0.600249  0.595374  0.594790  1
  Lu  Lu8  1  0.600249  0.595374  0.209588  1
  Lu  Lu9  1  0.599415  0.210663  0.594962  1
  Lu  Lu10  1  0.212020  0.595283  0.596349  1
  Lu  Lu11  1  0.061743  0.438362  0.437637  1
  Lu  Lu12  1  0.436949  0.062526  0.062144  1
  Lu  Lu13  1  0.436949  0.062526  0.438381  1
  Lu  Lu14  1  0.061743  0.438362  0.062257  1
  Lu  Lu15  1  0.436405  0.437661  0.062967  1
  Cd  Cd16  1  0.828882  0.830539  0.831102  1
  Cd  Cd17  1  0.828882  0.830539  0.509475  1
  Cd  Cd18  1  0.829374  0.509119  0.830753  1
  Cd  Cd19  1  0.507309  0.831016  0.830837  1
  Ni  Ni20  1  0.825486  0.391956  0.391279  1
  Ru  Ru21  1  0.393199  0.390064  0.389125  1
  Ru  Ru22  1  0.393199  0.390064  0.827612  1
  Ru  Ru23  1  0.394715  0.826532  0.389376  1
