# generated using pymatgen
data_Dy3ErLu4(ReC2)4
_symmetry_space_group_name_H-M   'P 1'
_cell_length_a   5.04157800
_cell_length_b   6.55104287
_cell_length_c   9.74025778
_cell_angle_alpha   90.08655810
_cell_angle_beta   90.00000000
_cell_angle_gamma   90.00000000
_symmetry_Int_Tables_number   1
_chemical_formula_structural   Dy3ErLu4(ReC2)4
_chemical_formula_sum   'Dy3 Er1 Lu4 Re4 C8'
_cell_volume   321.69690842
_cell_formula_units_Z   1
loop_
 _symmetry_equiv_pos_site_id
 _symmetry_equiv_pos_as_xyz
  1  'x, y, z'
loop_
 _atom_site_type_symbol
 _atom_site_label
 _atom_site_symmetry_multiplicity
 _atom_site_fract_x
 _atom_site_fract_y
 _atom_site_fract_z
 _atom_site_occupancy
  Dy  Dy0  1  0.250000  0.965473  0.285051  1
  Dy  Dy1  1  0.750000  0.534434  0.785101  1
  Dy  Dy2  1  0.750000  0.034436  0.714805  1
  Er  Er3  1  0.250000  0.465298  0.215233  1
  Lu  Lu4  1  0.250000  0.825648  0.941918  1
  Lu  Lu5  1  0.250000  0.325621  0.558115  1
  Lu  Lu6  1  0.750000  0.174611  0.058441  1
  Lu  Lu7  1  0.750000  0.674278  0.441607  1
  Re  Re8  1  0.250000  0.279959  0.868048  1
  Re  Re9  1  0.250000  0.779344  0.632036  1
  Re  Re10  1  0.750000  0.719951  0.132136  1
  Re  Re11  1  0.750000  0.220548  0.367607  1
  C  C12  1  0.250000  0.048348  0.739818  1
  C  C13  1  0.250000  0.548367  0.760202  1
  C  C14  1  0.750000  0.951462  0.260201  1
  C  C15  1  0.750000  0.451511  0.239499  1
  C  C16  1  0.250000  0.669643  0.448100  1
  C  C17  1  0.250000  0.171480  0.051974  1
  C  C18  1  0.750000  0.329887  0.551419  1
  C  C19  1  0.750000  0.829699  0.948690  1
