# generated using pymatgen
data_Rb8Dy5TmBeBr20
_symmetry_space_group_name_H-M   'P 1'
_cell_length_a   12.32577160
_cell_length_b   12.32579973
_cell_length_c   12.34073800
_cell_angle_alpha   59.97234019
_cell_angle_beta   59.97253383
_cell_angle_gamma   60.09155780
_symmetry_Int_Tables_number   1
_chemical_formula_structural   Rb8Dy5TmBeBr20
_chemical_formula_sum   'Rb8 Dy5 Tm1 Be1 Br20'
_cell_volume   1326.09200116
_cell_formula_units_Z   1
loop_
 _symmetry_equiv_pos_site_id
 _symmetry_equiv_pos_as_xyz
  1  'x, y, z'
loop_
 _atom_site_type_symbol
 _atom_site_label
 _atom_site_symmetry_multiplicity
 _atom_site_fract_x
 _atom_site_fract_y
 _atom_site_fract_z
 _atom_site_occupancy
  Rb  Rb0  1  0.358986  0.359000  0.359138  1
  Rb  Rb1  1  0.640975  0.640964  0.641018  1
  Rb  Rb2  1  0.358972  0.358973  0.922918  1
  Rb  Rb3  1  0.358987  0.922995  0.359009  1
  Rb  Rb4  1  0.640998  0.640995  0.076994  1
  Rb  Rb5  1  0.640857  0.077101  0.641029  1
  Rb  Rb6  1  0.923016  0.358977  0.359012  1
  Rb  Rb7  1  0.077094  0.640875  0.641011  1
  Dy  Dy8  1  0.844917  0.154684  0.155102  1
  Dy  Dy9  1  0.154668  0.844900  0.845315  1
  Dy  Dy10  1  0.154687  0.844915  0.155103  1
  Dy  Dy11  1  0.844898  0.154670  0.845313  1
  Dy  Dy12  1  0.154609  0.154609  0.845409  1
  Tm  Tm13  1  0.845515  0.845515  0.154464  1
  Be  Be14  1  0.999724  0.999725  0.000277  1
  Br  Br15  1  0.330463  0.999984  0.000018  1
  Br  Br16  1  0.671157  0.997820  0.002167  1
  Br  Br17  1  0.999978  0.330424  0.669579  1
  Br  Br18  1  0.997826  0.671187  0.328807  1
  Br  Br19  1  0.999984  0.330465  0.000018  1
  Br  Br20  1  0.671186  0.997821  0.328806  1
  Br  Br21  1  0.997816  0.671156  0.002171  1
  Br  Br22  1  0.330426  0.999981  0.669577  1
  Br  Br23  1  0.999935  0.999933  0.330441  1
  Br  Br24  1  0.999924  0.999926  0.669710  1
  Br  Br25  1  0.669615  0.330251  0.000068  1
  Br  Br26  1  0.330251  0.669609  0.000068  1
  Br  Br27  1  0.679690  0.320240  0.320332  1
  Br  Br28  1  0.320213  0.679667  0.679769  1
  Br  Br29  1  0.320235  0.679693  0.320325  1
  Br  Br30  1  0.679663  0.320218  0.679765  1
  Br  Br31  1  0.320354  0.320358  0.679662  1
  Br  Br32  1  0.682379  0.682375  0.317598  1
  Br  Br33  1  0.249998  0.249994  0.250002  1
  Br  Br34  1  0.750004  0.749999  0.750005  1
