# generated using pymatgen
data_Tb2Be4Ru5
_symmetry_space_group_name_H-M   'P 1'
_cell_length_a   3.25732100
_cell_length_b   8.98116048
_cell_length_c   10.34601709
_cell_angle_alpha   90.02615326
_cell_angle_beta   90.00000000
_cell_angle_gamma   90.00000000
_symmetry_Int_Tables_number   1
_chemical_formula_structural   Tb2Be4Ru5
_chemical_formula_sum   'Tb4 Be8 Ru10'
_cell_volume   302.66775958
_cell_formula_units_Z   2
loop_
 _symmetry_equiv_pos_site_id
 _symmetry_equiv_pos_as_xyz
  1  'x, y, z'
loop_
 _atom_site_type_symbol
 _atom_site_label
 _atom_site_symmetry_multiplicity
 _atom_site_fract_x
 _atom_site_fract_y
 _atom_site_fract_z
 _atom_site_occupancy
  Tb  Tb0  1  0.500000  0.835042  0.183245  1
  Tb  Tb1  1  0.500000  0.164958  0.816755  1
  Tb  Tb2  1  0.500000  0.664415  0.683215  1
  Tb  Tb3  1  0.500000  0.335585  0.316785  1
  Be  Be4  1  0.500000  0.965491  0.592987  1
  Be  Be5  1  0.500000  0.034509  0.407013  1
  Be  Be6  1  0.500000  0.838196  0.906937  1
  Be  Be7  1  0.500000  0.161804  0.093063  1
  Be  Be8  1  0.500000  0.661464  0.406854  1
  Be  Be9  1  0.500000  0.338536  0.593146  1
  Be  Be10  1  0.500000  0.465646  0.906948  1
  Be  Be11  1  0.500000  0.534354  0.093052  1
  Ru  Ru12  1  0.000000  0.655351  0.955405  1
  Ru  Ru13  1  0.000000  0.344649  0.044595  1
  Ru  Ru14  1  0.000000  0.844657  0.455315  1
  Ru  Ru15  1  0.000000  0.155343  0.544685  1
  Ru  Ru16  1  0.000000  0.000000  0.000000  1
  Ru  Ru17  1  0.000000  0.411332  0.753162  1
  Ru  Ru18  1  0.000000  0.588668  0.246838  1
  Ru  Ru19  1  0.000000  0.500000  0.500000  1
  Ru  Ru20  1  0.000000  0.911469  0.747044  1
  Ru  Ru21  1  0.000000  0.088531  0.252956  1
