# generated using pymatgen
data_Ca10HgIr3
_symmetry_space_group_name_H-M   'P 1'
_cell_length_a   8.80078974
_cell_length_b   8.84203757
_cell_length_c   7.74270752
_cell_angle_alpha   83.01490517
_cell_angle_beta   82.43284846
_cell_angle_gamma   44.13440582
_symmetry_Int_Tables_number   1
_chemical_formula_structural   Ca10HgIr3
_chemical_formula_sum   'Ca10 Hg1 Ir3'
_cell_volume   415.58225704
_cell_formula_units_Z   1
loop_
 _symmetry_equiv_pos_site_id
 _symmetry_equiv_pos_as_xyz
  1  'x, y, z'
loop_
 _atom_site_type_symbol
 _atom_site_label
 _atom_site_symmetry_multiplicity
 _atom_site_fract_x
 _atom_site_fract_y
 _atom_site_fract_z
 _atom_site_occupancy
  Ca  Ca0  1  0.020046  0.812571  0.938305  1
  Ca  Ca1  1  0.198088  0.989447  0.583859  1
  Ca  Ca2  1  0.988094  0.193411  0.088346  1
  Ca  Ca3  1  0.773526  0.056820  0.411683  1
  Ca  Ca4  1  0.377462  0.180222  0.835022  1
  Ca  Ca5  1  0.784291  0.633457  0.674548  1
  Ca  Ca6  1  0.641501  0.791949  0.175295  1
  Ca  Ca7  1  0.199774  0.352386  0.304622  1
  Ca  Ca8  1  0.589486  0.417385  0.765159  1
  Ca  Ca9  1  0.437925  0.575124  0.230026  1
  Hg  Hg10  1  0.180835  0.596775  0.577083  1
  Ir  Ir11  1  0.394641  0.824478  0.913646  1
  Ir  Ir12  1  0.820027  0.396574  0.417412  1
  Ir  Ir13  1  0.594304  0.179400  0.084995  1
