# generated using pymatgen
data_CaTb2Pr4CoI12
_symmetry_space_group_name_H-M   'P 1'
_cell_length_a   10.00593227
_cell_length_b   10.00901075
_cell_length_c   9.89929546
_cell_angle_alpha   107.18605746
_cell_angle_beta   106.67173891
_cell_angle_gamma   106.74340054
_symmetry_Int_Tables_number   1
_chemical_formula_structural   CaTb2Pr4CoI12
_chemical_formula_sum   'Ca1 Tb2 Pr4 Co1 I12'
_cell_volume   828.61581740
_cell_formula_units_Z   1
loop_
 _symmetry_equiv_pos_site_id
 _symmetry_equiv_pos_as_xyz
  1  'x, y, z'
loop_
 _atom_site_type_symbol
 _atom_site_label
 _atom_site_symmetry_multiplicity
 _atom_site_fract_x
 _atom_site_fract_y
 _atom_site_fract_z
 _atom_site_occupancy
  Ca  Ca0  1  0.499755  0.500049  0.500517  1
  Tb  Tb1  1  0.901353  0.704421  0.974806  1
  Tb  Tb2  1  0.704410  0.974715  0.902882  1
  Pr  Pr3  1  0.022560  0.092689  0.288662  1
  Pr  Pr4  1  0.096933  0.304295  0.023893  1
  Pr  Pr5  1  0.304122  0.024138  0.099224  1
  Pr  Pr6  1  0.975378  0.903382  0.709758  1
  Co  Co7  1  0.998399  0.998312  0.998687  1
  I  I8  1  0.157209  0.461615  0.385351  1
  I  I9  1  0.461369  0.382665  0.155781  1
  I  I10  1  0.382842  0.158326  0.464152  1
  I  I11  1  0.843589  0.538832  0.624272  1
  I  I12  1  0.548304  0.626144  0.850156  1
  I  I13  1  0.617579  0.846226  0.545417  1
  I  I14  1  0.678890  0.070851  0.219340  1
  I  I15  1  0.072223  0.224340  0.676908  1
  I  I16  1  0.215997  0.677540  0.069792  1
  I  I17  1  0.324874  0.926680  0.772068  1
  I  I18  1  0.925214  0.768886  0.312504  1
  I  I19  1  0.769000  0.315893  0.925830  1
