# generated using pymatgen
data_La5MgOsO12
_symmetry_space_group_name_H-M   'P 1'
_cell_length_a   7.11068201
_cell_length_b   7.11068150
_cell_length_c   7.66397500
_cell_angle_alpha   74.48674590
_cell_angle_beta   74.48674703
_cell_angle_gamma   51.02437231
_symmetry_Int_Tables_number   1
_chemical_formula_structural   La5MgOsO12
_chemical_formula_sum   'La5 Mg1 Os1 O12'
_cell_volume   287.71800292
_cell_formula_units_Z   1
loop_
 _symmetry_equiv_pos_site_id
 _symmetry_equiv_pos_as_xyz
  1  'x, y, z'
loop_
 _atom_site_type_symbol
 _atom_site_label
 _atom_site_symmetry_multiplicity
 _atom_site_fract_x
 _atom_site_fract_y
 _atom_site_fract_z
 _atom_site_occupancy
  La  La0  1  0.323790  0.290398  0.355817  1
  La  La1  1  0.709602  0.676210  0.644183  1
  La  La2  1  0.690762  0.692589  0.166271  1
  La  La3  1  0.307411  0.309238  0.833729  1
  La  La4  1  0.011096  0.988904  0.500000  1
  Mg  Mg5  1  0.749476  0.250524  0.000000  1
  Os  Os6  1  0.234242  0.765758  0.000000  1
  O  O7  1  0.102241  0.593294  0.571315  1
  O  O8  1  0.015043  0.984577  0.173325  1
  O  O9  1  0.406706  0.897759  0.428685  1
  O  O10  1  0.472151  0.530076  0.174091  1
  O  O11  1  0.102277  0.593360  0.079265  1
  O  O12  1  0.915031  0.396052  0.419004  1
  O  O13  1  0.015423  0.984957  0.826675  1
  O  O14  1  0.603948  0.084968  0.580996  1
  O  O15  1  0.469924  0.527849  0.825909  1
  O  O16  1  0.564409  0.100172  0.080128  1
  O  O17  1  0.406640  0.897723  0.920735  1
  O  O18  1  0.899828  0.435591  0.919872  1
