# generated using pymatgen
data_Er6Co17Si8P4Ru
_symmetry_space_group_name_H-M   'P 1'
_cell_length_a   3.72042400
_cell_length_b   10.67213100
_cell_length_c   12.27944200
_cell_angle_alpha   90.00000000
_cell_angle_beta   90.00000000
_cell_angle_gamma   90.00000000
_symmetry_Int_Tables_number   1
_chemical_formula_structural   Er6Co17Si8P4Ru
_chemical_formula_sum   'Er6 Co17 Si8 P4 Ru1'
_cell_volume   487.55343098
_cell_formula_units_Z   1
loop_
 _symmetry_equiv_pos_site_id
 _symmetry_equiv_pos_as_xyz
  1  'x, y, z'
loop_
 _atom_site_type_symbol
 _atom_site_label
 _atom_site_symmetry_multiplicity
 _atom_site_fract_x
 _atom_site_fract_y
 _atom_site_fract_z
 _atom_site_occupancy
  Er  Er0  1  0.750000  0.250000  0.473143  1
  Er  Er1  1  0.250000  0.750000  0.524850  1
  Er  Er2  1  0.250000  0.930450  0.795154  1
  Er  Er3  1  0.250000  0.569550  0.795154  1
  Er  Er4  1  0.750000  0.069670  0.202859  1
  Er  Er5  1  0.750000  0.430330  0.202859  1
  Co  Co6  1  0.750000  0.750000  0.159606  1
  Co  Co7  1  0.250000  0.250000  0.297622  1
  Co  Co8  1  0.750000  0.750000  0.702962  1
  Co  Co9  1  0.750000  0.250000  0.020213  1
  Co  Co10  1  0.250000  0.750000  0.979078  1
  Co  Co11  1  0.250000  0.418666  0.010972  1
  Co  Co12  1  0.250000  0.081334  0.010972  1
  Co  Co13  1  0.750000  0.585236  0.992318  1
  Co  Co14  1  0.750000  0.914764  0.992318  1
  Co  Co15  1  0.250000  0.446157  0.569584  1
  Co  Co16  1  0.250000  0.053843  0.569584  1
  Co  Co17  1  0.750000  0.554290  0.428616  1
  Co  Co18  1  0.750000  0.945710  0.428616  1
  Co  Co19  1  0.250000  0.866014  0.293201  1
  Co  Co20  1  0.250000  0.633986  0.293201  1
  Co  Co21  1  0.750000  0.132485  0.705746  1
  Co  Co22  1  0.750000  0.367515  0.705746  1
  Si  Si23  1  0.250000  0.443280  0.383575  1
  Si  Si24  1  0.250000  0.056720  0.383575  1
  Si  Si25  1  0.750000  0.557100  0.614550  1
  Si  Si26  1  0.750000  0.942900  0.614550  1
  Si  Si27  1  0.250000  0.895332  0.108315  1
  Si  Si28  1  0.250000  0.604668  0.108315  1
  Si  Si29  1  0.750000  0.099181  0.894832  1
  Si  Si30  1  0.750000  0.400819  0.894832  1
  P  P31  1  0.250000  0.250000  0.117799  1
  P  P32  1  0.750000  0.750000  0.882752  1
  P  P33  1  0.250000  0.250000  0.654243  1
  P  P34  1  0.750000  0.750000  0.343315  1
  Ru  Ru35  1  0.250000  0.250000  0.844972  1
