# generated using pymatgen
data_ErTm7Sc11Si16Tc
_symmetry_space_group_name_H-M   'P 1'
_cell_length_a   6.97157935
_cell_length_b   7.30735367
_cell_length_c   13.80819204
_cell_angle_alpha   90.00826563
_cell_angle_beta   90.00222285
_cell_angle_gamma   90.15829618
_symmetry_Int_Tables_number   1
_chemical_formula_structural   ErTm7Sc11Si16Tc
_chemical_formula_sum   'Er1 Tm7 Sc11 Si16 Tc1'
_cell_volume   703.43902500
_cell_formula_units_Z   1
loop_
 _symmetry_equiv_pos_site_id
 _symmetry_equiv_pos_as_xyz
  1  'x, y, z'
loop_
 _atom_site_type_symbol
 _atom_site_label
 _atom_site_symmetry_multiplicity
 _atom_site_fract_x
 _atom_site_fract_y
 _atom_site_fract_z
 _atom_site_occupancy
  Er  Er0  1  0.011912  0.178581  0.093135  1
  Tm  Tm1  1  0.992919  0.817319  0.900880  1
  Tm  Tm2  1  0.487855  0.673270  0.902705  1
  Tm  Tm3  1  0.992920  0.817337  0.599096  1
  Tm  Tm4  1  0.511255  0.322581  0.095001  1
  Tm  Tm5  1  0.011891  0.178641  0.406831  1
  Tm  Tm6  1  0.511271  0.322543  0.405003  1
  Tm  Tm7  1  0.487858  0.673246  0.597279  1
  Sc  Sc8  1  0.841313  0.495973  0.250024  1
  Sc  Sc9  1  0.341974  0.004305  0.250027  1
  Sc  Sc10  1  0.656970  0.994234  0.749999  1
  Sc  Sc11  1  0.326214  0.178438  0.627637  1
  Sc  Sc12  1  0.672016  0.824274  0.374469  1
  Sc  Sc13  1  0.172187  0.674286  0.376670  1
  Sc  Sc14  1  0.672003  0.824226  0.125545  1
  Sc  Sc15  1  0.827622  0.330888  0.628656  1
  Sc  Sc16  1  0.326244  0.178408  0.872341  1
  Sc  Sc17  1  0.827590  0.330934  0.871336  1
  Sc  Sc18  1  0.172187  0.674254  0.123340  1
  Si  Si19  1  0.028674  0.115870  0.749992  1
  Si  Si20  1  0.973027  0.887945  0.250031  1
  Si  Si21  1  0.469270  0.613659  0.250002  1
  Si  Si22  1  0.518262  0.397374  0.749994  1
  Si  Si23  1  0.284614  0.858905  0.750003  1
  Si  Si24  1  0.717208  0.131818  0.250063  1
  Si  Si25  1  0.214856  0.368944  0.250064  1
  Si  Si26  1  0.794239  0.631312  0.749996  1
  Si  Si27  1  0.157091  0.466752  0.547470  1
  Si  Si28  1  0.841385  0.535281  0.463397  1
  Si  Si29  1  0.344301  0.965361  0.463184  1
  Si  Si30  1  0.841350  0.535385  0.036574  1
  Si  Si31  1  0.659308  0.034222  0.539783  1
  Si  Si32  1  0.157099  0.466863  0.952500  1
  Si  Si33  1  0.659248  0.034205  0.960201  1
  Si  Si34  1  0.344470  0.965281  0.036783  1
  Tc  Tc35  1  0.151391  0.497082  0.749987  1
