# generated using pymatgen
data_Na2Eu(SnP)6
_symmetry_space_group_name_H-M   'P 1'
_cell_length_a   6.85880193
_cell_length_b   6.85880285
_cell_length_c   9.70686200
_cell_angle_alpha   83.00064637
_cell_angle_beta   83.00065385
_cell_angle_gamma   120.23474098
_symmetry_Int_Tables_number   1
_chemical_formula_structural   Na2Eu(SnP)6
_chemical_formula_sum   'Na2 Eu1 Sn6 P6'
_cell_volume   382.54194261
_cell_formula_units_Z   1
loop_
 _symmetry_equiv_pos_site_id
 _symmetry_equiv_pos_as_xyz
  1  'x, y, z'
loop_
 _atom_site_type_symbol
 _atom_site_label
 _atom_site_symmetry_multiplicity
 _atom_site_fract_x
 _atom_site_fract_y
 _atom_site_fract_z
 _atom_site_occupancy
  Na  Na0  1  0.666486  0.333514  0.000000  1
  Na  Na1  1  0.333514  0.666486  0.000000  1
  Eu  Eu2  1  0.000000  0.000000  0.000000  1
  Sn  Sn3  1  0.545181  0.877048  0.361570  1
  Sn  Sn4  1  0.209285  0.209285  0.361276  1
  Sn  Sn5  1  0.877048  0.545181  0.361570  1
  Sn  Sn6  1  0.454819  0.122952  0.638430  1
  Sn  Sn7  1  0.122952  0.454819  0.638430  1
  Sn  Sn8  1  0.790715  0.790715  0.638724  1
  P  P9  1  0.405137  0.405137  0.781452  1
  P  P10  1  0.072552  0.740737  0.781622  1
  P  P11  1  0.740737  0.072552  0.781622  1
  P  P12  1  0.594863  0.594863  0.218548  1
  P  P13  1  0.259263  0.927448  0.218378  1
  P  P14  1  0.927448  0.259263  0.218378  1
