# generated using pymatgen
data_Nb6FeCo3(ReC)2
_symmetry_space_group_name_H-M   'P 1'
_cell_length_a   8.18686394
_cell_length_b   8.17457001
_cell_length_c   8.17456988
_cell_angle_alpha   59.90439654
_cell_angle_beta   59.94132870
_cell_angle_gamma   59.94131933
_symmetry_Int_Tables_number   1
_chemical_formula_structural   Nb6FeCo3(ReC)2
_chemical_formula_sum   'Nb12 Fe2 Co6 Re4 C4'
_cell_volume   386.21794620
_cell_formula_units_Z   2
loop_
 _symmetry_equiv_pos_site_id
 _symmetry_equiv_pos_as_xyz
  1  'x, y, z'
loop_
 _atom_site_type_symbol
 _atom_site_label
 _atom_site_symmetry_multiplicity
 _atom_site_fract_x
 _atom_site_fract_y
 _atom_site_fract_z
 _atom_site_occupancy
  Nb  Nb0  1  0.693517  0.306977  0.693121  1
  Nb  Nb1  1  0.944094  0.556642  0.556642  1
  Nb  Nb2  1  0.557055  0.943022  0.943022  1
  Nb  Nb3  1  0.943599  0.556811  0.943124  1
  Nb  Nb4  1  0.556762  0.556889  0.943673  1
  Nb  Nb5  1  0.943599  0.943124  0.556811  1
  Nb  Nb6  1  0.693517  0.693121  0.306977  1
  Nb  Nb7  1  0.307360  0.693338  0.693338  1
  Nb  Nb8  1  0.693234  0.306940  0.306940  1
  Nb  Nb9  1  0.307249  0.306430  0.693219  1
  Nb  Nb10  1  0.556762  0.943673  0.556889  1
  Nb  Nb11  1  0.307249  0.693219  0.306430  1
  Fe  Fe12  1  0.325191  0.324768  0.324768  1
  Fe  Fe13  1  0.224949  0.925139  0.925139  1
  Co  Co14  1  0.922753  0.229694  0.924194  1
  Co  Co15  1  0.922753  0.924194  0.229694  1
  Co  Co16  1  0.326628  0.020182  0.325894  1
  Co  Co17  1  0.326628  0.325894  0.020182  1
  Co  Co18  1  0.019837  0.326242  0.326242  1
  Co  Co19  1  0.922407  0.923772  0.923772  1
  Re  Re20  1  0.125932  0.123955  0.123955  1
  Re  Re21  1  0.624046  0.125872  0.125872  1
  Re  Re22  1  0.126522  0.625016  0.124941  1
  Re  Re23  1  0.126522  0.124941  0.625016  1
  C  C24  1  0.625334  0.625056  0.625056  1
  C  C25  1  0.125296  0.625035  0.625035  1
  C  C26  1  0.625603  0.125042  0.625012  1
  C  C27  1  0.625603  0.625012  0.125042  1
