# generated using pymatgen
data_CeCuPt3Au
_symmetry_space_group_name_H-M   'P 1'
_cell_length_a   5.20782853
_cell_length_b   5.20782827
_cell_length_c   5.20782836
_cell_angle_alpha   62.66743777
_cell_angle_beta   62.66744165
_cell_angle_gamma   62.66744547
_symmetry_Int_Tables_number   1
_chemical_formula_structural   CeCuPt3Au
_chemical_formula_sum   'Ce1 Cu1 Pt3 Au1'
_cell_volume   105.80410855
_cell_formula_units_Z   1
loop_
 _symmetry_equiv_pos_site_id
 _symmetry_equiv_pos_as_xyz
  1  'x, y, z'
loop_
 _atom_site_type_symbol
 _atom_site_label
 _atom_site_symmetry_multiplicity
 _atom_site_fract_x
 _atom_site_fract_y
 _atom_site_fract_z
 _atom_site_occupancy
  Ce  Ce0  1  0.001624  0.001624  0.001624  1
  Cu  Cu1  1  0.623519  0.623519  0.623519  1
  Pt  Pt2  1  0.623842  0.623842  0.125387  1
  Pt  Pt3  1  0.623842  0.125387  0.623842  1
  Pt  Pt4  1  0.125387  0.623842  0.623842  1
  Au  Au5  1  0.251784  0.251784  0.251784  1
