# generated using pymatgen
data_Zr5Sc(Be2Rh5)2
_symmetry_space_group_name_H-M   'P 1'
_cell_length_a   9.48443600
_cell_length_b   9.48443600
_cell_length_c   3.33327700
_cell_angle_alpha   90.00000000
_cell_angle_beta   90.00000000
_cell_angle_gamma   90.00000000
_symmetry_Int_Tables_number   1
_chemical_formula_structural   Zr5Sc(Be2Rh5)2
_chemical_formula_sum   'Zr5 Sc1 Be4 Rh10'
_cell_volume   299.84335336
_cell_formula_units_Z   1
loop_
 _symmetry_equiv_pos_site_id
 _symmetry_equiv_pos_as_xyz
  1  'x, y, z'
loop_
 _atom_site_type_symbol
 _atom_site_label
 _atom_site_symmetry_multiplicity
 _atom_site_fract_x
 _atom_site_fract_y
 _atom_site_fract_z
 _atom_site_occupancy
  Zr  Zr0  1  0.823441  0.328090  0.000000  1
  Zr  Zr1  1  0.328090  0.176559  0.000000  1
  Zr  Zr2  1  0.671910  0.823441  0.000000  1
  Zr  Zr3  1  0.176559  0.671910  0.000000  1
  Zr  Zr4  1  0.000000  0.000000  0.000000  1
  Sc  Sc5  1  0.500000  0.500000  0.000000  1
  Be  Be6  1  0.618866  0.120654  0.000000  1
  Be  Be7  1  0.120654  0.381134  0.000000  1
  Be  Be8  1  0.879346  0.618866  0.000000  1
  Be  Be9  1  0.381134  0.879346  0.000000  1
  Rh  Rh10  1  0.071869  0.216754  0.500000  1
  Rh  Rh11  1  0.216754  0.928131  0.500000  1
  Rh  Rh12  1  0.783246  0.071869  0.500000  1
  Rh  Rh13  1  0.928131  0.783246  0.500000  1
  Rh  Rh14  1  0.427584  0.716279  0.500000  1
  Rh  Rh15  1  0.572416  0.283721  0.500000  1
  Rh  Rh16  1  0.716279  0.572416  0.500000  1
  Rh  Rh17  1  0.283721  0.427584  0.500000  1
  Rh  Rh18  1  0.500000  0.000000  0.500000  1
  Rh  Rh19  1  0.000000  0.500000  0.500000  1
