# generated using pymatgen
data_V3Tc5(WBr6)4
_symmetry_space_group_name_H-M   'P 1'
_cell_length_a   9.99977976
_cell_length_b   9.99977862
_cell_length_c   12.20877822
_cell_angle_alpha   89.70316130
_cell_angle_beta   89.70315989
_cell_angle_gamma   106.76925246
_symmetry_Int_Tables_number   1
_chemical_formula_structural   V3Tc5(WBr6)4
_chemical_formula_sum   'V3 Tc5 W4 Br24'
_cell_volume   1168.86362148
_cell_formula_units_Z   1
loop_
 _symmetry_equiv_pos_site_id
 _symmetry_equiv_pos_as_xyz
  1  'x, y, z'
loop_
 _atom_site_type_symbol
 _atom_site_label
 _atom_site_symmetry_multiplicity
 _atom_site_fract_x
 _atom_site_fract_y
 _atom_site_fract_z
 _atom_site_occupancy
  V  V0  1  0.633790  0.633790  0.429983  1
  V  V1  1  0.363727  0.363727  0.566493  1
  V  V2  1  0.133445  0.133445  0.067982  1
  Tc  Tc3  1  0.073158  0.073158  0.861496  1
  Tc  Tc4  1  0.426829  0.426829  0.360455  1
  Tc  Tc5  1  0.569865  0.569865  0.635704  1
  Tc  Tc6  1  0.926218  0.926218  0.142178  1
  Tc  Tc7  1  0.860137  0.860137  0.935602  1
  W  W8  1  0.384864  0.612769  0.498003  1
  W  W9  1  0.112656  0.884323  0.000853  1
  W  W10  1  0.612769  0.384864  0.498003  1
  W  W11  1  0.884323  0.112656  0.000853  1
  Br  Br12  1  0.661519  0.661519  0.834442  1
  Br  Br13  1  0.842836  0.842836  0.344921  1
  Br  Br14  1  0.161715  0.161715  0.656803  1
  Br  Br15  1  0.336853  0.336853  0.156722  1
  Br  Br16  1  0.225980  0.773194  0.498005  1
  Br  Br17  1  0.275322  0.728842  0.003155  1
  Br  Br18  1  0.773194  0.225980  0.498005  1
  Br  Br19  1  0.728842  0.275322  0.003155  1
  Br  Br20  1  0.318970  0.094529  0.933144  1
  Br  Br21  1  0.178950  0.403086  0.431823  1
  Br  Br22  1  0.594479  0.818466  0.564469  1
  Br  Br23  1  0.908254  0.675101  0.081510  1
  Br  Br24  1  0.952824  0.177752  0.203904  1
  Br  Br25  1  0.544228  0.319469  0.702641  1
  Br  Br26  1  0.678058  0.454359  0.293612  1
  Br  Br27  1  0.827498  0.065936  0.792487  1
  Br  Br28  1  0.065936  0.827498  0.792487  1
  Br  Br29  1  0.454359  0.678058  0.293612  1
  Br  Br30  1  0.319469  0.544228  0.702641  1
  Br  Br31  1  0.177752  0.952824  0.203904  1
  Br  Br32  1  0.094529  0.318970  0.933144  1
  Br  Br33  1  0.403086  0.178950  0.431823  1
  Br  Br34  1  0.818466  0.594479  0.564469  1
  Br  Br35  1  0.675101  0.908254  0.081510  1
