# generated using pymatgen
data_Nb7Fe8Si14Tc
_symmetry_space_group_name_H-M   'P 1'
_cell_length_a   9.23064415
_cell_length_b   9.23340316
_cell_length_c   9.21432368
_cell_angle_alpha   94.20613236
_cell_angle_beta   94.22237340
_cell_angle_gamma   148.57829321
_symmetry_Int_Tables_number   1
_chemical_formula_structural   Nb7Fe8Si14Tc
_chemical_formula_sum   'Nb7 Fe8 Si14 Tc1'
_cell_volume   394.05795534
_cell_formula_units_Z   1
loop_
 _symmetry_equiv_pos_site_id
 _symmetry_equiv_pos_as_xyz
  1  'x, y, z'
loop_
 _atom_site_type_symbol
 _atom_site_label
 _atom_site_symmetry_multiplicity
 _atom_site_fract_x
 _atom_site_fract_y
 _atom_site_fract_z
 _atom_site_occupancy
  Nb  Nb0  1  0.865788  0.865820  0.731715  1
  Nb  Nb1  1  0.863944  0.133568  0.997577  1
  Nb  Nb2  1  0.133508  0.863921  0.997612  1
  Nb  Nb3  1  0.499451  0.310100  0.809427  1
  Nb  Nb4  1  0.500760  0.692473  0.193405  1
  Nb  Nb5  1  0.692464  0.500710  0.193312  1
  Nb  Nb6  1  0.310074  0.499342  0.809380  1
  Fe  Fe7  1  0.399279  0.899370  0.798478  1
  Fe  Fe8  1  0.101229  0.601249  0.202646  1
  Fe  Fe9  1  0.100625  0.901059  0.498265  1
  Fe  Fe10  1  0.397584  0.596973  0.498079  1
  Fe  Fe11  1  0.597042  0.397566  0.498309  1
  Fe  Fe12  1  0.901374  0.100901  0.498362  1
  Fe  Fe13  1  0.899497  0.399525  0.798737  1
  Fe  Fe14  1  0.601384  0.101393  0.202983  1
  Si  Si15  1  0.498025  0.094743  0.593169  1
  Si  Si16  1  0.502306  0.907100  0.409012  1
  Si  Si17  1  0.906708  0.501890  0.408994  1
  Si  Si18  1  0.095205  0.498536  0.593120  1
  Si  Si19  1  0.752565  0.752535  0.004200  1
  Si  Si20  1  0.251581  0.251579  0.004294  1
  Si  Si21  1  0.290350  0.290389  0.581312  1
  Si  Si22  1  0.709543  0.709553  0.417903  1
  Si  Si23  1  0.708237  0.291374  0.000067  1
  Si  Si24  1  0.291785  0.708687  0.000046  1
  Si  Si25  1  0.003523  0.291946  0.295470  1
  Si  Si26  1  0.997922  0.701769  0.699384  1
  Si  Si27  1  0.701650  0.997750  0.699401  1
  Si  Si28  1  0.291718  0.003317  0.295474  1
  Tc  Tc29  1  0.134875  0.134857  0.269868  1
