# generated using pymatgen
data_Ho5Lu11Tl3CdRh4
_symmetry_space_group_name_H-M   'P 1'
_cell_length_a   9.51545316
_cell_length_b   9.51279857
_cell_length_c   9.54058500
_cell_angle_alpha   59.90332506
_cell_angle_beta   59.91258911
_cell_angle_gamma   60.22124362
_symmetry_Int_Tables_number   1
_chemical_formula_structural   Ho5Lu11Tl3CdRh4
_chemical_formula_sum   'Ho5 Lu11 Tl3 Cd1 Rh4'
_cell_volume   610.81689198
_cell_formula_units_Z   1
loop_
 _symmetry_equiv_pos_site_id
 _symmetry_equiv_pos_as_xyz
  1  'x, y, z'
loop_
 _atom_site_type_symbol
 _atom_site_label
 _atom_site_symmetry_multiplicity
 _atom_site_fract_x
 _atom_site_fract_y
 _atom_site_fract_z
 _atom_site_occupancy
  Ho  Ho0  1  0.934547  0.560502  0.567062  1
  Ho  Ho1  1  0.934547  0.560502  0.937889  1
  Ho  Ho2  1  0.564448  0.934094  0.563239  1
  Ho  Ho3  1  0.564448  0.934094  0.938219  1
  Ho  Ho4  1  0.312505  0.313677  0.686909  1
  Lu  Lu5  1  0.942076  0.938810  0.559557  1
  Lu  Lu6  1  0.556466  0.552109  0.945713  1
  Lu  Lu7  1  0.686692  0.687373  0.312968  1
  Lu  Lu8  1  0.142896  0.553410  0.151847  1
  Lu  Lu9  1  0.688561  0.312579  0.687845  1
  Lu  Lu10  1  0.153407  0.152895  0.152114  1
  Lu  Lu11  1  0.550588  0.143702  0.152856  1
  Lu  Lu12  1  0.688561  0.312579  0.311014  1
  Lu  Lu13  1  0.153407  0.152895  0.541584  1
  Lu  Lu14  1  0.310800  0.690001  0.310293  1
  Lu  Lu15  1  0.310800  0.690001  0.688907  1
  Tl  Tl16  1  0.914624  0.918270  0.255463  1
  Tl  Tl17  1  0.254334  0.919428  0.913119  1
  Tl  Tl18  1  0.914624  0.918270  0.911643  1
  Cd  Cd19  1  0.917685  0.247426  0.917445  1
  Rh  Rh20  1  0.360427  0.362501  0.929727  1
  Rh  Rh21  1  0.357342  0.924943  0.358857  1
  Rh  Rh22  1  0.925788  0.357446  0.358383  1
  Rh  Rh23  1  0.360427  0.362501  0.347345  1
