# generated using pymatgen
data_TbAgPtRhO7
_symmetry_space_group_name_H-M   'P 1'
_cell_length_a   7.13677466
_cell_length_b   7.23925307
_cell_length_c   7.23925316
_cell_angle_alpha   61.41665804
_cell_angle_beta   60.46718174
_cell_angle_gamma   60.46717974
_symmetry_Int_Tables_number   1
_chemical_formula_structural   TbAgPtRhO7
_chemical_formula_sum   'Tb2 Ag2 Pt2 Rh2 O14'
_cell_volume   269.09563477
_cell_formula_units_Z   2
loop_
 _symmetry_equiv_pos_site_id
 _symmetry_equiv_pos_as_xyz
  1  'x, y, z'
loop_
 _atom_site_type_symbol
 _atom_site_label
 _atom_site_symmetry_multiplicity
 _atom_site_fract_x
 _atom_site_fract_y
 _atom_site_fract_z
 _atom_site_occupancy
  Tb  Tb0  1  0.625000  0.625000  0.125000  1
  Tb  Tb1  1  0.625000  0.125000  0.625000  1
  Ag  Ag2  1  0.625000  0.625000  0.625000  1
  Ag  Ag3  1  0.125000  0.625000  0.625000  1
  Pt  Pt4  1  0.125000  0.125000  0.125000  1
  Pt  Pt5  1  0.625000  0.125000  0.125000  1
  Rh  Rh6  1  0.125000  0.625000  0.125000  1
  Rh  Rh7  1  0.125000  0.125000  0.625000  1
  O  O8  1  0.053393  0.446607  0.446607  1
  O  O9  1  0.792427  0.795467  0.196303  1
  O  O10  1  0.780668  0.219332  0.219332  1
  O  O11  1  0.457573  0.053697  0.454533  1
  O  O12  1  0.034195  0.454533  0.053697  1
  O  O13  1  0.761363  0.738637  0.738637  1
  O  O14  1  0.034195  0.053697  0.454533  1
  O  O15  1  0.215805  0.795467  0.196303  1
  O  O16  1  0.215805  0.196303  0.795467  1
  O  O17  1  0.488637  0.511363  0.511363  1
  O  O18  1  0.792427  0.196303  0.795467  1
  O  O19  1  0.469332  0.030668  0.030668  1
  O  O20  1  0.457573  0.454533  0.053697  1
  O  O21  1  0.196607  0.803393  0.803393  1
