# generated using pymatgen
data_CeRe2SiC
_symmetry_space_group_name_H-M   'P 1'
_cell_length_a   5.84700827
_cell_length_b   5.84700902
_cell_length_c   7.36091600
_cell_angle_alpha   90.00000000
_cell_angle_beta   90.00000000
_cell_angle_gamma   140.17335378
_symmetry_Int_Tables_number   1
_chemical_formula_structural   CeRe2SiC
_chemical_formula_sum   'Ce2 Re4 Si2 C2'
_cell_volume   161.17439366
_cell_formula_units_Z   2
loop_
 _symmetry_equiv_pos_site_id
 _symmetry_equiv_pos_as_xyz
  1  'x, y, z'
loop_
 _atom_site_type_symbol
 _atom_site_label
 _atom_site_symmetry_multiplicity
 _atom_site_fract_x
 _atom_site_fract_y
 _atom_site_fract_z
 _atom_site_occupancy
  Ce  Ce0  1  0.543534  0.456466  0.250000  1
  Ce  Ce1  1  0.456466  0.543534  0.750000  1
  Re  Re2  1  0.826321  0.173679  0.060758  1
  Re  Re3  1  0.173679  0.826321  0.939242  1
  Re  Re4  1  0.173679  0.826321  0.560758  1
  Re  Re5  1  0.826321  0.173679  0.439242  1
  Si  Si6  1  0.265425  0.734575  0.250000  1
  Si  Si7  1  0.734575  0.265425  0.750000  1
  C  C8  1  0.000000  0.000000  0.000000  1
  C  C9  1  0.000000  0.000000  0.500000  1
