# generated using pymatgen
data_Ho2Mn5NiP4
_symmetry_space_group_name_H-M   'P 1'
_cell_length_a   3.65657100
_cell_length_b   10.76646900
_cell_length_c   12.54933500
_cell_angle_alpha   90.00000000
_cell_angle_beta   90.00000000
_cell_angle_gamma   90.00000000
_symmetry_Int_Tables_number   1
_chemical_formula_structural   Ho2Mn5NiP4
_chemical_formula_sum   'Ho6 Mn15 Ni3 P12'
_cell_volume   494.04671693
_cell_formula_units_Z   3
loop_
 _symmetry_equiv_pos_site_id
 _symmetry_equiv_pos_as_xyz
  1  'x, y, z'
loop_
 _atom_site_type_symbol
 _atom_site_label
 _atom_site_symmetry_multiplicity
 _atom_site_fract_x
 _atom_site_fract_y
 _atom_site_fract_z
 _atom_site_occupancy
  Ho  Ho0  1  0.000000  0.500000  0.529767  1
  Ho  Ho1  1  0.500000  0.000000  0.469231  1
  Ho  Ho2  1  0.500000  0.819785  0.205796  1
  Ho  Ho3  1  0.500000  0.180215  0.205796  1
  Ho  Ho4  1  0.000000  0.680226  0.794111  1
  Ho  Ho5  1  0.000000  0.319774  0.794111  1
  Mn  Mn6  1  0.500000  0.500000  0.165916  1
  Mn  Mn7  1  0.000000  0.000000  0.834065  1
  Mn  Mn8  1  0.000000  0.500000  0.991716  1
  Mn  Mn9  1  0.500000  0.331747  0.996758  1
  Mn  Mn10  1  0.500000  0.668253  0.996758  1
  Mn  Mn11  1  0.000000  0.167406  0.003240  1
  Mn  Mn12  1  0.000000  0.832594  0.003240  1
  Mn  Mn13  1  0.500000  0.298037  0.432390  1
  Mn  Mn14  1  0.500000  0.701963  0.432390  1
  Mn  Mn15  1  0.000000  0.201659  0.567259  1
  Mn  Mn16  1  0.000000  0.798341  0.567259  1
  Mn  Mn17  1  0.500000  0.882229  0.702821  1
  Mn  Mn18  1  0.500000  0.117771  0.702821  1
  Mn  Mn19  1  0.000000  0.618148  0.297723  1
  Mn  Mn20  1  0.000000  0.381852  0.297723  1
  Ni  Ni21  1  0.500000  0.500000  0.704551  1
  Ni  Ni22  1  0.000000  0.000000  0.293486  1
  Ni  Ni23  1  0.500000  0.000000  0.010780  1
  P  P24  1  0.500000  0.500000  0.880903  1
  P  P25  1  0.000000  0.000000  0.117790  1
  P  P26  1  0.500000  0.500000  0.358944  1
  P  P27  1  0.000000  0.000000  0.640991  1
  P  P28  1  0.500000  0.316412  0.618016  1
  P  P29  1  0.500000  0.683588  0.618016  1
  P  P30  1  0.000000  0.183065  0.381126  1
  P  P31  1  0.000000  0.816935  0.381126  1
  P  P32  1  0.500000  0.846596  0.886594  1
  P  P33  1  0.500000  0.153404  0.886594  1
  P  P34  1  0.000000  0.654133  0.115097  1
  P  P35  1  0.000000  0.345867  0.115097  1
