# generated using pymatgen
data_NaPr5NdCoI12
_symmetry_space_group_name_H-M   'P 1'
_cell_length_a   10.02353325
_cell_length_b   10.01914415
_cell_length_c   10.13713099
_cell_angle_alpha   106.83084000
_cell_angle_beta   107.31155830
_cell_angle_gamma   106.78061174
_symmetry_Int_Tables_number   1
_chemical_formula_structural   NaPr5NdCoI12
_chemical_formula_sum   'Na1 Pr5 Nd1 Co1 I12'
_cell_volume   848.41235904
_cell_formula_units_Z   1
loop_
 _symmetry_equiv_pos_site_id
 _symmetry_equiv_pos_as_xyz
  1  'x, y, z'
loop_
 _atom_site_type_symbol
 _atom_site_label
 _atom_site_symmetry_multiplicity
 _atom_site_fract_x
 _atom_site_fract_y
 _atom_site_fract_z
 _atom_site_occupancy
  Na  Na0  1  0.500010  0.499993  0.499955  1
  Pr  Pr1  1  0.028736  0.104630  0.314078  1
  Pr  Pr2  1  0.098992  0.297327  0.027388  1
  Pr  Pr3  1  0.298749  0.027707  0.098498  1
  Pr  Pr4  1  0.900979  0.702541  0.972345  1
  Pr  Pr5  1  0.701066  0.972066  0.900756  1
  Nd  Nd6  1  0.971317  0.895750  0.687625  1
  Co  Co7  1  0.999825  0.999841  0.999595  1
  I  I8  1  0.544114  0.623552  0.851292  1
  I  I9  1  0.455843  0.376476  0.148674  1
  I  I10  1  0.317048  0.925309  0.774954  1
  I  I11  1  0.375635  0.147029  0.452656  1
  I  I12  1  0.924734  0.772718  0.317387  1
  I  I13  1  0.680837  0.074328  0.223933  1
  I  I14  1  0.074767  0.225419  0.683435  1
  I  I15  1  0.773347  0.318231  0.924762  1
  I  I16  1  0.226620  0.681734  0.075155  1
  I  I17  1  0.853081  0.547374  0.626668  1
  I  I18  1  0.147842  0.454847  0.373274  1
  I  I19  1  0.626458  0.853127  0.547571  1
