# generated using pymatgen
data_Tm9Lu7(Ga3Ir)2
_symmetry_space_group_name_H-M   'P 1'
_cell_length_a   9.88305500
_cell_length_b   9.88305515
_cell_length_c   6.92007200
_cell_angle_alpha   90.00000000
_cell_angle_beta   90.00000000
_cell_angle_gamma   120.00000955
_symmetry_Int_Tables_number   1
_chemical_formula_structural   Tm9Lu7(Ga3Ir)2
_chemical_formula_sum   'Tm9 Lu7 Ga6 Ir2'
_cell_volume   585.36079781
_cell_formula_units_Z   1
loop_
 _symmetry_equiv_pos_site_id
 _symmetry_equiv_pos_as_xyz
  1  'x, y, z'
loop_
 _atom_site_type_symbol
 _atom_site_label
 _atom_site_symmetry_multiplicity
 _atom_site_fract_x
 _atom_site_fract_y
 _atom_site_fract_z
 _atom_site_occupancy
  Tm  Tm0  1  0.666667  0.333333  0.162645  1
  Tm  Tm1  1  0.465803  0.534197  0.294828  1
  Tm  Tm2  1  0.932185  0.466092  0.794404  1
  Tm  Tm3  1  0.533908  0.067815  0.794404  1
  Tm  Tm4  1  0.465803  0.931607  0.294828  1
  Tm  Tm5  1  0.068393  0.534197  0.294828  1
  Tm  Tm6  1  0.533908  0.466092  0.794404  1
  Tm  Tm7  1  0.000000  0.000000  0.266325  1
  Tm  Tm8  1  0.000000  0.000000  0.766853  1
  Lu  Lu9  1  0.171811  0.828189  0.989038  1
  Lu  Lu10  1  0.343225  0.171613  0.489612  1
  Lu  Lu11  1  0.828387  0.656775  0.489612  1
  Lu  Lu12  1  0.171811  0.343623  0.989038  1
  Lu  Lu13  1  0.656377  0.828189  0.989038  1
  Lu  Lu14  1  0.828387  0.171613  0.489612  1
  Lu  Lu15  1  0.333333  0.666667  0.664379  1
  Ga  Ga16  1  0.163391  0.836609  0.541683  1
  Ga  Ga17  1  0.325903  0.162952  0.041192  1
  Ga  Ga18  1  0.837048  0.674097  0.041192  1
  Ga  Ga19  1  0.163391  0.326780  0.541683  1
  Ga  Ga20  1  0.673220  0.836609  0.541683  1
  Ga  Ga21  1  0.837048  0.162952  0.041192  1
  Ir  Ir22  1  0.333333  0.666667  0.055624  1
  Ir  Ir23  1  0.666667  0.333333  0.555908  1
