# generated using pymatgen
data_V11Si4Os
_symmetry_space_group_name_H-M   'P 1'
_cell_length_a   4.67376900
_cell_length_b   4.67642100
_cell_length_c   9.52807000
_cell_angle_alpha   90.00000000
_cell_angle_beta   90.00000000
_cell_angle_gamma   90.00000000
_symmetry_Int_Tables_number   1
_chemical_formula_structural   V11Si4Os
_chemical_formula_sum   'V11 Si4 Os1'
_cell_volume   208.25037153
_cell_formula_units_Z   1
loop_
 _symmetry_equiv_pos_site_id
 _symmetry_equiv_pos_as_xyz
  1  'x, y, z'
loop_
 _atom_site_type_symbol
 _atom_site_label
 _atom_site_symmetry_multiplicity
 _atom_site_fract_x
 _atom_site_fract_y
 _atom_site_fract_z
 _atom_site_occupancy
  V  V0  1  0.000000  0.500000  0.624961  1
  V  V1  1  0.500000  0.252924  0.751481  1
  V  V2  1  0.500000  0.249115  0.248529  1
  V  V3  1  0.748896  0.000000  0.001460  1
  V  V4  1  0.752585  0.000000  0.498573  1
  V  V5  1  0.000000  0.500000  0.870105  1
  V  V6  1  0.000000  0.500000  0.379888  1
  V  V7  1  0.500000  0.747076  0.751481  1
  V  V8  1  0.500000  0.750885  0.248529  1
  V  V9  1  0.251104  0.000000  0.001460  1
  V  V10  1  0.247415  0.000000  0.498573  1
  Si  Si11  1  0.500000  0.500000  0.995822  1
  Si  Si12  1  0.500000  0.500000  0.499550  1
  Si  Si13  1  0.000000  0.000000  0.750458  1
  Si  Si14  1  0.000000  0.000000  0.254106  1
  Os  Os15  1  0.000000  0.500000  0.125028  1
