# generated using pymatgen
data_TmU(TcB4)2
_symmetry_space_group_name_H-M   'P 1'
_cell_length_a   3.59243800
_cell_length_b   5.93039560
_cell_length_c   11.47326519
_cell_angle_alpha   90.09206182
_cell_angle_beta   90.00000000
_cell_angle_gamma   90.00000000
_symmetry_Int_Tables_number   1
_chemical_formula_structural   TmU(TcB4)2
_chemical_formula_sum   'Tm2 U2 Tc4 B16'
_cell_volume   244.43276359
_cell_formula_units_Z   2
loop_
 _symmetry_equiv_pos_site_id
 _symmetry_equiv_pos_as_xyz
  1  'x, y, z'
loop_
 _atom_site_type_symbol
 _atom_site_label
 _atom_site_symmetry_multiplicity
 _atom_site_fract_x
 _atom_site_fract_y
 _atom_site_fract_z
 _atom_site_occupancy
  Tm  Tm0  1  0.500000  0.628040  0.351927  1
  Tm  Tm1  1  0.500000  0.371960  0.648073  1
  U  U2  1  0.500000  0.127925  0.151257  1
  U  U3  1  0.500000  0.872075  0.848743  1
  Tc  Tc4  1  0.500000  0.136149  0.408379  1
  Tc  Tc5  1  0.500000  0.863851  0.591621  1
  Tc  Tc6  1  0.500000  0.640678  0.091839  1
  Tc  Tc7  1  0.500000  0.359322  0.908161  1
  B  B8  1  0.000000  0.474620  0.192351  1
  B  B9  1  0.000000  0.525380  0.807649  1
  B  B10  1  0.000000  0.977678  0.307461  1
  B  B11  1  0.000000  0.022322  0.692539  1
  B  B12  1  0.000000  0.289111  0.313203  1
  B  B13  1  0.000000  0.710889  0.686797  1
  B  B14  1  0.000000  0.791428  0.186650  1
  B  B15  1  0.000000  0.208572  0.813350  1
  B  B16  1  0.000000  0.364880  0.468701  1
  B  B17  1  0.000000  0.635120  0.531299  1
  B  B18  1  0.000000  0.867804  0.031604  1
  B  B19  1  0.000000  0.132196  0.968396  1
  B  B20  1  0.000000  0.385934  0.047336  1
  B  B21  1  0.000000  0.614066  0.952664  1
  B  B22  1  0.000000  0.885926  0.453447  1
  B  B23  1  0.000000  0.114074  0.546553  1
