# generated using pymatgen
data_Tb4Gd2MoO12
_symmetry_space_group_name_H-M   'P 1'
_cell_length_a   6.53504194
_cell_length_b   6.53872102
_cell_length_c   6.53386854
_cell_angle_alpha   98.66373831
_cell_angle_beta   98.51665878
_cell_angle_gamma   98.62487274
_symmetry_Int_Tables_number   1
_chemical_formula_structural   Tb4Gd2MoO12
_chemical_formula_sum   'Tb4 Gd2 Mo1 O12'
_cell_volume   268.69712534
_cell_formula_units_Z   1
loop_
 _symmetry_equiv_pos_site_id
 _symmetry_equiv_pos_as_xyz
  1  'x, y, z'
loop_
 _atom_site_type_symbol
 _atom_site_label
 _atom_site_symmetry_multiplicity
 _atom_site_fract_x
 _atom_site_fract_y
 _atom_site_fract_z
 _atom_site_occupancy
  Tb  Tb0  1  0.855644  0.386980  0.685520  1
  Tb  Tb1  1  0.612277  0.313391  0.144340  1
  Tb  Tb2  1  0.315278  0.143843  0.611406  1
  Tb  Tb3  1  0.686813  0.856720  0.388931  1
  Gd  Gd4  1  0.390252  0.685531  0.856265  1
  Gd  Gd5  1  0.143168  0.610197  0.313446  1
  Mo  Mo6  1  0.000096  0.000264  0.999595  1
  O  O7  1  0.924397  0.033717  0.704009  1
  O  O8  1  0.962957  0.295636  0.071875  1
  O  O9  1  0.591461  0.176979  0.433657  1
  O  O10  1  0.821687  0.565998  0.410443  1
  O  O11  1  0.294462  0.077215  0.966298  1
  O  O12  1  0.566489  0.405525  0.822662  1
  O  O13  1  0.436243  0.590579  0.178446  1
  O  O14  1  0.705247  0.927337  0.037317  1
  O  O15  1  0.176739  0.431466  0.591396  1
  O  O16  1  0.410628  0.823604  0.566203  1
  O  O17  1  0.030320  0.705700  0.923290  1
  O  O18  1  0.075841  0.969318  0.294901  1
