# generated using pymatgen
data_Tb3Pr17(Ga5Bi)2
_symmetry_space_group_name_H-M   'P 1'
_cell_length_a   8.09132200
_cell_length_b   8.09132200
_cell_length_c   14.36580300
_cell_angle_alpha   90.00000000
_cell_angle_beta   90.00000000
_cell_angle_gamma   90.00000000
_symmetry_Int_Tables_number   1
_chemical_formula_structural   Tb3Pr17(Ga5Bi)2
_chemical_formula_sum   'Tb3 Pr17 Ga10 Bi2'
_cell_volume   940.52182038
_cell_formula_units_Z   1
loop_
 _symmetry_equiv_pos_site_id
 _symmetry_equiv_pos_as_xyz
  1  'x, y, z'
loop_
 _atom_site_type_symbol
 _atom_site_label
 _atom_site_symmetry_multiplicity
 _atom_site_fract_x
 _atom_site_fract_y
 _atom_site_fract_z
 _atom_site_occupancy
  Tb  Tb0  1  0.000000  0.500000  0.760682  1
  Tb  Tb1  1  0.000000  0.500000  0.208137  1
  Tb  Tb2  1  0.500000  0.000000  0.236971  1
  Pr  Pr3  1  0.825376  0.840083  0.611062  1
  Pr  Pr4  1  0.175457  0.837854  0.100359  1
  Pr  Pr5  1  0.160282  0.827385  0.388067  1
  Pr  Pr6  1  0.839718  0.172615  0.388067  1
  Pr  Pr7  1  0.672615  0.660282  0.388067  1
  Pr  Pr8  1  0.659917  0.325376  0.611062  1
  Pr  Pr9  1  0.340083  0.674624  0.611062  1
  Pr  Pr10  1  0.662146  0.675457  0.100359  1
  Pr  Pr11  1  0.677680  0.340627  0.899467  1
  Pr  Pr12  1  0.840627  0.822320  0.899467  1
  Pr  Pr13  1  0.327385  0.339718  0.388067  1
  Pr  Pr14  1  0.174624  0.159917  0.611062  1
  Pr  Pr15  1  0.824543  0.162146  0.100359  1
  Pr  Pr16  1  0.322320  0.659373  0.899467  1
  Pr  Pr17  1  0.337854  0.324543  0.100359  1
  Pr  Pr18  1  0.159373  0.177680  0.899467  1
  Pr  Pr19  1  0.500000  0.000000  0.798866  1
  Ga  Ga20  1  0.625499  0.373224  0.247806  1
  Ga  Ga21  1  0.122540  0.871578  0.750874  1
  Ga  Ga22  1  0.371578  0.377460  0.750874  1
  Ga  Ga23  1  0.374501  0.626776  0.247806  1
  Ga  Ga24  1  0.873224  0.874501  0.247806  1
  Ga  Ga25  1  0.628422  0.622540  0.750874  1
  Ga  Ga26  1  0.877460  0.128422  0.750874  1
  Ga  Ga27  1  0.500000  0.000000  0.012360  1
  Ga  Ga28  1  0.126776  0.125499  0.247806  1
  Ga  Ga29  1  0.000000  0.500000  0.995534  1
  Bi  Bi30  1  0.000000  0.500000  0.511179  1
  Bi  Bi31  1  0.500000  0.000000  0.485730  1
