# generated using pymatgen
data_La8LuSc11Si15Os
_symmetry_space_group_name_H-M   'P 1'
_cell_length_a   7.31781191
_cell_length_b   7.67278260
_cell_length_c   14.32513505
_cell_angle_alpha   89.94378411
_cell_angle_beta   90.05454109
_cell_angle_gamma   90.08256957
_symmetry_Int_Tables_number   1
_chemical_formula_structural   La8LuSc11Si15Os
_chemical_formula_sum   'La8 Lu1 Sc11 Si15 Os1'
_cell_volume   804.32580949
_cell_formula_units_Z   1
loop_
 _symmetry_equiv_pos_site_id
 _symmetry_equiv_pos_as_xyz
  1  'x, y, z'
loop_
 _atom_site_type_symbol
 _atom_site_label
 _atom_site_symmetry_multiplicity
 _atom_site_fract_x
 _atom_site_fract_y
 _atom_site_fract_z
 _atom_site_occupancy
  La  La0  1  0.011056  0.176373  0.096480  1
  La  La1  1  0.989879  0.830478  0.902972  1
  La  La2  1  0.488932  0.671113  0.905519  1
  La  La3  1  0.989059  0.828632  0.599038  1
  La  La4  1  0.510961  0.328681  0.096100  1
  La  La5  1  0.010984  0.176122  0.402780  1
  La  La6  1  0.512001  0.328596  0.402063  1
  La  La7  1  0.489025  0.671893  0.595823  1
  Lu  Lu8  1  0.317377  0.171892  0.627026  1
  Sc  Sc9  1  0.150926  0.489119  0.752000  1
  Sc  Sc10  1  0.842325  0.501686  0.249655  1
  Sc  Sc11  1  0.341154  0.999744  0.249281  1
  Sc  Sc12  1  0.668291  0.004216  0.751416  1
  Sc  Sc13  1  0.673284  0.827954  0.371275  1
  Sc  Sc14  1  0.173122  0.676320  0.372310  1
  Sc  Sc15  1  0.672455  0.828684  0.127487  1
  Sc  Sc16  1  0.837650  0.316492  0.629892  1
  Sc  Sc17  1  0.316378  0.170533  0.871640  1
  Sc  Sc18  1  0.837345  0.317025  0.871840  1
  Sc  Sc19  1  0.172968  0.676383  0.126566  1
  Si  Si20  1  0.971421  0.874270  0.249363  1
  Si  Si21  1  0.470641  0.624323  0.249329  1
  Si  Si22  1  0.529824  0.383081  0.751620  1
  Si  Si23  1  0.287726  0.877189  0.751635  1
  Si  Si24  1  0.709647  0.119118  0.249468  1
  Si  Si25  1  0.210396  0.382249  0.249515  1
  Si  Si26  1  0.780317  0.613687  0.750966  1
  Si  Si27  1  0.148334  0.471829  0.537091  1
  Si  Si28  1  0.851515  0.539970  0.460258  1
  Si  Si29  1  0.354005  0.962041  0.456322  1
  Si  Si30  1  0.852289  0.539202  0.039536  1
  Si  Si31  1  0.652206  0.034324  0.536883  1
  Si  Si32  1  0.151073  0.468352  0.962093  1
  Si  Si33  1  0.647093  0.035345  0.961286  1
  Si  Si34  1  0.351903  0.964664  0.040943  1
  Os  Os35  1  0.026439  0.118421  0.752531  1
