# generated using pymatgen
data_Y4Mo3WN8
_symmetry_space_group_name_H-M   'P 1'
_cell_length_a   3.21568300
_cell_length_b   5.72631237
_cell_length_c   10.60510668
_cell_angle_alpha   89.95904685
_cell_angle_beta   90.00003404
_cell_angle_gamma   90.00006566
_symmetry_Int_Tables_number   1
_chemical_formula_structural   Y4Mo3WN8
_chemical_formula_sum   'Y4 Mo3 W1 N8'
_cell_volume   195.28244096
_cell_formula_units_Z   1
loop_
 _symmetry_equiv_pos_site_id
 _symmetry_equiv_pos_as_xyz
  1  'x, y, z'
loop_
 _atom_site_type_symbol
 _atom_site_label
 _atom_site_symmetry_multiplicity
 _atom_site_fract_x
 _atom_site_fract_y
 _atom_site_fract_z
 _atom_site_occupancy
  Y  Y0  1  0.250000  0.079049  0.853957  1
  Y  Y1  1  0.249999  0.578723  0.646713  1
  Y  Y2  1  0.749999  0.920338  0.146197  1
  Y  Y3  1  0.750000  0.421023  0.354830  1
  Mo  Mo4  1  0.250001  0.934571  0.406309  1
  Mo  Mo5  1  0.750002  0.567411  0.906015  1
  Mo  Mo6  1  0.749999  0.065882  0.593195  1
  W  W7  1  0.249999  0.433043  0.094553  1
  N  N8  1  0.250000  0.167805  0.247499  1
  N  N9  1  0.250000  0.662196  0.249061  1
  N  N10  1  0.750000  0.836501  0.749654  1
  N  N11  1  0.750000  0.334825  0.750001  1
  N  N12  1  0.249999  0.757798  0.994148  1
  N  N13  1  0.249999  0.257534  0.506661  1
  N  N14  1  0.750000  0.240245  0.008608  1
  N  N15  1  0.750001  0.743055  0.492597  1
