# generated using pymatgen
data_TiMnNbV3
_symmetry_space_group_name_H-M   'P 1'
_cell_length_a   4.91460664
_cell_length_b   4.91460612
_cell_length_c   4.91460595
_cell_angle_alpha   61.66334811
_cell_angle_beta   61.66334884
_cell_angle_gamma   61.66334779
_symmetry_Int_Tables_number   1
_chemical_formula_structural   TiMnNbV3
_chemical_formula_sum   'Ti1 Mn1 Nb1 V3'
_cell_volume   87.06697301
_cell_formula_units_Z   1
loop_
 _symmetry_equiv_pos_site_id
 _symmetry_equiv_pos_as_xyz
  1  'x, y, z'
loop_
 _atom_site_type_symbol
 _atom_site_label
 _atom_site_symmetry_multiplicity
 _atom_site_fract_x
 _atom_site_fract_y
 _atom_site_fract_z
 _atom_site_occupancy
  Ti  Ti0  1  0.625084  0.625084  0.625084  1
  Mn  Mn1  1  0.000072  0.000072  0.000072  1
  Nb  Nb2  1  0.374323  0.374323  0.374323  1
  V  V3  1  0.000004  0.500512  0.000004  1
  V  V4  1  0.500512  0.000004  0.000004  1
  V  V5  1  0.000004  0.000004  0.500512  1
