# generated using pymatgen
data_Sc12Mn2NiI16
_symmetry_space_group_name_H-M   'P 1'
_cell_length_a   8.91688486
_cell_length_b   12.05109713
_cell_length_c   12.75909661
_cell_angle_alpha   117.28081397
_cell_angle_beta   100.84349238
_cell_angle_gamma   100.27369865
_symmetry_Int_Tables_number   1
_chemical_formula_structural   Sc12Mn2NiI16
_chemical_formula_sum   'Sc12 Mn2 Ni1 I16'
_cell_volume   1140.50875593
_cell_formula_units_Z   1
loop_
 _symmetry_equiv_pos_site_id
 _symmetry_equiv_pos_as_xyz
  1  'x, y, z'
loop_
 _atom_site_type_symbol
 _atom_site_label
 _atom_site_symmetry_multiplicity
 _atom_site_fract_x
 _atom_site_fract_y
 _atom_site_fract_z
 _atom_site_occupancy
  Sc  Sc0  1  0.088110  0.276532  0.362949  1
  Sc  Sc1  1  0.910158  0.733824  0.643435  1
  Sc  Sc2  1  0.778008  0.536937  0.327559  1
  Sc  Sc3  1  0.214132  0.464734  0.664294  1
  Sc  Sc4  1  0.269657  0.723860  0.636207  1
  Sc  Sc5  1  0.720154  0.265686  0.357444  1
  Sc  Sc6  1  0.143464  0.535565  0.334821  1
  Sc  Sc7  1  0.852203  0.462727  0.673225  1
  Sc  Sc8  1  0.416191  0.368457  0.289023  1
  Sc  Sc9  1  0.592349  0.631543  0.711038  1
  Sc  Sc10  1  0.465689  0.320526  0.519758  1
  Sc  Sc11  1  0.542623  0.679578  0.480346  1
  Mn  Mn12  1  0.970262  0.499898  0.500101  1
  Mn  Mn13  1  0.692593  0.499823  0.500333  1
  Ni  Ni14  1  0.340817  0.500156  0.499496  1
  I  I15  1  0.389293  0.734449  0.875368  1
  I  I16  1  0.605287  0.261201  0.117119  1
  I  I17  1  0.193016  0.965147  0.782333  1
  I  I18  1  0.817155  0.034894  0.217433  1
  I  I19  1  0.336743  0.101222  0.255732  1
  I  I20  1  0.659591  0.898698  0.744289  1
  I  I21  1  0.560510  0.437494  0.794754  1
  I  I22  1  0.435002  0.562765  0.205444  1
  I  I23  1  0.303361  0.822450  0.464069  1
  I  I24  1  0.692533  0.171342  0.537041  1
  I  I25  1  0.166216  0.178015  0.534922  1
  I  I26  1  0.832916  0.827986  0.464123  1
  I  I27  1  0.931454  0.577310  0.159949  1
  I  I28  1  0.079636  0.422674  0.839875  1
  I  I29  1  0.925328  0.738447  0.883542  1
  I  I30  1  0.075553  0.266060  0.123975  1
