# generated using pymatgen
data_Ba3LiRh2O9
_symmetry_space_group_name_H-M   'P 1'
_cell_length_a   5.85273900
_cell_length_b   5.85273818
_cell_length_c   14.40285800
_cell_angle_alpha   90.00000000
_cell_angle_beta   90.00000000
_cell_angle_gamma   119.99999897
_symmetry_Int_Tables_number   1
_chemical_formula_structural   Ba3LiRh2O9
_chemical_formula_sum   'Ba6 Li2 Rh4 O18'
_cell_volume   427.26524674
_cell_formula_units_Z   2
loop_
 _symmetry_equiv_pos_site_id
 _symmetry_equiv_pos_as_xyz
  1  'x, y, z'
loop_
 _atom_site_type_symbol
 _atom_site_label
 _atom_site_symmetry_multiplicity
 _atom_site_fract_x
 _atom_site_fract_y
 _atom_site_fract_z
 _atom_site_occupancy
  Ba  Ba0  1  0.333333  0.666667  0.586653  1
  Ba  Ba1  1  0.666667  0.333333  0.086653  1
  Ba  Ba2  1  0.666667  0.333333  0.413347  1
  Ba  Ba3  1  0.333333  0.666667  0.913347  1
  Ba  Ba4  1  0.000000  0.000000  0.250000  1
  Ba  Ba5  1  0.000000  0.000000  0.750000  1
  Li  Li6  1  0.000000  0.000000  0.000000  1
  Li  Li7  1  0.000000  0.000000  0.500000  1
  Rh  Rh8  1  0.333333  0.666667  0.346360  1
  Rh  Rh9  1  0.666667  0.333333  0.846360  1
  Rh  Rh10  1  0.666667  0.333333  0.653640  1
  Rh  Rh11  1  0.333333  0.666667  0.153640  1
  O  O12  1  0.484240  0.968481  0.250000  1
  O  O13  1  0.515760  0.484240  0.750000  1
  O  O14  1  0.968481  0.484240  0.750000  1
  O  O15  1  0.031519  0.515760  0.250000  1
  O  O16  1  0.484240  0.515760  0.250000  1
  O  O17  1  0.515760  0.031519  0.750000  1
  O  O18  1  0.172691  0.345381  0.415956  1
  O  O19  1  0.827309  0.172691  0.915956  1
  O  O20  1  0.345381  0.172691  0.915956  1
  O  O21  1  0.654619  0.827309  0.415956  1
  O  O22  1  0.172691  0.827309  0.415956  1
  O  O23  1  0.827309  0.654619  0.584044  1
  O  O24  1  0.827309  0.172691  0.584044  1
  O  O25  1  0.827309  0.654619  0.915956  1
  O  O26  1  0.345381  0.172691  0.584044  1
  O  O27  1  0.654619  0.827309  0.084044  1
  O  O28  1  0.172691  0.345381  0.084044  1
  O  O29  1  0.172691  0.827309  0.084044  1
