# generated using pymatgen
data_Ac3EuH10
_symmetry_space_group_name_H-M   'P 1'
_cell_length_a   7.15201191
_cell_length_b   7.15201225
_cell_length_c   7.15201214
_cell_angle_alpha   132.13461818
_cell_angle_beta   132.60588941
_cell_angle_gamma   69.64557409
_symmetry_Int_Tables_number   1
_chemical_formula_structural   Ac3EuH10
_chemical_formula_sum   'Ac3 Eu1 H10'
_cell_volume   195.85336877
_cell_formula_units_Z   1
loop_
 _symmetry_equiv_pos_site_id
 _symmetry_equiv_pos_as_xyz
  1  'x, y, z'
loop_
 _atom_site_type_symbol
 _atom_site_label
 _atom_site_symmetry_multiplicity
 _atom_site_fract_x
 _atom_site_fract_y
 _atom_site_fract_z
 _atom_site_occupancy
  Ac  Ac0  1  0.741963  0.741963  0.000000  1
  Ac  Ac1  1  0.007207  0.507207  0.500000  1
  Ac  Ac2  1  0.260055  0.260055  0.000000  1
  Eu  Eu3  1  0.494087  0.994087  0.500000  1
  H  H4  1  0.373487  0.347140  0.474346  1
  H  H5  1  0.872794  0.899140  0.525654  1
  H  H6  1  0.646567  0.120154  0.010914  1
  H  H7  1  0.109241  0.635653  0.989086  1
  H  H8  1  0.373487  0.899140  0.026347  1
  H  H9  1  0.872794  0.347140  0.973653  1
  H  H10  1  0.646567  0.635653  0.526413  1
  H  H11  1  0.109241  0.120154  0.473587  1
  H  H12  1  0.243586  0.743586  0.500000  1
  H  H13  1  0.498924  0.498924  0.000000  1
