# generated using pymatgen
data_Gd6PtO12
_symmetry_space_group_name_H-M   'P 1'
_cell_length_a   6.55588788
_cell_length_b   6.55588755
_cell_length_c   6.55588671
_cell_angle_alpha   98.80167809
_cell_angle_beta   98.80168264
_cell_angle_gamma   98.80168090
_symmetry_Int_Tables_number   1
_chemical_formula_structural   Gd6PtO12
_chemical_formula_sum   'Gd6 Pt1 O12'
_cell_volume   270.64487212
_cell_formula_units_Z   1
loop_
 _symmetry_equiv_pos_site_id
 _symmetry_equiv_pos_as_xyz
  1  'x, y, z'
loop_
 _atom_site_type_symbol
 _atom_site_label
 _atom_site_symmetry_multiplicity
 _atom_site_fract_x
 _atom_site_fract_y
 _atom_site_fract_z
 _atom_site_occupancy
  Gd  Gd0  1  0.859548  0.391398  0.695786  1
  Gd  Gd1  1  0.608602  0.304214  0.140452  1
  Gd  Gd2  1  0.304214  0.140452  0.608602  1
  Gd  Gd3  1  0.695786  0.859548  0.391398  1
  Gd  Gd4  1  0.391398  0.695786  0.859548  1
  Gd  Gd5  1  0.140452  0.608602  0.304214  1
  Pt  Pt6  1  0.000000  0.000000  0.000000  1
  O  O7  1  0.934743  0.041111  0.698678  1
  O  O8  1  0.958889  0.301322  0.065257  1
  O  O9  1  0.590578  0.177357  0.436629  1
  O  O10  1  0.822643  0.563371  0.409422  1
  O  O11  1  0.301322  0.065257  0.958889  1
  O  O12  1  0.563371  0.409422  0.822643  1
  O  O13  1  0.436629  0.590578  0.177357  1
  O  O14  1  0.698678  0.934743  0.041111  1
  O  O15  1  0.177357  0.436629  0.590578  1
  O  O16  1  0.409422  0.822643  0.563371  1
  O  O17  1  0.041111  0.698678  0.934743  1
  O  O18  1  0.065257  0.958889  0.301322  1
