# generated using pymatgen
data_Hf6CoCl15
_symmetry_space_group_name_H-M   'P 1'
_cell_length_a   8.88623772
_cell_length_b   8.88623838
_cell_length_c   8.88623800
_cell_angle_alpha   109.47122433
_cell_angle_beta   109.47122583
_cell_angle_gamma   109.47121716
_symmetry_Int_Tables_number   1
_chemical_formula_structural   Hf6CoCl15
_chemical_formula_sum   'Hf6 Co1 Cl15'
_cell_volume   540.17179933
_cell_formula_units_Z   1
loop_
 _symmetry_equiv_pos_site_id
 _symmetry_equiv_pos_as_xyz
  1  'x, y, z'
loop_
 _atom_site_type_symbol
 _atom_site_label
 _atom_site_symmetry_multiplicity
 _atom_site_fract_x
 _atom_site_fract_y
 _atom_site_fract_z
 _atom_site_occupancy
  Hf  Hf0  1  0.236446  0.236446  0.000000  1
  Hf  Hf1  1  0.763554  0.763554  0.000000  1
  Hf  Hf2  1  0.763554  0.000000  0.763554  1
  Hf  Hf3  1  0.000000  0.763554  0.763554  1
  Hf  Hf4  1  0.000000  0.236446  0.236446  1
  Hf  Hf5  1  0.236446  0.000000  0.236446  1
  Co  Co6  1  0.000000  0.000000  0.000000  1
  Cl  Cl7  1  0.753557  0.507114  0.753557  1
  Cl  Cl8  1  0.500000  0.500000  0.000000  1
  Cl  Cl9  1  0.000000  0.500000  0.500000  1
  Cl  Cl10  1  0.500000  0.000000  0.500000  1
  Cl  Cl11  1  0.246443  0.000000  0.753557  1
  Cl  Cl12  1  0.000000  0.246443  0.753557  1
  Cl  Cl13  1  0.753557  0.000000  0.246443  1
  Cl  Cl14  1  0.507114  0.753557  0.753557  1
  Cl  Cl15  1  0.000000  0.753557  0.246443  1
  Cl  Cl16  1  0.246443  0.246443  0.492886  1
  Cl  Cl17  1  0.753557  0.246443  0.000000  1
  Cl  Cl18  1  0.492886  0.246443  0.246443  1
  Cl  Cl19  1  0.246443  0.492886  0.246443  1
  Cl  Cl20  1  0.753557  0.753557  0.507114  1
  Cl  Cl21  1  0.246443  0.753557  0.000000  1
