# generated using pymatgen
data_Zr10InPb6Au
_symmetry_space_group_name_H-M   'P 1'
_cell_length_a   8.92503100
_cell_length_b   8.92503162
_cell_length_c   6.03193400
_cell_angle_alpha   90.00000000
_cell_angle_beta   90.00000000
_cell_angle_gamma   120.00000142
_symmetry_Int_Tables_number   1
_chemical_formula_structural   Zr10InPb6Au
_chemical_formula_sum   'Zr10 In1 Pb6 Au1'
_cell_volume   416.10861078
_cell_formula_units_Z   1
loop_
 _symmetry_equiv_pos_site_id
 _symmetry_equiv_pos_as_xyz
  1  'x, y, z'
loop_
 _atom_site_type_symbol
 _atom_site_label
 _atom_site_symmetry_multiplicity
 _atom_site_fract_x
 _atom_site_fract_y
 _atom_site_fract_z
 _atom_site_occupancy
  Zr  Zr0  1  0.666667  0.333333  0.000000  1
  Zr  Zr1  1  0.333333  0.666667  0.000000  1
  Zr  Zr2  1  0.333333  0.666667  0.500000  1
  Zr  Zr3  1  0.666667  0.333333  0.500000  1
  Zr  Zr4  1  0.724289  0.724289  0.752256  1
  Zr  Zr5  1  0.275711  0.000000  0.752256  1
  Zr  Zr6  1  0.000000  0.275711  0.752256  1
  Zr  Zr7  1  0.275711  0.275711  0.247744  1
  Zr  Zr8  1  0.724289  0.000000  0.247744  1
  Zr  Zr9  1  0.000000  0.724289  0.247744  1
  In  In10  1  0.000000  0.000000  0.500000  1
  Pb  Pb11  1  0.381903  0.381903  0.749461  1
  Pb  Pb12  1  0.618097  0.000000  0.749461  1
  Pb  Pb13  1  0.000000  0.618097  0.749461  1
  Pb  Pb14  1  0.618097  0.618097  0.250539  1
  Pb  Pb15  1  0.381903  0.000000  0.250539  1
  Pb  Pb16  1  0.000000  0.381903  0.250539  1
  Au  Au17  1  0.000000  0.000000  0.000000  1
