# generated using pymatgen
data_Th4CuNi3Sn2
_symmetry_space_group_name_H-M   'P 1'
_cell_length_a   7.61604332
_cell_length_b   7.61604348
_cell_length_c   3.79261100
_cell_angle_alpha   90.00000000
_cell_angle_beta   90.00000000
_cell_angle_gamma   89.82258732
_symmetry_Int_Tables_number   1
_chemical_formula_structural   Th4CuNi3Sn2
_chemical_formula_sum   'Th4 Cu1 Ni3 Sn2'
_cell_volume   219.98599803
_cell_formula_units_Z   1
loop_
 _symmetry_equiv_pos_site_id
 _symmetry_equiv_pos_as_xyz
  1  'x, y, z'
loop_
 _atom_site_type_symbol
 _atom_site_label
 _atom_site_symmetry_multiplicity
 _atom_site_fract_x
 _atom_site_fract_y
 _atom_site_fract_z
 _atom_site_occupancy
  Th  Th0  1  0.666102  0.166102  0.500000  1
  Th  Th1  1  0.184747  0.326855  0.500000  1
  Th  Th2  1  0.826855  0.684747  0.500000  1
  Th  Th3  1  0.322660  0.822660  0.500000  1
  Cu  Cu4  1  0.878964  0.378964  0.000000  1
  Ni  Ni5  1  0.374015  0.120630  0.000000  1
  Ni  Ni6  1  0.620630  0.874015  0.000000  1
  Ni  Ni7  1  0.119473  0.619473  0.000000  1
  Sn  Sn8  1  0.001836  0.004718  0.000000  1
  Sn  Sn9  1  0.504718  0.501836  0.000000  1
