# generated using pymatgen
data_Li2SiNi12AsP5
_symmetry_space_group_name_H-M   'P 1'
_cell_length_a   9.02660878
_cell_length_b   9.06898568
_cell_length_c   3.55895800
_cell_angle_alpha   90.00000000
_cell_angle_beta   90.00000000
_cell_angle_gamma   120.10949125
_symmetry_Int_Tables_number   1
_chemical_formula_structural   Li2SiNi12AsP5
_chemical_formula_sum   'Li2 Si1 Ni12 As1 P5'
_cell_volume   252.03253799
_cell_formula_units_Z   1
loop_
 _symmetry_equiv_pos_site_id
 _symmetry_equiv_pos_as_xyz
  1  'x, y, z'
loop_
 _atom_site_type_symbol
 _atom_site_label
 _atom_site_symmetry_multiplicity
 _atom_site_fract_x
 _atom_site_fract_y
 _atom_site_fract_z
 _atom_site_occupancy
  Li  Li0  1  0.999522  0.000465  0.000000  1
  Li  Li1  1  0.348495  0.667603  0.500000  1
  Si  Si2  1  0.666173  0.333616  0.000000  1
  Ni  Ni3  1  0.101820  0.379192  0.000000  1
  Ni  Ni4  1  0.298174  0.907547  0.000000  1
  Ni  Ni5  1  0.604224  0.709411  0.000000  1
  Ni  Ni6  1  0.824897  0.618629  0.000000  1
  Ni  Ni7  1  0.786656  0.168358  0.000000  1
  Ni  Ni8  1  0.382450  0.214466  0.000000  1
  Ni  Ni9  1  0.047796  0.777551  0.500000  1
  Ni  Ni10  1  0.715457  0.948629  0.500000  1
  Ni  Ni11  1  0.232819  0.281977  0.500000  1
  Ni  Ni12  1  0.869741  0.413602  0.500000  1
  Ni  Ni13  1  0.541802  0.120237  0.500000  1
  Ni  Ni14  1  0.576025  0.460418  0.500000  1
  As  As15  1  0.087944  0.623850  0.000000  1
  P  P16  1  0.543130  0.916934  0.000000  1
  P  P17  1  0.375403  0.456681  0.000000  1
  P  P18  1  0.783531  0.746636  0.500000  1
  P  P19  1  0.958462  0.211242  0.500000  1
  P  P20  1  0.255478  0.042954  0.500000  1
