# generated using pymatgen
data_Tb15LuIn4RuRh3
_symmetry_space_group_name_H-M   'P 1'
_cell_length_a   9.67319812
_cell_length_b   9.68018746
_cell_length_c   9.66050900
_cell_angle_alpha   60.06722029
_cell_angle_beta   60.04338048
_cell_angle_gamma   60.01057278
_symmetry_Int_Tables_number   1
_chemical_formula_structural   Tb15LuIn4RuRh3
_chemical_formula_sum   'Tb15 Lu1 In4 Ru1 Rh3'
_cell_volume   640.23008554
_cell_formula_units_Z   1
loop_
 _symmetry_equiv_pos_site_id
 _symmetry_equiv_pos_as_xyz
  1  'x, y, z'
loop_
 _atom_site_type_symbol
 _atom_site_label
 _atom_site_symmetry_multiplicity
 _atom_site_fract_x
 _atom_site_fract_y
 _atom_site_fract_z
 _atom_site_occupancy
  Tb  Tb0  1  0.810903  0.191069  0.811249  1
  Tb  Tb1  1  0.187065  0.191705  0.810615  1
  Tb  Tb2  1  0.650140  0.049339  0.650260  1
  Tb  Tb3  1  0.062526  0.062121  0.437677  1
  Tb  Tb4  1  0.440511  0.437188  0.061151  1
  Tb  Tb5  1  0.651285  0.649708  0.650768  1
  Tb  Tb6  1  0.810903  0.191069  0.186779  1
  Tb  Tb7  1  0.188768  0.810695  0.811229  1
  Tb  Tb8  1  0.048390  0.649403  0.651103  1
  Tb  Tb9  1  0.438540  0.061273  0.062866  1
  Tb  Tb10  1  0.438540  0.061273  0.437321  1
  Tb  Tb11  1  0.060336  0.437974  0.061275  1
  Tb  Tb12  1  0.651285  0.649708  0.048238  1
  Tb  Tb13  1  0.188768  0.810695  0.189308  1
  Tb  Tb14  1  0.060336  0.437974  0.440416  1
  Lu  Lu15  1  0.810798  0.810719  0.189242  1
  In  In16  1  0.417515  0.417173  0.417391  1
  In  In17  1  0.417515  0.417173  0.747920  1
  In  In18  1  0.418402  0.746112  0.417742  1
  In  In19  1  0.748218  0.417406  0.417187  1
  Ru  Ru20  1  0.858011  0.426316  0.857837  1
  Rh  Rh21  1  0.857554  0.857891  0.859772  1
  Rh  Rh22  1  0.857554  0.857891  0.424785  1
  Rh  Rh23  1  0.426140  0.858120  0.857871  1
