# generated using pymatgen
data_Er4FeMoOs6
_symmetry_space_group_name_H-M   'P 1'
_cell_length_a   5.23296211
_cell_length_b   5.23296106
_cell_length_c   8.83583900
_cell_angle_alpha   90.00000000
_cell_angle_beta   90.00000000
_cell_angle_gamma   117.72399776
_symmetry_Int_Tables_number   1
_chemical_formula_structural   Er4FeMoOs6
_chemical_formula_sum   'Er4 Fe1 Mo1 Os6'
_cell_volume   214.18237503
_cell_formula_units_Z   1
loop_
 _symmetry_equiv_pos_site_id
 _symmetry_equiv_pos_as_xyz
  1  'x, y, z'
loop_
 _atom_site_type_symbol
 _atom_site_label
 _atom_site_symmetry_multiplicity
 _atom_site_fract_x
 _atom_site_fract_y
 _atom_site_fract_z
 _atom_site_occupancy
  Er  Er0  1  0.328461  0.671539  0.439628  1
  Er  Er1  1  0.667419  0.332581  0.566573  1
  Er  Er2  1  0.667419  0.332581  0.933427  1
  Er  Er3  1  0.328461  0.671539  0.060372  1
  Fe  Fe4  1  0.171758  0.828242  0.750000  1
  Mo  Mo5  1  0.835312  0.164688  0.250000  1
  Os  Os6  1  0.996307  0.003693  0.504461  1
  Os  Os7  1  0.996307  0.003693  0.995539  1
  Os  Os8  1  0.825001  0.652752  0.250000  1
  Os  Os9  1  0.347248  0.174999  0.250000  1
  Os  Os10  1  0.178651  0.342340  0.750000  1
  Os  Os11  1  0.657660  0.821349  0.750000  1
