# generated using pymatgen
data_Sc5Tc3(Ni4P3)4
_symmetry_space_group_name_H-M   'P 1'
_cell_length_a   12.01437300
_cell_length_b   12.01437255
_cell_length_c   3.63772500
_cell_angle_alpha   90.00000000
_cell_angle_beta   90.00000000
_cell_angle_gamma   119.99999848
_symmetry_Int_Tables_number   1
_chemical_formula_structural   Sc5Tc3(Ni4P3)4
_chemical_formula_sum   'Sc5 Tc3 Ni16 P12'
_cell_volume   454.73953031
_cell_formula_units_Z   1
loop_
 _symmetry_equiv_pos_site_id
 _symmetry_equiv_pos_as_xyz
  1  'x, y, z'
loop_
 _atom_site_type_symbol
 _atom_site_label
 _atom_site_symmetry_multiplicity
 _atom_site_fract_x
 _atom_site_fract_y
 _atom_site_fract_z
 _atom_site_occupancy
  Sc  Sc0  1  0.333333  0.666667  0.000000  1
  Sc  Sc1  1  0.666667  0.333333  0.000000  1
  Sc  Sc2  1  0.819311  0.000000  0.500000  1
  Sc  Sc3  1  0.000000  0.819311  0.500000  1
  Sc  Sc4  1  0.180689  0.180689  0.500000  1
  Tc  Tc5  1  0.446847  0.000000  0.000000  1
  Tc  Tc6  1  0.000000  0.446847  0.000000  1
  Tc  Tc7  1  0.553153  0.553153  0.000000  1
  Ni  Ni8  1  0.353959  0.483465  0.500000  1
  Ni  Ni9  1  0.516535  0.870494  0.500000  1
  Ni  Ni10  1  0.129506  0.646041  0.500000  1
  Ni  Ni11  1  0.870494  0.516535  0.500000  1
  Ni  Ni12  1  0.646041  0.129506  0.500000  1
  Ni  Ni13  1  0.483465  0.353959  0.500000  1
  Ni  Ni14  1  0.181655  0.373606  0.000000  1
  Ni  Ni15  1  0.626394  0.808050  0.000000  1
  Ni  Ni16  1  0.191950  0.818345  0.000000  1
  Ni  Ni17  1  0.808050  0.626394  0.000000  1
  Ni  Ni18  1  0.818345  0.191950  0.000000  1
  Ni  Ni19  1  0.373606  0.181655  0.000000  1
  Ni  Ni20  1  0.280402  0.000000  0.500000  1
  Ni  Ni21  1  0.000000  0.280402  0.500000  1
  Ni  Ni22  1  0.719598  0.719598  0.500000  1
  Ni  Ni23  1  0.000000  0.000000  0.000000  1
  P  P24  1  0.175810  0.000000  0.000000  1
  P  P25  1  0.000000  0.175810  0.000000  1
  P  P26  1  0.824190  0.824190  0.000000  1
  P  P27  1  0.165505  0.483166  0.500000  1
  P  P28  1  0.516834  0.682338  0.500000  1
  P  P29  1  0.317662  0.834495  0.500000  1
  P  P30  1  0.682338  0.516834  0.500000  1
  P  P31  1  0.834495  0.317662  0.500000  1
  P  P32  1  0.483166  0.165505  0.500000  1
  P  P33  1  0.641297  0.000000  0.000000  1
  P  P34  1  0.000000  0.641297  0.000000  1
  P  P35  1  0.358703  0.358703  0.000000  1
