# generated using pymatgen
data_Ho3TmAl24Pt7Au2
_symmetry_space_group_name_H-M   'P 1'
_cell_length_a   7.56062724
_cell_length_b   7.57616312
_cell_length_c   13.15194616
_cell_angle_alpha   84.55801149
_cell_angle_beta   79.00954411
_cell_angle_gamma   59.92798248
_symmetry_Int_Tables_number   1
_chemical_formula_structural   Ho3TmAl24Pt7Au2
_chemical_formula_sum   'Ho3 Tm1 Al24 Pt7 Au2'
_cell_volume   639.98922444
_cell_formula_units_Z   1
loop_
 _symmetry_equiv_pos_site_id
 _symmetry_equiv_pos_as_xyz
  1  'x, y, z'
loop_
 _atom_site_type_symbol
 _atom_site_label
 _atom_site_symmetry_multiplicity
 _atom_site_fract_x
 _atom_site_fract_y
 _atom_site_fract_z
 _atom_site_occupancy
  Ho  Ho0  1  0.392698  0.169304  0.809219  1
  Ho  Ho1  1  0.607408  0.830676  0.190861  1
  Ho  Ho2  1  0.733574  0.498865  0.809890  1
  Tm  Tm3  1  0.266227  0.501096  0.190596  1
  Al  Al4  1  0.683029  0.834156  0.944868  1
  Al  Al5  1  0.316872  0.166170  0.055697  1
  Al  Al6  1  0.145770  0.839167  0.562281  1
  Al  Al7  1  0.854244  0.160751  0.437539  1
  Al  Al8  1  0.488354  0.159134  0.559457  1
  Al  Al9  1  0.511586  0.840958  0.440367  1
  Al  Al10  1  0.223837  0.160846  0.324456  1
  Al  Al11  1  0.776368  0.839286  0.674957  1
  Al  Al12  1  0.439933  0.506381  0.675044  1
  Al  Al13  1  0.560100  0.493716  0.324359  1
  Al  Al14  1  0.108878  0.154798  0.673528  1
  Al  Al15  1  0.891410  0.845069  0.325975  1
  Al  Al16  1  0.353104  0.498764  0.944975  1
  Al  Al17  1  0.646020  0.501265  0.055921  1
  Al  Al18  1  0.015534  0.167654  0.953555  1
  Al  Al19  1  0.984552  0.831985  0.047135  1
  Al  Al20  1  0.195799  0.499472  0.437393  1
  Al  Al21  1  0.804299  0.500593  0.562428  1
  Al  Al22  1  0.732189  0.164896  0.182965  1
  Al  Al23  1  0.267182  0.835381  0.816956  1
  Al  Al24  1  0.060353  0.633727  0.817904  1
  Al  Al25  1  0.939933  0.366521  0.182185  1
  Al  Al26  1  0.854239  0.042398  0.816429  1
  Al  Al27  1  0.146023  0.956945  0.183500  1
  Pt  Pt28  1  0.657030  0.171769  0.999725  1
  Pt  Pt29  1  0.342947  0.828228  0.000210  1
  Pt  Pt30  1  0.537028  0.167298  0.361649  1
  Pt  Pt31  1  0.462748  0.833018  0.638161  1
  Pt  Pt32  1  0.779496  0.175343  0.636891  1
  Pt  Pt33  1  0.220618  0.824417  0.362907  1
  Pt  Pt34  1  0.999986  0.500026  0.000047  1
  Au  Au35  1  0.119998  0.490667  0.638159  1
  Au  Au36  1  0.880632  0.509261  0.361810  1
