# generated using pymatgen
data_Er6TiMn5O18
_symmetry_space_group_name_H-M   'P 1'
_cell_length_a   6.16919031
_cell_length_b   6.16239392
_cell_length_c   11.64385616
_cell_angle_alpha   90.22877278
_cell_angle_beta   89.54294563
_cell_angle_gamma   120.03649512
_symmetry_Int_Tables_number   1
_chemical_formula_structural   Er6TiMn5O18
_chemical_formula_sum   'Er6 Ti1 Mn5 O18'
_cell_volume   383.20524163
_cell_formula_units_Z   1
loop_
 _symmetry_equiv_pos_site_id
 _symmetry_equiv_pos_as_xyz
  1  'x, y, z'
loop_
 _atom_site_type_symbol
 _atom_site_label
 _atom_site_symmetry_multiplicity
 _atom_site_fract_x
 _atom_site_fract_y
 _atom_site_fract_z
 _atom_site_occupancy
  Er  Er0  1  0.663791  0.335181  0.226172  1
  Er  Er1  1  0.336716  0.667001  0.732595  1
  Er  Er2  1  0.669716  0.332999  0.732595  1
  Er  Er3  1  0.328609  0.664819  0.226172  1
  Er  Er4  1  0.004078  0.000000  0.774056  1
  Er  Er5  1  0.997079  0.000000  0.270488  1
  Ti  Ti6  1  0.665319  0.000000  0.497789  1
  Mn  Mn7  1  0.667803  0.667272  0.997980  1
  Mn  Mn8  1  0.000531  0.332728  0.997980  1
  Mn  Mn9  1  0.999576  0.665645  0.496955  1
  Mn  Mn10  1  0.333930  0.334355  0.496955  1
  Mn  Mn11  1  0.332807  0.000000  0.998025  1
  O  O12  1  0.666787  0.333608  0.019646  1
  O  O13  1  0.359132  0.692329  0.517894  1
  O  O14  1  0.666804  0.307671  0.517894  1
  O  O15  1  0.333178  0.666392  0.019646  1
  O  O16  1  0.000774  0.000000  0.971776  1
  O  O17  1  0.972678  0.000000  0.472997  1
  O  O18  1  0.361691  0.000000  0.834315  1
  O  O19  1  0.354750  0.356765  0.329327  1
  O  O20  1  0.997986  0.643235  0.329327  1
  O  O21  1  0.002712  0.360935  0.834841  1
  O  O22  1  0.641777  0.639065  0.834841  1
  O  O23  1  0.634329  0.000000  0.331826  1
  O  O24  1  0.303465  0.000000  0.161365  1
  O  O25  1  0.313160  0.311180  0.665294  1
  O  O26  1  0.001980  0.688820  0.665294  1
  O  O27  1  0.997320  0.304832  0.161759  1
  O  O28  1  0.692488  0.695168  0.161759  1
  O  O29  1  0.699032  0.000000  0.666438  1
