# generated using pymatgen
data_Y3P6Ir3Pd17
_symmetry_space_group_name_H-M   'P 1'
_cell_length_a   8.66568901
_cell_length_b   8.66568877
_cell_length_c   8.69382100
_cell_angle_alpha   59.75182544
_cell_angle_beta   59.75182637
_cell_angle_gamma   59.70794781
_symmetry_Int_Tables_number   1
_chemical_formula_structural   Y3P6Ir3Pd17
_chemical_formula_sum   'Y3 P6 Ir3 Pd17'
_cell_volume   458.88306477
_cell_formula_units_Z   1
loop_
 _symmetry_equiv_pos_site_id
 _symmetry_equiv_pos_as_xyz
  1  'x, y, z'
loop_
 _atom_site_type_symbol
 _atom_site_label
 _atom_site_symmetry_multiplicity
 _atom_site_fract_x
 _atom_site_fract_y
 _atom_site_fract_z
 _atom_site_occupancy
  Y  Y0  1  0.258145  0.258145  0.245350  1
  Y  Y1  1  0.743250  0.743250  0.748711  1
  Y  Y2  1  0.999556  0.999556  0.001033  1
  P  P3  1  0.728370  0.267889  0.265119  1
  P  P4  1  0.274783  0.726468  0.732182  1
  P  P5  1  0.267889  0.728370  0.265119  1
  P  P6  1  0.726468  0.274783  0.732182  1
  P  P7  1  0.271257  0.271257  0.728194  1
  P  P8  1  0.733423  0.733423  0.270221  1
  Ir  Ir9  1  0.388785  0.388785  0.390090  1
  Ir  Ir10  1  0.613061  0.613061  0.605972  1
  Ir  Ir11  1  0.383799  0.383799  0.840142  1
  Pd  Pd12  1  0.377821  0.854059  0.379724  1
  Pd  Pd13  1  0.619713  0.619713  0.151255  1
  Pd  Pd14  1  0.624261  0.144907  0.616751  1
  Pd  Pd15  1  0.854059  0.377821  0.379724  1
  Pd  Pd16  1  0.144907  0.624261  0.616751  1
  Pd  Pd17  1  0.342334  0.001170  0.002133  1
  Pd  Pd18  1  0.654786  0.999910  0.002485  1
  Pd  Pd19  1  0.999775  0.343951  0.658807  1
  Pd  Pd20  1  0.997801  0.654583  0.349378  1
  Pd  Pd21  1  0.001170  0.342334  0.002133  1
  Pd  Pd22  1  0.654583  0.997801  0.349378  1
  Pd  Pd23  1  0.999910  0.654786  0.002485  1
  Pd  Pd24  1  0.343951  0.999775  0.658807  1
  Pd  Pd25  1  0.998585  0.998585  0.346507  1
  Pd  Pd26  1  0.999027  0.999027  0.658829  1
  Pd  Pd27  1  0.653955  0.344575  0.000268  1
  Pd  Pd28  1  0.344575  0.653955  0.000268  1
