# generated using pymatgen
data_Pr6DyErO12
_symmetry_space_group_name_H-M   'P 1'
_cell_length_a   7.01298781
_cell_length_b   7.01298729
_cell_length_c   7.01298706
_cell_angle_alpha   92.03227178
_cell_angle_beta   92.03227153
_cell_angle_gamma   92.03226706
_symmetry_Int_Tables_number   1
_chemical_formula_structural   Pr6DyErO12
_chemical_formula_sum   'Pr6 Dy1 Er1 O12'
_cell_volume   344.24603091
_cell_formula_units_Z   1
loop_
 _symmetry_equiv_pos_site_id
 _symmetry_equiv_pos_as_xyz
  1  'x, y, z'
loop_
 _atom_site_type_symbol
 _atom_site_label
 _atom_site_symmetry_multiplicity
 _atom_site_fract_x
 _atom_site_fract_y
 _atom_site_fract_z
 _atom_site_occupancy
  Pr  Pr0  1  0.746741  0.935342  0.442348  1
  Pr  Pr1  1  0.442348  0.746741  0.935342  1
  Pr  Pr2  1  0.064658  0.557652  0.253259  1
  Pr  Pr3  1  0.935342  0.442348  0.746741  1
  Pr  Pr4  1  0.557652  0.253259  0.064658  1
  Pr  Pr5  1  0.253259  0.064658  0.557652  1
  Dy  Dy6  1  0.000000  0.000000  0.000000  1
  Er  Er7  1  0.500000  0.500000  0.500000  1
  O  O8  1  0.065559  0.911316  0.308806  1
  O  O9  1  0.691194  0.934441  0.088684  1
  O  O10  1  0.465411  0.806946  0.595111  1
  O  O11  1  0.088684  0.691194  0.934441  1
  O  O12  1  0.806946  0.595111  0.465411  1
  O  O13  1  0.404889  0.534589  0.193054  1
  O  O14  1  0.595111  0.465411  0.806946  1
  O  O15  1  0.193054  0.404889  0.534589  1
  O  O16  1  0.911316  0.308806  0.065559  1
  O  O17  1  0.534589  0.193054  0.404889  1
  O  O18  1  0.308806  0.065559  0.911316  1
  O  O19  1  0.934441  0.088684  0.691194  1
