# generated using pymatgen
data_Nd6YCoBr12
_symmetry_space_group_name_H-M   'P 1'
_cell_length_a   9.44662724
_cell_length_b   9.44662740
_cell_length_c   9.44662721
_cell_angle_alpha   106.99286112
_cell_angle_beta   106.99285004
_cell_angle_gamma   106.99285645
_symmetry_Int_Tables_number   1
_chemical_formula_structural   Nd6YCoBr12
_chemical_formula_sum   'Nd6 Y1 Co1 Br12'
_cell_volume   702.19971796
_cell_formula_units_Z   1
loop_
 _symmetry_equiv_pos_site_id
 _symmetry_equiv_pos_as_xyz
  1  'x, y, z'
loop_
 _atom_site_type_symbol
 _atom_site_label
 _atom_site_symmetry_multiplicity
 _atom_site_fract_x
 _atom_site_fract_y
 _atom_site_fract_z
 _atom_site_occupancy
  Nd  Nd0  1  0.974919  0.898914  0.690219  1
  Nd  Nd1  1  0.025081  0.101086  0.309781  1
  Nd  Nd2  1  0.101086  0.309781  0.025081  1
  Nd  Nd3  1  0.309781  0.025081  0.101086  1
  Nd  Nd4  1  0.898914  0.690219  0.974919  1
  Nd  Nd5  1  0.690219  0.974919  0.898914  1
  Y  Y6  1  0.500000  0.500000  0.500000  1
  Co  Co7  1  0.000000  0.000000  0.000000  1
  Br  Br8  1  0.531946  0.608067  0.824787  1
  Br  Br9  1  0.468054  0.391933  0.175213  1
  Br  Br10  1  0.316949  0.926829  0.773967  1
  Br  Br11  1  0.391933  0.175213  0.468054  1
  Br  Br12  1  0.926829  0.773967  0.316949  1
  Br  Br13  1  0.683051  0.073171  0.226033  1
  Br  Br14  1  0.073171  0.226033  0.683051  1
  Br  Br15  1  0.773967  0.316949  0.926829  1
  Br  Br16  1  0.226033  0.683051  0.073171  1
  Br  Br17  1  0.824787  0.531946  0.608067  1
  Br  Br18  1  0.175213  0.468054  0.391933  1
  Br  Br19  1  0.608067  0.824787  0.531946  1
