# generated using pymatgen
data_BaCa2(CoH6)2
_symmetry_space_group_name_H-M   'P 1'
_cell_length_a   4.94087800
_cell_length_b   4.94087898
_cell_length_c   8.26237400
_cell_angle_alpha   90.00000000
_cell_angle_beta   90.00000000
_cell_angle_gamma   119.99999342
_symmetry_Int_Tables_number   1
_chemical_formula_structural   BaCa2(CoH6)2
_chemical_formula_sum   'Ba1 Ca2 Co2 H12'
_cell_volume   174.68027115
_cell_formula_units_Z   1
loop_
 _symmetry_equiv_pos_site_id
 _symmetry_equiv_pos_as_xyz
  1  'x, y, z'
loop_
 _atom_site_type_symbol
 _atom_site_label
 _atom_site_symmetry_multiplicity
 _atom_site_fract_x
 _atom_site_fract_y
 _atom_site_fract_z
 _atom_site_occupancy
  Ba  Ba0  1  0.000000  0.000000  0.000000  1
  Ca  Ca1  1  0.666667  0.333333  0.367397  1
  Ca  Ca2  1  0.333333  0.666667  0.632603  1
  Co  Co3  1  0.666667  0.333333  0.734370  1
  Co  Co4  1  0.333333  0.666667  0.265630  1
  H  H5  1  0.183669  0.816331  0.370539  1
  H  H6  1  0.632663  0.816331  0.370539  1
  H  H7  1  0.183669  0.367337  0.370539  1
  H  H8  1  0.816331  0.183669  0.629461  1
  H  H9  1  0.367337  0.183669  0.629461  1
  H  H10  1  0.816331  0.632663  0.629461  1
  H  H11  1  0.521683  0.043365  0.845463  1
  H  H12  1  0.521683  0.478317  0.845463  1
  H  H13  1  0.956635  0.478317  0.845463  1
  H  H14  1  0.478317  0.956635  0.154537  1
  H  H15  1  0.478317  0.521683  0.154537  1
  H  H16  1  0.043365  0.521683  0.154537  1
