# generated using pymatgen
data_ZnCuPS4
_symmetry_space_group_name_H-M   'P 1'
_cell_length_a   6.09482789
_cell_length_b   6.09482805
_cell_length_c   6.09482835
_cell_angle_alpha   126.02381408
_cell_angle_beta   126.02381539
_cell_angle_gamma   79.84900589
_symmetry_Int_Tables_number   1
_chemical_formula_structural   ZnCuPS4
_chemical_formula_sum   'Zn1 Cu1 P1 S4'
_cell_volume   143.02667535
_cell_formula_units_Z   1
loop_
 _symmetry_equiv_pos_site_id
 _symmetry_equiv_pos_as_xyz
  1  'x, y, z'
loop_
 _atom_site_type_symbol
 _atom_site_label
 _atom_site_symmetry_multiplicity
 _atom_site_fract_x
 _atom_site_fract_y
 _atom_site_fract_z
 _atom_site_occupancy
  Zn  Zn0  1  0.000000  0.000000  0.000000  1
  Cu  Cu1  1  0.500000  0.500000  0.000000  1
  P  P2  1  0.250000  0.750000  0.500000  1
  S  S3  1  0.903945  0.857289  0.490784  1
  S  S4  1  0.586838  0.096055  0.953344  1
  S  S5  1  0.142711  0.633494  0.046656  1
  S  S6  1  0.366506  0.413162  0.509216  1
