# generated using pymatgen
data_Ce6Sc5Al11Ir7
_symmetry_space_group_name_H-M   'P 1'
_cell_length_a   9.13942302
_cell_length_b   9.13942335
_cell_length_c   9.14664783
_cell_angle_alpha   60.02612427
_cell_angle_beta   60.02612150
_cell_angle_gamma   60.00000094
_symmetry_Int_Tables_number   1
_chemical_formula_structural   Ce6Sc5Al11Ir7
_chemical_formula_sum   'Ce6 Sc5 Al11 Ir7'
_cell_volume   540.45047690
_cell_formula_units_Z   1
loop_
 _symmetry_equiv_pos_site_id
 _symmetry_equiv_pos_as_xyz
  1  'x, y, z'
loop_
 _atom_site_type_symbol
 _atom_site_label
 _atom_site_symmetry_multiplicity
 _atom_site_fract_x
 _atom_site_fract_y
 _atom_site_fract_z
 _atom_site_occupancy
  Ce  Ce0  1  0.689675  0.689675  0.313344  1
  Ce  Ce1  1  0.307305  0.689675  0.313344  1
  Ce  Ce2  1  0.689675  0.307305  0.313344  1
  Ce  Ce3  1  0.317108  0.317108  0.689050  1
  Ce  Ce4  1  0.676734  0.317108  0.689050  1
  Ce  Ce5  1  0.317108  0.676734  0.689050  1
  Sc  Sc6  1  0.882398  0.882398  0.352807  1
  Sc  Sc7  1  0.877702  0.358503  0.886094  1
  Sc  Sc8  1  0.358503  0.877702  0.886094  1
  Sc  Sc9  1  0.877702  0.877702  0.886094  1
  Sc  Sc10  1  0.121172  0.121172  0.636484  1
  Al  Al11  1  0.120649  0.641627  0.117075  1
  Al  Al12  1  0.641627  0.120649  0.117075  1
  Al  Al13  1  0.120649  0.120649  0.117075  1
  Al  Al14  1  0.668836  0.668836  0.993489  1
  Al  Al15  1  0.670139  0.989063  0.670658  1
  Al  Al16  1  0.989063  0.670139  0.670658  1
  Al  Al17  1  0.670139  0.670139  0.670658  1
  Al  Al18  1  0.328079  0.328079  0.015763  1
  Al  Al19  1  0.331608  0.011826  0.324959  1
  Al  Al20  1  0.011826  0.331608  0.324959  1
  Al  Al21  1  0.331608  0.331608  0.324959  1
  Ir  Ir22  1  0.999877  0.999877  0.000367  1
  Ir  Ir23  1  0.000539  0.000539  0.497196  1
  Ir  Ir24  1  0.501725  0.000539  0.497196  1
  Ir  Ir25  1  0.000539  0.501725  0.497196  1
  Ir  Ir26  1  0.497661  0.497661  0.001988  1
  Ir  Ir27  1  0.002688  0.497661  0.001988  1
  Ir  Ir28  1  0.497661  0.002688  0.001988  1
