# generated using pymatgen
data_Ca3Yb5(Si4W3)4
_symmetry_space_group_name_H-M   'P 1'
_cell_length_a   6.72773768
_cell_length_b   6.90854242
_cell_length_c   13.06705411
_cell_angle_alpha   90.00118617
_cell_angle_beta   90.02339705
_cell_angle_gamma   90.01764963
_symmetry_Int_Tables_number   1
_chemical_formula_structural   Ca3Yb5(Si4W3)4
_chemical_formula_sum   'Ca3 Yb5 Si16 W12'
_cell_volume   607.34171346
_cell_formula_units_Z   1
loop_
 _symmetry_equiv_pos_site_id
 _symmetry_equiv_pos_as_xyz
  1  'x, y, z'
loop_
 _atom_site_type_symbol
 _atom_site_label
 _atom_site_symmetry_multiplicity
 _atom_site_fract_x
 _atom_site_fract_y
 _atom_site_fract_z
 _atom_site_occupancy
  Ca  Ca0  1  0.001585  0.168462  0.090620  1
  Ca  Ca1  1  0.498603  0.667679  0.909658  1
  Ca  Ca2  1  0.998387  0.831562  0.590694  1
  Yb  Yb3  1  0.498654  0.666678  0.590382  1
  Yb  Yb4  1  0.998805  0.832398  0.909252  1
  Yb  Yb5  1  0.501294  0.332611  0.090615  1
  Yb  Yb6  1  0.001433  0.167993  0.409150  1
  Yb  Yb7  1  0.501218  0.332733  0.409850  1
  Si  Si8  1  0.660991  0.956970  0.455483  1
  Si  Si9  1  0.161032  0.543722  0.044527  1
  Si  Si10  1  0.339345  0.043278  0.955512  1
  Si  Si11  1  0.839022  0.456092  0.544226  1
  Si  Si12  1  0.338688  0.042800  0.544397  1
  Si  Si13  1  0.839127  0.457258  0.955225  1
  Si  Si14  1  0.661380  0.957071  0.044669  1
  Si  Si15  1  0.161007  0.543139  0.455228  1
  Si  Si16  1  0.464595  0.379088  0.750131  1
  Si  Si17  1  0.964361  0.120360  0.749985  1
  Si  Si18  1  0.535251  0.620381  0.250023  1
  Si  Si19  1  0.035805  0.879660  0.249956  1
  Si  Si20  1  0.700149  0.863969  0.750014  1
  Si  Si21  1  0.200577  0.635033  0.750131  1
  Si  Si22  1  0.300056  0.136478  0.250179  1
  Si  Si23  1  0.799078  0.364661  0.250203  1
  W  W24  1  0.662720  0.167525  0.627864  1
  W  W25  1  0.163054  0.332047  0.872075  1
  W  W26  1  0.337171  0.832844  0.128061  1
  W  W27  1  0.836318  0.667625  0.371980  1
  W  W28  1  0.336608  0.832957  0.371978  1
  W  W29  1  0.836359  0.667839  0.127901  1
  W  W30  1  0.663620  0.167049  0.872160  1
  W  W31  1  0.163868  0.332038  0.627719  1
  W  W32  1  0.840100  0.486770  0.750156  1
  W  W33  1  0.340084  0.012489  0.749883  1
  W  W34  1  0.159940  0.513117  0.250072  1
  W  W35  1  0.659716  0.987627  0.250044  1
