# generated using pymatgen
data_PaZnNi20GeB6
_symmetry_space_group_name_H-M   'P 1'
_cell_length_a   7.49958687
_cell_length_b   7.49958737
_cell_length_c   7.49958800
_cell_angle_alpha   60.00000603
_cell_angle_beta   60.00000384
_cell_angle_gamma   60.00000729
_symmetry_Int_Tables_number   1
_chemical_formula_structural   PaZnNi20GeB6
_chemical_formula_sum   'Pa1 Zn1 Ni20 Ge1 B6'
_cell_volume   298.26148301
_cell_formula_units_Z   1
loop_
 _symmetry_equiv_pos_site_id
 _symmetry_equiv_pos_as_xyz
  1  'x, y, z'
loop_
 _atom_site_type_symbol
 _atom_site_label
 _atom_site_symmetry_multiplicity
 _atom_site_fract_x
 _atom_site_fract_y
 _atom_site_fract_z
 _atom_site_occupancy
  Pa  Pa0  1  0.250000  0.250000  0.250000  1
  Zn  Zn1  1  0.000000  0.000000  0.000000  1
  Ni  Ni2  1  0.001496  0.001496  0.658961  1
  Ni  Ni3  1  0.390936  0.827193  0.390936  1
  Ni  Ni4  1  0.658961  0.338046  0.001496  1
  Ni  Ni5  1  0.001496  0.338046  0.658961  1
  Ni  Ni6  1  0.658961  0.001496  0.001496  1
  Ni  Ni7  1  0.001496  0.001496  0.338046  1
  Ni  Ni8  1  0.658961  0.001496  0.338046  1
  Ni  Ni9  1  0.001496  0.338046  0.001496  1
  Ni  Ni10  1  0.001496  0.658961  0.338046  1
  Ni  Ni11  1  0.338046  0.001496  0.001496  1
  Ni  Ni12  1  0.001496  0.658961  0.001496  1
  Ni  Ni13  1  0.338046  0.001496  0.658961  1
  Ni  Ni14  1  0.390936  0.390936  0.390936  1
  Ni  Ni15  1  0.338046  0.658961  0.001496  1
  Ni  Ni16  1  0.622638  0.132088  0.622638  1
  Ni  Ni17  1  0.390936  0.390936  0.827193  1
  Ni  Ni18  1  0.827193  0.390936  0.390936  1
  Ni  Ni19  1  0.622638  0.622638  0.622638  1
  Ni  Ni20  1  0.132088  0.622638  0.622638  1
  Ni  Ni21  1  0.622638  0.622638  0.132088  1
  Ge  Ge22  1  0.750000  0.750000  0.750000  1
  B  B23  1  0.730417  0.730417  0.269583  1
  B  B24  1  0.730417  0.269583  0.730417  1
  B  B25  1  0.269583  0.730417  0.269583  1
  B  B26  1  0.730417  0.269583  0.269583  1
  B  B27  1  0.269583  0.730417  0.730417  1
  B  B28  1  0.269583  0.269583  0.730417  1
