# generated using pymatgen
data_CaTb2Yb(NiB4)4
_symmetry_space_group_name_H-M   'P 1'
_cell_length_a   6.83705346
_cell_length_b   6.83705212
_cell_length_c   6.83705331
_cell_angle_alpha   112.85963423
_cell_angle_beta   112.85962401
_cell_angle_gamma   102.88827007
_symmetry_Int_Tables_number   1
_chemical_formula_structural   CaTb2Yb(NiB4)4
_chemical_formula_sum   'Ca1 Tb2 Yb1 Ni4 B16'
_cell_volume   243.63101936
_cell_formula_units_Z   1
loop_
 _symmetry_equiv_pos_site_id
 _symmetry_equiv_pos_as_xyz
  1  'x, y, z'
loop_
 _atom_site_type_symbol
 _atom_site_label
 _atom_site_symmetry_multiplicity
 _atom_site_fract_x
 _atom_site_fract_y
 _atom_site_fract_z
 _atom_site_occupancy
  Ca  Ca0  1  0.797982  0.797982  0.000000  1
  Tb  Tb1  1  0.749551  0.249551  0.500000  1
  Tb  Tb2  1  0.249551  0.749551  0.500000  1
  Yb  Yb3  1  0.205440  0.205440  0.000000  1
  Ni  Ni4  1  0.271683  0.498671  0.773012  1
  Ni  Ni5  1  0.725659  0.498671  0.226988  1
  Ni  Ni6  1  0.498671  0.725659  0.226988  1
  Ni  Ni7  1  0.498671  0.271683  0.773012  1
  B  B8  1  0.276847  0.112627  0.388888  1
  B  B9  1  0.723739  0.887959  0.611112  1
  B  B10  1  0.276847  0.887959  0.164221  1
  B  B11  1  0.723739  0.112627  0.835779  1
  B  B12  1  0.112627  0.723739  0.835779  1
  B  B13  1  0.887959  0.276847  0.164221  1
  B  B14  1  0.112627  0.276847  0.388888  1
  B  B15  1  0.887959  0.723739  0.611112  1
  B  B16  1  0.113432  0.113432  0.530441  1
  B  B17  1  0.582989  0.582989  0.469559  1
  B  B18  1  0.113432  0.582989  0.000000  1
  B  B19  1  0.582989  0.113432  0.000000  1
  B  B20  1  0.887349  0.887349  0.470894  1
  B  B21  1  0.416456  0.416456  0.529106  1
  B  B22  1  0.887349  0.416456  0.000000  1
  B  B23  1  0.416456  0.887349  0.000000  1
