# generated using pymatgen
data_Ce8RuSe17
_symmetry_space_group_name_H-M   'P 1'
_cell_length_a   8.30548103
_cell_length_b   8.30548006
_cell_length_c   11.00611518
_cell_angle_alpha   81.05265526
_cell_angle_beta   81.05265458
_cell_angle_gamma   64.73212975
_symmetry_Int_Tables_number   1
_chemical_formula_structural   Ce8RuSe17
_chemical_formula_sum   'Ce8 Ru1 Se17'
_cell_volume   674.83354987
_cell_formula_units_Z   1
loop_
 _symmetry_equiv_pos_site_id
 _symmetry_equiv_pos_as_xyz
  1  'x, y, z'
loop_
 _atom_site_type_symbol
 _atom_site_label
 _atom_site_symmetry_multiplicity
 _atom_site_fract_x
 _atom_site_fract_y
 _atom_site_fract_z
 _atom_site_occupancy
  Ce  Ce0  1  0.815531  0.301997  0.294018  1
  Ce  Ce1  1  0.301997  0.815531  0.294018  1
  Ce  Ce2  1  0.184469  0.698003  0.705982  1
  Ce  Ce3  1  0.698003  0.184469  0.705982  1
  Ce  Ce4  1  0.204472  0.204472  0.544473  1
  Ce  Ce5  1  0.795528  0.795528  0.455527  1
  Ce  Ce6  1  0.681687  0.681687  0.979081  1
  Ce  Ce7  1  0.318313  0.318313  0.020919  1
  Ru  Ru8  1  0.000000  0.000000  0.000000  1
  Se  Se9  1  0.819682  0.432421  0.533642  1
  Se  Se10  1  0.432421  0.819682  0.533642  1
  Se  Se11  1  0.180318  0.567579  0.466358  1
  Se  Se12  1  0.567579  0.180318  0.466358  1
  Se  Se13  1  0.944413  0.319215  0.025145  1
  Se  Se14  1  0.319215  0.944413  0.025145  1
  Se  Se15  1  0.055587  0.680785  0.974855  1
  Se  Se16  1  0.680785  0.055587  0.974855  1
  Se  Se17  1  0.210107  0.210107  0.277658  1
  Se  Se18  1  0.789893  0.789893  0.722342  1
  Se  Se19  1  0.059900  0.059900  0.774061  1
  Se  Se20  1  0.940100  0.940100  0.225939  1
  Se  Se21  1  0.301365  0.301365  0.758449  1
  Se  Se22  1  0.698635  0.698635  0.241551  1
  Se  Se23  1  0.522207  0.522207  0.831967  1
  Se  Se24  1  0.477793  0.477793  0.168033  1
  Se  Se25  1  0.000000  0.000000  0.500000  1
