# generated using pymatgen
data_Ho3Lu(Si4Tc3)2
_symmetry_space_group_name_H-M   'P 1'
_cell_length_a   6.77217364
_cell_length_b   6.74718770
_cell_length_c   6.76526526
_cell_angle_alpha   69.85895542
_cell_angle_beta   89.95141674
_cell_angle_gamma   90.06659678
_symmetry_Int_Tables_number   1
_chemical_formula_structural   Ho3Lu(Si4Tc3)2
_chemical_formula_sum   'Ho3 Lu1 Si8 Tc6'
_cell_volume   290.22193594
_cell_formula_units_Z   1
loop_
 _symmetry_equiv_pos_site_id
 _symmetry_equiv_pos_as_xyz
  1  'x, y, z'
loop_
 _atom_site_type_symbol
 _atom_site_label
 _atom_site_symmetry_multiplicity
 _atom_site_fract_x
 _atom_site_fract_y
 _atom_site_fract_z
 _atom_site_occupancy
  Ho  Ho0  1  0.167572  0.058057  0.808357  1
  Ho  Ho1  1  0.332590  0.557869  0.808682  1
  Ho  Ho2  1  0.832187  0.942203  0.191370  1
  Lu  Lu3  1  0.668660  0.442368  0.192540  1
  Si  Si4  1  0.449362  0.123352  0.103050  1
  Si  Si5  1  0.948411  0.377581  0.898433  1
  Si  Si6  1  0.551256  0.876753  0.898169  1
  Si  Si7  1  0.049749  0.622084  0.102749  1
  Si  Si8  1  0.857857  0.132624  0.511719  1
  Si  Si9  1  0.359626  0.368418  0.486585  1
  Si  Si10  1  0.141480  0.868442  0.486942  1
  Si  Si11  1  0.641452  0.630900  0.511450  1
  Tc  Tc12  1  0.500567  0.001438  0.499188  1
  Tc  Tc13  1  0.999116  0.499900  0.499419  1
  Tc  Tc14  1  0.149851  0.243095  0.239268  1
  Tc  Tc15  1  0.650238  0.257276  0.761930  1
  Tc  Tc16  1  0.849025  0.756440  0.761273  1
  Tc  Tc17  1  0.351000  0.741201  0.238876  1
