# generated using pymatgen
data_Nd2PaRu3
_symmetry_space_group_name_H-M   'P 1'
_cell_length_a   5.97139905
_cell_length_b   5.33688219
_cell_length_c   5.97139900
_cell_angle_alpha   55.98247261
_cell_angle_beta   59.99999474
_cell_angle_gamma   55.98247839
_symmetry_Int_Tables_number   1
_chemical_formula_structural   Nd2PaRu3
_chemical_formula_sum   'Nd2 Pa1 Ru3'
_cell_volume   125.80279224
_cell_formula_units_Z   1
loop_
 _symmetry_equiv_pos_site_id
 _symmetry_equiv_pos_as_xyz
  1  'x, y, z'
loop_
 _atom_site_type_symbol
 _atom_site_label
 _atom_site_symmetry_multiplicity
 _atom_site_fract_x
 _atom_site_fract_y
 _atom_site_fract_z
 _atom_site_occupancy
  Nd  Nd0  1  0.749908  0.750275  0.749908  1
  Nd  Nd1  1  0.500092  0.499725  0.500092  1
  Pa  Pa2  1  0.125000  0.625000  0.125000  1
  Ru  Ru3  1  0.125000  0.125000  0.625000  1
  Ru  Ru4  1  0.125000  0.125000  0.125000  1
  Ru  Ru5  1  0.625000  0.125000  0.125000  1
