# generated using pymatgen
data_Dy10Y2IrPt3
_symmetry_space_group_name_H-M   'P 1'
_cell_length_a   6.46881700
_cell_length_b   7.09206558
_cell_length_c   9.54709600
_cell_angle_alpha   90.00000000
_cell_angle_beta   90.00000000
_cell_angle_gamma   89.92750472
_symmetry_Int_Tables_number   1
_chemical_formula_structural   Dy10Y2IrPt3
_chemical_formula_sum   'Dy10 Y2 Ir1 Pt3'
_cell_volume   437.99439251
_cell_formula_units_Z   1
loop_
 _symmetry_equiv_pos_site_id
 _symmetry_equiv_pos_as_xyz
  1  'x, y, z'
loop_
 _atom_site_type_symbol
 _atom_site_label
 _atom_site_symmetry_multiplicity
 _atom_site_fract_x
 _atom_site_fract_y
 _atom_site_fract_z
 _atom_site_occupancy
  Dy  Dy0  1  0.325560  0.680793  0.059076  1
  Dy  Dy1  1  0.174432  0.179690  0.439272  1
  Dy  Dy2  1  0.674131  0.322701  0.563593  1
  Dy  Dy3  1  0.822092  0.817719  0.936900  1
  Dy  Dy4  1  0.674131  0.322701  0.936407  1
  Dy  Dy5  1  0.822092  0.817719  0.563100  1
  Dy  Dy6  1  0.325560  0.680793  0.440924  1
  Dy  Dy7  1  0.174432  0.179690  0.060728  1
  Dy  Dy8  1  0.136975  0.472045  0.750000  1
  Dy  Dy9  1  0.369788  0.965399  0.750000  1
  Y  Y10  1  0.867279  0.527730  0.250000  1
  Y  Y11  1  0.633055  0.028767  0.250000  1
  Ir  Ir12  1  0.551177  0.614583  0.750000  1
  Pt  Pt13  1  0.055043  0.887494  0.250000  1
  Pt  Pt14  1  0.444111  0.388535  0.250000  1
  Pt  Pt15  1  0.950144  0.113640  0.750000  1
