# generated using pymatgen
data_Zr6Zn18SbIr5
_symmetry_space_group_name_H-M   'P 1'
_cell_length_a   8.82875391
_cell_length_b   8.82875206
_cell_length_c   8.82875322
_cell_angle_alpha   59.95454057
_cell_angle_beta   59.95453894
_cell_angle_gamma   59.95454244
_symmetry_Int_Tables_number   1
_chemical_formula_structural   Zr6Zn18SbIr5
_chemical_formula_sum   'Zr6 Zn18 Sb1 Ir5'
_cell_volume   486.11064946
_cell_formula_units_Z   1
loop_
 _symmetry_equiv_pos_site_id
 _symmetry_equiv_pos_as_xyz
  1  'x, y, z'
loop_
 _atom_site_type_symbol
 _atom_site_label
 _atom_site_symmetry_multiplicity
 _atom_site_fract_x
 _atom_site_fract_y
 _atom_site_fract_z
 _atom_site_occupancy
  Zr  Zr0  1  0.724043  0.271957  0.271957  1
  Zr  Zr1  1  0.275957  0.728043  0.728043  1
  Zr  Zr2  1  0.271957  0.724043  0.271957  1
  Zr  Zr3  1  0.728043  0.275957  0.728043  1
  Zr  Zr4  1  0.271957  0.271957  0.724043  1
  Zr  Zr5  1  0.728043  0.728043  0.275957  1
  Zn  Zn6  1  0.125627  0.125627  0.620490  1
  Zn  Zn7  1  0.125627  0.620490  0.125627  1
  Zn  Zn8  1  0.874373  0.874373  0.379510  1
  Zn  Zn9  1  0.874373  0.379510  0.874373  1
  Zn  Zn10  1  0.620490  0.125627  0.125627  1
  Zn  Zn11  1  0.379510  0.874373  0.874373  1
  Zn  Zn12  1  0.500000  0.000000  0.000000  1
  Zn  Zn13  1  0.000000  0.500000  0.000000  1
  Zn  Zn14  1  0.000000  0.000000  0.500000  1
  Zn  Zn15  1  0.340476  0.340476  0.340476  1
  Zn  Zn16  1  0.659524  0.659524  0.659524  1
  Zn  Zn17  1  0.334873  0.334873  0.985913  1
  Zn  Zn18  1  0.334873  0.985913  0.334873  1
  Zn  Zn19  1  0.665127  0.665127  0.014087  1
  Zn  Zn20  1  0.665127  0.014087  0.665127  1
  Zn  Zn21  1  0.985913  0.334873  0.334873  1
  Zn  Zn22  1  0.014087  0.665127  0.665127  1
  Zn  Zn23  1  0.000000  0.000000  0.000000  1
  Sb  Sb24  1  0.500000  0.500000  0.500000  1
  Ir  Ir25  1  0.118771  0.118771  0.118771  1
  Ir  Ir26  1  0.881229  0.881229  0.881229  1
  Ir  Ir27  1  0.000000  0.500000  0.500000  1
  Ir  Ir28  1  0.500000  0.000000  0.500000  1
  Ir  Ir29  1  0.500000  0.500000  0.000000  1
