# generated using pymatgen
data_Eu2MgZnRh2
_symmetry_space_group_name_H-M   'P 1'
_cell_length_a   4.20001000
_cell_length_b   7.25042200
_cell_length_c   8.42839500
_cell_angle_alpha   90.00000000
_cell_angle_beta   90.00000000
_cell_angle_gamma   90.00000000
_symmetry_Int_Tables_number   1
_chemical_formula_structural   Eu2MgZnRh2
_chemical_formula_sum   'Eu4 Mg2 Zn2 Rh4'
_cell_volume   256.66017733
_cell_formula_units_Z   2
loop_
 _symmetry_equiv_pos_site_id
 _symmetry_equiv_pos_as_xyz
  1  'x, y, z'
loop_
 _atom_site_type_symbol
 _atom_site_label
 _atom_site_symmetry_multiplicity
 _atom_site_fract_x
 _atom_site_fract_y
 _atom_site_fract_z
 _atom_site_occupancy
  Eu  Eu0  1  0.250000  0.032303  0.321658  1
  Eu  Eu1  1  0.250000  0.532303  0.178342  1
  Eu  Eu2  1  0.750000  0.973178  0.676584  1
  Eu  Eu3  1  0.750000  0.473178  0.823416  1
  Mg  Mg4  1  0.250000  0.133426  0.943485  1
  Mg  Mg5  1  0.250000  0.633426  0.556515  1
  Zn  Zn6  1  0.750000  0.864494  0.058774  1
  Zn  Zn7  1  0.750000  0.364494  0.441226  1
  Rh  Rh8  1  0.250000  0.268190  0.625063  1
  Rh  Rh9  1  0.250000  0.768190  0.874937  1
  Rh  Rh10  1  0.750000  0.728409  0.363876  1
  Rh  Rh11  1  0.750000  0.228409  0.136124  1
