# generated using pymatgen
data_Cs3Rb13(SnSe4)4
_symmetry_space_group_name_H-M   'P 1'
_cell_length_a   8.77201621
_cell_length_b   10.75169516
_cell_length_c   15.87292153
_cell_angle_alpha   90.22516050
_cell_angle_beta   90.31710421
_cell_angle_gamma   90.25174360
_symmetry_Int_Tables_number   1
_chemical_formula_structural   Cs3Rb13(SnSe4)4
_chemical_formula_sum   'Cs3 Rb13 Sn4 Se16'
_cell_volume   1496.99034212
_cell_formula_units_Z   1
loop_
 _symmetry_equiv_pos_site_id
 _symmetry_equiv_pos_as_xyz
  1  'x, y, z'
loop_
 _atom_site_type_symbol
 _atom_site_label
 _atom_site_symmetry_multiplicity
 _atom_site_fract_x
 _atom_site_fract_y
 _atom_site_fract_z
 _atom_site_occupancy
  Cs  Cs0  1  0.000000  0.000000  0.000000  1
  Cs  Cs1  1  0.500000  0.000000  0.500000  1
  Cs  Cs2  1  0.000000  0.500000  0.000000  1
  Rb  Rb3  1  0.500000  0.500000  0.500000  1
  Rb  Rb4  1  0.977755  0.750826  0.423916  1
  Rb  Rb5  1  0.475482  0.251967  0.076509  1
  Rb  Rb6  1  0.022245  0.249174  0.576084  1
  Rb  Rb7  1  0.524518  0.748033  0.923491  1
  Rb  Rb8  1  0.830112  0.053759  0.270905  1
  Rb  Rb9  1  0.328849  0.950472  0.231247  1
  Rb  Rb10  1  0.168436  0.547842  0.726505  1
  Rb  Rb11  1  0.670042  0.446568  0.769174  1
  Rb  Rb12  1  0.169888  0.946241  0.729095  1
  Rb  Rb13  1  0.671151  0.049528  0.768753  1
  Rb  Rb14  1  0.831564  0.452158  0.273495  1
  Rb  Rb15  1  0.329958  0.553432  0.230826  1
  Sn  Sn16  1  0.771735  0.746767  0.665401  1
  Sn  Sn17  1  0.228265  0.253233  0.334599  1
  Sn  Sn18  1  0.723563  0.750871  0.169258  1
  Sn  Sn19  1  0.276437  0.249129  0.830742  1
  Se  Se20  1  0.982443  0.247904  0.820130  1
  Se  Se21  1  0.522226  0.252378  0.325758  1
  Se  Se22  1  0.477774  0.747622  0.674242  1
  Se  Se23  1  0.017557  0.752096  0.179870  1
  Se  Se24  1  0.632116  0.555889  0.091999  1
  Se  Se25  1  0.139736  0.447034  0.413178  1
  Se  Se26  1  0.370022  0.056070  0.908953  1
  Se  Se27  1  0.868804  0.941080  0.589950  1
  Se  Se28  1  0.367884  0.444111  0.908001  1
  Se  Se29  1  0.860264  0.552966  0.586822  1
  Se  Se30  1  0.629978  0.943930  0.091047  1
  Se  Se31  1  0.131196  0.058920  0.410050  1
  Se  Se32  1  0.615334  0.751773  0.320981  1
  Se  Se33  1  0.119374  0.253783  0.182284  1
  Se  Se34  1  0.384666  0.248227  0.679019  1
  Se  Se35  1  0.880626  0.746217  0.817716  1
