# generated using pymatgen
data_Hf18Re8IrPt
_symmetry_space_group_name_H-M   'P 1'
_cell_length_a   8.56292100
_cell_length_b   8.66384782
_cell_length_c   8.66384700
_cell_angle_alpha   120.00030823
_cell_angle_beta   90.00000000
_cell_angle_gamma   90.00000000
_symmetry_Int_Tables_number   1
_chemical_formula_structural   Hf18Re8IrPt
_chemical_formula_sum   'Hf18 Re8 Ir1 Pt1'
_cell_volume   556.63794699
_cell_formula_units_Z   1
loop_
 _symmetry_equiv_pos_site_id
 _symmetry_equiv_pos_as_xyz
  1  'x, y, z'
loop_
 _atom_site_type_symbol
 _atom_site_label
 _atom_site_symmetry_multiplicity
 _atom_site_fract_x
 _atom_site_fract_y
 _atom_site_fract_z
 _atom_site_occupancy
  Hf  Hf0  1  0.553149  0.806314  0.612635  1
  Hf  Hf1  1  0.553138  0.806319  0.193681  1
  Hf  Hf2  1  0.553149  0.387365  0.193686  1
  Hf  Hf3  1  0.445284  0.195610  0.391222  1
  Hf  Hf4  1  0.445293  0.195612  0.804388  1
  Hf  Hf5  1  0.445284  0.608778  0.804390  1
  Hf  Hf6  1  0.054716  0.195610  0.391222  1
  Hf  Hf7  1  0.054707  0.195612  0.804388  1
  Hf  Hf8  1  0.054716  0.608778  0.804390  1
  Hf  Hf9  1  0.946851  0.806314  0.612635  1
  Hf  Hf10  1  0.946862  0.806319  0.193681  1
  Hf  Hf11  1  0.946851  0.387365  0.193686  1
  Hf  Hf12  1  0.750000  0.457831  0.915641  1
  Hf  Hf13  1  0.750000  0.457817  0.542183  1
  Hf  Hf14  1  0.750000  0.084359  0.542169  1
  Hf  Hf15  1  0.250000  0.541890  0.083803  1
  Hf  Hf16  1  0.250000  0.541900  0.458100  1
  Hf  Hf17  1  0.250000  0.916197  0.458110  1
  Re  Re18  1  0.750000  0.110172  0.220339  1
  Re  Re19  1  0.750000  0.110170  0.889830  1
  Re  Re20  1  0.750000  0.779661  0.889828  1
  Re  Re21  1  0.250000  0.890314  0.780623  1
  Re  Re22  1  0.250000  0.890321  0.109679  1
  Re  Re23  1  0.250000  0.219377  0.109686  1
  Re  Re24  1  0.499877  0.999997  0.000003  1
  Re  Re25  1  0.000123  0.999997  0.000003  1
  Ir  Ir26  1  0.250000  0.333331  0.666669  1
  Pt  Pt27  1  0.750000  0.666672  0.333328  1
