# generated using pymatgen
data_Nd2MgCo8P6Ru
_symmetry_space_group_name_H-M   'P 1'
_cell_length_a   3.74714200
_cell_length_b   10.58439700
_cell_length_c   12.04684400
_cell_angle_alpha   90.00000000
_cell_angle_beta   90.00000000
_cell_angle_gamma   90.00000000
_symmetry_Int_Tables_number   1
_chemical_formula_structural   Nd2MgCo8P6Ru
_chemical_formula_sum   'Nd4 Mg2 Co16 P12 Ru2'
_cell_volume   477.79275358
_cell_formula_units_Z   2
loop_
 _symmetry_equiv_pos_site_id
 _symmetry_equiv_pos_as_xyz
  1  'x, y, z'
loop_
 _atom_site_type_symbol
 _atom_site_label
 _atom_site_symmetry_multiplicity
 _atom_site_fract_x
 _atom_site_fract_y
 _atom_site_fract_z
 _atom_site_occupancy
  Nd  Nd0  1  0.250000  0.582549  0.700335  1
  Nd  Nd1  1  0.250000  0.917451  0.200335  1
  Nd  Nd2  1  0.750000  0.415775  0.295518  1
  Nd  Nd3  1  0.750000  0.084225  0.795518  1
  Mg  Mg4  1  0.250000  0.702751  0.991795  1
  Mg  Mg5  1  0.250000  0.797249  0.491795  1
  Co  Co6  1  0.250000  0.399462  0.490216  1
  Co  Co7  1  0.250000  0.100538  0.990216  1
  Co  Co8  1  0.750000  0.581140  0.508369  1
  Co  Co9  1  0.750000  0.918860  0.008369  1
  Co  Co10  1  0.250000  0.223704  0.174386  1
  Co  Co11  1  0.250000  0.276296  0.674386  1
  Co  Co12  1  0.750000  0.779995  0.830492  1
  Co  Co13  1  0.750000  0.720005  0.330492  1
  Co  Co14  1  0.250000  0.887343  0.700261  1
  Co  Co15  1  0.250000  0.612657  0.200261  1
  Co  Co16  1  0.750000  0.116705  0.297649  1
  Co  Co17  1  0.750000  0.383295  0.797649  1
  Co  Co18  1  0.250000  0.463376  0.930721  1
  Co  Co19  1  0.250000  0.036624  0.430721  1
  Co  Co20  1  0.750000  0.532644  0.064688  1
  Co  Co21  1  0.750000  0.967356  0.564688  1
  P  P22  1  0.250000  0.420545  0.109030  1
  P  P23  1  0.250000  0.079455  0.609030  1
  P  P24  1  0.750000  0.575571  0.883620  1
  P  P25  1  0.750000  0.924429  0.383620  1
  P  P26  1  0.250000  0.273607  0.864583  1
  P  P27  1  0.250000  0.226393  0.364583  1
  P  P28  1  0.750000  0.717502  0.148388  1
  P  P29  1  0.750000  0.782498  0.648388  1
  P  P30  1  0.250000  0.593008  0.394900  1
  P  P31  1  0.250000  0.906992  0.894900  1
  P  P32  1  0.750000  0.395752  0.606923  1
  P  P33  1  0.750000  0.104248  0.106923  1
  Ru  Ru34  1  0.750000  0.291518  0.008127  1
  Ru  Ru35  1  0.750000  0.208482  0.508127  1
