# generated using pymatgen
data_TbLuBe2Co5
_symmetry_space_group_name_H-M   'P 1'
_cell_length_a   4.95710255
_cell_length_b   4.95710265
_cell_length_c   11.51018602
_cell_angle_alpha   77.56479261
_cell_angle_beta   77.56479163
_cell_angle_gamma   59.99999203
_symmetry_Int_Tables_number   1
_chemical_formula_structural   TbLuBe2Co5
_chemical_formula_sum   'Tb2 Lu2 Be4 Co10'
_cell_volume   237.25233634
_cell_formula_units_Z   2
loop_
 _symmetry_equiv_pos_site_id
 _symmetry_equiv_pos_as_xyz
  1  'x, y, z'
loop_
 _atom_site_type_symbol
 _atom_site_label
 _atom_site_symmetry_multiplicity
 _atom_site_fract_x
 _atom_site_fract_y
 _atom_site_fract_z
 _atom_site_occupancy
  Tb  Tb0  1  0.949238  0.949238  0.152284  1
  Tb  Tb1  1  0.050762  0.050762  0.847716  1
  Lu  Lu2  1  0.851516  0.851516  0.445451  1
  Lu  Lu3  1  0.148484  0.148484  0.554550  1
  Be  Be4  1  0.719051  0.719051  0.842847  1
  Be  Be5  1  0.280949  0.280949  0.157153  1
  Be  Be6  1  0.614009  0.614009  0.157974  1
  Be  Be7  1  0.385991  0.385991  0.842026  1
  Co  Co8  1  0.500000  0.500000  0.500000  1
  Co  Co9  1  0.000000  0.500000  0.000000  1
  Co  Co10  1  0.500000  0.000000  0.000000  1
  Co  Co11  1  0.500000  0.500000  0.000000  1
  Co  Co12  1  0.393567  0.393567  0.318459  1
  Co  Co13  1  0.894406  0.393567  0.318459  1
  Co  Co14  1  0.393567  0.894406  0.318459  1
  Co  Co15  1  0.606433  0.606433  0.681541  1
  Co  Co16  1  0.105594  0.606433  0.681541  1
  Co  Co17  1  0.606433  0.105594  0.681541  1
