# generated using pymatgen
data_Zr16NiIr7N4
_symmetry_space_group_name_H-M   'P 1'
_cell_length_a   8.86339369
_cell_length_b   8.86339512
_cell_length_c   8.86339463
_cell_angle_alpha   59.33315493
_cell_angle_beta   59.33315369
_cell_angle_gamma   59.33316298
_symmetry_Int_Tables_number   1
_chemical_formula_structural   Zr16NiIr7N4
_chemical_formula_sum   'Zr16 Ni1 Ir7 N4'
_cell_volume   484.88821891
_cell_formula_units_Z   1
loop_
 _symmetry_equiv_pos_site_id
 _symmetry_equiv_pos_as_xyz
  1  'x, y, z'
loop_
 _atom_site_type_symbol
 _atom_site_label
 _atom_site_symmetry_multiplicity
 _atom_site_fract_x
 _atom_site_fract_y
 _atom_site_fract_z
 _atom_site_occupancy
  Zr  Zr0  1  0.099645  0.637926  0.637926  1
  Zr  Zr1  1  0.637926  0.099645  0.637926  1
  Zr  Zr2  1  0.637926  0.637926  0.099645  1
  Zr  Zr3  1  0.617797  0.617797  0.617797  1
  Zr  Zr4  1  0.818047  0.818047  0.184080  1
  Zr  Zr5  1  0.187812  0.187812  0.815281  1
  Zr  Zr6  1  0.818047  0.184080  0.818047  1
  Zr  Zr7  1  0.187812  0.815281  0.187812  1
  Zr  Zr8  1  0.184080  0.818047  0.818047  1
  Zr  Zr9  1  0.815281  0.187812  0.187812  1
  Zr  Zr10  1  0.436330  0.436330  0.068232  1
  Zr  Zr11  1  0.069732  0.069732  0.434155  1
  Zr  Zr12  1  0.436330  0.068232  0.436330  1
  Zr  Zr13  1  0.069732  0.434155  0.069732  1
  Zr  Zr14  1  0.068232  0.436330  0.436330  1
  Zr  Zr15  1  0.434155  0.069732  0.069732  1
  Ni  Ni16  1  0.853158  0.853158  0.853158  1
  Ir  Ir17  1  0.763120  0.403382  0.403382  1
  Ir  Ir18  1  0.403382  0.763120  0.403382  1
  Ir  Ir19  1  0.403382  0.403382  0.763120  1
  Ir  Ir20  1  0.416370  0.416370  0.416370  1
  Ir  Ir21  1  0.475161  0.831956  0.831956  1
  Ir  Ir22  1  0.831956  0.475161  0.831956  1
  Ir  Ir23  1  0.831956  0.831956  0.475161  1
  N  N24  1  0.623738  0.127228  0.127228  1
  N  N25  1  0.127228  0.623738  0.127228  1
  N  N26  1  0.127228  0.127228  0.623738  1
  N  N27  1  0.124439  0.124439  0.124439  1
