# generated using pymatgen
data_Tb6Co2P12Ir13Rh3
_symmetry_space_group_name_H-M   'P 1'
_cell_length_a   3.92485800
_cell_length_b   11.11935834
_cell_length_c   12.78868239
_cell_angle_alpha   90.02816317
_cell_angle_beta   90.00000000
_cell_angle_gamma   90.00000000
_symmetry_Int_Tables_number   1
_chemical_formula_structural   Tb6Co2P12Ir13Rh3
_chemical_formula_sum   'Tb6 Co2 P12 Ir13 Rh3'
_cell_volume   558.12236262
_cell_formula_units_Z   1
loop_
 _symmetry_equiv_pos_site_id
 _symmetry_equiv_pos_as_xyz
  1  'x, y, z'
loop_
 _atom_site_type_symbol
 _atom_site_label
 _atom_site_symmetry_multiplicity
 _atom_site_fract_x
 _atom_site_fract_y
 _atom_site_fract_z
 _atom_site_occupancy
  Tb  Tb0  1  0.000000  0.499943  0.522112  1
  Tb  Tb1  1  0.500000  0.999994  0.477826  1
  Tb  Tb2  1  0.500000  0.816042  0.200557  1
  Tb  Tb3  1  0.500000  0.184396  0.200385  1
  Tb  Tb4  1  0.000000  0.683604  0.799533  1
  Tb  Tb5  1  0.000000  0.316040  0.799510  1
  Co  Co6  1  0.000000  0.499860  0.978693  1
  Co  Co7  1  0.500000  0.000475  0.021488  1
  P  P8  1  0.500000  0.499471  0.881492  1
  P  P9  1  0.000000  0.000471  0.118498  1
  P  P10  1  0.500000  0.500125  0.355448  1
  P  P11  1  0.000000  0.000003  0.644589  1
  P  P12  1  0.500000  0.315371  0.619274  1
  P  P13  1  0.500000  0.684699  0.619308  1
  P  P14  1  0.000000  0.184644  0.380730  1
  P  P15  1  0.000000  0.815347  0.380640  1
  P  P16  1  0.500000  0.851614  0.896652  1
  P  P17  1  0.500000  0.147877  0.896417  1
  P  P18  1  0.000000  0.647964  0.103295  1
  P  P19  1  0.000000  0.352275  0.103384  1
  Ir  Ir20  1  0.500000  0.499963  0.702664  1
  Ir  Ir21  1  0.000000  0.000077  0.297048  1
  Ir  Ir22  1  0.500000  0.661446  0.996972  1
  Ir  Ir23  1  0.000000  0.162844  0.003276  1
  Ir  Ir24  1  0.000000  0.838359  0.003043  1
  Ir  Ir25  1  0.500000  0.292430  0.429388  1
  Ir  Ir26  1  0.500000  0.707451  0.429322  1
  Ir  Ir27  1  0.000000  0.207564  0.570709  1
  Ir  Ir28  1  0.000000  0.792696  0.570648  1
  Ir  Ir29  1  0.500000  0.871595  0.714184  1
  Ir  Ir30  1  0.500000  0.128241  0.713687  1
  Ir  Ir31  1  0.000000  0.628191  0.285676  1
  Ir  Ir32  1  0.000000  0.371398  0.286478  1
  Rh  Rh33  1  0.500000  0.498341  0.175660  1
  Rh  Rh34  1  0.000000  0.000776  0.824539  1
  Rh  Rh35  1  0.500000  0.338408  0.996872  1
