# generated using pymatgen
data_VTcI18
_symmetry_space_group_name_H-M   'P 1'
_cell_length_a   10.09885022
_cell_length_b   10.09885071
_cell_length_c   10.09885217
_cell_angle_alpha   92.89810063
_cell_angle_beta   92.89810423
_cell_angle_gamma   92.89811149
_symmetry_Int_Tables_number   1
_chemical_formula_structural   VTcI18
_chemical_formula_sum   'V1 Tc1 I18'
_cell_volume   1025.85888414
_cell_formula_units_Z   1
loop_
 _symmetry_equiv_pos_site_id
 _symmetry_equiv_pos_as_xyz
  1  'x, y, z'
loop_
 _atom_site_type_symbol
 _atom_site_label
 _atom_site_symmetry_multiplicity
 _atom_site_fract_x
 _atom_site_fract_y
 _atom_site_fract_z
 _atom_site_occupancy
  V  V0  1  0.000000  0.000000  0.000000  1
  Tc  Tc1  1  0.500000  0.500000  0.500000  1
  I  I2  1  0.740975  0.133226  0.614701  1
  I  I3  1  0.980856  0.013689  0.728266  1
  I  I4  1  0.614701  0.740975  0.133226  1
  I  I5  1  0.986311  0.271734  0.019144  1
  I  I6  1  0.728266  0.980856  0.013689  1
  I  I7  1  0.013689  0.728266  0.980856  1
  I  I8  1  0.019144  0.986311  0.271734  1
  I  I9  1  0.866774  0.385299  0.259025  1
  I  I10  1  0.271734  0.019144  0.986311  1
  I  I11  1  0.259025  0.866774  0.385299  1
  I  I12  1  0.133226  0.614701  0.740975  1
  I  I13  1  0.385299  0.259025  0.866774  1
  I  I14  1  0.768413  0.534304  0.490973  1
  I  I15  1  0.534304  0.490973  0.768413  1
  I  I16  1  0.231587  0.465696  0.509027  1
  I  I17  1  0.465696  0.509027  0.231587  1
  I  I18  1  0.490973  0.768413  0.534304  1
  I  I19  1  0.509027  0.231587  0.465696  1
