# generated using pymatgen
data_La2TbNd(AsPt)4
_symmetry_space_group_name_H-M   'P 1'
_cell_length_a   4.35753300
_cell_length_b   4.35753301
_cell_length_c   16.07385600
_cell_angle_alpha   90.00000000
_cell_angle_beta   90.00000000
_cell_angle_gamma   120.00000751
_symmetry_Int_Tables_number   1
_chemical_formula_structural   La2TbNd(AsPt)4
_chemical_formula_sum   'La2 Tb1 Nd1 As4 Pt4'
_cell_volume   264.32122766
_cell_formula_units_Z   1
loop_
 _symmetry_equiv_pos_site_id
 _symmetry_equiv_pos_as_xyz
  1  'x, y, z'
loop_
 _atom_site_type_symbol
 _atom_site_label
 _atom_site_symmetry_multiplicity
 _atom_site_fract_x
 _atom_site_fract_y
 _atom_site_fract_z
 _atom_site_occupancy
  La  La0  1  0.000000  0.000000  0.504713  1
  La  La1  1  0.000000  0.000000  0.995287  1
  Tb  Tb2  1  0.000000  0.000000  0.750000  1
  Nd  Nd3  1  0.000000  0.000000  0.250000  1
  As  As4  1  0.333333  0.666667  0.876503  1
  As  As5  1  0.666667  0.333333  0.119085  1
  As  As6  1  0.666667  0.333333  0.380915  1
  As  As7  1  0.333333  0.666667  0.623497  1
  Pt  Pt8  1  0.333333  0.666667  0.370090  1
  Pt  Pt9  1  0.666667  0.333333  0.645790  1
  Pt  Pt10  1  0.666667  0.333333  0.854210  1
  Pt  Pt11  1  0.333333  0.666667  0.129910  1
