# generated using pymatgen
data_Ac4Si7Ag
_symmetry_space_group_name_H-M   'P 1'
_cell_length_a   8.64743735
_cell_length_b   8.47504925
_cell_length_c   6.28475579
_cell_angle_alpha   69.93587927
_cell_angle_beta   67.01162188
_cell_angle_gamma   43.05249596
_symmetry_Int_Tables_number   1
_chemical_formula_structural   Ac4Si7Ag
_chemical_formula_sum   'Ac4 Si7 Ag1'
_cell_volume   288.23958375
_cell_formula_units_Z   1
loop_
 _symmetry_equiv_pos_site_id
 _symmetry_equiv_pos_as_xyz
  1  'x, y, z'
loop_
 _atom_site_type_symbol
 _atom_site_label
 _atom_site_symmetry_multiplicity
 _atom_site_fract_x
 _atom_site_fract_y
 _atom_site_fract_z
 _atom_site_occupancy
  Ac  Ac0  1  0.747157  0.747157  0.752843  1
  Ac  Ac1  1  0.755700  0.249310  0.750690  1
  Ac  Ac2  1  0.247157  0.247157  0.252843  1
  Ac  Ac3  1  0.249310  0.755700  0.244300  1
  Si  Si4  1  0.663555  0.663555  0.336445  1
  Si  Si5  1  0.835862  0.332529  0.164138  1
  Si  Si6  1  0.676093  0.162846  0.323907  1
  Si  Si7  1  0.162846  0.676093  0.837154  1
  Si  Si8  1  0.332529  0.835862  0.667471  1
  Si  Si9  1  0.162000  0.162000  0.838000  1
  Si  Si10  1  0.833303  0.833303  0.166697  1
  Ag  Ag11  1  0.334485  0.334485  0.665515  1
