# generated using pymatgen
data_Ca5Lu3(Sc3Sn4)4
_symmetry_space_group_name_H-M   'P 1'
_cell_length_a   7.67125272
_cell_length_b   7.94649764
_cell_length_c   14.81448900
_cell_angle_alpha   89.99043928
_cell_angle_beta   90.06999850
_cell_angle_gamma   89.97905167
_symmetry_Int_Tables_number   1
_chemical_formula_structural   Ca5Lu3(Sc3Sn4)4
_chemical_formula_sum   'Ca5 Lu3 Sc12 Sn16'
_cell_volume   903.08445362
_cell_formula_units_Z   1
loop_
 _symmetry_equiv_pos_site_id
 _symmetry_equiv_pos_as_xyz
  1  'x, y, z'
loop_
 _atom_site_type_symbol
 _atom_site_label
 _atom_site_symmetry_multiplicity
 _atom_site_fract_x
 _atom_site_fract_y
 _atom_site_fract_z
 _atom_site_occupancy
  Ca  Ca0  1  0.007200  0.826202  0.594275  1
  Ca  Ca1  1  0.494051  0.322709  0.088351  1
  Ca  Ca2  1  0.993652  0.174327  0.408336  1
  Ca  Ca3  1  0.493871  0.325035  0.406757  1
  Ca  Ca4  1  0.507502  0.674290  0.594440  1
  Lu  Lu5  1  0.996229  0.178979  0.090872  1
  Lu  Lu6  1  0.006360  0.822038  0.906843  1
  Lu  Lu7  1  0.505743  0.681288  0.906561  1
  Sc  Sc8  1  0.165496  0.498631  0.751276  1
  Sc  Sc9  1  0.833392  0.501752  0.248575  1
  Sc  Sc10  1  0.333954  0.997608  0.249003  1
  Sc  Sc11  1  0.666298  0.001144  0.751821  1
  Sc  Sc12  1  0.331593  0.160355  0.629748  1
  Sc  Sc13  1  0.667942  0.840460  0.372436  1
  Sc  Sc14  1  0.167505  0.658597  0.371626  1
  Sc  Sc15  1  0.663510  0.841015  0.125052  1
  Sc  Sc16  1  0.831463  0.340706  0.629998  1
  Sc  Sc17  1  0.333684  0.158117  0.874203  1
  Sc  Sc18  1  0.833597  0.340577  0.873539  1
  Sc  Sc19  1  0.166174  0.658390  0.125746  1
  Sn  Sn20  1  0.026488  0.124071  0.752705  1
  Sn  Sn21  1  0.972893  0.876367  0.247808  1
  Sn  Sn22  1  0.473043  0.626530  0.248761  1
  Sn  Sn23  1  0.525676  0.375790  0.753666  1
  Sn  Sn24  1  0.308728  0.849041  0.755231  1
  Sn  Sn25  1  0.696408  0.146762  0.245529  1
  Sn  Sn26  1  0.188965  0.349556  0.246207  1
  Sn  Sn27  1  0.809345  0.651531  0.755149  1
  Sn  Sn28  1  0.169910  0.457811  0.544430  1
  Sn  Sn29  1  0.830266  0.543272  0.456880  1
  Sn  Sn30  1  0.329783  0.956841  0.456805  1
  Sn  Sn31  1  0.824202  0.544818  0.040517  1
  Sn  Sn32  1  0.669387  0.043377  0.544542  1
  Sn  Sn33  1  0.175632  0.461037  0.955614  1
  Sn  Sn34  1  0.684228  0.038611  0.956437  1
  Sn  Sn35  1  0.315831  0.952365  0.040259  1
