# generated using pymatgen
data_Cs3ErBr6
_symmetry_space_group_name_H-M   'P 1'
_cell_length_a   9.96937500
_cell_length_b   9.96937500
_cell_length_c   8.27949000
_cell_angle_alpha   90.00000000
_cell_angle_beta   90.00000000
_cell_angle_gamma   90.00000000
_symmetry_Int_Tables_number   1
_chemical_formula_structural   Cs3ErBr6
_chemical_formula_sum   'Cs6 Er2 Br12'
_cell_volume   822.88557763
_cell_formula_units_Z   2
loop_
 _symmetry_equiv_pos_site_id
 _symmetry_equiv_pos_as_xyz
  1  'x, y, z'
loop_
 _atom_site_type_symbol
 _atom_site_label
 _atom_site_symmetry_multiplicity
 _atom_site_fract_x
 _atom_site_fract_y
 _atom_site_fract_z
 _atom_site_occupancy
  Cs  Cs0  1  0.000000  0.000000  0.500000  1
  Cs  Cs1  1  0.000000  0.000000  0.000000  1
  Cs  Cs2  1  0.234404  0.585371  0.500000  1
  Cs  Cs3  1  0.765596  0.414629  0.500000  1
  Cs  Cs4  1  0.414629  0.234404  0.000000  1
  Cs  Cs5  1  0.585371  0.765596  0.000000  1
  Er  Er6  1  0.500000  0.000000  0.500000  1
  Er  Er7  1  0.000000  0.500000  0.000000  1
  Br  Br8  1  0.690644  0.058539  0.739410  1
  Br  Br9  1  0.309356  0.941461  0.739410  1
  Br  Br10  1  0.941461  0.690644  0.239410  1
  Br  Br11  1  0.058539  0.309356  0.239410  1
  Br  Br12  1  0.309356  0.941461  0.260590  1
  Br  Br13  1  0.690644  0.058539  0.260590  1
  Br  Br14  1  0.058539  0.309356  0.760590  1
  Br  Br15  1  0.941461  0.690644  0.760590  1
  Br  Br16  1  0.570712  0.731329  0.500000  1
  Br  Br17  1  0.429288  0.268671  0.500000  1
  Br  Br18  1  0.268671  0.570712  0.000000  1
  Br  Br19  1  0.731329  0.429288  0.000000  1
