# generated using pymatgen
data_Ho3Tm8In9Co4
_symmetry_space_group_name_H-M   'P 1'
_cell_length_a   12.87923271
_cell_length_b   12.87923391
_cell_length_c   3.59700700
_cell_angle_alpha   90.00000000
_cell_angle_beta   90.00000000
_cell_angle_gamma   112.15295327
_symmetry_Int_Tables_number   1
_chemical_formula_structural   Ho3Tm8In9Co4
_chemical_formula_sum   'Ho3 Tm8 In9 Co4'
_cell_volume   552.60772175
_cell_formula_units_Z   1
loop_
 _symmetry_equiv_pos_site_id
 _symmetry_equiv_pos_as_xyz
  1  'x, y, z'
loop_
 _atom_site_type_symbol
 _atom_site_label
 _atom_site_symmetry_multiplicity
 _atom_site_fract_x
 _atom_site_fract_y
 _atom_site_fract_z
 _atom_site_occupancy
  Ho  Ho0  1  0.161390  0.838610  0.000000  1
  Ho  Ho1  1  0.313572  0.313448  0.000000  1
  Ho  Ho2  1  0.686552  0.686428  0.000000  1
  Tm  Tm3  1  0.082325  0.417576  0.000000  1
  Tm  Tm4  1  0.917416  0.582313  0.000000  1
  Tm  Tm5  1  0.417687  0.082584  0.000000  1
  Tm  Tm6  1  0.582424  0.917675  0.000000  1
  Tm  Tm7  1  0.624441  0.375559  0.000000  1
  Tm  Tm8  1  0.375507  0.624493  0.000000  1
  Tm  Tm9  1  0.838449  0.161551  0.000000  1
  Tm  Tm10  1  0.999970  0.000030  0.000000  1
  In  In11  1  0.841529  0.369763  0.500000  1
  In  In12  1  0.158650  0.629740  0.500000  1
  In  In13  1  0.370260  0.841350  0.500000  1
  In  In14  1  0.630237  0.158471  0.500000  1
  In  In15  1  0.076435  0.219799  0.500000  1
  In  In16  1  0.923076  0.780070  0.500000  1
  In  In17  1  0.219930  0.076924  0.500000  1
  In  In18  1  0.780201  0.923565  0.500000  1
  In  In19  1  0.500013  0.499987  0.500000  1
  Co  Co20  1  0.246369  0.448842  0.500000  1
  Co  Co21  1  0.753524  0.551116  0.500000  1
  Co  Co22  1  0.448884  0.246476  0.500000  1
  Co  Co23  1  0.551158  0.753631  0.500000  1
