# generated using pymatgen
data_Ta9Ti3P4
_symmetry_space_group_name_H-M   'P 1'
_cell_length_a   10.14836915
_cell_length_b   10.14836915
_cell_length_c   5.03909407
_cell_angle_alpha   90.05312598
_cell_angle_beta   90.05312598
_cell_angle_gamma   89.98892176
_symmetry_Int_Tables_number   1
_chemical_formula_structural   Ta9Ti3P4
_chemical_formula_sum   'Ta18 Ti6 P8'
_cell_volume   518.97280100
_cell_formula_units_Z   2
loop_
 _symmetry_equiv_pos_site_id
 _symmetry_equiv_pos_as_xyz
  1  'x, y, z'
loop_
 _atom_site_type_symbol
 _atom_site_label
 _atom_site_symmetry_multiplicity
 _atom_site_fract_x
 _atom_site_fract_y
 _atom_site_fract_z
 _atom_site_occupancy
  Ta  Ta0  1  0.906194  0.593806  0.500000  1
  Ta  Ta1  1  0.906307  0.406522  0.999917  1
  Ta  Ta2  1  0.594818  0.093073  0.503156  1
  Ta  Ta3  1  0.799951  0.301474  0.498021  1
  Ta  Ta4  1  0.093487  0.406513  0.500000  1
  Ta  Ta5  1  0.093478  0.593693  0.000083  1
  Ta  Ta6  1  0.199066  0.300934  0.000000  1
  Ta  Ta7  1  0.301786  0.799152  0.001133  1
  Ta  Ta8  1  0.300147  0.199853  0.500000  1
  Ta  Ta9  1  0.700848  0.198214  0.998867  1
  Ta  Ta10  1  0.594220  0.905780  0.000000  1
  Ta  Ta11  1  0.699266  0.800734  0.500000  1
  Ta  Ta12  1  0.198526  0.700049  0.501979  1
  Ta  Ta13  1  0.406283  0.093717  0.000000  1
  Ta  Ta14  1  0.500368  0.354702  0.249289  1
  Ta  Ta15  1  0.406927  0.905182  0.496844  1
  Ta  Ta16  1  0.800427  0.699573  0.000000  1
  Ta  Ta17  1  0.145298  0.999632  0.750711  1
  Ti  Ti18  1  0.500201  0.646067  0.250730  1
  Ti  Ti19  1  0.853933  0.999799  0.749270  1
  Ti  Ti20  1  0.644785  0.499459  0.749693  1
  Ti  Ti21  1  0.000541  0.855215  0.250307  1
  Ti  Ti22  1  0.355122  0.499617  0.750177  1
  Ti  Ti23  1  0.000383  0.144878  0.249823  1
  P  P24  1  0.998043  0.795654  0.749907  1
  P  P25  1  0.500161  0.295977  0.750163  1
  P  P26  1  0.204023  0.999839  0.249837  1
  P  P27  1  0.796989  0.999804  0.250290  1
  P  P28  1  0.998000  0.204121  0.750145  1
  P  P29  1  0.704346  0.501957  0.250093  1
  P  P30  1  0.295879  0.502000  0.249855  1
  P  P31  1  0.500196  0.703011  0.749710  1
