# generated using pymatgen
data_Li2CdSiSe4
_symmetry_space_group_name_H-M   'P 1'
_cell_length_a   6.74454300
_cell_length_b   7.20395100
_cell_length_c   8.13721400
_cell_angle_alpha   90.00000000
_cell_angle_beta   90.00000000
_cell_angle_gamma   90.00000000
_symmetry_Int_Tables_number   1
_chemical_formula_structural   Li2CdSiSe4
_chemical_formula_sum   'Li4 Cd2 Si2 Se8'
_cell_volume   395.36572396
_cell_formula_units_Z   2
loop_
 _symmetry_equiv_pos_site_id
 _symmetry_equiv_pos_as_xyz
  1  'x, y, z'
loop_
 _atom_site_type_symbol
 _atom_site_label
 _atom_site_symmetry_multiplicity
 _atom_site_fract_x
 _atom_site_fract_y
 _atom_site_fract_z
 _atom_site_occupancy
  Li  Li0  1  0.624389  0.672731  0.254259  1
  Li  Li1  1  0.624389  0.672731  0.745741  1
  Li  Li2  1  0.124389  0.327269  0.245741  1
  Li  Li3  1  0.124389  0.327269  0.754259  1
  Cd  Cd4  1  0.126168  0.855090  0.500000  1
  Cd  Cd5  1  0.626168  0.144910  0.000000  1
  Si  Si6  1  0.124802  0.826972  0.000000  1
  Si  Si7  1  0.624802  0.173028  0.500000  1
  Se  Se8  1  0.726681  0.869133  0.500000  1
  Se  Se9  1  0.226681  0.130867  0.000000  1
  Se  Se10  1  0.244230  0.668894  0.226014  1
  Se  Se11  1  0.244230  0.668894  0.773986  1
  Se  Se12  1  0.744230  0.331106  0.273986  1
  Se  Se13  1  0.744230  0.331106  0.726014  1
  Se  Se14  1  0.783982  0.805853  0.000000  1
  Se  Se15  1  0.283982  0.194147  0.500000  1
