# generated using pymatgen
data_CeNi2HgPt2
_symmetry_space_group_name_H-M   'P 1'
_cell_length_a   5.20836595
_cell_length_b   5.20836508
_cell_length_c   5.41144200
_cell_angle_alpha   58.70159902
_cell_angle_beta   58.70160480
_cell_angle_gamma   59.52163440
_symmetry_Int_Tables_number   1
_chemical_formula_structural   CeNi2HgPt2
_chemical_formula_sum   'Ce1 Ni2 Hg1 Pt2'
_cell_volume   101.35906515
_cell_formula_units_Z   1
loop_
 _symmetry_equiv_pos_site_id
 _symmetry_equiv_pos_as_xyz
  1  'x, y, z'
loop_
 _atom_site_type_symbol
 _atom_site_label
 _atom_site_symmetry_multiplicity
 _atom_site_fract_x
 _atom_site_fract_y
 _atom_site_fract_z
 _atom_site_occupancy
  Ce  Ce0  1  0.003234  0.003234  0.996766  1
  Ni  Ni1  1  0.625627  0.128210  0.623080  1
  Ni  Ni2  1  0.128210  0.625627  0.623080  1
  Hg  Hg3  1  0.243046  0.243046  0.256954  1
  Pt  Pt4  1  0.624941  0.624941  0.624401  1
  Pt  Pt5  1  0.624941  0.624941  0.125716  1
