# generated using pymatgen
data_Er2CoMoRu2
_symmetry_space_group_name_H-M   'P 1'
_cell_length_a   5.48399707
_cell_length_b   5.15432634
_cell_length_c   5.48399667
_cell_angle_alpha   123.69102963
_cell_angle_beta   118.96204322
_cell_angle_gamma   89.65876586
_symmetry_Int_Tables_number   1
_chemical_formula_structural   Er2CoMoRu2
_chemical_formula_sum   'Er2 Co1 Mo1 Ru2'
_cell_volume   105.24612770
_cell_formula_units_Z   1
loop_
 _symmetry_equiv_pos_site_id
 _symmetry_equiv_pos_as_xyz
  1  'x, y, z'
loop_
 _atom_site_type_symbol
 _atom_site_label
 _atom_site_symmetry_multiplicity
 _atom_site_fract_x
 _atom_site_fract_y
 _atom_site_fract_z
 _atom_site_occupancy
  Er  Er0  1  0.370988  0.114447  0.243458  1
  Er  Er1  1  0.629012  0.885553  0.756542  1
  Co  Co2  1  0.000000  0.500000  0.000000  1
  Mo  Mo3  1  0.000000  0.000000  0.500000  1
  Ru  Ru4  1  0.000000  0.500000  0.500000  1
  Ru  Ru5  1  0.500000  0.500000  0.000000  1
