# generated using pymatgen
data_Er3(LuRu)2
_symmetry_space_group_name_H-M   'P 1'
_cell_length_a   6.23730076
_cell_length_b   7.23256825
_cell_length_c   8.31695349
_cell_angle_alpha   96.92502908
_cell_angle_beta   111.89857939
_cell_angle_gamma   89.90378557
_symmetry_Int_Tables_number   1
_chemical_formula_structural   Er3(LuRu)2
_chemical_formula_sum   'Er6 Lu4 Ru4'
_cell_volume   345.19865390
_cell_formula_units_Z   2
loop_
 _symmetry_equiv_pos_site_id
 _symmetry_equiv_pos_as_xyz
  1  'x, y, z'
loop_
 _atom_site_type_symbol
 _atom_site_label
 _atom_site_symmetry_multiplicity
 _atom_site_fract_x
 _atom_site_fract_y
 _atom_site_fract_z
 _atom_site_occupancy
  Er  Er0  1  0.523625  0.083313  0.814108  1
  Er  Er1  1  0.476375  0.916687  0.185892  1
  Er  Er2  1  0.709145  0.416274  0.186240  1
  Er  Er3  1  0.290855  0.583726  0.813760  1
  Er  Er4  1  0.294459  0.315197  0.434509  1
  Er  Er5  1  0.705541  0.684803  0.565491  1
  Lu  Lu6  1  0.860982  0.183670  0.565289  1
  Lu  Lu7  1  0.139018  0.816330  0.434711  1
  Lu  Lu8  1  0.080043  0.250314  0.999466  1
  Lu  Lu9  1  0.919957  0.749686  0.000534  1
  Ru  Ru10  1  0.319551  0.577365  0.218571  1
  Ru  Ru11  1  0.680449  0.422635  0.781429  1
  Ru  Ru12  1  0.102159  0.924592  0.779644  1
  Ru  Ru13  1  0.897841  0.075408  0.220356  1
