# generated using pymatgen
data_Ho8SiGeBr12
_symmetry_space_group_name_H-M   'P 1'
_cell_length_a   4.04308000
_cell_length_b   13.16652100
_cell_length_c   13.96033900
_cell_angle_alpha   90.00285608
_cell_angle_beta   90.00000000
_cell_angle_gamma   90.00000000
_symmetry_Int_Tables_number   1
_chemical_formula_structural   Ho8SiGeBr12
_chemical_formula_sum   'Ho8 Si1 Ge1 Br12'
_cell_volume   743.15488186
_cell_formula_units_Z   1
loop_
 _symmetry_equiv_pos_site_id
 _symmetry_equiv_pos_as_xyz
  1  'x, y, z'
loop_
 _atom_site_type_symbol
 _atom_site_label
 _atom_site_symmetry_multiplicity
 _atom_site_fract_x
 _atom_site_fract_y
 _atom_site_fract_z
 _atom_site_occupancy
  Ho  Ho0  1  0.500000  0.118841  0.340137  1
  Ho  Ho1  1  0.500000  0.881159  0.659863  1
  Ho  Ho2  1  0.500000  0.617872  0.158529  1
  Ho  Ho3  1  0.500000  0.382128  0.841471  1
  Ho  Ho4  1  0.000000  0.118690  0.578726  1
  Ho  Ho5  1  0.000000  0.881310  0.421274  1
  Ho  Ho6  1  0.000000  0.617454  0.922102  1
  Ho  Ho7  1  0.000000  0.382546  0.077898  1
  Si  Si8  1  0.500000  0.500000  0.000000  1
  Ge  Ge9  1  0.500000  0.000000  0.500000  1
  Br  Br10  1  0.500000  0.243729  0.162669  1
  Br  Br11  1  0.500000  0.756271  0.837331  1
  Br  Br12  1  0.500000  0.743893  0.337484  1
  Br  Br13  1  0.500000  0.256107  0.662516  1
  Br  Br14  1  0.000000  0.255796  0.411341  1
  Br  Br15  1  0.000000  0.744204  0.588659  1
  Br  Br16  1  0.000000  0.755759  0.088798  1
  Br  Br17  1  0.000000  0.244241  0.911202  1
  Br  Br18  1  0.000000  0.001568  0.242789  1
  Br  Br19  1  0.000000  0.998432  0.757211  1
  Br  Br20  1  0.000000  0.501717  0.257214  1
  Br  Br21  1  0.000000  0.498283  0.742786  1
