# generated using pymatgen
data_TbHo2As4Pd7
_symmetry_space_group_name_H-M   'P 1'
_cell_length_a   8.10383639
_cell_length_b   8.10383610
_cell_length_c   9.64494342
_cell_angle_alpha   55.65732063
_cell_angle_beta   55.65732211
_cell_angle_gamma   29.48321774
_symmetry_Int_Tables_number   1
_chemical_formula_structural   TbHo2As4Pd7
_chemical_formula_sum   'Tb1 Ho2 As4 Pd7'
_cell_volume   253.20468946
_cell_formula_units_Z   1
loop_
 _symmetry_equiv_pos_site_id
 _symmetry_equiv_pos_as_xyz
  1  'x, y, z'
loop_
 _atom_site_type_symbol
 _atom_site_label
 _atom_site_symmetry_multiplicity
 _atom_site_fract_x
 _atom_site_fract_y
 _atom_site_fract_z
 _atom_site_occupancy
  Tb  Tb0  1  0.000000  0.000000  0.000000  1
  Ho  Ho1  1  0.676955  0.676955  0.329307  1
  Ho  Ho2  1  0.323045  0.323045  0.670693  1
  As  As3  1  0.340515  0.340515  0.251327  1
  As  As4  1  0.659485  0.659485  0.748673  1
  As  As5  1  0.893783  0.893783  0.822556  1
  As  As6  1  0.106217  0.106217  0.177444  1
  Pd  Pd7  1  0.305785  0.305785  0.025823  1
  Pd  Pd8  1  0.694215  0.694215  0.974177  1
  Pd  Pd9  1  0.512658  0.512658  0.704176  1
  Pd  Pd10  1  0.831955  0.831955  0.429321  1
  Pd  Pd11  1  0.487342  0.487342  0.295824  1
  Pd  Pd12  1  0.168045  0.168045  0.570679  1
  Pd  Pd13  1  0.000000  0.000000  0.500000  1
