# generated using pymatgen
data_Nd4Mn2Al(CoO4)5
_symmetry_space_group_name_H-M   'P 1'
_cell_length_a   5.73037916
_cell_length_b   7.51554157
_cell_length_c   8.59144788
_cell_angle_alpha   90.28176326
_cell_angle_beta   90.07260030
_cell_angle_gamma   90.00712807
_symmetry_Int_Tables_number   1
_chemical_formula_structural   Nd4Mn2Al(CoO4)5
_chemical_formula_sum   'Nd4 Mn2 Al1 Co5 O20'
_cell_volume   370.00227678
_cell_formula_units_Z   1
loop_
 _symmetry_equiv_pos_site_id
 _symmetry_equiv_pos_as_xyz
  1  'x, y, z'
loop_
 _atom_site_type_symbol
 _atom_site_label
 _atom_site_symmetry_multiplicity
 _atom_site_fract_x
 _atom_site_fract_y
 _atom_site_fract_z
 _atom_site_occupancy
  Nd  Nd0  1  0.999428  0.353999  0.671488  1
  Nd  Nd1  1  0.000976  0.641730  0.328187  1
  Nd  Nd2  1  0.998892  0.861372  0.826809  1
  Nd  Nd3  1  0.000257  0.137833  0.172994  1
  Mn  Mn4  1  0.741092  0.498475  0.999041  1
  Mn  Mn5  1  0.260951  0.000602  0.501764  1
  Al  Al6  1  0.498248  0.108474  0.858169  1
  Co  Co7  1  0.498562  0.911803  0.148175  1
  Co  Co8  1  0.500319  0.588960  0.649849  1
  Co  Co9  1  0.501448  0.409568  0.349919  1
  Co  Co10  1  0.257880  0.499682  0.998606  1
  Co  Co11  1  0.740576  0.999967  0.500858  1
  O  O12  1  0.249584  0.901162  0.291081  1
  O  O13  1  0.257233  0.098225  0.712421  1
  O  O14  1  0.750482  0.400442  0.207962  1
  O  O15  1  0.750657  0.597323  0.790889  1
  O  O16  1  0.742705  0.096351  0.710513  1
  O  O17  1  0.749093  0.903323  0.293898  1
  O  O18  1  0.249864  0.595945  0.794422  1
  O  O19  1  0.250444  0.402827  0.205600  1
  O  O20  1  0.500660  0.339876  0.930446  1
  O  O21  1  0.496667  0.652816  0.062958  1
  O  O22  1  0.502872  0.843784  0.563044  1
  O  O23  1  0.500757  0.156122  0.435973  1
  O  O24  1  0.284017  0.001253  0.997690  1
  O  O25  1  0.718862  0.500559  0.499105  1
  O  O26  1  0.715705  0.001576  0.997465  1
  O  O27  1  0.281222  0.498860  0.500553  1
  O  O28  1  0.997813  0.156719  0.449179  1
  O  O29  1  0.999186  0.842783  0.551522  1
  O  O30  1  0.000189  0.655688  0.050436  1
  O  O31  1  0.003361  0.341900  0.948985  1
