# generated using pymatgen
data_Ta2Nb4Ga3Si
_symmetry_space_group_name_H-M   'P 1'
_cell_length_a   6.89587200
_cell_length_b   6.89587126
_cell_length_c   3.51139700
_cell_angle_alpha   90.00000000
_cell_angle_beta   90.00000000
_cell_angle_gamma   90.58318997
_symmetry_Int_Tables_number   1
_chemical_formula_structural   Ta2Nb4Ga3Si
_chemical_formula_sum   'Ta2 Nb4 Ga3 Si1'
_cell_volume   166.96897168
_cell_formula_units_Z   1
loop_
 _symmetry_equiv_pos_site_id
 _symmetry_equiv_pos_as_xyz
  1  'x, y, z'
loop_
 _atom_site_type_symbol
 _atom_site_label
 _atom_site_symmetry_multiplicity
 _atom_site_fract_x
 _atom_site_fract_y
 _atom_site_fract_z
 _atom_site_occupancy
  Ta  Ta0  1  0.499186  0.496756  0.000000  1
  Ta  Ta1  1  0.003244  0.000814  0.000000  1
  Nb  Nb2  1  0.664122  0.175990  0.500000  1
  Nb  Nb3  1  0.324010  0.835878  0.500000  1
  Nb  Nb4  1  0.181640  0.318360  0.500000  1
  Nb  Nb5  1  0.824972  0.675028  0.500000  1
  Ga  Ga6  1  0.127993  0.626456  0.000000  1
  Ga  Ga7  1  0.873544  0.372007  0.000000  1
  Ga  Ga8  1  0.627167  0.872833  0.000000  1
  Si  Si9  1  0.374121  0.125879  0.000000  1
