# generated using pymatgen
data_LaTh5Cd23Bi
_symmetry_space_group_name_H-M   'P 1'
_cell_length_a   10.14344472
_cell_length_b   10.14411560
_cell_length_c   10.14411600
_cell_angle_alpha   59.99562237
_cell_angle_beta   60.00219385
_cell_angle_gamma   60.00219111
_symmetry_Int_Tables_number   1
_chemical_formula_structural   LaTh5Cd23Bi
_chemical_formula_sum   'La1 Th5 Cd23 Bi1'
_cell_volume   738.07226481
_cell_formula_units_Z   1
loop_
 _symmetry_equiv_pos_site_id
 _symmetry_equiv_pos_as_xyz
  1  'x, y, z'
loop_
 _atom_site_type_symbol
 _atom_site_label
 _atom_site_symmetry_multiplicity
 _atom_site_fract_x
 _atom_site_fract_y
 _atom_site_fract_z
 _atom_site_occupancy
  La  La0  1  0.224257  0.775743  0.775743  1
  Th  Th1  1  0.777173  0.779301  0.222827  1
  Th  Th2  1  0.220699  0.779301  0.222827  1
  Th  Th3  1  0.778383  0.221617  0.221617  1
  Th  Th4  1  0.220699  0.222827  0.779301  1
  Th  Th5  1  0.777173  0.222827  0.779301  1
  Cd  Cd6  1  0.838776  0.840549  0.481899  1
  Cd  Cd7  1  0.838776  0.481899  0.840549  1
  Cd  Cd8  1  0.483245  0.839462  0.839462  1
  Cd  Cd9  1  0.837831  0.839462  0.839462  1
  Cd  Cd10  1  0.160538  0.162169  0.516755  1
  Cd  Cd11  1  0.160538  0.516755  0.162169  1
  Cd  Cd12  1  0.518101  0.161224  0.161224  1
  Cd  Cd13  1  0.159451  0.161224  0.161224  1
  Cd  Cd14  1  0.624521  0.624524  0.126435  1
  Cd  Cd15  1  0.624521  0.126435  0.624524  1
  Cd  Cd16  1  0.126239  0.623478  0.623478  1
  Cd  Cd17  1  0.626805  0.623478  0.623478  1
  Cd  Cd18  1  0.376522  0.373195  0.873761  1
  Cd  Cd19  1  0.376522  0.873761  0.373195  1
  Cd  Cd20  1  0.873565  0.375479  0.375479  1
  Cd  Cd21  1  0.375476  0.375479  0.375479  1
  Cd  Cd22  1  0.999986  0.000014  0.500456  1
  Cd  Cd23  1  0.499544  0.000014  0.500456  1
  Cd  Cd24  1  0.999331  0.500669  0.500669  1
  Cd  Cd25  1  0.499544  0.500456  0.000014  1
  Cd  Cd26  1  0.999986  0.500456  0.000014  1
  Cd  Cd27  1  0.499331  0.000669  0.000669  1
  Cd  Cd28  1  0.501126  0.498874  0.498874  1
  Bi  Bi29  1  0.001342  0.998658  0.998658  1
