# generated using pymatgen
data_Ho17Tm3Si15Hg
_symmetry_space_group_name_H-M   'P 1'
_cell_length_a   7.40271836
_cell_length_b   7.67118785
_cell_length_c   14.58954602
_cell_angle_alpha   89.95043602
_cell_angle_beta   89.25449947
_cell_angle_gamma   90.09606740
_symmetry_Int_Tables_number   1
_chemical_formula_structural   Ho17Tm3Si15Hg
_chemical_formula_sum   'Ho17 Tm3 Si15 Hg1'
_cell_volume   828.43431197
_cell_formula_units_Z   1
loop_
 _symmetry_equiv_pos_site_id
 _symmetry_equiv_pos_as_xyz
  1  'x, y, z'
loop_
 _atom_site_type_symbol
 _atom_site_label
 _atom_site_symmetry_multiplicity
 _atom_site_fract_x
 _atom_site_fract_y
 _atom_site_fract_z
 _atom_site_occupancy
  Ho  Ho0  1  0.347739  0.011244  0.749451  1
  Ho  Ho1  1  0.977924  0.823537  0.102196  1
  Ho  Ho2  1  0.471940  0.684187  0.401142  1
  Ho  Ho3  1  0.517324  0.312095  0.898838  1
  Ho  Ho4  1  0.029699  0.182147  0.597975  1
  Ho  Ho5  1  0.026678  0.176160  0.899907  1
  Ho  Ho6  1  0.529478  0.316054  0.598171  1
  Ho  Ho7  1  0.476209  0.682744  0.101316  1
  Ho  Ho8  1  0.970297  0.816581  0.400456  1
  Ho  Ho9  1  0.672100  0.830324  0.873533  1
  Ho  Ho10  1  0.181939  0.679659  0.621403  1
  Ho  Ho11  1  0.823226  0.320323  0.126711  1
  Ho  Ho12  1  0.318829  0.178240  0.377759  1
  Ho  Ho13  1  0.324194  0.176820  0.124557  1
  Ho  Ho14  1  0.819840  0.321226  0.377495  1
  Ho  Ho15  1  0.180778  0.675298  0.876886  1
  Ho  Ho16  1  0.681989  0.822308  0.621661  1
  Tm  Tm17  1  0.650076  0.990638  0.250374  1
  Tm  Tm18  1  0.152691  0.510974  0.248592  1
  Tm  Tm19  1  0.847960  0.489649  0.747777  1
  Si  Si20  1  0.769559  0.630537  0.252272  1
  Si  Si21  1  0.269495  0.871190  0.252065  1
  Si  Si22  1  0.732977  0.128593  0.747629  1
  Si  Si23  1  0.228518  0.372187  0.747315  1
  Si  Si24  1  0.022805  0.103762  0.252180  1
  Si  Si25  1  0.523341  0.395187  0.252650  1
  Si  Si26  1  0.476667  0.604374  0.747399  1
  Si  Si27  1  0.976547  0.891984  0.747444  1
  Si  Si28  1  0.354423  0.971727  0.540586  1
  Si  Si29  1  0.653521  0.029866  0.041537  1
  Si  Si30  1  0.147314  0.470587  0.459765  1
  Si  Si31  1  0.162400  0.469517  0.042883  1
  Si  Si32  1  0.646675  0.028328  0.458423  1
  Si  Si33  1  0.347094  0.967796  0.961547  1
  Si  Si34  1  0.854458  0.530063  0.539500  1
  Hg  Hg35  1  0.833295  0.534094  0.960605  1
