# generated using pymatgen
data_HfNb(SiTc)2
_symmetry_space_group_name_H-M   'P 1'
_cell_length_a   3.35591400
_cell_length_b   6.96029395
_cell_length_c   11.90444808
_cell_angle_alpha   89.53468663
_cell_angle_beta   90.00000000
_cell_angle_gamma   90.00000000
_symmetry_Int_Tables_number   1
_chemical_formula_structural   HfNb(SiTc)2
_chemical_formula_sum   'Hf3 Nb3 Si6 Tc6'
_cell_volume   278.05668942
_cell_formula_units_Z   3
loop_
 _symmetry_equiv_pos_site_id
 _symmetry_equiv_pos_as_xyz
  1  'x, y, z'
loop_
 _atom_site_type_symbol
 _atom_site_label
 _atom_site_symmetry_multiplicity
 _atom_site_fract_x
 _atom_site_fract_y
 _atom_site_fract_z
 _atom_site_occupancy
  Hf  Hf0  1  0.500000  0.296162  0.299549  1
  Hf  Hf1  1  0.500000  0.296322  0.700024  1
  Hf  Hf2  1  0.500000  0.798922  0.201084  1
  Nb  Nb3  1  0.500000  0.407408  0.000625  1
  Nb  Nb4  1  0.500000  0.901731  0.501593  1
  Nb  Nb5  1  0.500000  0.795388  0.799408  1
  Si  Si6  1  0.000000  0.992630  0.667486  1
  Si  Si7  1  0.000000  0.498691  0.162811  1
  Si  Si8  1  0.000000  0.501909  0.834992  1
  Si  Si9  1  0.000000  0.996910  0.338066  1
  Si  Si10  1  0.500000  0.005862  0.998060  1
  Si  Si11  1  0.500000  0.502812  0.499012  1
  Tc  Tc12  1  0.000000  0.749209  0.997786  1
  Tc  Tc13  1  0.000000  0.245877  0.501919  1
  Tc  Tc14  1  0.000000  0.626206  0.627659  1
  Tc  Tc15  1  0.000000  0.128132  0.126006  1
  Tc  Tc16  1  0.000000  0.128801  0.871347  1
  Tc  Tc17  1  0.000000  0.627224  0.372574  1
