# generated using pymatgen
data_Dy3Y2IrPb3
_symmetry_space_group_name_H-M   'P 1'
_cell_length_a   9.25593400
_cell_length_b   9.25593352
_cell_length_c   6.88770700
_cell_angle_alpha   90.00000000
_cell_angle_beta   90.00000000
_cell_angle_gamma   119.99999458
_symmetry_Int_Tables_number   1
_chemical_formula_structural   Dy3Y2IrPb3
_chemical_formula_sum   'Dy6 Y4 Ir2 Pb6'
_cell_volume   511.02929304
_cell_formula_units_Z   2
loop_
 _symmetry_equiv_pos_site_id
 _symmetry_equiv_pos_as_xyz
  1  'x, y, z'
loop_
 _atom_site_type_symbol
 _atom_site_label
 _atom_site_symmetry_multiplicity
 _atom_site_fract_x
 _atom_site_fract_y
 _atom_site_fract_z
 _atom_site_occupancy
  Dy  Dy0  1  0.235652  0.235652  0.750000  1
  Dy  Dy1  1  0.000000  0.764348  0.750000  1
  Dy  Dy2  1  0.235652  0.000000  0.250000  1
  Dy  Dy3  1  0.764348  0.000000  0.750000  1
  Dy  Dy4  1  0.764348  0.764348  0.250000  1
  Dy  Dy5  1  0.000000  0.235652  0.250000  1
  Y  Y6  1  0.333333  0.666667  0.500000  1
  Y  Y7  1  0.666667  0.333333  0.500000  1
  Y  Y8  1  0.333333  0.666667  0.000000  1
  Y  Y9  1  0.666667  0.333333  0.000000  1
  Ir  Ir10  1  0.000000  0.000000  0.000000  1
  Ir  Ir11  1  0.000000  0.000000  0.500000  1
  Pb  Pb12  1  0.594409  0.000000  0.250000  1
  Pb  Pb13  1  0.000000  0.594409  0.250000  1
  Pb  Pb14  1  0.594409  0.594409  0.750000  1
  Pb  Pb15  1  0.405591  0.405591  0.250000  1
  Pb  Pb16  1  0.000000  0.405591  0.750000  1
  Pb  Pb17  1  0.405591  0.000000  0.750000  1
