# generated using pymatgen
data_Li3Ac2NdTl3
_symmetry_space_group_name_H-M   'P 1'
_cell_length_a   7.94664600
_cell_length_b   7.94664536
_cell_length_c   4.75637700
_cell_angle_alpha   90.00000000
_cell_angle_beta   90.00000000
_cell_angle_gamma   119.28007837
_symmetry_Int_Tables_number   1
_chemical_formula_structural   Li3Ac2NdTl3
_chemical_formula_sum   'Li3 Ac2 Nd1 Tl3'
_cell_volume   261.98694954
_cell_formula_units_Z   1
loop_
 _symmetry_equiv_pos_site_id
 _symmetry_equiv_pos_as_xyz
  1  'x, y, z'
loop_
 _atom_site_type_symbol
 _atom_site_label
 _atom_site_symmetry_multiplicity
 _atom_site_fract_x
 _atom_site_fract_y
 _atom_site_fract_z
 _atom_site_occupancy
  Li  Li0  1  0.234547  0.007075  0.500000  1
  Li  Li1  1  0.764863  0.764863  0.500000  1
  Li  Li2  1  0.007075  0.234547  0.500000  1
  Ac  Ac3  1  0.997801  0.578500  0.000000  1
  Ac  Ac4  1  0.578500  0.997801  0.000000  1
  Nd  Nd5  1  0.417339  0.417339  0.000000  1
  Tl  Tl6  1  0.337685  0.652049  0.500000  1
  Tl  Tl7  1  0.652049  0.337685  0.500000  1
  Tl  Tl8  1  0.010140  0.010140  0.000000  1
