# generated using pymatgen
data_Tm6Zn4CuPt12
_symmetry_space_group_name_H-M   'P 1'
_cell_length_a   8.14246739
_cell_length_b   8.14246837
_cell_length_c   8.19158300
_cell_angle_alpha   109.35584506
_cell_angle_beta   109.35584002
_cell_angle_gamma   109.45907327
_symmetry_Int_Tables_number   1
_chemical_formula_structural   Tm6Zn4CuPt12
_chemical_formula_sum   'Tm6 Zn4 Cu1 Pt12'
_cell_volume   419.32698584
_cell_formula_units_Z   1
loop_
 _symmetry_equiv_pos_site_id
 _symmetry_equiv_pos_as_xyz
  1  'x, y, z'
loop_
 _atom_site_type_symbol
 _atom_site_label
 _atom_site_symmetry_multiplicity
 _atom_site_fract_x
 _atom_site_fract_y
 _atom_site_fract_z
 _atom_site_occupancy
  Tm  Tm0  1  0.703171  0.703171  0.003587  1
  Tm  Tm1  1  0.301342  0.994962  0.296303  1
  Tm  Tm2  1  0.994962  0.301342  0.296303  1
  Tm  Tm3  1  0.300416  0.300416  0.003587  1
  Tm  Tm4  1  0.698598  0.998472  0.697070  1
  Tm  Tm5  1  0.998472  0.698598  0.697070  1
  Zn  Zn6  1  0.003877  0.003877  0.500540  1
  Zn  Zn7  1  0.998304  0.498304  0.996609  1
  Zn  Zn8  1  0.498304  0.998304  0.996609  1
  Zn  Zn9  1  0.496662  0.496662  0.500540  1
  Cu  Cu10  1  0.332550  0.332550  0.665098  1
  Pt  Pt11  1  0.672110  0.002130  0.332544  1
  Pt  Pt12  1  0.002130  0.672110  0.332544  1
  Pt  Pt13  1  0.667648  0.335880  0.003528  1
  Pt  Pt14  1  0.330413  0.660432  0.332544  1
  Pt  Pt15  1  0.008488  0.333622  0.668379  1
  Pt  Pt16  1  0.335880  0.667648  0.003528  1
  Pt  Pt17  1  0.333622  0.008488  0.668379  1
  Pt  Pt18  1  0.660432  0.330413  0.332544  1
  Pt  Pt19  1  0.667589  0.667589  0.335179  1
  Pt  Pt20  1  0.659892  0.334758  0.668379  1
  Pt  Pt21  1  0.334758  0.659892  0.668379  1
  Pt  Pt22  1  0.000378  0.000378  0.000758  1
