# generated using pymatgen
data_Tb7Ce2Y(Zn2Ru3)2
_symmetry_space_group_name_H-M   'P 1'
_cell_length_a   8.51361768
_cell_length_b   8.34412929
_cell_length_c   8.32187472
_cell_angle_alpha   109.92799845
_cell_angle_beta   109.64314613
_cell_angle_gamma   110.37486736
_symmetry_Int_Tables_number   1
_chemical_formula_structural   Tb7Ce2Y(Zn2Ru3)2
_chemical_formula_sum   'Tb7 Ce2 Y1 Zn4 Ru6'
_cell_volume   446.25964131
_cell_formula_units_Z   1
loop_
 _symmetry_equiv_pos_site_id
 _symmetry_equiv_pos_as_xyz
  1  'x, y, z'
loop_
 _atom_site_type_symbol
 _atom_site_label
 _atom_site_symmetry_multiplicity
 _atom_site_fract_x
 _atom_site_fract_y
 _atom_site_fract_z
 _atom_site_occupancy
  Tb  Tb0  1  0.775742  0.780167  0.773694  1
  Tb  Tb1  1  0.317388  0.564624  0.754066  1
  Tb  Tb2  1  0.751255  0.316685  0.567141  1
  Tb  Tb3  1  0.569124  0.750179  0.314445  1
  Tb  Tb4  1  0.726531  0.503947  0.998662  1
  Tb  Tb5  1  0.999893  0.726305  0.506142  1
  Tb  Tb6  1  0.500453  0.991897  0.721406  1
  Ce  Ce7  1  0.942850  0.249859  0.194269  1
  Ce  Ce8  1  0.198541  0.943414  0.250738  1
  Y  Y9  1  0.253594  0.188071  0.933645  1
  Zn  Zn10  1  0.419324  0.415113  0.412647  1
  Zn  Zn11  1  0.088895  0.491286  0.998175  1
  Zn  Zn12  1  0.000230  0.087664  0.502005  1
  Zn  Zn13  1  0.502281  0.010940  0.090689  1
  Ru  Ru14  1  0.858876  0.109151  0.735019  1
  Ru  Ru15  1  0.754218  0.899280  0.115841  1
  Ru  Ru16  1  0.123138  0.766288  0.907407  1
  Ru  Ru17  1  0.219616  0.589376  0.371397  1
  Ru  Ru18  1  0.365364  0.220497  0.599148  1
  Ru  Ru19  1  0.632688  0.395258  0.253460  1
