# generated using pymatgen
data_NaCd30SbO32
_symmetry_space_group_name_H-M   'P 1'
_cell_length_a   9.59629100
_cell_length_b   9.59629100
_cell_length_c   9.67967000
_cell_angle_alpha   90.00000000
_cell_angle_beta   90.00000000
_cell_angle_gamma   90.00000000
_symmetry_Int_Tables_number   1
_chemical_formula_structural   NaCd30SbO32
_chemical_formula_sum   'Na1 Cd30 Sb1 O32'
_cell_volume   891.38920396
_cell_formula_units_Z   1
loop_
 _symmetry_equiv_pos_site_id
 _symmetry_equiv_pos_as_xyz
  1  'x, y, z'
loop_
 _atom_site_type_symbol
 _atom_site_label
 _atom_site_symmetry_multiplicity
 _atom_site_fract_x
 _atom_site_fract_y
 _atom_site_fract_z
 _atom_site_occupancy
  Na  Na0  1  0.000000  0.000000  0.000000  1
  Cd  Cd1  1  0.000000  0.500000  0.000000  1
  Cd  Cd2  1  0.000000  0.500000  0.500000  1
  Cd  Cd3  1  0.500000  0.000000  0.000000  1
  Cd  Cd4  1  0.500000  0.000000  0.500000  1
  Cd  Cd5  1  0.500000  0.500000  0.000000  1
  Cd  Cd6  1  0.500000  0.500000  0.500000  1
  Cd  Cd7  1  0.000000  0.252333  0.244360  1
  Cd  Cd8  1  0.000000  0.252333  0.755640  1
  Cd  Cd9  1  0.000000  0.747667  0.244360  1
  Cd  Cd10  1  0.000000  0.747667  0.755640  1
  Cd  Cd11  1  0.500000  0.250831  0.248744  1
  Cd  Cd12  1  0.500000  0.250831  0.751256  1
  Cd  Cd13  1  0.500000  0.749169  0.248744  1
  Cd  Cd14  1  0.500000  0.749169  0.751256  1
  Cd  Cd15  1  0.252333  0.000000  0.244360  1
  Cd  Cd16  1  0.252333  0.000000  0.755640  1
  Cd  Cd17  1  0.250831  0.500000  0.248744  1
  Cd  Cd18  1  0.250831  0.500000  0.751256  1
  Cd  Cd19  1  0.747667  0.000000  0.244360  1
  Cd  Cd20  1  0.747667  0.000000  0.755640  1
  Cd  Cd21  1  0.749169  0.500000  0.248744  1
  Cd  Cd22  1  0.749169  0.500000  0.751256  1
  Cd  Cd23  1  0.249402  0.249402  0.000000  1
  Cd  Cd24  1  0.253243  0.253243  0.500000  1
  Cd  Cd25  1  0.249402  0.750598  0.000000  1
  Cd  Cd26  1  0.253243  0.746757  0.500000  1
  Cd  Cd27  1  0.750598  0.249402  0.000000  1
  Cd  Cd28  1  0.746757  0.253243  0.500000  1
  Cd  Cd29  1  0.750598  0.750598  0.000000  1
  Cd  Cd30  1  0.746757  0.746757  0.500000  1
  Sb  Sb31  1  0.000000  0.000000  0.500000  1
  O  O32  1  0.256799  0.000000  0.000000  1
  O  O33  1  0.214525  0.000000  0.500000  1
  O  O34  1  0.251633  0.500000  0.000000  1
  O  O35  1  0.245435  0.500000  0.500000  1
  O  O36  1  0.743201  0.000000  0.000000  1
  O  O37  1  0.785475  0.000000  0.500000  1
  O  O38  1  0.748367  0.500000  0.000000  1
  O  O39  1  0.754565  0.500000  0.500000  1
  O  O40  1  0.247608  0.247608  0.252625  1
  O  O41  1  0.247608  0.247608  0.747375  1
  O  O42  1  0.247608  0.752392  0.252625  1
  O  O43  1  0.247608  0.752392  0.747375  1
  O  O44  1  0.752392  0.247608  0.252625  1
  O  O45  1  0.752392  0.247608  0.747375  1
  O  O46  1  0.752392  0.752392  0.252625  1
  O  O47  1  0.752392  0.752392  0.747375  1
  O  O48  1  0.000000  0.000000  0.286811  1
  O  O49  1  0.000000  0.000000  0.713189  1
  O  O50  1  0.000000  0.500000  0.262409  1
  O  O51  1  0.000000  0.500000  0.737591  1
  O  O52  1  0.500000  0.000000  0.262409  1
  O  O53  1  0.500000  0.000000  0.737591  1
  O  O54  1  0.500000  0.500000  0.255291  1
  O  O55  1  0.500000  0.500000  0.744709  1
  O  O56  1  0.000000  0.256799  0.000000  1
  O  O57  1  0.000000  0.214525  0.500000  1
  O  O58  1  0.000000  0.743201  0.000000  1
  O  O59  1  0.000000  0.785475  0.500000  1
  O  O60  1  0.500000  0.251633  0.000000  1
  O  O61  1  0.500000  0.245435  0.500000  1
  O  O62  1  0.500000  0.748367  0.000000  1
  O  O63  1  0.500000  0.754565  0.500000  1
