# generated using pymatgen
data_Rb4Si2SbAu6
_symmetry_space_group_name_H-M   'P 1'
_cell_length_a   10.23339546
_cell_length_b   10.23339539
_cell_length_c   10.23339577
_cell_angle_alpha   38.08773458
_cell_angle_beta   38.08773363
_cell_angle_gamma   38.08773476
_symmetry_Int_Tables_number   1
_chemical_formula_structural   Rb4Si2SbAu6
_chemical_formula_sum   'Rb4 Si2 Sb1 Au6'
_cell_volume   366.11510720
_cell_formula_units_Z   1
loop_
 _symmetry_equiv_pos_site_id
 _symmetry_equiv_pos_as_xyz
  1  'x, y, z'
loop_
 _atom_site_type_symbol
 _atom_site_label
 _atom_site_symmetry_multiplicity
 _atom_site_fract_x
 _atom_site_fract_y
 _atom_site_fract_z
 _atom_site_occupancy
  Rb  Rb0  1  0.682923  0.682923  0.682923  1
  Rb  Rb1  1  0.317077  0.317077  0.317077  1
  Rb  Rb2  1  0.809187  0.809187  0.809187  1
  Rb  Rb3  1  0.190813  0.190813  0.190813  1
  Si  Si4  1  0.543376  0.543376  0.543376  1
  Si  Si5  1  0.456624  0.456624  0.456624  1
  Sb  Sb6  1  0.000000  0.000000  0.000000  1
  Au  Au7  1  0.232563  0.232563  0.786136  1
  Au  Au8  1  0.786136  0.232563  0.232563  1
  Au  Au9  1  0.232563  0.786136  0.232563  1
  Au  Au10  1  0.767437  0.213864  0.767437  1
  Au  Au11  1  0.767437  0.767437  0.213864  1
  Au  Au12  1  0.213864  0.767437  0.767437  1
