# generated using pymatgen
data_YErGa2Fe2C
_symmetry_space_group_name_H-M   'P 1'
_cell_length_a   5.73254768
_cell_length_b   5.73254670
_cell_length_c   6.95448212
_cell_angle_alpha   53.98497561
_cell_angle_beta   53.98498601
_cell_angle_gamma   40.27638425
_symmetry_Int_Tables_number   1
_chemical_formula_structural   YErGa2Fe2C
_chemical_formula_sum   'Y1 Er1 Ga2 Fe2 C1'
_cell_volume   115.18091592
_cell_formula_units_Z   1
loop_
 _symmetry_equiv_pos_site_id
 _symmetry_equiv_pos_as_xyz
  1  'x, y, z'
loop_
 _atom_site_type_symbol
 _atom_site_label
 _atom_site_symmetry_multiplicity
 _atom_site_fract_x
 _atom_site_fract_y
 _atom_site_fract_z
 _atom_site_occupancy
  Y  Y0  1  0.558128  0.558128  0.713014  1
  Er  Er1  1  0.443855  0.443855  0.283288  1
  Ga  Ga2  1  0.840768  0.840768  0.706616  1
  Ga  Ga3  1  0.159289  0.159289  0.292268  1
  Fe  Fe4  1  0.805864  0.805864  0.087550  1
  Fe  Fe5  1  0.193192  0.193192  0.914136  1
  C  C6  1  0.998904  0.998904  0.003128  1
