# generated using pymatgen
data_Ca3Al2ZnPt6
_symmetry_space_group_name_H-M   'P 1'
_cell_length_a   8.74244791
_cell_length_b   8.74244592
_cell_length_c   8.74244700
_cell_angle_alpha   37.67359551
_cell_angle_beta   37.67361245
_cell_angle_gamma   37.67359999
_symmetry_Int_Tables_number   1
_chemical_formula_structural   Ca3Al2ZnPt6
_chemical_formula_sum   'Ca3 Al2 Zn1 Pt6'
_cell_volume   223.90167163
_cell_formula_units_Z   1
loop_
 _symmetry_equiv_pos_site_id
 _symmetry_equiv_pos_as_xyz
  1  'x, y, z'
loop_
 _atom_site_type_symbol
 _atom_site_label
 _atom_site_symmetry_multiplicity
 _atom_site_fract_x
 _atom_site_fract_y
 _atom_site_fract_z
 _atom_site_occupancy
  Ca  Ca0  1  0.360369  0.360369  0.360369  1
  Ca  Ca1  1  0.500000  0.500000  0.500000  1
  Ca  Ca2  1  0.639631  0.639631  0.639631  1
  Al  Al3  1  0.166470  0.166470  0.166470  1
  Al  Al4  1  0.833530  0.833530  0.833530  1
  Zn  Zn5  1  0.000000  0.000000  0.000000  1
  Pt  Pt6  1  0.577923  0.080871  0.080871  1
  Pt  Pt7  1  0.080871  0.577923  0.080871  1
  Pt  Pt8  1  0.919129  0.919129  0.422077  1
  Pt  Pt9  1  0.080871  0.080871  0.577923  1
  Pt  Pt10  1  0.919129  0.422077  0.919129  1
  Pt  Pt11  1  0.422077  0.919129  0.919129  1
