# generated using pymatgen
data_Sc7Pa(B6Ru)4
_symmetry_space_group_name_H-M   'P 1'
_cell_length_a   3.51225800
_cell_length_b   8.91074353
_cell_length_c   11.23759701
_cell_angle_alpha   90.11749359
_cell_angle_beta   90.00000000
_cell_angle_gamma   90.00000000
_symmetry_Int_Tables_number   1
_chemical_formula_structural   Sc7Pa(B6Ru)4
_chemical_formula_sum   'Sc7 Pa1 B24 Ru4'
_cell_volume   351.70042646
_cell_formula_units_Z   1
loop_
 _symmetry_equiv_pos_site_id
 _symmetry_equiv_pos_as_xyz
  1  'x, y, z'
loop_
 _atom_site_type_symbol
 _atom_site_label
 _atom_site_symmetry_multiplicity
 _atom_site_fract_x
 _atom_site_fract_y
 _atom_site_fract_z
 _atom_site_occupancy
  Sc  Sc0  1  0.000000  0.684263  0.587669  1
  Sc  Sc1  1  0.000000  0.818036  0.084226  1
  Sc  Sc2  1  0.000000  0.180481  0.913725  1
  Sc  Sc3  1  0.000000  0.942497  0.374277  1
  Sc  Sc4  1  0.000000  0.053326  0.627831  1
  Sc  Sc5  1  0.000000  0.444698  0.124090  1
  Sc  Sc6  1  0.000000  0.557439  0.874722  1
  Pa  Pa7  1  0.000000  0.321953  0.414138  1
  B  B8  1  0.500000  0.556573  0.434794  1
  B  B9  1  0.500000  0.447989  0.567885  1
  B  B10  1  0.500000  0.053454  0.064042  1
  B  B11  1  0.500000  0.945804  0.935498  1
  B  B12  1  0.500000  0.753026  0.420974  1
  B  B13  1  0.500000  0.246370  0.581933  1
  B  B14  1  0.500000  0.251869  0.076989  1
  B  B15  1  0.500000  0.747809  0.921266  1
  B  B16  1  0.500000  0.794802  0.263326  1
  B  B17  1  0.500000  0.204963  0.738075  1
  B  B18  1  0.500000  0.294246  0.232431  1
  B  B19  1  0.500000  0.705367  0.764909  1
  B  B20  1  0.500000  0.631380  0.180708  1
  B  B21  1  0.500000  0.369684  0.818484  1
  B  B22  1  0.500000  0.128157  0.316321  1
  B  B23  1  0.500000  0.869087  0.682948  1
  B  B24  1  0.500000  0.978894  0.211666  1
  B  B25  1  0.500000  0.019351  0.787784  1
  B  B26  1  0.500000  0.482595  0.284164  1
  B  B27  1  0.500000  0.520350  0.714668  1
  B  B28  1  0.500000  0.603080  0.027424  1
  B  B29  1  0.500000  0.397635  0.971419  1
  B  B30  1  0.500000  0.098155  0.473281  1
  B  B31  1  0.500000  0.896333  0.528492  1
  Ru  Ru32  1  0.000000  0.640076  0.319192  1
  Ru  Ru33  1  0.000000  0.360353  0.680155  1
  Ru  Ru34  1  0.000000  0.139368  0.180140  1
  Ru  Ru35  1  0.000000  0.860541  0.820357  1
