# generated using pymatgen
data_BaLi4Ac3Si8
_symmetry_space_group_name_H-M   'P 1'
_cell_length_a   3.99604300
_cell_length_b   8.13393074
_cell_length_c   11.21303807
_cell_angle_alpha   89.87216963
_cell_angle_beta   90.00000000
_cell_angle_gamma   90.00000000
_symmetry_Int_Tables_number   1
_chemical_formula_structural   BaLi4Ac3Si8
_chemical_formula_sum   'Ba1 Li4 Ac3 Si8'
_cell_volume   364.46249046
_cell_formula_units_Z   1
loop_
 _symmetry_equiv_pos_site_id
 _symmetry_equiv_pos_as_xyz
  1  'x, y, z'
loop_
 _atom_site_type_symbol
 _atom_site_label
 _atom_site_symmetry_multiplicity
 _atom_site_fract_x
 _atom_site_fract_y
 _atom_site_fract_z
 _atom_site_occupancy
  Ba  Ba0  1  0.750000  0.362452  0.367758  1
  Li  Li1  1  0.250000  0.002848  0.390692  1
  Li  Li2  1  0.750000  0.001812  0.609901  1
  Li  Li3  1  0.250000  0.497083  0.110401  1
  Li  Li4  1  0.750000  0.500426  0.890638  1
  Ac  Ac5  1  0.250000  0.131514  0.865987  1
  Ac  Ac6  1  0.750000  0.865294  0.132847  1
  Ac  Ac7  1  0.250000  0.633369  0.633168  1
  Si  Si8  1  0.750000  0.276238  0.070033  1
  Si  Si9  1  0.250000  0.718712  0.924478  1
  Si  Si10  1  0.750000  0.784114  0.426778  1
  Si  Si11  1  0.250000  0.221862  0.580673  1
  Si  Si12  1  0.750000  0.825879  0.824772  1
  Si  Si13  1  0.250000  0.166746  0.166080  1
  Si  Si14  1  0.750000  0.326186  0.680690  1
  Si  Si15  1  0.250000  0.685465  0.325102  1
