# generated using pymatgen
data_Ho4(Ga8Pt3)3
_symmetry_space_group_name_H-M   'P 1'
_cell_length_a   7.51140729
_cell_length_b   7.58143127
_cell_length_c   13.38756960
_cell_angle_alpha   84.79770021
_cell_angle_beta   79.53063138
_cell_angle_gamma   60.24285496
_symmetry_Int_Tables_number   1
_chemical_formula_structural   Ho4(Ga8Pt3)3
_chemical_formula_sum   'Ho4 Ga24 Pt9'
_cell_volume   650.83590764
_cell_formula_units_Z   1
loop_
 _symmetry_equiv_pos_site_id
 _symmetry_equiv_pos_as_xyz
  1  'x, y, z'
loop_
 _atom_site_type_symbol
 _atom_site_label
 _atom_site_symmetry_multiplicity
 _atom_site_fract_x
 _atom_site_fract_y
 _atom_site_fract_z
 _atom_site_occupancy
  Ho  Ho0  1  0.393341  0.168496  0.810269  1
  Ho  Ho1  1  0.606659  0.831504  0.189731  1
  Ho  Ho2  1  0.732383  0.498031  0.810301  1
  Ho  Ho3  1  0.267617  0.501969  0.189699  1
  Ga  Ga4  1  0.685135  0.833871  0.938309  1
  Ga  Ga5  1  0.314865  0.166129  0.061691  1
  Ga  Ga6  1  0.146411  0.832700  0.559465  1
  Ga  Ga7  1  0.853589  0.167300  0.440535  1
  Ga  Ga8  1  0.479024  0.166907  0.556345  1
  Ga  Ga9  1  0.520976  0.833093  0.443655  1
  Ga  Ga10  1  0.219390  0.165702  0.324966  1
  Ga  Ga11  1  0.780610  0.834298  0.675034  1
  Ga  Ga12  1  0.436948  0.504189  0.674671  1
  Ga  Ga13  1  0.563052  0.495811  0.325329  1
  Ga  Ga14  1  0.106911  0.162506  0.673960  1
  Ga  Ga15  1  0.893089  0.837494  0.326040  1
  Ga  Ga16  1  0.358157  0.497280  0.938450  1
  Ga  Ga17  1  0.641843  0.502720  0.061550  1
  Ga  Ga18  1  0.019337  0.169958  0.943928  1
  Ga  Ga19  1  0.980663  0.830042  0.056072  1
  Ga  Ga20  1  0.186130  0.499206  0.442985  1
  Ga  Ga21  1  0.813870  0.500794  0.557015  1
  Ga  Ga22  1  0.734984  0.163118  0.182274  1
  Ga  Ga23  1  0.265016  0.836882  0.817726  1
  Ga  Ga24  1  0.060802  0.631504  0.817060  1
  Ga  Ga25  1  0.939198  0.368496  0.182940  1
  Ga  Ga26  1  0.855798  0.040587  0.817138  1
  Ga  Ga27  1  0.144202  0.959413  0.182862  1
  Pt  Pt28  1  0.118252  0.494582  0.638983  1
  Pt  Pt29  1  0.881748  0.505418  0.361017  1
  Pt  Pt30  1  0.659963  0.169964  0.999600  1
  Pt  Pt31  1  0.340037  0.830036  0.000400  1
  Pt  Pt32  1  0.539708  0.166784  0.360490  1
  Pt  Pt33  1  0.460292  0.833216  0.639510  1
  Pt  Pt34  1  0.779323  0.172714  0.637070  1
  Pt  Pt35  1  0.220677  0.827286  0.362930  1
  Pt  Pt36  1  0.000000  0.500000  0.000000  1
