# generated using pymatgen
data_Ce4Sn2Pd2RuRh
_symmetry_space_group_name_H-M   'P 1'
_cell_length_a   7.70967517
_cell_length_b   7.70967447
_cell_length_c   3.77811200
_cell_angle_alpha   90.00000000
_cell_angle_beta   90.00000000
_cell_angle_gamma   90.87662469
_symmetry_Int_Tables_number   1
_chemical_formula_structural   Ce4Sn2Pd2RuRh
_chemical_formula_sum   'Ce4 Sn2 Pd2 Ru1 Rh1'
_cell_volume   224.54123941
_cell_formula_units_Z   1
loop_
 _symmetry_equiv_pos_site_id
 _symmetry_equiv_pos_as_xyz
  1  'x, y, z'
loop_
 _atom_site_type_symbol
 _atom_site_label
 _atom_site_symmetry_multiplicity
 _atom_site_fract_x
 _atom_site_fract_y
 _atom_site_fract_z
 _atom_site_occupancy
  Ce  Ce0  1  0.680083  0.180083  0.500000  1
  Ce  Ce1  1  0.313166  0.813166  0.500000  1
  Ce  Ce2  1  0.169254  0.333692  0.500000  1
  Ce  Ce3  1  0.833692  0.669254  0.500000  1
  Sn  Sn4  1  0.999660  0.999249  0.000000  1
  Sn  Sn5  1  0.499249  0.499660  0.000000  1
  Pd  Pd6  1  0.628065  0.870982  0.000000  1
  Pd  Pd7  1  0.370982  0.128065  0.000000  1
  Ru  Ru8  1  0.140089  0.640089  0.000000  1
  Rh  Rh9  1  0.865760  0.365760  0.000000  1
