# generated using pymatgen
data_YbTh3Pd7Pt5
_symmetry_space_group_name_H-M   'P 1'
_cell_length_a   5.92575162
_cell_length_b   5.91234478
_cell_length_c   9.73218224
_cell_angle_alpha   90.00000045
_cell_angle_beta   89.94983363
_cell_angle_gamma   119.92518381
_symmetry_Int_Tables_number   1
_chemical_formula_structural   YbTh3Pd7Pt5
_chemical_formula_sum   'Yb1 Th3 Pd7 Pt5'
_cell_volume   295.50903175
_cell_formula_units_Z   1
loop_
 _symmetry_equiv_pos_site_id
 _symmetry_equiv_pos_as_xyz
  1  'x, y, z'
loop_
 _atom_site_type_symbol
 _atom_site_label
 _atom_site_symmetry_multiplicity
 _atom_site_fract_x
 _atom_site_fract_y
 _atom_site_fract_z
 _atom_site_occupancy
  Yb  Yb0  1  0.333411  0.666706  0.249770  1
  Th  Th1  1  0.999998  0.999999  0.493214  1
  Th  Th2  1  0.000170  0.000085  0.007062  1
  Th  Th3  1  0.665547  0.332773  0.749939  1
  Pd  Pd4  1  0.002550  0.501276  0.001652  1
  Pd  Pd5  1  0.825119  0.650575  0.249516  1
  Pd  Pd6  1  0.350788  0.175394  0.249025  1
  Pd  Pd7  1  0.825119  0.174544  0.249516  1
  Pd  Pd8  1  0.172534  0.346260  0.750501  1
  Pd  Pd9  1  0.652580  0.826290  0.750942  1
  Pd  Pd10  1  0.172534  0.826274  0.750501  1
  Pt  Pt11  1  0.499060  0.500837  0.498603  1
  Pt  Pt12  1  0.499060  0.998223  0.498603  1
  Pt  Pt13  1  0.002028  0.501014  0.498393  1
  Pt  Pt14  1  0.499750  0.500985  0.001381  1
  Pt  Pt15  1  0.499750  0.998766  0.001381  1
