# generated using pymatgen
data_La4HoP12Ru19
_symmetry_space_group_name_H-M   'P 1'
_cell_length_a   12.67438700
_cell_length_b   12.67438751
_cell_length_c   4.03342900
_cell_angle_alpha   90.00000000
_cell_angle_beta   90.00000000
_cell_angle_gamma   120.00000057
_symmetry_Int_Tables_number   1
_chemical_formula_structural   La4HoP12Ru19
_chemical_formula_sum   'La4 Ho1 P12 Ru19'
_cell_volume   561.12418905
_cell_formula_units_Z   1
loop_
 _symmetry_equiv_pos_site_id
 _symmetry_equiv_pos_as_xyz
  1  'x, y, z'
loop_
 _atom_site_type_symbol
 _atom_site_label
 _atom_site_symmetry_multiplicity
 _atom_site_fract_x
 _atom_site_fract_y
 _atom_site_fract_z
 _atom_site_occupancy
  La  La0  1  0.998650  0.182546  0.500000  1
  La  La1  1  0.817454  0.816103  0.500000  1
  La  La2  1  0.183897  0.001350  0.500000  1
  La  La3  1  0.666667  0.333333  0.000000  1
  Ho  Ho4  1  0.333333  0.666667  0.000000  1
  P  P5  1  0.002835  0.811588  0.000000  1
  P  P6  1  0.188412  0.191247  0.000000  1
  P  P7  1  0.808753  0.997165  0.000000  1
  P  P8  1  0.694388  0.168992  0.500000  1
  P  P9  1  0.831008  0.525396  0.500000  1
  P  P10  1  0.474604  0.305612  0.500000  1
  P  P11  1  0.176955  0.697261  0.500000  1
  P  P12  1  0.520306  0.823045  0.500000  1
  P  P13  1  0.302739  0.479694  0.500000  1
  P  P14  1  0.998788  0.375032  0.000000  1
  P  P15  1  0.624968  0.623756  0.000000  1
  P  P16  1  0.376244  0.001212  0.000000  1
  Ru  Ru17  1  0.000347  0.554699  0.000000  1
  Ru  Ru18  1  0.445301  0.445648  0.000000  1
  Ru  Ru19  1  0.554352  0.999653  0.000000  1
  Ru  Ru20  1  0.003318  0.713931  0.500000  1
  Ru  Ru21  1  0.286069  0.289386  0.500000  1
  Ru  Ru22  1  0.710614  0.996682  0.500000  1
  Ru  Ru23  1  0.804486  0.182792  0.000000  1
  Ru  Ru24  1  0.817208  0.621694  0.000000  1
  Ru  Ru25  1  0.378306  0.195514  0.000000  1
  Ru  Ru26  1  0.187942  0.804919  0.000000  1
  Ru  Ru27  1  0.616977  0.812058  0.000000  1
  Ru  Ru28  1  0.195081  0.383023  0.000000  1
  Ru  Ru29  1  0.876617  0.366714  0.500000  1
  Ru  Ru30  1  0.633286  0.509903  0.500000  1
  Ru  Ru31  1  0.490097  0.123383  0.500000  1
  Ru  Ru32  1  0.369761  0.873699  0.500000  1
  Ru  Ru33  1  0.503938  0.630239  0.500000  1
  Ru  Ru34  1  0.126301  0.496062  0.500000  1
  Ru  Ru35  1  0.000000  0.000000  0.000000  1
