# generated using pymatgen
data_LiTm6Co16NiP12
_symmetry_space_group_name_H-M   'P 1'
_cell_length_a   3.68090500
_cell_length_b   10.47758100
_cell_length_c   12.12584100
_cell_angle_alpha   90.00000000
_cell_angle_beta   90.00000000
_cell_angle_gamma   90.00000000
_symmetry_Int_Tables_number   1
_chemical_formula_structural   LiTm6Co16NiP12
_chemical_formula_sum   'Li1 Tm6 Co16 Ni1 P12'
_cell_volume   467.65707086
_cell_formula_units_Z   1
loop_
 _symmetry_equiv_pos_site_id
 _symmetry_equiv_pos_as_xyz
  1  'x, y, z'
loop_
 _atom_site_type_symbol
 _atom_site_label
 _atom_site_symmetry_multiplicity
 _atom_site_fract_x
 _atom_site_fract_y
 _atom_site_fract_z
 _atom_site_occupancy
  Li  Li0  1  0.500000  0.500000  0.152088  1
  Tm  Tm1  1  0.000000  0.500000  0.520585  1
  Tm  Tm2  1  0.500000  0.000000  0.478001  1
  Tm  Tm3  1  0.500000  0.819558  0.206974  1
  Tm  Tm4  1  0.500000  0.180442  0.206974  1
  Tm  Tm5  1  0.000000  0.683932  0.795192  1
  Tm  Tm6  1  0.000000  0.316068  0.795192  1
  Co  Co7  1  0.000000  0.000000  0.838760  1
  Co  Co8  1  0.000000  0.000000  0.296895  1
  Co  Co9  1  0.000000  0.500000  0.986401  1
  Co  Co10  1  0.500000  0.000000  0.013769  1
  Co  Co11  1  0.500000  0.330445  0.994629  1
  Co  Co12  1  0.500000  0.669555  0.994629  1
  Co  Co13  1  0.000000  0.164694  0.003461  1
  Co  Co14  1  0.000000  0.835306  0.003461  1
  Co  Co15  1  0.500000  0.296931  0.432341  1
  Co  Co16  1  0.500000  0.703069  0.432341  1
  Co  Co17  1  0.000000  0.201634  0.569925  1
  Co  Co18  1  0.000000  0.798366  0.569925  1
  Co  Co19  1  0.500000  0.878812  0.709046  1
  Co  Co20  1  0.500000  0.121188  0.709046  1
  Co  Co21  1  0.000000  0.622898  0.292655  1
  Co  Co22  1  0.000000  0.377102  0.292655  1
  Ni  Ni23  1  0.500000  0.500000  0.703976  1
  P  P24  1  0.500000  0.500000  0.885085  1
  P  P25  1  0.000000  0.000000  0.118107  1
  P  P26  1  0.500000  0.500000  0.345860  1
  P  P27  1  0.000000  0.000000  0.654011  1
  P  P28  1  0.500000  0.310574  0.616471  1
  P  P29  1  0.500000  0.689426  0.616471  1
  P  P30  1  0.000000  0.188265  0.384461  1
  P  P31  1  0.000000  0.811735  0.384461  1
  P  P32  1  0.500000  0.848205  0.891455  1
  P  P33  1  0.500000  0.151795  0.891455  1
  P  P34  1  0.000000  0.658060  0.106620  1
  P  P35  1  0.000000  0.341940  0.106620  1
