# generated using pymatgen
data_Ba3LuUInO9
_symmetry_space_group_name_H-M   'P 1'
_cell_length_a   6.10153300
_cell_length_b   6.10153311
_cell_length_c   7.51987800
_cell_angle_alpha   90.00000000
_cell_angle_beta   90.00000000
_cell_angle_gamma   119.99999396
_symmetry_Int_Tables_number   1
_chemical_formula_structural   Ba3LuUInO9
_chemical_formula_sum   'Ba3 Lu1 U1 In1 O9'
_cell_volume   242.44843773
_cell_formula_units_Z   1
loop_
 _symmetry_equiv_pos_site_id
 _symmetry_equiv_pos_as_xyz
  1  'x, y, z'
loop_
 _atom_site_type_symbol
 _atom_site_label
 _atom_site_symmetry_multiplicity
 _atom_site_fract_x
 _atom_site_fract_y
 _atom_site_fract_z
 _atom_site_occupancy
  Ba  Ba0  1  0.000000  0.000000  0.501312  1
  Ba  Ba1  1  0.666667  0.333333  0.803836  1
  Ba  Ba2  1  0.333333  0.666667  0.196032  1
  Lu  Lu3  1  0.666667  0.333333  0.340000  1
  U  U4  1  0.000000  0.000000  0.999330  1
  In  In5  1  0.333333  0.666667  0.660499  1
  O  O6  1  0.675908  0.837954  0.838655  1
  O  O7  1  0.321901  0.160950  0.160973  1
  O  O8  1  0.998700  0.499350  0.500036  1
  O  O9  1  0.500650  0.001300  0.500036  1
  O  O10  1  0.162046  0.324092  0.838655  1
  O  O11  1  0.839050  0.678099  0.160973  1
  O  O12  1  0.500650  0.499350  0.500036  1
  O  O13  1  0.162046  0.837954  0.838655  1
  O  O14  1  0.839050  0.160950  0.160973  1
