# generated using pymatgen
data_La4IrPtAu2
_symmetry_space_group_name_H-M   'P 1'
_cell_length_a   4.74684600
_cell_length_b   5.88003696
_cell_length_c   7.56542510
_cell_angle_alpha   92.38386140
_cell_angle_beta   90.00000000
_cell_angle_gamma   90.00000000
_symmetry_Int_Tables_number   1
_chemical_formula_structural   La4IrPtAu2
_chemical_formula_sum   'La4 Ir1 Pt1 Au2'
_cell_volume   210.98060162
_cell_formula_units_Z   1
loop_
 _symmetry_equiv_pos_site_id
 _symmetry_equiv_pos_as_xyz
  1  'x, y, z'
loop_
 _atom_site_type_symbol
 _atom_site_label
 _atom_site_symmetry_multiplicity
 _atom_site_fract_x
 _atom_site_fract_y
 _atom_site_fract_z
 _atom_site_occupancy
  La  La0  1  0.250000  0.641092  0.170008  1
  La  La1  1  0.750000  0.347270  0.832605  1
  La  La2  1  0.750000  0.139720  0.292932  1
  La  La3  1  0.250000  0.862627  0.705370  1
  Ir  Ir4  1  0.250000  0.174624  0.043493  1
  Pt  Pt5  1  0.750000  0.833688  0.953887  1
  Au  Au6  1  0.750000  0.650446  0.461882  1
  Au  Au7  1  0.250000  0.350533  0.539823  1
