# generated using pymatgen
data_KRb3PbCl6
_symmetry_space_group_name_H-M   'P 1'
_cell_length_a   9.15348939
_cell_length_b   9.15348888
_cell_length_c   9.15348871
_cell_angle_alpha   90.89287895
_cell_angle_beta   90.89287901
_cell_angle_gamma   90.89287419
_symmetry_Int_Tables_number   1
_chemical_formula_structural   KRb3PbCl6
_chemical_formula_sum   'K2 Rb6 Pb2 Cl12'
_cell_volume   766.65522285
_cell_formula_units_Z   2
loop_
 _symmetry_equiv_pos_site_id
 _symmetry_equiv_pos_as_xyz
  1  'x, y, z'
loop_
 _atom_site_type_symbol
 _atom_site_label
 _atom_site_symmetry_multiplicity
 _atom_site_fract_x
 _atom_site_fract_y
 _atom_site_fract_z
 _atom_site_occupancy
  K  K0  1  0.250000  0.250000  0.250000  1
  K  K1  1  0.750000  0.750000  0.750000  1
  Rb  Rb2  1  0.373456  0.126544  0.750000  1
  Rb  Rb3  1  0.126544  0.750000  0.373456  1
  Rb  Rb4  1  0.750000  0.373456  0.126544  1
  Rb  Rb5  1  0.626544  0.873456  0.250000  1
  Rb  Rb6  1  0.250000  0.626544  0.873456  1
  Rb  Rb7  1  0.873456  0.250000  0.626544  1
  Pb  Pb8  1  0.000000  0.000000  0.000000  1
  Pb  Pb9  1  0.500000  0.500000  0.500000  1
  Cl  Cl10  1  0.947746  0.079984  0.302003  1
  Cl  Cl11  1  0.079984  0.302003  0.947746  1
  Cl  Cl12  1  0.302003  0.947746  0.079984  1
  Cl  Cl13  1  0.579984  0.447746  0.802003  1
  Cl  Cl14  1  0.802003  0.579984  0.447746  1
  Cl  Cl15  1  0.447746  0.802003  0.579984  1
  Cl  Cl16  1  0.197997  0.420016  0.552254  1
  Cl  Cl17  1  0.420016  0.552254  0.197997  1
  Cl  Cl18  1  0.552254  0.197997  0.420016  1
  Cl  Cl19  1  0.920016  0.697997  0.052254  1
  Cl  Cl20  1  0.052254  0.920016  0.697997  1
  Cl  Cl21  1  0.697997  0.052254  0.920016  1
