# generated using pymatgen
data_Ho2Fe4P7(IrRu3)2
_symmetry_space_group_name_H-M   'P 1'
_cell_length_a   9.28267465
_cell_length_b   9.24673018
_cell_length_c   3.83550400
_cell_angle_alpha   90.00000000
_cell_angle_beta   90.00000000
_cell_angle_gamma   120.26741842
_symmetry_Int_Tables_number   1
_chemical_formula_structural   Ho2Fe4P7(IrRu3)2
_chemical_formula_sum   'Ho2 Fe4 P7 Ir2 Ru6'
_cell_volume   284.33988306
_cell_formula_units_Z   1
loop_
 _symmetry_equiv_pos_site_id
 _symmetry_equiv_pos_as_xyz
  1  'x, y, z'
loop_
 _atom_site_type_symbol
 _atom_site_label
 _atom_site_symmetry_multiplicity
 _atom_site_fract_x
 _atom_site_fract_y
 _atom_site_fract_z
 _atom_site_occupancy
  Ho  Ho0  1  0.002750  0.002163  0.000000  1
  Ho  Ho1  1  0.327536  0.661738  0.500000  1
  Fe  Fe2  1  0.085488  0.390147  0.000000  1
  Fe  Fe3  1  0.779844  0.178230  0.000000  1
  Fe  Fe4  1  0.395002  0.221737  0.000000  1
  Fe  Fe5  1  0.826337  0.603228  0.000000  1
  P  P6  1  0.558932  0.921189  0.000000  1
  P  P7  1  0.354247  0.442255  0.000000  1
  P  P8  1  0.074201  0.623282  0.000000  1
  P  P9  1  0.955833  0.225564  0.500000  1
  P  P10  1  0.267426  0.057560  0.500000  1
  P  P11  1  0.786669  0.730066  0.500000  1
  P  P12  1  0.664848  0.333359  0.000000  1
  Ir  Ir13  1  0.304398  0.903793  0.000000  1
  Ir  Ir14  1  0.725435  0.950290  0.500000  1
  Ru  Ru15  1  0.602312  0.694158  0.000000  1
  Ru  Ru16  1  0.228755  0.286613  0.500000  1
  Ru  Ru17  1  0.055948  0.774809  0.500000  1
  Ru  Ru18  1  0.544843  0.123776  0.500000  1
  Ru  Ru19  1  0.580111  0.451429  0.500000  1
  Ru  Ru20  1  0.879086  0.424610  0.500000  1
