# generated using pymatgen
data_Ho5Er3Re2(B12Ru)2
_symmetry_space_group_name_H-M   'P 1'
_cell_length_a   3.65456600
_cell_length_b   9.12368645
_cell_length_c   11.50770600
_cell_angle_alpha   90.20929651
_cell_angle_beta   90.00000000
_cell_angle_gamma   90.00000000
_symmetry_Int_Tables_number   1
_chemical_formula_structural   Ho5Er3Re2(B12Ru)2
_chemical_formula_sum   'Ho5 Er3 Re2 B24 Ru2'
_cell_volume   383.70019656
_cell_formula_units_Z   1
loop_
 _symmetry_equiv_pos_site_id
 _symmetry_equiv_pos_as_xyz
  1  'x, y, z'
loop_
 _atom_site_type_symbol
 _atom_site_label
 _atom_site_symmetry_multiplicity
 _atom_site_fract_x
 _atom_site_fract_y
 _atom_site_fract_z
 _atom_site_occupancy
  Ho  Ho0  1  0.000000  0.320958  0.412551  1
  Ho  Ho1  1  0.000000  0.679072  0.587510  1
  Ho  Ho2  1  0.000000  0.824543  0.084456  1
  Ho  Ho3  1  0.000000  0.175446  0.915464  1
  Ho  Ho4  1  0.000000  0.942978  0.370647  1
  Er  Er5  1  0.000000  0.057038  0.629553  1
  Er  Er6  1  0.000000  0.443096  0.129225  1
  Er  Er7  1  0.000000  0.556923  0.870732  1
  Re  Re8  1  0.000000  0.138781  0.179581  1
  Re  Re9  1  0.000000  0.861394  0.820290  1
  B  B10  1  0.500000  0.553962  0.433149  1
  B  B11  1  0.500000  0.445978  0.566867  1
  B  B12  1  0.500000  0.053230  0.066672  1
  B  B13  1  0.500000  0.946770  0.933287  1
  B  B14  1  0.500000  0.748771  0.419065  1
  B  B15  1  0.500000  0.250996  0.580961  1
  B  B16  1  0.500000  0.249464  0.080854  1
  B  B17  1  0.500000  0.750563  0.919135  1
  B  B18  1  0.500000  0.790802  0.265665  1
  B  B19  1  0.500000  0.208989  0.734268  1
  B  B20  1  0.500000  0.292308  0.234882  1
  B  B21  1  0.500000  0.707760  0.765100  1
  B  B22  1  0.500000  0.630904  0.185751  1
  B  B23  1  0.500000  0.369044  0.814219  1
  B  B24  1  0.500000  0.131451  0.315002  1
  B  B25  1  0.500000  0.868731  0.684910  1
  B  B26  1  0.500000  0.982482  0.212301  1
  B  B27  1  0.500000  0.017637  0.787517  1
  B  B28  1  0.500000  0.483158  0.288057  1
  B  B29  1  0.500000  0.516823  0.711935  1
  B  B30  1  0.500000  0.602711  0.028575  1
  B  B31  1  0.500000  0.397288  0.971416  1
  B  B32  1  0.500000  0.103478  0.471738  1
  B  B33  1  0.500000  0.896706  0.528667  1
  Ru  Ru34  1  0.000000  0.637759  0.321442  1
  Ru  Ru35  1  0.000000  0.362006  0.678556  1
