# generated using pymatgen
data_Tb9HoCd4(InPd)4
_symmetry_space_group_name_H-M   'P 1'
_cell_length_a   3.63444400
_cell_length_b   8.12615905
_cell_length_c   18.42191611
_cell_angle_alpha   90.01239771
_cell_angle_beta   90.00000000
_cell_angle_gamma   90.00000000
_symmetry_Int_Tables_number   1
_chemical_formula_structural   Tb9HoCd4(InPd)4
_chemical_formula_sum   'Tb9 Ho1 Cd4 In4 Pd4'
_cell_volume   544.07414700
_cell_formula_units_Z   1
loop_
 _symmetry_equiv_pos_site_id
 _symmetry_equiv_pos_as_xyz
  1  'x, y, z'
loop_
 _atom_site_type_symbol
 _atom_site_label
 _atom_site_symmetry_multiplicity
 _atom_site_fract_x
 _atom_site_fract_y
 _atom_site_fract_z
 _atom_site_occupancy
  Tb  Tb0  1  0.000000  0.499846  0.499951  1
  Tb  Tb1  1  0.000000  0.000063  0.000030  1
  Tb  Tb2  1  0.000000  0.741560  0.281050  1
  Tb  Tb3  1  0.000000  0.258675  0.718956  1
  Tb  Tb4  1  0.000000  0.758633  0.780982  1
  Tb  Tb5  1  0.000000  0.241091  0.219194  1
  Tb  Tb6  1  0.000000  0.612832  0.083435  1
  Tb  Tb7  1  0.000000  0.387216  0.916558  1
  Tb  Tb8  1  0.000000  0.887215  0.583311  1
  Ho  Ho9  1  0.000000  0.112177  0.415950  1
  Cd  Cd10  1  0.500000  0.712219  0.931215  1
  Cd  Cd11  1  0.500000  0.287710  0.068812  1
  Cd  Cd12  1  0.500000  0.788999  0.431331  1
  Cd  Cd13  1  0.500000  0.211944  0.568350  1
  In  In14  1  0.500000  0.576175  0.648078  1
  In  In15  1  0.500000  0.422906  0.352097  1
  In  In16  1  0.500000  0.924051  0.148186  1
  In  In17  1  0.500000  0.076049  0.851916  1
  Pd  Pd18  1  0.500000  0.524489  0.196689  1
  Pd  Pd19  1  0.500000  0.475533  0.803337  1
  Pd  Pd20  1  0.500000  0.975554  0.696614  1
  Pd  Pd21  1  0.500000  0.025064  0.303958  1
