# generated using pymatgen
data_Tb7Dy3(Bi3C)2
_symmetry_space_group_name_H-M   'P 1'
_cell_length_a   9.18154600
_cell_length_b   9.18154729
_cell_length_c   6.52755600
_cell_angle_alpha   90.00000000
_cell_angle_beta   90.00000000
_cell_angle_gamma   120.00000254
_symmetry_Int_Tables_number   1
_chemical_formula_structural   Tb7Dy3(Bi3C)2
_chemical_formula_sum   'Tb7 Dy3 Bi6 C2'
_cell_volume   476.55487540
_cell_formula_units_Z   1
loop_
 _symmetry_equiv_pos_site_id
 _symmetry_equiv_pos_as_xyz
  1  'x, y, z'
loop_
 _atom_site_type_symbol
 _atom_site_label
 _atom_site_symmetry_multiplicity
 _atom_site_fract_x
 _atom_site_fract_y
 _atom_site_fract_z
 _atom_site_occupancy
  Tb  Tb0  1  0.666667  0.333333  0.000137  1
  Tb  Tb1  1  0.333333  0.666667  0.000137  1
  Tb  Tb2  1  0.333333  0.666667  0.499863  1
  Tb  Tb3  1  0.666667  0.333333  0.499863  1
  Tb  Tb4  1  0.208804  0.208804  0.250000  1
  Tb  Tb5  1  0.791196  0.000000  0.250000  1
  Tb  Tb6  1  0.000000  0.791196  0.250000  1
  Dy  Dy7  1  0.792748  0.792748  0.750000  1
  Dy  Dy8  1  0.207252  0.000000  0.750000  1
  Dy  Dy9  1  0.000000  0.207252  0.750000  1
  Bi  Bi10  1  0.401787  0.401787  0.750000  1
  Bi  Bi11  1  0.598213  0.000000  0.750000  1
  Bi  Bi12  1  0.000000  0.598213  0.750000  1
  Bi  Bi13  1  0.597997  0.597997  0.250000  1
  Bi  Bi14  1  0.402003  0.000000  0.250000  1
  Bi  Bi15  1  0.000000  0.402003  0.250000  1
  C  C16  1  0.000000  0.000000  0.998542  1
  C  C17  1  0.000000  0.000000  0.501458  1
