# generated using pymatgen
data_Y20Cd3NiHg3Os
_symmetry_space_group_name_H-M   'P 1'
_cell_length_a   9.68176200
_cell_length_b   9.68176300
_cell_length_c   9.73831200
_cell_angle_alpha   90.00000000
_cell_angle_beta   90.00000000
_cell_angle_gamma   119.99999658
_symmetry_Int_Tables_number   1
_chemical_formula_structural   Y20Cd3NiHg3Os
_chemical_formula_sum   'Y20 Cd3 Ni1 Hg3 Os1'
_cell_volume   790.53878331
_cell_formula_units_Z   1
loop_
 _symmetry_equiv_pos_site_id
 _symmetry_equiv_pos_as_xyz
  1  'x, y, z'
loop_
 _atom_site_type_symbol
 _atom_site_label
 _atom_site_symmetry_multiplicity
 _atom_site_fract_x
 _atom_site_fract_y
 _atom_site_fract_z
 _atom_site_occupancy
  Y  Y0  1  0.000000  0.000000  0.510216  1
  Y  Y1  1  0.000000  0.000000  0.989784  1
  Y  Y2  1  0.540317  0.459683  0.250000  1
  Y  Y3  1  0.540317  0.080633  0.250000  1
  Y  Y4  1  0.919367  0.459683  0.250000  1
  Y  Y5  1  0.457330  0.542670  0.750000  1
  Y  Y6  1  0.457330  0.914661  0.750000  1
  Y  Y7  1  0.085339  0.542670  0.750000  1
  Y  Y8  1  0.209322  0.790678  0.440483  1
  Y  Y9  1  0.209322  0.418644  0.440483  1
  Y  Y10  1  0.581356  0.790678  0.440483  1
  Y  Y11  1  0.789607  0.210393  0.562982  1
  Y  Y12  1  0.789607  0.579215  0.562982  1
  Y  Y13  1  0.420785  0.210393  0.562982  1
  Y  Y14  1  0.789607  0.210393  0.937018  1
  Y  Y15  1  0.789607  0.579215  0.937018  1
  Y  Y16  1  0.420785  0.210393  0.937018  1
  Y  Y17  1  0.209322  0.790678  0.059517  1
  Y  Y18  1  0.209322  0.418644  0.059517  1
  Y  Y19  1  0.581356  0.790678  0.059517  1
  Cd  Cd20  1  0.886470  0.113530  0.250000  1
  Cd  Cd21  1  0.886470  0.772940  0.250000  1
  Cd  Cd22  1  0.227060  0.113530  0.250000  1
  Ni  Ni23  1  0.666667  0.333333  0.750000  1
  Hg  Hg24  1  0.121359  0.878641  0.750000  1
  Hg  Hg25  1  0.121359  0.242719  0.750000  1
  Hg  Hg26  1  0.757281  0.878641  0.750000  1
  Os  Os27  1  0.333333  0.666667  0.250000  1
