# generated using pymatgen
data_NaNd3Ti8O20
_symmetry_space_group_name_H-M   'P 1'
_cell_length_a   5.85955400
_cell_length_b   7.74575120
_cell_length_c   8.76595000
_cell_angle_alpha   89.98692940
_cell_angle_beta   90.00000000
_cell_angle_gamma   90.00000000
_symmetry_Int_Tables_number   1
_chemical_formula_structural   NaNd3Ti8O20
_chemical_formula_sum   'Na1 Nd3 Ti8 O20'
_cell_volume   397.85707174
_cell_formula_units_Z   1
loop_
 _symmetry_equiv_pos_site_id
 _symmetry_equiv_pos_as_xyz
  1  'x, y, z'
loop_
 _atom_site_type_symbol
 _atom_site_label
 _atom_site_symmetry_multiplicity
 _atom_site_fract_x
 _atom_site_fract_y
 _atom_site_fract_z
 _atom_site_occupancy
  Na  Na0  1  0.000000  0.351636  0.667367  1
  Nd  Nd1  1  0.000000  0.632275  0.335582  1
  Nd  Nd2  1  0.000000  0.859114  0.828767  1
  Nd  Nd3  1  0.000000  0.143182  0.171038  1
  Ti  Ti4  1  0.500000  0.113076  0.858721  1
  Ti  Ti5  1  0.500000  0.881296  0.145957  1
  Ti  Ti6  1  0.500000  0.616617  0.639291  1
  Ti  Ti7  1  0.500000  0.389153  0.359750  1
  Ti  Ti8  1  0.246789  0.501222  0.992002  1
  Ti  Ti9  1  0.750233  0.003844  0.502686  1
  Ti  Ti10  1  0.753211  0.501222  0.992002  1
  Ti  Ti11  1  0.249767  0.003844  0.502686  1
  O  O12  1  0.256326  0.898021  0.290910  1
  O  O13  1  0.262557  0.080740  0.712207  1
  O  O14  1  0.743457  0.399743  0.208445  1
  O  O15  1  0.735369  0.617897  0.797161  1
  O  O16  1  0.737443  0.080740  0.712207  1
  O  O17  1  0.743674  0.898021  0.290910  1
  O  O18  1  0.264631  0.617897  0.797161  1
  O  O19  1  0.256543  0.399743  0.208445  1
  O  O20  1  0.500000  0.337615  0.915944  1
  O  O21  1  0.500000  0.661454  0.081815  1
  O  O22  1  0.500000  0.831144  0.564387  1
  O  O23  1  0.500000  0.166868  0.425320  1
  O  O24  1  0.283065  0.001676  0.003922  1
  O  O25  1  0.713938  0.506958  0.496442  1
  O  O26  1  0.716935  0.001676  0.003922  1
  O  O27  1  0.286062  0.506958  0.496442  1
  O  O28  1  0.000000  0.156294  0.440827  1
  O  O29  1  0.000000  0.838841  0.551556  1
  O  O30  1  0.000000  0.662185  0.054196  1
  O  O31  1  0.000000  0.339045  0.951929  1
