# generated using pymatgen
data_Tb3Mg3Ag2Ru
_symmetry_space_group_name_H-M   'P 1'
_cell_length_a   7.73017300
_cell_length_b   7.73017122
_cell_length_c   3.99055400
_cell_angle_alpha   90.00000000
_cell_angle_beta   90.00000000
_cell_angle_gamma   119.99999480
_symmetry_Int_Tables_number   1
_chemical_formula_structural   Tb3Mg3Ag2Ru
_chemical_formula_sum   'Tb3 Mg3 Ag2 Ru1'
_cell_volume   206.51051666
_cell_formula_units_Z   1
loop_
 _symmetry_equiv_pos_site_id
 _symmetry_equiv_pos_as_xyz
  1  'x, y, z'
loop_
 _atom_site_type_symbol
 _atom_site_label
 _atom_site_symmetry_multiplicity
 _atom_site_fract_x
 _atom_site_fract_y
 _atom_site_fract_z
 _atom_site_occupancy
  Tb  Tb0  1  0.566566  0.965880  0.000000  1
  Tb  Tb1  1  0.034120  0.600686  0.000000  1
  Tb  Tb2  1  0.399314  0.433434  0.000000  1
  Mg  Mg3  1  0.252193  0.997518  0.500000  1
  Mg  Mg4  1  0.002482  0.254675  0.500000  1
  Mg  Mg5  1  0.745325  0.747807  0.500000  1
  Ag  Ag6  1  0.666667  0.333333  0.500000  1
  Ag  Ag7  1  0.000000  0.000000  0.000000  1
  Ru  Ru8  1  0.333333  0.666667  0.500000  1
