# generated using pymatgen
data_Sc12Re3Si16Tc5
_symmetry_space_group_name_H-M   'P 1'
_cell_length_a   5.36309779
_cell_length_b   10.18382875
_cell_length_c   11.65005567
_cell_angle_alpha   95.30017178
_cell_angle_beta   103.25886365
_cell_angle_gamma   105.26770201
_symmetry_Int_Tables_number   1
_chemical_formula_structural   Sc12Re3Si16Tc5
_chemical_formula_sum   'Sc12 Re3 Si16 Tc5'
_cell_volume   589.50955448
_cell_formula_units_Z   1
loop_
 _symmetry_equiv_pos_site_id
 _symmetry_equiv_pos_as_xyz
  1  'x, y, z'
loop_
 _atom_site_type_symbol
 _atom_site_label
 _atom_site_symmetry_multiplicity
 _atom_site_fract_x
 _atom_site_fract_y
 _atom_site_fract_z
 _atom_site_occupancy
  Sc  Sc0  1  0.526160  0.280724  0.046426  1
  Sc  Sc1  1  0.173694  0.467233  0.138586  1
  Sc  Sc2  1  0.458476  0.993641  0.158118  1
  Sc  Sc3  1  0.806745  0.506142  0.341387  1
  Sc  Sc4  1  0.067269  0.032530  0.361185  1
  Sc  Sc5  1  0.698981  0.219370  0.453771  1
  Sc  Sc6  1  0.300534  0.780047  0.546198  1
  Sc  Sc7  1  0.932755  0.967331  0.638856  1
  Sc  Sc8  1  0.194228  0.494253  0.658861  1
  Sc  Sc9  1  0.540023  0.005258  0.841895  1
  Sc  Sc10  1  0.826261  0.533360  0.861527  1
  Sc  Sc11  1  0.473163  0.721018  0.953515  1
  Re  Re12  1  0.889630  0.245869  0.717407  1
  Re  Re13  1  0.428727  0.254408  0.782570  1
  Re  Re14  1  0.012154  0.872285  0.923028  1
  Si  Si15  1  0.121086  0.723014  0.073427  1
  Si  Si16  1  0.717601  0.566337  0.111093  1
  Si  Si17  1  0.895268  0.893710  0.125735  1
  Si  Si18  1  0.360084  0.249967  0.249994  1
  Si  Si19  1  0.889042  0.250007  0.249983  1
  Si  Si20  1  0.376755  0.605833  0.374362  1
  Si  Si21  1  0.540346  0.933571  0.388752  1
  Si  Si22  1  0.824643  0.776876  0.427046  1
  Si  Si23  1  0.174092  0.222729  0.571114  1
  Si  Si24  1  0.457793  0.064727  0.610171  1
  Si  Si25  1  0.623303  0.395264  0.624685  1
  Si  Si26  1  0.110668  0.749339  0.749285  1
  Si  Si27  1  0.639059  0.749564  0.749827  1
  Si  Si28  1  0.104653  0.105788  0.874790  1
  Si  Si29  1  0.282810  0.434987  0.890192  1
  Si  Si30  1  0.881421  0.277294  0.929295  1
  Tc  Tc31  1  0.989941  0.127120  0.077063  1
  Tc  Tc32  1  0.572130  0.745787  0.217102  1
  Tc  Tc33  1  0.110163  0.754014  0.282971  1
  Tc  Tc34  1  0.284497  0.372435  0.422800  1
  Tc  Tc35  1  0.715849  0.628171  0.576985  1
