# generated using pymatgen
data_Gd(CrN2)2
_symmetry_space_group_name_H-M   'P 1'
_cell_length_a   4.90986800
_cell_length_b   6.47834600
_cell_length_c   11.12901800
_cell_angle_alpha   90.00000000
_cell_angle_beta   90.00000000
_cell_angle_gamma   90.00000000
_symmetry_Int_Tables_number   1
_chemical_formula_structural   Gd(CrN2)2
_chemical_formula_sum   'Gd4 Cr8 N16'
_cell_volume   353.98984270
_cell_formula_units_Z   4
loop_
 _symmetry_equiv_pos_site_id
 _symmetry_equiv_pos_as_xyz
  1  'x, y, z'
loop_
 _atom_site_type_symbol
 _atom_site_label
 _atom_site_symmetry_multiplicity
 _atom_site_fract_x
 _atom_site_fract_y
 _atom_site_fract_z
 _atom_site_occupancy
  Gd  Gd0  1  0.043178  0.750000  0.272283  1
  Gd  Gd1  1  0.456822  0.750000  0.772283  1
  Gd  Gd2  1  0.956822  0.250000  0.727717  1
  Gd  Gd3  1  0.543178  0.250000  0.227717  1
  Cr  Cr4  1  0.000000  0.500000  0.000000  1
  Cr  Cr5  1  0.500000  0.000000  0.500000  1
  Cr  Cr6  1  0.000000  0.000000  0.000000  1
  Cr  Cr7  1  0.500000  0.500000  0.500000  1
  Cr  Cr8  1  0.603940  0.750000  0.072710  1
  Cr  Cr9  1  0.896060  0.750000  0.572710  1
  Cr  Cr10  1  0.396060  0.250000  0.927290  1
  Cr  Cr11  1  0.103940  0.250000  0.427290  1
  N  N12  1  0.246285  0.750000  0.065316  1
  N  N13  1  0.253715  0.750000  0.565316  1
  N  N14  1  0.753715  0.250000  0.934684  1
  N  N15  1  0.746285  0.250000  0.434684  1
  N  N16  1  0.719922  0.750000  0.433456  1
  N  N17  1  0.780078  0.750000  0.933456  1
  N  N18  1  0.280078  0.250000  0.566544  1
  N  N19  1  0.219922  0.250000  0.066544  1
  N  N20  1  0.752151  0.540949  0.146061  1
  N  N21  1  0.747849  0.959051  0.646061  1
  N  N22  1  0.247849  0.040949  0.853939  1
  N  N23  1  0.252151  0.459051  0.353939  1
  N  N24  1  0.247849  0.459051  0.853939  1
  N  N25  1  0.252151  0.040949  0.353939  1
  N  N26  1  0.752151  0.959051  0.146061  1
  N  N27  1  0.747849  0.540949  0.646061  1
