# generated using pymatgen
data_Dy14Er2InHg3Rh4
_symmetry_space_group_name_H-M   'P 1'
_cell_length_a   9.58887198
_cell_length_b   9.59416418
_cell_length_c   9.59176152
_cell_angle_alpha   59.99370711
_cell_angle_beta   60.03073299
_cell_angle_gamma   60.01455934
_symmetry_Int_Tables_number   1
_chemical_formula_structural   Dy14Er2InHg3Rh4
_chemical_formula_sum   'Dy14 Er2 In1 Hg3 Rh4'
_cell_volume   624.14561501
_cell_formula_units_Z   1
loop_
 _symmetry_equiv_pos_site_id
 _symmetry_equiv_pos_as_xyz
  1  'x, y, z'
loop_
 _atom_site_type_symbol
 _atom_site_label
 _atom_site_symmetry_multiplicity
 _atom_site_fract_x
 _atom_site_fract_y
 _atom_site_fract_z
 _atom_site_occupancy
  Dy  Dy0  1  0.311547  0.689216  0.310948  1
  Dy  Dy1  1  0.935764  0.936286  0.560852  1
  Dy  Dy2  1  0.148276  0.148409  0.552356  1
  Dy  Dy3  1  0.562968  0.937271  0.562080  1
  Dy  Dy4  1  0.149617  0.149779  0.149747  1
  Dy  Dy5  1  0.311199  0.310947  0.689353  1
  Dy  Dy6  1  0.937112  0.562755  0.562422  1
  Dy  Dy7  1  0.562747  0.562256  0.937547  1
  Dy  Dy8  1  0.561085  0.935856  0.936269  1
  Dy  Dy9  1  0.935676  0.560985  0.936547  1
  Dy  Dy10  1  0.147657  0.552581  0.148653  1
  Dy  Dy11  1  0.311270  0.689888  0.689705  1
  Dy  Dy12  1  0.689876  0.311171  0.689275  1
  Dy  Dy13  1  0.552857  0.147738  0.148524  1
  Er  Er14  1  0.689466  0.311332  0.310936  1
  Er  Er15  1  0.689842  0.689417  0.310771  1
  In  In16  1  0.919528  0.919578  0.920008  1
  Hg  Hg17  1  0.914700  0.914817  0.256074  1
  Hg  Hg18  1  0.255967  0.914914  0.914830  1
  Hg  Hg19  1  0.914854  0.256040  0.914938  1
  Rh  Rh20  1  0.357584  0.357083  0.357155  1
  Rh  Rh21  1  0.927168  0.357293  0.356223  1
  Rh  Rh22  1  0.356143  0.356813  0.928249  1
  Rh  Rh23  1  0.357094  0.927576  0.356538  1
