# generated using pymatgen
data_Pr7Y(CdRu)2
_symmetry_space_group_name_H-M   'P 1'
_cell_length_a   9.94849919
_cell_length_b   9.96266998
_cell_length_c   9.94850011
_cell_angle_alpha   59.95286885
_cell_angle_beta   60.09426530
_cell_angle_gamma   59.95286838
_symmetry_Int_Tables_number   1
_chemical_formula_structural   Pr7Y(CdRu)2
_chemical_formula_sum   'Pr14 Y2 Cd4 Ru4'
_cell_volume   697.22695307
_cell_formula_units_Z   2
loop_
 _symmetry_equiv_pos_site_id
 _symmetry_equiv_pos_as_xyz
  1  'x, y, z'
loop_
 _atom_site_type_symbol
 _atom_site_label
 _atom_site_symmetry_multiplicity
 _atom_site_fract_x
 _atom_site_fract_y
 _atom_site_fract_z
 _atom_site_occupancy
  Pr  Pr0  1  0.439252  0.439252  0.060748  1
  Pr  Pr1  1  0.060748  0.060748  0.439252  1
  Pr  Pr2  1  0.439252  0.060748  0.060748  1
  Pr  Pr3  1  0.845377  0.848495  0.845377  1
  Pr  Pr4  1  0.688349  0.311651  0.311651  1
  Pr  Pr5  1  0.060748  0.439252  0.439252  1
  Pr  Pr6  1  0.311651  0.688349  0.688349  1
  Pr  Pr7  1  0.311651  0.311651  0.688349  1
  Pr  Pr8  1  0.848495  0.845377  0.460751  1
  Pr  Pr9  1  0.688349  0.688349  0.311651  1
  Pr  Pr10  1  0.460751  0.845377  0.848495  1
  Pr  Pr11  1  0.060139  0.439861  0.060139  1
  Pr  Pr12  1  0.845377  0.460751  0.845377  1
  Pr  Pr13  1  0.439861  0.060139  0.439861  1
  Y  Y14  1  0.310107  0.689893  0.310107  1
  Y  Y15  1  0.689893  0.310107  0.689893  1
  Cd  Cd16  1  0.080033  0.762531  0.080033  1
  Cd  Cd17  1  0.077404  0.080033  0.762531  1
  Cd  Cd18  1  0.762531  0.080033  0.077404  1
  Cd  Cd19  1  0.080033  0.077404  0.080033  1
  Ru  Ru20  1  0.638131  0.086319  0.638131  1
  Ru  Ru21  1  0.638131  0.637417  0.638131  1
  Ru  Ru22  1  0.637417  0.638131  0.086319  1
  Ru  Ru23  1  0.086319  0.638131  0.637417  1
