# generated using pymatgen
data_Ba3Sr2SiBi2
_symmetry_space_group_name_H-M   'P 1'
_cell_length_a   8.93292100
_cell_length_b   10.34234800
_cell_length_c   14.47843800
_cell_angle_alpha   90.00000000
_cell_angle_beta   90.00000000
_cell_angle_gamma   90.00000000
_symmetry_Int_Tables_number   1
_chemical_formula_structural   Ba3Sr2SiBi2
_chemical_formula_sum   'Ba12 Sr8 Si4 Bi8'
_cell_volume   1337.62491912
_cell_formula_units_Z   4
loop_
 _symmetry_equiv_pos_site_id
 _symmetry_equiv_pos_as_xyz
  1  'x, y, z'
loop_
 _atom_site_type_symbol
 _atom_site_label
 _atom_site_symmetry_multiplicity
 _atom_site_fract_x
 _atom_site_fract_y
 _atom_site_fract_z
 _atom_site_occupancy
  Ba  Ba0  1  0.178450  0.750000  0.211406  1
  Ba  Ba1  1  0.321550  0.750000  0.711406  1
  Ba  Ba2  1  0.821550  0.250000  0.788594  1
  Ba  Ba3  1  0.678450  0.250000  0.288594  1
  Ba  Ba4  1  0.443871  0.750000  0.999930  1
  Ba  Ba5  1  0.056129  0.750000  0.499930  1
  Ba  Ba6  1  0.556129  0.250000  0.000070  1
  Ba  Ba7  1  0.943871  0.250000  0.500070  1
  Ba  Ba8  1  0.662185  0.750000  0.306271  1
  Ba  Ba9  1  0.837815  0.750000  0.806271  1
  Ba  Ba10  1  0.337815  0.250000  0.693729  1
  Ba  Ba11  1  0.162185  0.250000  0.193729  1
  Sr  Sr12  1  0.839387  0.522187  0.084109  1
  Sr  Sr13  1  0.660613  0.977813  0.584109  1
  Sr  Sr14  1  0.160613  0.022187  0.915891  1
  Sr  Sr15  1  0.339387  0.477813  0.415891  1
  Sr  Sr16  1  0.160613  0.477813  0.915891  1
  Sr  Sr17  1  0.339387  0.022187  0.415891  1
  Sr  Sr18  1  0.839387  0.977813  0.084109  1
  Sr  Sr19  1  0.660613  0.522187  0.584109  1
  Si  Si20  1  0.453399  0.750000  0.494163  1
  Si  Si21  1  0.046601  0.750000  0.994163  1
  Si  Si22  1  0.546601  0.250000  0.505837  1
  Si  Si23  1  0.953399  0.250000  0.005837  1
  Bi  Bi24  1  0.960468  0.502576  0.328982  1
  Bi  Bi25  1  0.539532  0.997424  0.828982  1
  Bi  Bi26  1  0.039532  0.002576  0.671018  1
  Bi  Bi27  1  0.460468  0.497424  0.171018  1
  Bi  Bi28  1  0.039532  0.497424  0.671018  1
  Bi  Bi29  1  0.460468  0.002576  0.171018  1
  Bi  Bi30  1  0.960468  0.997424  0.328982  1
  Bi  Bi31  1  0.539532  0.502576  0.828982  1
