# generated using pymatgen
data_Cs4NdPaBr12
_symmetry_space_group_name_H-M   'P 1'
_cell_length_a   14.30739906
_cell_length_b   14.30739757
_cell_length_c   14.30739800
_cell_angle_alpha   132.10562321
_cell_angle_beta   132.10562321
_cell_angle_gamma   70.06226060
_symmetry_Int_Tables_number   1
_chemical_formula_structural   Cs4NdPaBr12
_chemical_formula_sum   'Cs8 Nd2 Pa2 Br24'
_cell_volume   1580.40120787
_cell_formula_units_Z   2
loop_
 _symmetry_equiv_pos_site_id
 _symmetry_equiv_pos_as_xyz
  1  'x, y, z'
loop_
 _atom_site_type_symbol
 _atom_site_label
 _atom_site_symmetry_multiplicity
 _atom_site_fract_x
 _atom_site_fract_y
 _atom_site_fract_z
 _atom_site_occupancy
  Cs  Cs0  1  0.374737  0.342583  0.465079  1
  Cs  Cs1  1  0.090336  0.625245  0.967823  1
  Cs  Cs2  1  0.877480  0.909643  0.534877  1
  Cs  Cs3  1  0.092603  0.127505  0.467868  1
  Cs  Cs4  1  0.375264  0.907417  0.034921  1
  Cs  Cs5  1  0.659663  0.624755  0.532177  1
  Cs  Cs6  1  0.657398  0.122494  0.032133  1
  Cs  Cs7  1  0.872521  0.340356  0.965122  1
  Nd  Nd8  1  0.749998  0.250000  0.499999  1
  Nd  Nd9  1  0.999998  0.000005  0.000002  1
  Pa  Pa10  1  0.249983  0.749998  0.500019  1
  Pa  Pa11  1  0.500017  0.500000  0.999980  1
  Br  Br12  1  0.014638  0.770475  0.288280  1
  Br  Br13  1  0.019582  0.254405  0.264252  1
  Br  Br14  1  0.273631  0.985356  0.755810  1
  Br  Br15  1  0.004412  0.240143  0.734823  1
  Br  Br16  1  0.133709  0.633705  0.499932  1
  Br  Br17  1  0.267796  0.523616  0.788284  1
  Br  Br18  1  0.482218  0.726385  0.711729  1
  Br  Br19  1  0.505322  0.269558  0.265196  1
  Br  Br20  1  0.476369  0.264657  0.744202  1
  Br  Br21  1  0.616286  0.616294  0.000068  1
  Br  Br22  1  0.520481  0.732224  0.255831  1
  Br  Br23  1  0.124487  0.124495  0.000065  1
  Br  Br24  1  0.875512  0.875506  0.999932  1
  Br  Br25  1  0.990122  0.755322  0.735766  1
  Br  Br26  1  0.745594  0.009856  0.765180  1
  Br  Br27  1  0.244677  0.980442  0.234806  1
  Br  Br28  1  0.735347  0.479527  0.211707  1
  Br  Br29  1  0.229516  0.517765  0.244156  1
  Br  Br30  1  0.366294  0.866292  0.500059  1
  Br  Br31  1  0.874490  0.374493  0.500069  1
  Br  Br32  1  0.383707  0.383713  0.999941  1
  Br  Br33  1  0.625514  0.125504  0.499936  1
  Br  Br34  1  0.759879  0.494677  0.764231  1
  Br  Br35  1  0.730418  0.995591  0.235745  1
