# generated using pymatgen
data_Pr2Gd2(Al8Pt3)3
_symmetry_space_group_name_H-M   'P 1'
_cell_length_a   7.59396659
_cell_length_b   7.58771943
_cell_length_c   13.17604300
_cell_angle_alpha   84.50468572
_cell_angle_beta   101.05817330
_cell_angle_gamma   119.89992726
_symmetry_Int_Tables_number   1
_chemical_formula_structural   Pr2Gd2(Al8Pt3)3
_chemical_formula_sum   'Pr2 Gd2 Al24 Pt9'
_cell_volume   645.94161672
_cell_formula_units_Z   1
loop_
 _symmetry_equiv_pos_site_id
 _symmetry_equiv_pos_as_xyz
  1  'x, y, z'
loop_
 _atom_site_type_symbol
 _atom_site_label
 _atom_site_symmetry_multiplicity
 _atom_site_fract_x
 _atom_site_fract_y
 _atom_site_fract_z
 _atom_site_occupancy
  Pr  Pr0  1  0.768125  0.501445  0.808409  1
  Pr  Pr1  1  0.231875  0.498555  0.191591  1
  Gd  Gd2  1  0.437877  0.832203  0.806811  1
  Gd  Gd3  1  0.562123  0.167797  0.193189  1
  Al  Al4  1  0.480947  0.164813  0.946419  1
  Al  Al5  1  0.519053  0.835187  0.053581  1
  Al  Al6  1  0.020821  0.167294  0.561436  1
  Al  Al7  1  0.979179  0.832706  0.438564  1
  Al  Al8  1  0.352890  0.833020  0.558661  1
  Al  Al9  1  0.647110  0.166980  0.441339  1
  Al  Al10  1  0.619556  0.835412  0.332939  1
  Al  Al11  1  0.380444  0.164588  0.667061  1
  Al  Al12  1  0.055978  0.493448  0.667402  1
  Al  Al13  1  0.944022  0.506552  0.332598  1
  Al  Al14  1  0.729590  0.841119  0.666153  1
  Al  Al15  1  0.270410  0.158881  0.333847  1
  Al  Al16  1  0.149422  0.500503  0.944339  1
  Al  Al17  1  0.850578  0.499497  0.055661  1
  Al  Al18  1  0.817693  0.833739  0.955387  1
  Al  Al19  1  0.182307  0.166261  0.044613  1
  Al  Al20  1  0.314313  0.500735  0.441527  1
  Al  Al21  1  0.685687  0.499265  0.558473  1
  Al  Al22  1  0.101463  0.839598  0.183959  1
  Al  Al23  1  0.898537  0.160402  0.816041  1
  Al  Al24  1  0.304526  0.368305  0.814784  1
  Al  Al25  1  0.695474  0.631695  0.185216  1
  Al  Al26  1  0.106377  0.961885  0.815627  1
  Al  Al27  1  0.893623  0.038115  0.184373  1
  Pt  Pt28  1  0.385882  0.507294  0.637380  1
  Pt  Pt29  1  0.614118  0.492706  0.362620  1
  Pt  Pt30  1  0.170925  0.828947  0.000189  1
  Pt  Pt31  1  0.829075  0.171053  0.999811  1
  Pt  Pt32  1  0.295510  0.833921  0.362400  1
  Pt  Pt33  1  0.704490  0.166079  0.637600  1
  Pt  Pt34  1  0.046141  0.826228  0.636129  1
  Pt  Pt35  1  0.953859  0.173772  0.363871  1
  Pt  Pt36  1  0.500000  0.500000  0.000000  1
