# generated using pymatgen
data_Hf7ZrCo11Si16Ni
_symmetry_space_group_name_H-M   'P 1'
_cell_length_a   5.19730211
_cell_length_b   6.74890063
_cell_length_c   13.67044702
_cell_angle_alpha   89.84699511
_cell_angle_beta   89.90665744
_cell_angle_gamma   90.01149735
_symmetry_Int_Tables_number   1
_chemical_formula_structural   Hf7ZrCo11Si16Ni
_chemical_formula_sum   'Hf7 Zr1 Co11 Si16 Ni1'
_cell_volume   479.50327583
_cell_formula_units_Z   1
loop_
 _symmetry_equiv_pos_site_id
 _symmetry_equiv_pos_as_xyz
  1  'x, y, z'
loop_
 _atom_site_type_symbol
 _atom_site_label
 _atom_site_symmetry_multiplicity
 _atom_site_fract_x
 _atom_site_fract_y
 _atom_site_fract_z
 _atom_site_occupancy
  Hf  Hf0  1  0.730882  0.102076  0.146882  1
  Hf  Hf1  1  0.269761  0.100029  0.645847  1
  Hf  Hf2  1  0.769670  0.398661  0.646078  1
  Hf  Hf3  1  0.230127  0.601241  0.354178  1
  Hf  Hf4  1  0.731474  0.899124  0.354050  1
  Hf  Hf5  1  0.267929  0.896231  0.852314  1
  Hf  Hf6  1  0.768450  0.600223  0.852605  1
  Zr  Zr7  1  0.232147  0.401081  0.147249  1
  Co  Co8  1  0.506455  0.223897  0.481416  1
  Co  Co9  1  0.775807  0.000019  0.749567  1
  Co  Co10  1  0.493609  0.223939  0.981341  1
  Co  Co11  1  0.723327  0.501711  0.250604  1
  Co  Co12  1  0.494652  0.775848  0.518414  1
  Co  Co13  1  0.006109  0.276502  0.481518  1
  Co  Co14  1  0.004034  0.731902  0.017919  1
  Co  Co15  1  0.225095  0.999404  0.251281  1
  Co  Co16  1  0.277003  0.498845  0.750434  1
  Co  Co17  1  0.504703  0.774777  0.018794  1
  Co  Co18  1  0.994622  0.723346  0.518666  1
  Si  Si19  1  0.222482  0.017862  0.070890  1
  Si  Si20  1  0.716732  0.519414  0.432087  1
  Si  Si21  1  0.784231  0.018980  0.567588  1
  Si  Si22  1  0.481349  0.755563  0.188075  1
  Si  Si23  1  0.020895  0.252321  0.810996  1
  Si  Si24  1  0.519336  0.244708  0.812558  1
  Si  Si25  1  0.216814  0.981112  0.432568  1
  Si  Si26  1  0.282461  0.521884  0.932621  1
  Si  Si27  1  0.978582  0.748111  0.187770  1
  Si  Si28  1  0.718751  0.483442  0.068646  1
  Si  Si29  1  0.284016  0.480332  0.567958  1
  Si  Si30  1  0.480663  0.246263  0.312744  1
  Si  Si31  1  0.020175  0.745305  0.687526  1
  Si  Si32  1  0.775589  0.977446  0.929244  1
  Si  Si33  1  0.520912  0.753237  0.687317  1
  Si  Si34  1  0.979435  0.254143  0.312839  1
  Ni  Ni35  1  0.991718  0.271023  0.979419  1
