# generated using pymatgen
data_SmY3ThSn4
_symmetry_space_group_name_H-M   'P 1'
_cell_length_a   8.12502400
_cell_length_b   8.23134300
_cell_length_c   15.56647200
_cell_angle_alpha   90.00000000
_cell_angle_beta   90.00000000
_cell_angle_gamma   90.00000000
_symmetry_Int_Tables_number   1
_chemical_formula_structural   SmY3ThSn4
_chemical_formula_sum   'Sm4 Y12 Th4 Sn16'
_cell_volume   1041.08345914
_cell_formula_units_Z   4
loop_
 _symmetry_equiv_pos_site_id
 _symmetry_equiv_pos_as_xyz
  1  'x, y, z'
loop_
 _atom_site_type_symbol
 _atom_site_label
 _atom_site_symmetry_multiplicity
 _atom_site_fract_x
 _atom_site_fract_y
 _atom_site_fract_z
 _atom_site_occupancy
  Sm  Sm0  1  0.475585  0.678521  0.099438  1
  Sm  Sm1  1  0.975585  0.821479  0.400562  1
  Sm  Sm2  1  0.524415  0.321479  0.599438  1
  Sm  Sm3  1  0.024415  0.178521  0.900562  1
  Y  Y4  1  0.366005  0.836869  0.877128  1
  Y  Y5  1  0.866005  0.663131  0.622872  1
  Y  Y6  1  0.633995  0.163131  0.377128  1
  Y  Y7  1  0.133995  0.336869  0.122872  1
  Y  Y8  1  0.634158  0.164655  0.122664  1
  Y  Y9  1  0.134158  0.335345  0.377336  1
  Y  Y10  1  0.365842  0.835345  0.622664  1
  Y  Y11  1  0.865842  0.664655  0.877336  1
  Y  Y12  1  0.196202  0.500750  0.749697  1
  Y  Y13  1  0.696202  0.999250  0.750303  1
  Y  Y14  1  0.803798  0.499250  0.249697  1
  Y  Y15  1  0.303798  0.000750  0.250303  1
  Th  Th16  1  0.519244  0.320597  0.902983  1
  Th  Th17  1  0.019244  0.179403  0.597017  1
  Th  Th18  1  0.480756  0.679403  0.402983  1
  Th  Th19  1  0.980756  0.820597  0.097017  1
  Sn  Sn20  1  0.295656  0.038996  0.041206  1
  Sn  Sn21  1  0.795656  0.461004  0.458794  1
  Sn  Sn22  1  0.704344  0.961004  0.541206  1
  Sn  Sn23  1  0.204344  0.538996  0.958794  1
  Sn  Sn24  1  0.707734  0.966994  0.957508  1
  Sn  Sn25  1  0.207734  0.533006  0.542492  1
  Sn  Sn26  1  0.292266  0.033006  0.457508  1
  Sn  Sn27  1  0.792266  0.466994  0.042492  1
  Sn  Sn28  1  0.563506  0.621431  0.751082  1
  Sn  Sn29  1  0.063506  0.878569  0.748918  1
  Sn  Sn30  1  0.436494  0.378569  0.251082  1
  Sn  Sn31  1  0.936494  0.121431  0.248918  1
  Sn  Sn32  1  0.328198  0.143985  0.748829  1
  Sn  Sn33  1  0.828198  0.356015  0.751171  1
  Sn  Sn34  1  0.671802  0.856015  0.248829  1
  Sn  Sn35  1  0.171802  0.643985  0.251171  1
