# generated using pymatgen
data_Dy5ThUO12
_symmetry_space_group_name_H-M   'P 1'
_cell_length_a   6.64718857
_cell_length_b   6.61022345
_cell_length_c   6.63866917
_cell_angle_alpha   99.15382498
_cell_angle_beta   99.10153361
_cell_angle_gamma   99.32427381
_symmetry_Int_Tables_number   1
_chemical_formula_structural   Dy5ThUO12
_chemical_formula_sum   'Dy5 Th1 U1 O12'
_cell_volume   279.06689124
_cell_formula_units_Z   1
loop_
 _symmetry_equiv_pos_site_id
 _symmetry_equiv_pos_as_xyz
  1  'x, y, z'
loop_
 _atom_site_type_symbol
 _atom_site_label
 _atom_site_symmetry_multiplicity
 _atom_site_fract_x
 _atom_site_fract_y
 _atom_site_fract_z
 _atom_site_occupancy
  Dy  Dy0  1  0.853173  0.387743  0.679075  1
  Dy  Dy1  1  0.690073  0.858944  0.395268  1
  Dy  Dy2  1  0.612209  0.312297  0.145663  1
  Dy  Dy3  1  0.136423  0.608204  0.313767  1
  Dy  Dy4  1  0.316987  0.142499  0.602692  1
  Th  Th5  1  0.393923  0.689021  0.859539  1
  U  U6  1  0.002871  0.005716  0.002235  1
  O  O7  1  0.176977  0.429222  0.585421  1
  O  O8  1  0.584615  0.177562  0.429765  1
  O  O9  1  0.427467  0.582461  0.177434  1
  O  O10  1  0.820943  0.569665  0.413956  1
  O  O11  1  0.414899  0.820230  0.566038  1
  O  O12  1  0.571312  0.413020  0.822198  1
  O  O13  1  0.917018  0.053032  0.689444  1
  O  O14  1  0.947449  0.315675  0.080886  1
  O  O15  1  0.316407  0.071757  0.939185  1
  O  O16  1  0.080800  0.947235  0.313036  1
  O  O17  1  0.047379  0.687682  0.921087  1
  O  O18  1  0.689075  0.928033  0.063311  1
