# generated using pymatgen
data_NdLu(BrO3)6
_symmetry_space_group_name_H-M   'P 1'
_cell_length_a   9.95023100
_cell_length_b   9.95023004
_cell_length_c   5.91783900
_cell_angle_alpha   90.00000000
_cell_angle_beta   90.00000000
_cell_angle_gamma   119.99998835
_symmetry_Int_Tables_number   1
_chemical_formula_structural   NdLu(BrO3)6
_chemical_formula_sum   'Nd1 Lu1 Br6 O18'
_cell_volume   507.41127455
_cell_formula_units_Z   1
loop_
 _symmetry_equiv_pos_site_id
 _symmetry_equiv_pos_as_xyz
  1  'x, y, z'
loop_
 _atom_site_type_symbol
 _atom_site_label
 _atom_site_symmetry_multiplicity
 _atom_site_fract_x
 _atom_site_fract_y
 _atom_site_fract_z
 _atom_site_occupancy
  Nd  Nd0  1  0.666667  0.333333  0.697962  1
  Lu  Lu1  1  0.333333  0.666667  0.199030  1
  Br  Br2  1  0.679062  0.011372  0.362760  1
  Br  Br3  1  0.306360  0.967566  0.874763  1
  Br  Br4  1  0.032434  0.338793  0.874763  1
  Br  Br5  1  0.332309  0.320938  0.362760  1
  Br  Br6  1  0.988628  0.667691  0.362760  1
  Br  Br7  1  0.661207  0.693640  0.874763  1
  O  O8  1  0.770867  0.830043  0.054304  1
  O  O9  1  0.962596  0.774582  0.548122  1
  O  O10  1  0.811986  0.037404  0.548122  1
  O  O11  1  0.169957  0.940824  0.054304  1
  O  O12  1  0.059176  0.229133  0.054304  1
  O  O13  1  0.225418  0.188014  0.548122  1
  O  O14  1  0.702793  0.547893  0.917442  1
  O  O15  1  0.174229  0.704104  0.412319  1
  O  O16  1  0.520265  0.401277  0.454793  1
  O  O17  1  0.133127  0.525471  0.975634  1
  O  O18  1  0.392345  0.866873  0.975634  1
  O  O19  1  0.598723  0.118988  0.454793  1
  O  O20  1  0.881012  0.479735  0.454793  1
  O  O21  1  0.474529  0.607655  0.975634  1
  O  O22  1  0.295896  0.470125  0.412319  1
  O  O23  1  0.845100  0.297207  0.917442  1
  O  O24  1  0.452107  0.154900  0.917442  1
  O  O25  1  0.529875  0.825771  0.412319  1
