# generated using pymatgen
data_Pr7Y9Cd3InIr4
_symmetry_space_group_name_H-M   'P 1'
_cell_length_a   9.81127026
_cell_length_b   9.81126358
_cell_length_c   9.81963646
_cell_angle_alpha   60.23956989
_cell_angle_beta   60.23940349
_cell_angle_gamma   60.30702589
_symmetry_Int_Tables_number   1
_chemical_formula_structural   Pr7Y9Cd3InIr4
_chemical_formula_sum   'Pr7 Y9 Cd3 In1 Ir4'
_cell_volume   672.35414083
_cell_formula_units_Z   1
loop_
 _symmetry_equiv_pos_site_id
 _symmetry_equiv_pos_as_xyz
  1  'x, y, z'
loop_
 _atom_site_type_symbol
 _atom_site_label
 _atom_site_symmetry_multiplicity
 _atom_site_fract_x
 _atom_site_fract_y
 _atom_site_fract_z
 _atom_site_occupancy
  Pr  Pr0  1  0.810488  0.810488  0.186914  1
  Pr  Pr1  1  0.944074  0.558414  0.559906  1
  Pr  Pr2  1  0.557899  0.942063  0.940755  1
  Pr  Pr3  1  0.558413  0.944074  0.559906  1
  Pr  Pr4  1  0.942062  0.557900  0.940755  1
  Pr  Pr5  1  0.558794  0.558794  0.942920  1
  Pr  Pr6  1  0.941059  0.941059  0.559244  1
  Y  Y7  1  0.346681  0.346681  0.346761  1
  Y  Y8  1  0.348019  0.348019  0.957222  1
  Y  Y9  1  0.345923  0.957691  0.349497  1
  Y  Y10  1  0.957691  0.345924  0.349497  1
  Y  Y11  1  0.810909  0.190336  0.187015  1
  Y  Y12  1  0.190836  0.809997  0.808177  1
  Y  Y13  1  0.190335  0.810909  0.187015  1
  Y  Y14  1  0.809998  0.190836  0.808177  1
  Y  Y15  1  0.187421  0.187422  0.811807  1
  Cd  Cd16  1  0.577848  0.577849  0.262132  1
  Cd  Cd17  1  0.578785  0.261845  0.578887  1
  Cd  Cd18  1  0.261845  0.578785  0.578888  1
  In  In19  1  0.578911  0.578910  0.581594  1
  Ir  Ir20  1  0.140728  0.140729  0.142138  1
  Ir  Ir21  1  0.140935  0.140935  0.578177  1
  Ir  Ir22  1  0.145005  0.575334  0.141306  1
  Ir  Ir23  1  0.575334  0.145005  0.141306  1
