# generated using pymatgen
data_YbCeMnIr3
_symmetry_space_group_name_H-M   'P 1'
_cell_length_a   5.16901523
_cell_length_b   5.48262142
_cell_length_c   5.48262200
_cell_angle_alpha   59.99999650
_cell_angle_beta   57.97189067
_cell_angle_gamma   57.97190090
_symmetry_Int_Tables_number   1
_chemical_formula_structural   YbCeMnIr3
_chemical_formula_sum   'Yb1 Ce1 Mn1 Ir3'
_cell_volume   106.37816693
_cell_formula_units_Z   1
loop_
 _symmetry_equiv_pos_site_id
 _symmetry_equiv_pos_as_xyz
  1  'x, y, z'
loop_
 _atom_site_type_symbol
 _atom_site_label
 _atom_site_symmetry_multiplicity
 _atom_site_fract_x
 _atom_site_fract_y
 _atom_site_fract_z
 _atom_site_occupancy
  Yb  Yb0  1  0.750567  0.749811  0.749811  1
  Ce  Ce1  1  0.499867  0.500044  0.500044  1
  Mn  Mn2  1  0.624544  0.125152  0.125152  1
  Ir  Ir3  1  0.125007  0.124358  0.124358  1
  Ir  Ir4  1  0.125007  0.124358  0.626276  1
  Ir  Ir5  1  0.125007  0.626276  0.124358  1
