# generated using pymatgen
data_Tm4Th6Ge20Ir7Rh
_symmetry_space_group_name_H-M   'P 1'
_cell_length_a   13.10598064
_cell_length_b   13.11130763
_cell_length_c   4.39324600
_cell_angle_alpha   90.00000000
_cell_angle_beta   90.00000000
_cell_angle_gamma   89.96434701
_symmetry_Int_Tables_number   1
_chemical_formula_structural   Tm4Th6Ge20Ir7Rh
_chemical_formula_sum   'Tm4 Th6 Ge20 Ir7 Rh1'
_cell_volume   754.92006321
_cell_formula_units_Z   1
loop_
 _symmetry_equiv_pos_site_id
 _symmetry_equiv_pos_as_xyz
  1  'x, y, z'
loop_
 _atom_site_type_symbol
 _atom_site_label
 _atom_site_symmetry_multiplicity
 _atom_site_fract_x
 _atom_site_fract_y
 _atom_site_fract_z
 _atom_site_occupancy
  Tm  Tm0  1  0.325785  0.825324  0.500000  1
  Tm  Tm1  1  0.826028  0.674696  0.500000  1
  Tm  Tm2  1  0.174475  0.325942  0.500000  1
  Tm  Tm3  1  0.674767  0.174066  0.500000  1
  Th  Th4  1  0.112854  0.612939  0.500000  1
  Th  Th5  1  0.612678  0.887220  0.500000  1
  Th  Th6  1  0.386277  0.111740  0.500000  1
  Th  Th7  1  0.887337  0.387346  0.500000  1
  Th  Th8  1  0.500132  0.499262  0.000000  1
  Th  Th9  1  0.999812  0.000458  0.000000  1
  Ge  Ge10  1  0.338704  0.495827  0.500000  1
  Ge  Ge11  1  0.661338  0.505328  0.500000  1
  Ge  Ge12  1  0.503731  0.336910  0.500000  1
  Ge  Ge13  1  0.495161  0.660601  0.500000  1
  Ge  Ge14  1  0.995424  0.839197  0.500000  1
  Ge  Ge15  1  0.838622  0.004713  0.500000  1
  Ge  Ge16  1  0.160990  0.994834  0.500000  1
  Ge  Ge17  1  0.004883  0.161248  0.500000  1
  Ge  Ge18  1  0.337429  0.300934  0.000000  1
  Ge  Ge19  1  0.663856  0.699397  0.000000  1
  Ge  Ge20  1  0.699010  0.336627  0.000000  1
  Ge  Ge21  1  0.300434  0.663484  0.000000  1
  Ge  Ge22  1  0.800443  0.836535  0.000000  1
  Ge  Ge23  1  0.836080  0.199869  0.000000  1
  Ge  Ge24  1  0.163910  0.800708  0.000000  1
  Ge  Ge25  1  0.199990  0.164146  0.000000  1
  Ge  Ge26  1  0.432921  0.931922  0.000000  1
  Ge  Ge27  1  0.932892  0.567646  0.000000  1
  Ge  Ge28  1  0.566332  0.067874  0.000000  1
  Ge  Ge29  1  0.067271  0.432607  0.000000  1
  Ir  Ir30  1  0.245210  0.977921  0.000000  1
  Ir  Ir31  1  0.754534  0.022509  0.000000  1
  Ir  Ir32  1  0.022339  0.244936  0.000000  1
  Ir  Ir33  1  0.977883  0.755313  0.000000  1
  Ir  Ir34  1  0.477642  0.744122  0.000000  1
  Ir  Ir35  1  0.745383  0.522407  0.000000  1
  Ir  Ir36  1  0.254936  0.477635  0.000000  1
  Rh  Rh37  1  0.522507  0.255757  0.000000  1
