# generated using pymatgen
data_Rb3SmIr2O9
_symmetry_space_group_name_H-M   'P 1'
_cell_length_a   6.15115300
_cell_length_b   6.15109880
_cell_length_c   14.85170400
_cell_angle_alpha   90.00090586
_cell_angle_beta   89.99944797
_cell_angle_gamma   120.00233471
_symmetry_Int_Tables_number   1
_chemical_formula_structural   Rb3SmIr2O9
_chemical_formula_sum   'Rb6 Sm2 Ir4 O18'
_cell_volume   486.63790255
_cell_formula_units_Z   2
loop_
 _symmetry_equiv_pos_site_id
 _symmetry_equiv_pos_as_xyz
  1  'x, y, z'
loop_
 _atom_site_type_symbol
 _atom_site_label
 _atom_site_symmetry_multiplicity
 _atom_site_fract_x
 _atom_site_fract_y
 _atom_site_fract_z
 _atom_site_occupancy
  Rb  Rb0  1  0.333326  0.666668  0.102681  1
  Rb  Rb1  1  0.999991  0.000011  0.250019  1
  Rb  Rb2  1  0.333333  0.666676  0.397363  1
  Rb  Rb3  1  0.666676  0.333328  0.602638  1
  Rb  Rb4  1  0.000009  0.999993  0.750012  1
  Rb  Rb5  1  0.666670  0.333322  0.897457  1
  Sm  Sm6  1  0.000009  0.000000  0.999932  1
  Sm  Sm7  1  0.000006  0.999985  0.500008  1
  Ir  Ir8  1  0.666661  0.333338  0.154592  1
  Ir  Ir9  1  0.666663  0.333337  0.345377  1
  Ir  Ir10  1  0.333341  0.666659  0.654603  1
  Ir  Ir11  1  0.333340  0.666661  0.845422  1
  O  O12  1  0.819008  0.638053  0.086940  1
  O  O13  1  0.818997  0.180972  0.086946  1
  O  O14  1  0.361937  0.180985  0.086942  1
  O  O15  1  0.532259  0.064559  0.249956  1
  O  O16  1  0.935436  0.467731  0.249955  1
  O  O17  1  0.532300  0.467715  0.249957  1
  O  O18  1  0.819027  0.180986  0.413043  1
  O  O19  1  0.361927  0.181003  0.413047  1
  O  O20  1  0.819022  0.638083  0.413045  1
  O  O21  1  0.180943  0.361891  0.586954  1
  O  O22  1  0.638109  0.819056  0.586953  1
  O  O23  1  0.180976  0.819051  0.586946  1
  O  O24  1  0.467698  0.532286  0.749989  1
  O  O25  1  0.064614  0.532286  0.749989  1
  O  O26  1  0.467723  0.935390  0.749992  1
  O  O27  1  0.180919  0.819081  0.913087  1
  O  O28  1  0.638187  0.819089  0.913080  1
  O  O29  1  0.180897  0.361812  0.913080  1
