# generated using pymatgen
data_CeSmRh2Pb
_symmetry_space_group_name_H-M   'P 1'
_cell_length_a   7.79609439
_cell_length_b   7.79609446
_cell_length_c   3.69537500
_cell_angle_alpha   90.00000000
_cell_angle_beta   90.00000000
_cell_angle_gamma   93.54165048
_symmetry_Int_Tables_number   1
_chemical_formula_structural   CeSmRh2Pb
_chemical_formula_sum   'Ce2 Sm2 Rh4 Pb2'
_cell_volume   224.17256930
_cell_formula_units_Z   2
loop_
 _symmetry_equiv_pos_site_id
 _symmetry_equiv_pos_as_xyz
  1  'x, y, z'
loop_
 _atom_site_type_symbol
 _atom_site_label
 _atom_site_symmetry_multiplicity
 _atom_site_fract_x
 _atom_site_fract_y
 _atom_site_fract_z
 _atom_site_occupancy
  Ce  Ce0  1  0.669926  0.169926  0.500000  1
  Ce  Ce1  1  0.330074  0.830074  0.500000  1
  Sm  Sm2  1  0.169452  0.330548  0.500000  1
  Sm  Sm3  1  0.830548  0.669452  0.500000  1
  Rh  Rh4  1  0.141346  0.641346  0.000000  1
  Rh  Rh5  1  0.858654  0.358654  0.000000  1
  Rh  Rh6  1  0.625368  0.874632  0.000000  1
  Rh  Rh7  1  0.374632  0.125368  0.000000  1
  Pb  Pb8  1  0.000000  0.000000  0.000000  1
  Pb  Pb9  1  0.500000  0.500000  0.000000  1
