# generated using pymatgen
data_Sm6GaSi5Rh12
_symmetry_space_group_name_H-M   'P 1'
_cell_length_a   5.63280500
_cell_length_b   5.63280319
_cell_length_c   15.22825200
_cell_angle_alpha   90.00000000
_cell_angle_beta   90.00000000
_cell_angle_gamma   119.99999301
_symmetry_Int_Tables_number   1
_chemical_formula_structural   Sm6GaSi5Rh12
_chemical_formula_sum   'Sm6 Ga1 Si5 Rh12'
_cell_volume   418.43693405
_cell_formula_units_Z   1
loop_
 _symmetry_equiv_pos_site_id
 _symmetry_equiv_pos_as_xyz
  1  'x, y, z'
loop_
 _atom_site_type_symbol
 _atom_site_label
 _atom_site_symmetry_multiplicity
 _atom_site_fract_x
 _atom_site_fract_y
 _atom_site_fract_z
 _atom_site_occupancy
  Sm  Sm0  1  0.666667  0.333333  0.962244  1
  Sm  Sm1  1  0.666667  0.333333  0.537338  1
  Sm  Sm2  1  0.333333  0.666667  0.037756  1
  Sm  Sm3  1  0.666667  0.333333  0.750146  1
  Sm  Sm4  1  0.333333  0.666667  0.462662  1
  Sm  Sm5  1  0.333333  0.666667  0.249854  1
  Ga  Ga6  1  0.000000  0.000000  0.500000  1
  Si  Si7  1  0.666667  0.333333  0.247885  1
  Si  Si8  1  0.000000  0.000000  0.248557  1
  Si  Si9  1  0.000000  0.000000  0.751443  1
  Si  Si10  1  0.333333  0.666667  0.752115  1
  Si  Si11  1  0.000000  0.000000  0.000000  1
  Rh  Rh12  1  0.166142  0.332284  0.868753  1
  Rh  Rh13  1  0.167364  0.334728  0.635905  1
  Rh  Rh14  1  0.667716  0.833858  0.868753  1
  Rh  Rh15  1  0.334728  0.167364  0.364095  1
  Rh  Rh16  1  0.832636  0.665272  0.364095  1
  Rh  Rh17  1  0.832636  0.167364  0.364095  1
  Rh  Rh18  1  0.833858  0.166142  0.131247  1
  Rh  Rh19  1  0.332284  0.166142  0.131247  1
  Rh  Rh20  1  0.665272  0.832636  0.635905  1
  Rh  Rh21  1  0.167364  0.832636  0.635905  1
  Rh  Rh22  1  0.833858  0.667716  0.131247  1
  Rh  Rh23  1  0.166142  0.833858  0.868753  1
