# generated using pymatgen
data_CaTa4O8
_symmetry_space_group_name_H-M   'P 1'
_cell_length_a   7.09718736
_cell_length_b   7.09718624
_cell_length_c   9.74105827
_cell_angle_alpha   86.72061136
_cell_angle_beta   93.27937690
_cell_angle_gamma   86.67834103
_symmetry_Int_Tables_number   1
_chemical_formula_structural   CaTa4O8
_chemical_formula_sum   'Ca3 Ta12 O24'
_cell_volume   488.12890369
_cell_formula_units_Z   3
loop_
 _symmetry_equiv_pos_site_id
 _symmetry_equiv_pos_as_xyz
  1  'x, y, z'
loop_
 _atom_site_type_symbol
 _atom_site_label
 _atom_site_symmetry_multiplicity
 _atom_site_fract_x
 _atom_site_fract_y
 _atom_site_fract_z
 _atom_site_occupancy
  Ca  Ca0  1  0.624223  0.375777  0.122152  1
  Ca  Ca1  1  0.897168  0.102832  0.396628  1
  Ca  Ca2  1  0.369435  0.630565  0.871853  1
  Ta  Ta3  1  0.099165  0.900835  0.098070  1
  Ta  Ta4  1  0.597371  0.402629  0.598449  1
  Ta  Ta5  1  0.397548  0.602452  0.400140  1
  Ta  Ta6  1  0.900972  0.099028  0.898557  1
  Ta  Ta7  1  0.600526  0.831594  0.614077  1
  Ta  Ta8  1  0.105373  0.329632  0.114362  1
  Ta  Ta9  1  0.670368  0.894627  0.114362  1
  Ta  Ta10  1  0.168407  0.399474  0.614077  1
  Ta  Ta11  1  0.328838  0.104738  0.882153  1
  Ta  Ta12  1  0.832376  0.601461  0.389419  1
  Ta  Ta13  1  0.398539  0.167624  0.389419  1
  Ta  Ta14  1  0.895262  0.671162  0.882153  1
  O  O15  1  0.596901  0.088343  0.251963  1
  O  O16  1  0.083760  0.582472  0.752897  1
  O  O17  1  0.417528  0.916240  0.752897  1
  O  O18  1  0.911657  0.403099  0.251963  1
  O  O19  1  0.826013  0.824131  0.500863  1
  O  O20  1  0.332013  0.333184  0.999594  1
  O  O21  1  0.175869  0.173987  0.500863  1
  O  O22  1  0.666816  0.667987  0.999594  1
  O  O23  1  0.179913  0.091905  0.237917  1
  O  O24  1  0.672940  0.593093  0.738802  1
  O  O25  1  0.126355  0.590730  0.451784  1
  O  O26  1  0.628141  0.104178  0.961683  1
  O  O27  1  0.091854  0.188572  0.766908  1
  O  O28  1  0.595952  0.672731  0.262296  1
  O  O29  1  0.605335  0.127292  0.543276  1
  O  O30  1  0.101366  0.626983  0.040330  1
  O  O31  1  0.811428  0.908146  0.766908  1
  O  O32  1  0.327269  0.404048  0.262296  1
  O  O33  1  0.872708  0.394665  0.543276  1
  O  O34  1  0.373017  0.898634  0.040330  1
  O  O35  1  0.908095  0.820087  0.237917  1
  O  O36  1  0.406907  0.327060  0.738802  1
  O  O37  1  0.409270  0.873645  0.451784  1
  O  O38  1  0.895822  0.371859  0.961683  1
