# generated using pymatgen
data_Ba2Sr3(TiN3)2
_symmetry_space_group_name_H-M   'P 1'
_cell_length_a   6.48726963
_cell_length_b   9.34714960
_cell_length_c   9.57017352
_cell_angle_alpha   104.19487151
_cell_angle_beta   105.98830998
_cell_angle_gamma   106.74805619
_symmetry_Int_Tables_number   1
_chemical_formula_structural   Ba2Sr3(TiN3)2
_chemical_formula_sum   'Ba4 Sr6 Ti4 N12'
_cell_volume   499.88790737
_cell_formula_units_Z   2
loop_
 _symmetry_equiv_pos_site_id
 _symmetry_equiv_pos_as_xyz
  1  'x, y, z'
loop_
 _atom_site_type_symbol
 _atom_site_label
 _atom_site_symmetry_multiplicity
 _atom_site_fract_x
 _atom_site_fract_y
 _atom_site_fract_z
 _atom_site_occupancy
  Ba  Ba0  1  0.806377  0.561431  0.601932  1
  Ba  Ba1  1  0.193623  0.438569  0.398068  1
  Ba  Ba2  1  0.192975  0.985468  0.862999  1
  Ba  Ba3  1  0.807025  0.014532  0.137001  1
  Sr  Sr4  1  0.819553  0.126117  0.556592  1
  Sr  Sr5  1  0.180446  0.873882  0.443407  1
  Sr  Sr6  1  0.443354  0.589668  0.870404  1
  Sr  Sr7  1  0.556645  0.410333  0.129596  1
  Sr  Sr8  1  0.978863  0.296870  0.951508  1
  Sr  Sr9  1  0.021137  0.703130  0.048493  1
  Ti  Ti10  1  0.429142  0.149385  0.297552  1
  Ti  Ti11  1  0.570857  0.850615  0.702447  1
  Ti  Ti12  1  0.458418  0.243481  0.709899  1
  Ti  Ti13  1  0.541582  0.756520  0.290100  1
  N  N14  1  0.342616  0.191251  0.482095  1
  N  N15  1  0.657384  0.808748  0.517905  1
  N  N16  1  0.561610  0.070651  0.746403  1
  N  N17  1  0.438391  0.929349  0.253597  1
  N  N18  1  0.221681  0.258175  0.791955  1
  N  N19  1  0.778318  0.741824  0.208044  1
  N  N20  1  0.723060  0.437535  0.825526  1
  N  N21  1  0.276942  0.562465  0.174475  1
  N  N22  1  0.226100  0.182163  0.137937  1
  N  N23  1  0.773898  0.817837  0.862063  1
  N  N24  1  0.735254  0.297586  0.338104  1
  N  N25  1  0.264748  0.702415  0.661896  1
