# generated using pymatgen
data_Ag2SnBi(Pt2O7)2
_symmetry_space_group_name_H-M   'P 1'
_cell_length_a   7.25074532
_cell_length_b   7.23181462
_cell_length_c   7.12539500
_cell_angle_alpha   60.48560645
_cell_angle_beta   60.57025541
_cell_angle_gamma   61.39536470
_symmetry_Int_Tables_number   1
_chemical_formula_structural   Ag2SnBi(Pt2O7)2
_chemical_formula_sum   'Ag2 Sn1 Bi1 Pt4 O14'
_cell_volume   269.02229467
_cell_formula_units_Z   1
loop_
 _symmetry_equiv_pos_site_id
 _symmetry_equiv_pos_as_xyz
  1  'x, y, z'
loop_
 _atom_site_type_symbol
 _atom_site_label
 _atom_site_symmetry_multiplicity
 _atom_site_fract_x
 _atom_site_fract_y
 _atom_site_fract_z
 _atom_site_occupancy
  Ag  Ag0  1  0.125000  0.125000  0.625000  1
  Ag  Ag1  1  0.125000  0.125000  0.125000  1
  Sn  Sn2  1  0.625000  0.125000  0.125000  1
  Bi  Bi3  1  0.125000  0.625000  0.125000  1
  Pt  Pt4  1  0.625000  0.625000  0.125000  1
  Pt  Pt5  1  0.625000  0.125000  0.625000  1
  Pt  Pt6  1  0.125000  0.625000  0.625000  1
  Pt  Pt7  1  0.625000  0.625000  0.625000  1
  O  O8  1  0.273333  0.230252  0.248208  1
  O  O9  1  0.976667  0.019748  0.001792  1
  O  O10  1  0.557615  0.958931  0.519674  1
  O  O11  1  0.293557  0.706933  0.288066  1
  O  O12  1  0.542420  0.530454  0.963563  1
  O  O13  1  0.956443  0.543067  0.538555  1
  O  O14  1  0.557615  0.958931  0.963780  1
  O  O15  1  0.956884  0.960031  0.541542  1
  O  O16  1  0.956443  0.543067  0.961934  1
  O  O17  1  0.692385  0.291069  0.286220  1
  O  O18  1  0.293557  0.706933  0.711445  1
  O  O19  1  0.692385  0.291069  0.730326  1
  O  O20  1  0.293116  0.289969  0.708458  1
  O  O21  1  0.707580  0.719546  0.286437  1
