# generated using pymatgen
data_Ca2LaNd5(SiPd)8
_symmetry_space_group_name_H-M   'P 1'
_cell_length_a   5.87585769
_cell_length_b   7.86880254
_cell_length_c   10.84180370
_cell_angle_alpha   88.57953598
_cell_angle_beta   89.73410730
_cell_angle_gamma   89.70485091
_symmetry_Int_Tables_number   1
_chemical_formula_structural   Ca2LaNd5(SiPd)8
_chemical_formula_sum   'Ca2 La1 Nd5 Si8 Pd8'
_cell_volume   501.11544554
_cell_formula_units_Z   1
loop_
 _symmetry_equiv_pos_site_id
 _symmetry_equiv_pos_as_xyz
  1  'x, y, z'
loop_
 _atom_site_type_symbol
 _atom_site_label
 _atom_site_symmetry_multiplicity
 _atom_site_fract_x
 _atom_site_fract_y
 _atom_site_fract_z
 _atom_site_occupancy
  Ca  Ca0  1  0.369765  0.968380  0.141041  1
  Ca  Ca1  1  0.629586  0.031293  0.859631  1
  La  La2  1  0.628532  0.327142  0.369023  1
  Nd  Nd3  1  0.864284  0.528853  0.858273  1
  Nd  Nd4  1  0.134472  0.471888  0.141283  1
  Nd  Nd5  1  0.872144  0.824630  0.368846  1
  Nd  Nd6  1  0.128374  0.175407  0.632188  1
  Nd  Nd7  1  0.369899  0.672378  0.631189  1
  Si  Si8  1  0.869685  0.536295  0.579000  1
  Si  Si9  1  0.130040  0.466226  0.422568  1
  Si  Si10  1  0.366922  0.961348  0.425599  1
  Si  Si11  1  0.631593  0.035336  0.577836  1
  Si  Si12  1  0.641048  0.630214  0.141898  1
  Si  Si13  1  0.358073  0.371655  0.856350  1
  Si  Si14  1  0.133932  0.873577  0.855813  1
  Si  Si15  1  0.868546  0.126265  0.141661  1
  Pd  Pd16  1  0.901313  0.842799  0.050929  1
  Pd  Pd17  1  0.101267  0.156673  0.947048  1
  Pd  Pd18  1  0.393913  0.662090  0.946710  1
  Pd  Pd19  1  0.605473  0.338290  0.052011  1
  Pd  Pd20  1  0.887247  0.822705  0.670467  1
  Pd  Pd21  1  0.112211  0.176655  0.330441  1
  Pd  Pd22  1  0.392225  0.678761  0.330685  1
  Pd  Pd23  1  0.609455  0.321137  0.669510  1
