# generated using pymatgen
data_K4Ta2Se11
_symmetry_space_group_name_H-M   'P 1'
_cell_length_a   8.29779154
_cell_length_b   9.41800028
_cell_length_c   14.11335600
_cell_angle_alpha   72.87344238
_cell_angle_beta   89.21866074
_cell_angle_gamma   85.61923260
_symmetry_Int_Tables_number   1
_chemical_formula_structural   K4Ta2Se11
_chemical_formula_sum   'K8 Ta4 Se22'
_cell_volume   1050.90619824
_cell_formula_units_Z   2
loop_
 _symmetry_equiv_pos_site_id
 _symmetry_equiv_pos_as_xyz
  1  'x, y, z'
loop_
 _atom_site_type_symbol
 _atom_site_label
 _atom_site_symmetry_multiplicity
 _atom_site_fract_x
 _atom_site_fract_y
 _atom_site_fract_z
 _atom_site_occupancy
  K  K0  1  0.064221  0.759638  0.987696  1
  K  K1  1  0.935779  0.240362  0.012304  1
  K  K2  1  0.223244  0.963667  0.574995  1
  K  K3  1  0.776756  0.036333  0.425005  1
  K  K4  1  0.489773  0.303870  0.880405  1
  K  K5  1  0.510227  0.696130  0.119595  1
  K  K6  1  0.256279  0.412261  0.590381  1
  K  K7  1  0.743721  0.587739  0.409619  1
  Ta  Ta8  1  0.336329  0.109141  0.184445  1
  Ta  Ta9  1  0.663671  0.890859  0.815555  1
  Ta  Ta10  1  0.127717  0.358937  0.311337  1
  Ta  Ta11  1  0.872283  0.641063  0.688663  1
  Se  Se12  1  0.274158  0.025705  0.045252  1
  Se  Se13  1  0.725842  0.974295  0.954748  1
  Se  Se14  1  0.456832  0.691139  0.882022  1
  Se  Se15  1  0.543168  0.308861  0.117978  1
  Se  Se16  1  0.262786  0.399526  0.114370  1
  Se  Se17  1  0.737215  0.600474  0.885630  1
  Se  Se18  1  0.039966  0.130204  0.252110  1
  Se  Se19  1  0.960034  0.869796  0.747890  1
  Se  Se20  1  0.402917  0.079331  0.749712  1
  Se  Se21  1  0.597083  0.920669  0.250288  1
  Se  Se22  1  0.342457  0.873374  0.333638  1
  Se  Se23  1  0.657543  0.126626  0.666362  1
  Se  Se24  1  0.403376  0.436465  0.357188  1
  Se  Se25  1  0.596624  0.563535  0.642812  1
  Se  Se26  1  0.096537  0.505287  0.816104  1
  Se  Se27  1  0.903463  0.494713  0.183896  1
  Se  Se28  1  0.061101  0.649887  0.249099  1
  Se  Se29  1  0.938899  0.350113  0.750901  1
  Se  Se30  1  0.390422  0.175419  0.368829  1
  Se  Se31  1  0.609578  0.824581  0.631171  1
  Se  Se32  1  0.011628  0.709170  0.532668  1
  Se  Se33  1  0.988372  0.290830  0.467332  1
