# generated using pymatgen
data_Tb5Ho2Pu3(SiB4)4
_symmetry_space_group_name_H-M   'P 1'
_cell_length_a   7.23908065
_cell_length_b   7.23908152
_cell_length_c   8.11946719
_cell_angle_alpha   89.98640831
_cell_angle_beta   89.98640747
_cell_angle_gamma   89.77148066
_symmetry_Int_Tables_number   1
_chemical_formula_structural   Tb5Ho2Pu3(SiB4)4
_chemical_formula_sum   'Tb5 Ho2 Pu3 Si4 B16'
_cell_volume   425.49154520
_cell_formula_units_Z   1
loop_
 _symmetry_equiv_pos_site_id
 _symmetry_equiv_pos_as_xyz
  1  'x, y, z'
loop_
 _atom_site_type_symbol
 _atom_site_label
 _atom_site_symmetry_multiplicity
 _atom_site_fract_x
 _atom_site_fract_y
 _atom_site_fract_z
 _atom_site_occupancy
  Tb  Tb0  1  0.817985  0.681467  0.223433  1
  Tb  Tb1  1  0.818184  0.681664  0.776484  1
  Tb  Tb2  1  0.681719  0.181719  0.774739  1
  Tb  Tb3  1  0.181664  0.318184  0.776484  1
  Tb  Tb4  1  0.181467  0.317985  0.223433  1
  Ho  Ho5  1  0.005291  0.997780  0.498103  1
  Ho  Ho6  1  0.497780  0.505291  0.498103  1
  Pu  Pu7  1  0.683774  0.183774  0.229399  1
  Pu  Pu8  1  0.315847  0.815847  0.771384  1
  Pu  Pu9  1  0.316793  0.816793  0.229595  1
  Si  Si10  1  0.113161  0.613161  0.501654  1
  Si  Si11  1  0.881936  0.381936  0.497016  1
  Si  Si12  1  0.387317  0.116679  0.498455  1
  Si  Si13  1  0.616679  0.887317  0.498455  1
  B  B14  1  0.174008  0.037914  0.999896  1
  B  B15  1  0.827071  0.961190  0.000420  1
  B  B16  1  0.959430  0.172127  0.999979  1
  B  B17  1  0.326865  0.541574  0.999832  1
  B  B18  1  0.041574  0.826865  0.999832  1
  B  B19  1  0.672127  0.459430  0.999979  1
  B  B20  1  0.537914  0.674008  0.999896  1
  B  B21  1  0.461190  0.327071  0.000420  1
  B  B22  1  0.090364  0.590364  0.000050  1
  B  B23  1  0.908907  0.408907  0.001279  1
  B  B24  1  0.410462  0.089710  0.000689  1
  B  B25  1  0.589710  0.910462  0.000689  1
  B  B26  1  0.999915  0.999679  0.161015  1
  B  B27  1  0.002282  0.998905  0.839140  1
  B  B28  1  0.498905  0.502282  0.839140  1
  B  B29  1  0.499679  0.499915  0.161015  1
