# generated using pymatgen
data_Zr2MnCoIr2
_symmetry_space_group_name_H-M   'P 1'
_cell_length_a   5.15214230
_cell_length_b   4.94670577
_cell_length_c   5.15214307
_cell_angle_alpha   60.34605013
_cell_angle_beta   62.13606575
_cell_angle_gamma   60.34603029
_symmetry_Int_Tables_number   1
_chemical_formula_structural   Zr2MnCoIr2
_chemical_formula_sum   'Zr2 Mn1 Co1 Ir2'
_cell_volume   94.76058173
_cell_formula_units_Z   1
loop_
 _symmetry_equiv_pos_site_id
 _symmetry_equiv_pos_as_xyz
  1  'x, y, z'
loop_
 _atom_site_type_symbol
 _atom_site_label
 _atom_site_symmetry_multiplicity
 _atom_site_fract_x
 _atom_site_fract_y
 _atom_site_fract_z
 _atom_site_occupancy
  Zr  Zr0  1  0.629368  0.618797  0.629368  1
  Zr  Zr1  1  0.370632  0.381203  0.370632  1
  Mn  Mn2  1  0.000000  0.500000  0.000000  1
  Co  Co3  1  0.000000  0.000000  0.000000  1
  Ir  Ir4  1  0.500000  0.000000  0.000000  1
  Ir  Ir5  1  0.000000  0.000000  0.500000  1
