# generated using pymatgen
data_Tb5Y5Pb6
_symmetry_space_group_name_H-M   'P 1'
_cell_length_a   9.10151705
_cell_length_b   9.09980139
_cell_length_c   6.68276900
_cell_angle_alpha   90.00000000
_cell_angle_beta   90.00000000
_cell_angle_gamma   119.99376997
_symmetry_Int_Tables_number   1
_chemical_formula_structural   Tb5Y5Pb6
_chemical_formula_sum   'Tb5 Y5 Pb6'
_cell_volume   479.35806946
_cell_formula_units_Z   1
loop_
 _symmetry_equiv_pos_site_id
 _symmetry_equiv_pos_as_xyz
  1  'x, y, z'
loop_
 _atom_site_type_symbol
 _atom_site_label
 _atom_site_symmetry_multiplicity
 _atom_site_fract_x
 _atom_site_fract_y
 _atom_site_fract_z
 _atom_site_occupancy
  Tb  Tb0  1  0.666645  0.333308  0.999992  1
  Tb  Tb1  1  0.333355  0.666664  0.999992  1
  Tb  Tb2  1  0.333355  0.666664  0.500008  1
  Tb  Tb3  1  0.666645  0.333308  0.500008  1
  Tb  Tb4  1  0.000000  0.761302  0.250000  1
  Y  Y5  1  0.761269  0.761261  0.750000  1
  Y  Y6  1  0.238731  0.999992  0.750000  1
  Y  Y7  1  0.000000  0.238696  0.750000  1
  Y  Y8  1  0.238725  0.238735  0.250000  1
  Y  Y9  1  0.761275  0.000010  0.250000  1
  Pb  Pb10  1  0.394196  0.394181  0.750000  1
  Pb  Pb11  1  0.605804  0.999985  0.750000  1
  Pb  Pb12  1  0.000000  0.605892  0.750000  1
  Pb  Pb13  1  0.605703  0.605784  0.250000  1
  Pb  Pb14  1  0.394297  0.000081  0.250000  1
  Pb  Pb15  1  0.000000  0.394137  0.250000  1
