# generated using pymatgen
data_PuPN3
_symmetry_space_group_name_H-M   'P 1'
_cell_length_a   6.91536761
_cell_length_b   6.91536875
_cell_length_c   5.42427051
_cell_angle_alpha   79.35591670
_cell_angle_beta   79.35591150
_cell_angle_gamma   87.13380674
_symmetry_Int_Tables_number   1
_chemical_formula_structural   PuPN3
_chemical_formula_sum   'Pu4 P4 N12'
_cell_volume   250.51732597
_cell_formula_units_Z   4
loop_
 _symmetry_equiv_pos_site_id
 _symmetry_equiv_pos_as_xyz
  1  'x, y, z'
loop_
 _atom_site_type_symbol
 _atom_site_label
 _atom_site_symmetry_multiplicity
 _atom_site_fract_x
 _atom_site_fract_y
 _atom_site_fract_z
 _atom_site_occupancy
  Pu  Pu0  1  0.674364  0.325636  0.750000  1
  Pu  Pu1  1  0.898961  0.101039  0.250000  1
  Pu  Pu2  1  0.325636  0.674364  0.250000  1
  Pu  Pu3  1  0.101039  0.898961  0.750000  1
  P  P4  1  0.202863  0.376558  0.761609  1
  P  P5  1  0.376558  0.202863  0.261609  1
  P  P6  1  0.797137  0.623442  0.238391  1
  P  P7  1  0.623442  0.797137  0.738391  1
  N  N8  1  0.319492  0.372039  0.011599  1
  N  N9  1  0.017931  0.226057  0.838690  1
  N  N10  1  0.982069  0.773943  0.161310  1
  N  N11  1  0.372039  0.319492  0.511599  1
  N  N12  1  0.603046  0.146832  0.156540  1
  N  N13  1  0.396954  0.853168  0.843460  1
  N  N14  1  0.853168  0.396954  0.343460  1
  N  N15  1  0.680508  0.627961  0.988401  1
  N  N16  1  0.773943  0.982069  0.661310  1
  N  N17  1  0.146832  0.603046  0.656540  1
  N  N18  1  0.226057  0.017931  0.338690  1
  N  N19  1  0.627961  0.680508  0.488401  1
