# generated using pymatgen
data_YSi2Tc3Mo
_symmetry_space_group_name_H-M   'P 1'
_cell_length_a   7.79180813
_cell_length_b   6.97842056
_cell_length_c   4.20723700
_cell_angle_alpha   90.00000000
_cell_angle_beta   90.00000000
_cell_angle_gamma   90.03332626
_symmetry_Int_Tables_number   1
_chemical_formula_structural   YSi2Tc3Mo
_chemical_formula_sum   'Y2 Si4 Tc6 Mo2'
_cell_volume   228.76642864
_cell_formula_units_Z   2
loop_
 _symmetry_equiv_pos_site_id
 _symmetry_equiv_pos_as_xyz
  1  'x, y, z'
loop_
 _atom_site_type_symbol
 _atom_site_label
 _atom_site_symmetry_multiplicity
 _atom_site_fract_x
 _atom_site_fract_y
 _atom_site_fract_z
 _atom_site_occupancy
  Y  Y0  1  0.500000  0.500000  0.000000  1
  Y  Y1  1  0.000000  0.000000  0.500000  1
  Si  Si2  1  0.690160  0.727614  0.500000  1
  Si  Si3  1  0.309840  0.272386  0.500000  1
  Si  Si4  1  0.186274  0.768155  0.000000  1
  Si  Si5  1  0.813726  0.231845  0.000000  1
  Tc  Tc6  1  0.111422  0.347276  0.000000  1
  Tc  Tc7  1  0.888578  0.652724  0.000000  1
  Tc  Tc8  1  0.157347  0.578427  0.500000  1
  Tc  Tc9  1  0.842653  0.421573  0.500000  1
  Tc  Tc10  1  0.335478  0.077857  0.000000  1
  Tc  Tc11  1  0.664522  0.922143  0.000000  1
  Mo  Mo12  1  0.613968  0.150067  0.500000  1
  Mo  Mo13  1  0.386032  0.849933  0.500000  1
