# generated using pymatgen
data_Pu3Ga3Co2Ni
_symmetry_space_group_name_H-M   'P 1'
_cell_length_a   6.72623201
_cell_length_b   6.72623203
_cell_length_c   4.00004600
_cell_angle_alpha   90.00000000
_cell_angle_beta   90.00000000
_cell_angle_gamma   119.99999660
_symmetry_Int_Tables_number   1
_chemical_formula_structural   Pu3Ga3Co2Ni
_chemical_formula_sum   'Pu3 Ga3 Co2 Ni1'
_cell_volume   156.72537590
_cell_formula_units_Z   1
loop_
 _symmetry_equiv_pos_site_id
 _symmetry_equiv_pos_as_xyz
  1  'x, y, z'
loop_
 _atom_site_type_symbol
 _atom_site_label
 _atom_site_symmetry_multiplicity
 _atom_site_fract_x
 _atom_site_fract_y
 _atom_site_fract_z
 _atom_site_occupancy
  Pu  Pu0  1  0.415941  0.996115  0.500000  1
  Pu  Pu1  1  0.003885  0.419826  0.500000  1
  Pu  Pu2  1  0.580174  0.584059  0.500000  1
  Ga  Ga3  1  0.761938  0.999237  0.000000  1
  Ga  Ga4  1  0.000763  0.762701  0.000000  1
  Ga  Ga5  1  0.237299  0.238062  0.000000  1
  Co  Co6  1  0.333333  0.666667  0.000000  1
  Co  Co7  1  0.000000  0.000000  0.500000  1
  Ni  Ni8  1  0.666667  0.333333  0.000000  1
