# generated using pymatgen
data_Ho8Be(Si5W4)3
_symmetry_space_group_name_H-M   'P 1'
_cell_length_a   6.73113663
_cell_length_b   6.93490003
_cell_length_c   12.88417600
_cell_angle_alpha   90.00000000
_cell_angle_beta   90.00000000
_cell_angle_gamma   90.34424008
_symmetry_Int_Tables_number   1
_chemical_formula_structural   Ho8Be(Si5W4)3
_chemical_formula_sum   'Ho8 Be1 Si15 W12'
_cell_volume   601.41938325
_cell_formula_units_Z   1
loop_
 _symmetry_equiv_pos_site_id
 _symmetry_equiv_pos_as_xyz
  1  'x, y, z'
loop_
 _atom_site_type_symbol
 _atom_site_label
 _atom_site_symmetry_multiplicity
 _atom_site_fract_x
 _atom_site_fract_y
 _atom_site_fract_z
 _atom_site_occupancy
  Ho  Ho0  1  0.495837  0.332359  0.092865  1
  Ho  Ho1  1  0.995721  0.167840  0.408183  1
  Ho  Ho2  1  0.508389  0.670389  0.595881  1
  Ho  Ho3  1  0.996994  0.826524  0.901811  1
  Ho  Ho4  1  0.508389  0.670389  0.904119  1
  Ho  Ho5  1  0.996994  0.826524  0.598189  1
  Ho  Ho6  1  0.495837  0.332359  0.407135  1
  Ho  Ho7  1  0.995721  0.167840  0.091817  1
  Be  Be8  1  0.800035  0.618095  0.750000  1
  Si  Si9  1  0.300063  0.864088  0.750000  1
  Si  Si10  1  0.196248  0.365562  0.250000  1
  Si  Si11  1  0.697433  0.134716  0.250000  1
  Si  Si12  1  0.541612  0.380702  0.750000  1
  Si  Si13  1  0.033391  0.124365  0.750000  1
  Si  Si14  1  0.465602  0.628634  0.250000  1
  Si  Si15  1  0.964680  0.872154  0.250000  1
  Si  Si16  1  0.663092  0.043898  0.545892  1
  Si  Si17  1  0.165349  0.458632  0.954507  1
  Si  Si18  1  0.336331  0.957277  0.044807  1
  Si  Si19  1  0.837656  0.543441  0.455150  1
  Si  Si20  1  0.336331  0.957277  0.455193  1
  Si  Si21  1  0.837656  0.543441  0.044850  1
  Si  Si22  1  0.663092  0.043898  0.954108  1
  Si  Si23  1  0.165349  0.458632  0.545493  1
  W  W24  1  0.658865  0.012697  0.750000  1
  W  W25  1  0.162599  0.491350  0.750000  1
  W  W26  1  0.334417  0.999591  0.250000  1
  W  W27  1  0.835817  0.502558  0.250000  1
  W  W28  1  0.835835  0.337864  0.625515  1
  W  W29  1  0.332279  0.164738  0.873710  1
  W  W30  1  0.169463  0.662705  0.125347  1
  W  W31  1  0.667674  0.837075  0.374879  1
  W  W32  1  0.169463  0.662705  0.374653  1
  W  W33  1  0.667674  0.837075  0.125121  1
  W  W34  1  0.835835  0.337864  0.874485  1
  W  W35  1  0.332279  0.164738  0.626290  1
