# generated using pymatgen
data_Rb8Zr3PaCl24
_symmetry_space_group_name_H-M   'P 1'
_cell_length_a   12.97061451
_cell_length_b   12.97061453
_cell_length_c   12.97061500
_cell_angle_alpha   132.01806583
_cell_angle_beta   132.01806588
_cell_angle_gamma   70.20049469
_symmetry_Int_Tables_number   1
_chemical_formula_structural   Rb8Zr3PaCl24
_chemical_formula_sum   'Rb8 Zr3 Pa1 Cl24'
_cell_volume   1180.57097450
_cell_formula_units_Z   1
loop_
 _symmetry_equiv_pos_site_id
 _symmetry_equiv_pos_as_xyz
  1  'x, y, z'
loop_
 _atom_site_type_symbol
 _atom_site_label
 _atom_site_symmetry_multiplicity
 _atom_site_fract_x
 _atom_site_fract_y
 _atom_site_fract_z
 _atom_site_occupancy
  Rb  Rb0  1  0.375433  0.370808  0.497581  1
  Rb  Rb1  1  0.122149  0.624567  0.995374  1
  Rb  Rb2  1  0.873225  0.877851  0.502419  1
  Rb  Rb3  1  0.125789  0.132500  0.503514  1
  Rb  Rb4  1  0.377726  0.874211  0.006712  1
  Rb  Rb5  1  0.628985  0.622274  0.496486  1
  Rb  Rb6  1  0.629192  0.126775  0.004626  1
  Rb  Rb7  1  0.867500  0.371015  0.993288  1
  Zr  Zr8  1  0.500000  0.500000  0.000000  1
  Zr  Zr9  1  0.750000  0.250000  0.500000  1
  Zr  Zr10  1  0.000000  0.000000  0.000000  1
  Pa  Pa11  1  0.250000  0.750000  0.500000  1
  Cl  Cl12  1  0.001610  0.781881  0.282509  1
  Cl  Cl13  1  0.010147  0.236005  0.246777  1
  Cl  Cl14  1  0.280898  0.998390  0.780271  1
  Cl  Cl15  1  0.985486  0.228392  0.713701  1
  Cl  Cl16  1  0.125380  0.625380  0.500000  1
  Cl  Cl17  1  0.263186  0.516844  0.781900  1
  Cl  Cl18  1  0.499373  0.719102  0.717491  1
  Cl  Cl19  1  0.514691  0.271784  0.286299  1
  Cl  Cl20  1  0.483156  0.265055  0.746342  1
  Cl  Cl21  1  0.617195  0.617195  0.000000  1
  Cl  Cl22  1  0.518715  0.736814  0.253658  1
  Cl  Cl23  1  0.117187  0.117187  0.000000  1
  Cl  Cl24  1  0.882813  0.882813  0.000000  1
  Cl  Cl25  1  0.989227  0.763370  0.753223  1
  Cl  Cl26  1  0.763995  0.010773  0.774143  1
  Cl  Cl27  1  0.236630  0.989853  0.225857  1
  Cl  Cl28  1  0.734945  0.481285  0.218100  1
  Cl  Cl29  1  0.218119  0.500627  0.219729  1
  Cl  Cl30  1  0.374620  0.874620  0.500000  1
  Cl  Cl31  1  0.867392  0.367392  0.500000  1
  Cl  Cl32  1  0.382805  0.382805  0.000000  1
  Cl  Cl33  1  0.632608  0.132608  0.500000  1
  Cl  Cl34  1  0.771608  0.485309  0.757094  1
  Cl  Cl35  1  0.728216  0.014514  0.242906  1
