# generated using pymatgen
data_Tm8TiPd11Pt13
_symmetry_space_group_name_H-M   'P 1'
_cell_length_a   8.24827400
_cell_length_b   8.23138600
_cell_length_c   8.28172900
_cell_angle_alpha   90.00000000
_cell_angle_beta   90.00000000
_cell_angle_gamma   90.00000000
_symmetry_Int_Tables_number   1
_chemical_formula_structural   Tm8TiPd11Pt13
_chemical_formula_sum   'Tm8 Ti1 Pd11 Pt13'
_cell_volume   562.28573060
_cell_formula_units_Z   1
loop_
 _symmetry_equiv_pos_site_id
 _symmetry_equiv_pos_as_xyz
  1  'x, y, z'
loop_
 _atom_site_type_symbol
 _atom_site_label
 _atom_site_symmetry_multiplicity
 _atom_site_fract_x
 _atom_site_fract_y
 _atom_site_fract_z
 _atom_site_occupancy
  Tm  Tm0  1  0.251298  0.251630  0.251196  1
  Tm  Tm1  1  0.748755  0.748783  0.748905  1
  Tm  Tm2  1  0.748755  0.748783  0.251095  1
  Tm  Tm3  1  0.748755  0.251217  0.748905  1
  Tm  Tm4  1  0.251298  0.251630  0.748804  1
  Tm  Tm5  1  0.251298  0.748370  0.251196  1
  Tm  Tm6  1  0.251298  0.748370  0.748804  1
  Tm  Tm7  1  0.748755  0.251217  0.251095  1
  Ti  Ti8  1  0.000174  0.000000  0.000000  1
  Pd  Pd9  1  0.500054  0.000000  0.263890  1
  Pd  Pd10  1  0.263906  0.000000  0.500000  1
  Pd  Pd11  1  0.500054  0.000000  0.736110  1
  Pd  Pd12  1  0.736008  0.000000  0.500000  1
  Pd  Pd13  1  0.999515  0.500000  0.263089  1
  Pd  Pd14  1  0.999515  0.500000  0.736911  1
  Pd  Pd15  1  0.745664  0.500000  0.500000  1
  Pd  Pd16  1  0.500099  0.254027  0.500000  1
  Pd  Pd17  1  0.500099  0.745973  0.500000  1
  Pd  Pd18  1  0.500196  0.500000  0.255627  1
  Pd  Pd19  1  0.500196  0.500000  0.744373  1
  Pt  Pt20  1  0.263417  0.500000  0.000000  1
  Pt  Pt21  1  0.736370  0.500000  0.000000  1
  Pt  Pt22  1  0.000044  0.263525  0.500000  1
  Pt  Pt23  1  0.500076  0.263311  0.000000  1
  Pt  Pt24  1  0.000044  0.736475  0.500000  1
  Pt  Pt25  1  0.500076  0.736689  0.000000  1
  Pt  Pt26  1  0.254278  0.500000  0.500000  1
  Pt  Pt27  1  0.299467  0.000000  0.000000  1
  Pt  Pt28  1  0.701029  0.000000  0.000000  1
  Pt  Pt29  1  0.999869  0.298910  0.000000  1
  Pt  Pt30  1  0.999869  0.701090  0.000000  1
  Pt  Pt31  1  0.999885  0.000000  0.298603  1
  Pt  Pt32  1  0.999885  0.000000  0.701397  1
