# generated using pymatgen
data_Tb3DyLu(SiB4)2
_symmetry_space_group_name_H-M   'P 1'
_cell_length_a   7.22476310
_cell_length_b   7.22476310
_cell_length_c   8.06247100
_cell_angle_alpha   90.00000000
_cell_angle_beta   90.00000000
_cell_angle_gamma   90.01887452
_symmetry_Int_Tables_number   1
_chemical_formula_structural   Tb3DyLu(SiB4)2
_chemical_formula_sum   'Tb6 Dy2 Lu2 Si4 B16'
_cell_volume   420.83840314
_cell_formula_units_Z   2
loop_
 _symmetry_equiv_pos_site_id
 _symmetry_equiv_pos_as_xyz
  1  'x, y, z'
loop_
 _atom_site_type_symbol
 _atom_site_label
 _atom_site_symmetry_multiplicity
 _atom_site_fract_x
 _atom_site_fract_y
 _atom_site_fract_z
 _atom_site_occupancy
  Tb  Tb0  1  0.680181  0.180223  0.226085  1
  Tb  Tb1  1  0.319777  0.819819  0.773915  1
  Tb  Tb2  1  0.319777  0.819819  0.226085  1
  Tb  Tb3  1  0.819736  0.680264  0.226006  1
  Tb  Tb4  1  0.819736  0.680264  0.773994  1
  Tb  Tb5  1  0.680181  0.180223  0.773915  1
  Dy  Dy6  1  0.180298  0.319702  0.774821  1
  Dy  Dy7  1  0.180298  0.319702  0.225179  1
  Lu  Lu8  1  0.000124  0.000232  0.500000  1
  Lu  Lu9  1  0.499768  0.499876  0.500000  1
  Si  Si10  1  0.115945  0.615429  0.500000  1
  Si  Si11  1  0.884571  0.384055  0.500000  1
  Si  Si12  1  0.383920  0.116080  0.500000  1
  Si  Si13  1  0.615677  0.884323  0.500000  1
  B  B14  1  0.172431  0.039392  0.000000  1
  B  B15  1  0.827752  0.960997  0.000000  1
  B  B16  1  0.961215  0.172502  0.000000  1
  B  B17  1  0.327498  0.538785  0.000000  1
  B  B18  1  0.039100  0.827728  0.000000  1
  B  B19  1  0.672272  0.460900  0.000000  1
  B  B20  1  0.539003  0.672248  0.000000  1
  B  B21  1  0.460608  0.327569  0.000000  1
  B  B22  1  0.089883  0.589528  0.000000  1
  B  B23  1  0.910472  0.410117  0.000000  1
  B  B24  1  0.410058  0.089942  0.000000  1
  B  B25  1  0.589876  0.910124  0.000000  1
  B  B26  1  0.000170  0.000249  0.163130  1
  B  B27  1  0.000170  0.000249  0.836870  1
  B  B28  1  0.499751  0.499830  0.836870  1
  B  B29  1  0.499751  0.499830  0.163130  1
