# generated using pymatgen
data_Lu10Sn3Hg5Pt4
_symmetry_space_group_name_H-M   'P 1'
_cell_length_a   3.54687600
_cell_length_b   7.97218503
_cell_length_c   17.92878581
_cell_angle_alpha   90.24559026
_cell_angle_beta   90.00000000
_cell_angle_gamma   90.00000000
_symmetry_Int_Tables_number   1
_chemical_formula_structural   Lu10Sn3Hg5Pt4
_chemical_formula_sum   'Lu10 Sn3 Hg5 Pt4'
_cell_volume   506.95599680
_cell_formula_units_Z   1
loop_
 _symmetry_equiv_pos_site_id
 _symmetry_equiv_pos_as_xyz
  1  'x, y, z'
loop_
 _atom_site_type_symbol
 _atom_site_label
 _atom_site_symmetry_multiplicity
 _atom_site_fract_x
 _atom_site_fract_y
 _atom_site_fract_z
 _atom_site_occupancy
  Lu  Lu0  1  0.000000  0.110971  0.414990  1
  Lu  Lu1  1  0.000000  0.889275  0.585012  1
  Lu  Lu2  1  0.000000  0.391662  0.915489  1
  Lu  Lu3  1  0.000000  0.613462  0.086160  1
  Lu  Lu4  1  0.000000  0.239051  0.216411  1
  Lu  Lu5  1  0.000000  0.754194  0.782614  1
  Lu  Lu6  1  0.000000  0.253024  0.717741  1
  Lu  Lu7  1  0.000000  0.748620  0.279550  1
  Lu  Lu8  1  0.000000  0.001010  0.002537  1
  Lu  Lu9  1  0.000000  0.499089  0.499824  1
  Sn  Sn10  1  0.500000  0.423931  0.353512  1
  Sn  Sn11  1  0.500000  0.577610  0.647539  1
  Sn  Sn12  1  0.500000  0.077913  0.853138  1
  Hg  Hg13  1  0.500000  0.922949  0.143376  1
  Hg  Hg14  1  0.500000  0.290033  0.063172  1
  Hg  Hg15  1  0.500000  0.709821  0.937432  1
  Hg  Hg16  1  0.500000  0.209136  0.563060  1
  Hg  Hg17  1  0.500000  0.790275  0.436889  1
  Pt  Pt18  1  0.500000  0.030323  0.303516  1
  Pt  Pt19  1  0.500000  0.970744  0.697812  1
  Pt  Pt20  1  0.500000  0.471485  0.801777  1
  Pt  Pt21  1  0.500000  0.525423  0.198449  1
