# generated using pymatgen
data_Tm5Lu7Co8Se
_symmetry_space_group_name_H-M   'P 1'
_cell_length_a   11.18387047
_cell_length_b   11.18195925
_cell_length_c   3.97116538
_cell_angle_alpha   89.95050297
_cell_angle_beta   90.03050458
_cell_angle_gamma   119.99249659
_symmetry_Int_Tables_number   1
_chemical_formula_structural   Tm5Lu7Co8Se
_chemical_formula_sum   'Tm5 Lu7 Co8 Se1'
_cell_volume   430.12165259
_cell_formula_units_Z   1
loop_
 _symmetry_equiv_pos_site_id
 _symmetry_equiv_pos_as_xyz
  1  'x, y, z'
loop_
 _atom_site_type_symbol
 _atom_site_label
 _atom_site_symmetry_multiplicity
 _atom_site_fract_x
 _atom_site_fract_y
 _atom_site_fract_z
 _atom_site_occupancy
  Tm  Tm0  1  0.261121  0.024772  0.254761  1
  Tm  Tm1  1  0.763678  0.738874  0.254809  1
  Tm  Tm2  1  0.024785  0.763650  0.745177  1
  Tm  Tm3  1  0.739199  0.975607  0.745221  1
  Tm  Tm4  1  0.236026  0.261093  0.745130  1
  Lu  Lu5  1  0.517931  0.381146  0.250125  1
  Lu  Lu6  1  0.863308  0.481926  0.250114  1
  Lu  Lu7  1  0.619081  0.136833  0.250154  1
  Lu  Lu8  1  0.482104  0.618839  0.749887  1
  Lu  Lu9  1  0.136397  0.517377  0.749879  1
  Lu  Lu10  1  0.381152  0.863279  0.749861  1
  Lu  Lu11  1  0.975083  0.236665  0.254979  1
  Co  Co12  1  0.333297  0.666594  0.248805  1
  Co  Co13  1  0.666668  0.333377  0.751166  1
  Co  Co14  1  0.157680  0.719695  0.251885  1
  Co  Co15  1  0.561981  0.842321  0.251843  1
  Co  Co16  1  0.280212  0.437912  0.251922  1
  Co  Co17  1  0.842703  0.280079  0.748461  1
  Co  Co18  1  0.437995  0.157682  0.748133  1
  Co  Co19  1  0.719636  0.561999  0.748136  1
  Se  Se20  1  0.999963  0.000282  0.499551  1
