# generated using pymatgen
data_Sc11Tc2OsAu
_symmetry_space_group_name_H-M   'P 1'
_cell_length_a   9.58320240
_cell_length_b   9.60624443
_cell_length_c   9.52518858
_cell_angle_alpha   60.36321552
_cell_angle_beta   60.35984111
_cell_angle_gamma   59.52096764
_symmetry_Int_Tables_number   1
_chemical_formula_structural   Sc11Tc2OsAu
_chemical_formula_sum   'Sc22 Tc4 Os2 Au2'
_cell_volume   621.09901815
_cell_formula_units_Z   2
loop_
 _symmetry_equiv_pos_site_id
 _symmetry_equiv_pos_as_xyz
  1  'x, y, z'
loop_
 _atom_site_type_symbol
 _atom_site_label
 _atom_site_symmetry_multiplicity
 _atom_site_fract_x
 _atom_site_fract_y
 _atom_site_fract_z
 _atom_site_occupancy
  Sc  Sc0  1  0.838611  0.838707  0.852591  1
  Sc  Sc1  1  0.529910  0.147409  0.161293  1
  Sc  Sc2  1  0.160925  0.162431  0.529485  1
  Sc  Sc3  1  0.147159  0.529485  0.162431  1
  Sc  Sc4  1  0.839075  0.837569  0.470515  1
  Sc  Sc5  1  0.852841  0.470515  0.837569  1
  Sc  Sc6  1  0.470090  0.852591  0.838707  1
  Sc  Sc7  1  0.161389  0.161293  0.147409  1
  Sc  Sc8  1  0.195967  0.803813  0.196187  1
  Sc  Sc9  1  0.195859  0.804141  0.804141  1
  Sc  Sc10  1  0.804141  0.195859  0.195859  1
  Sc  Sc11  1  0.803886  0.803641  0.196359  1
  Sc  Sc12  1  0.196114  0.196359  0.803641  1
  Sc  Sc13  1  0.804033  0.196187  0.803813  1
  Sc  Sc14  1  0.380111  0.381294  0.390588  1
  Sc  Sc15  1  0.151994  0.609412  0.618706  1
  Sc  Sc16  1  0.609618  0.152611  0.619049  1
  Sc  Sc17  1  0.618723  0.619049  0.152611  1
  Sc  Sc18  1  0.390382  0.847389  0.380951  1
  Sc  Sc19  1  0.381277  0.380951  0.847389  1
  Sc  Sc20  1  0.848006  0.390588  0.381294  1
  Sc  Sc21  1  0.619889  0.618706  0.609412  1
  Tc  Tc22  1  0.500000  0.000000  0.500000  1
  Tc  Tc23  1  0.500000  0.000000  0.000000  1
  Tc  Tc24  1  0.000000  0.500000  0.000000  1
  Tc  Tc25  1  0.000000  0.000000  0.000000  1
  Os  Os26  1  0.000000  0.500000  0.500000  1
  Os  Os27  1  0.500000  0.500000  0.500000  1
  Au  Au28  1  0.500000  0.500000  0.000000  1
  Au  Au29  1  0.000000  0.000000  0.500000  1
