# generated using pymatgen
data_Ca11NdPd12
_symmetry_space_group_name_H-M   'P 1'
_cell_length_a   5.75822208
_cell_length_b   4.49885700
_cell_length_c   22.08186800
_cell_angle_alpha   90.00000000
_cell_angle_beta   96.61996719
_cell_angle_gamma   90.00000000
_symmetry_Int_Tables_number   1
_chemical_formula_structural   Ca11NdPd12
_chemical_formula_sum   'Ca11 Nd1 Pd12'
_cell_volume   568.22602361
_cell_formula_units_Z   1
loop_
 _symmetry_equiv_pos_site_id
 _symmetry_equiv_pos_as_xyz
  1  'x, y, z'
loop_
 _atom_site_type_symbol
 _atom_site_label
 _atom_site_symmetry_multiplicity
 _atom_site_fract_x
 _atom_site_fract_y
 _atom_site_fract_z
 _atom_site_occupancy
  Ca  Ca0  1  0.181032  0.750000  0.107525  1
  Ca  Ca1  1  0.504408  0.250001  0.227170  1
  Ca  Ca2  1  0.024687  0.750000  0.273498  1
  Ca  Ca3  1  0.810227  0.250001  0.393903  1
  Ca  Ca4  1  0.332404  0.750000  0.439702  1
  Ca  Ca5  1  0.666673  0.250001  0.560401  1
  Ca  Ca6  1  0.190093  0.750000  0.606232  1
  Ca  Ca7  1  0.973357  0.250001  0.726599  1
  Ca  Ca8  1  0.496444  0.750000  0.773360  1
  Ca  Ca9  1  0.823924  0.250001  0.892937  1
  Ca  Ca10  1  0.333822  0.750000  0.938638  1
  Nd  Nd11  1  0.663919  0.250001  0.060186  1
  Pd  Pd12  1  0.152146  0.250001  0.014868  1
  Pd  Pd13  1  0.694904  0.750000  0.150695  1
  Pd  Pd14  1  0.984338  0.250001  0.178593  1
  Pd  Pd15  1  0.550129  0.750000  0.321245  1
  Pd  Pd16  1  0.283687  0.250001  0.345218  1
  Pd  Pd17  1  0.853974  0.750000  0.487931  1
  Pd  Pd18  1  0.145450  0.250001  0.512439  1
  Pd  Pd19  1  0.715861  0.750000  0.654346  1
  Pd  Pd20  1  0.449013  0.250001  0.678964  1
  Pd  Pd21  1  0.013682  0.750000  0.819660  1
  Pd  Pd22  1  0.304183  0.250001  0.845502  1
  Pd  Pd23  1  0.851644  0.750000  0.990387  1
