# generated using pymatgen
data_Ce3DyTm(SiB4)2
_symmetry_space_group_name_H-M   'P 1'
_cell_length_a   7.28622713
_cell_length_b   7.28622649
_cell_length_c   8.19583200
_cell_angle_alpha   90.00000000
_cell_angle_beta   90.00000000
_cell_angle_gamma   90.07646543
_symmetry_Int_Tables_number   1
_chemical_formula_structural   Ce3DyTm(SiB4)2
_chemical_formula_sum   'Ce6 Dy2 Tm2 Si4 B16'
_cell_volume   435.10896664
_cell_formula_units_Z   2
loop_
 _symmetry_equiv_pos_site_id
 _symmetry_equiv_pos_as_xyz
  1  'x, y, z'
loop_
 _atom_site_type_symbol
 _atom_site_label
 _atom_site_symmetry_multiplicity
 _atom_site_fract_x
 _atom_site_fract_y
 _atom_site_fract_z
 _atom_site_occupancy
  Ce  Ce0  1  0.682264  0.182621  0.228759  1
  Ce  Ce1  1  0.317379  0.817736  0.771241  1
  Ce  Ce2  1  0.317379  0.817736  0.228759  1
  Ce  Ce3  1  0.818478  0.681522  0.228658  1
  Ce  Ce4  1  0.818478  0.681522  0.771342  1
  Ce  Ce5  1  0.682264  0.182621  0.771241  1
  Dy  Dy6  1  0.181111  0.318889  0.779518  1
  Dy  Dy7  1  0.181111  0.318889  0.220482  1
  Tm  Tm8  1  0.001790  0.000963  0.500000  1
  Tm  Tm9  1  0.499037  0.498210  0.500000  1
  Si  Si10  1  0.117092  0.613948  0.500000  1
  Si  Si11  1  0.886052  0.382908  0.500000  1
  Si  Si12  1  0.382112  0.117888  0.500000  1
  Si  Si13  1  0.614387  0.885613  0.500000  1
  B  B14  1  0.173430  0.039431  0.000000  1
  B  B15  1  0.827930  0.962050  0.000000  1
  B  B16  1  0.960742  0.172988  0.000000  1
  B  B17  1  0.327012  0.539258  0.000000  1
  B  B18  1  0.039937  0.827956  0.000000  1
  B  B19  1  0.672044  0.460063  0.000000  1
  B  B20  1  0.537950  0.672070  0.000000  1
  B  B21  1  0.460569  0.326570  0.000000  1
  B  B22  1  0.091306  0.590688  0.000000  1
  B  B23  1  0.909312  0.408694  0.000000  1
  B  B24  1  0.409667  0.090333  0.000000  1
  B  B25  1  0.590593  0.909407  0.000000  1
  B  B26  1  0.000678  0.000391  0.160498  1
  B  B27  1  0.000678  0.000391  0.839502  1
  B  B28  1  0.499609  0.499322  0.839502  1
  B  B29  1  0.499609  0.499322  0.160498  1
