# generated using pymatgen
data_Tb12Co2SnRh3
_symmetry_space_group_name_H-M   'P 1'
_cell_length_a   8.38653118
_cell_length_b   8.38653076
_cell_length_c   8.38653124
_cell_angle_alpha   111.70955248
_cell_angle_beta   110.32178818
_cell_angle_gamma   106.42775521
_symmetry_Int_Tables_number   1
_chemical_formula_structural   Tb12Co2SnRh3
_chemical_formula_sum   'Tb12 Co2 Sn1 Rh3'
_cell_volume   453.04767080
_cell_formula_units_Z   1
loop_
 _symmetry_equiv_pos_site_id
 _symmetry_equiv_pos_as_xyz
  1  'x, y, z'
loop_
 _atom_site_type_symbol
 _atom_site_label
 _atom_site_symmetry_multiplicity
 _atom_site_fract_x
 _atom_site_fract_y
 _atom_site_fract_z
 _atom_site_occupancy
  Tb  Tb0  1  0.818457  0.712728  0.531185  1
  Tb  Tb1  1  0.181543  0.287272  0.468815  1
  Tb  Tb2  1  0.181543  0.712728  0.894272  1
  Tb  Tb3  1  0.818457  0.287272  0.105728  1
  Tb  Tb4  1  0.683875  0.371676  0.687801  1
  Tb  Tb5  1  0.316125  0.628324  0.312199  1
  Tb  Tb6  1  0.683875  0.996074  0.312199  1
  Tb  Tb7  1  0.316125  0.003926  0.687801  1
  Tb  Tb8  1  0.588350  0.775549  0.812802  1
  Tb  Tb9  1  0.411650  0.224451  0.187198  1
  Tb  Tb10  1  0.962747  0.775549  0.187198  1
  Tb  Tb11  1  0.037253  0.224451  0.812802  1
  Co  Co12  1  0.111791  0.611791  0.500000  1
  Co  Co13  1  0.888209  0.388209  0.500000  1
  Sn  Sn14  1  0.500000  0.500000  0.000000  1
  Rh  Rh15  1  0.654781  0.000000  0.654781  1
  Rh  Rh16  1  0.345219  0.000000  0.345219  1
  Rh  Rh17  1  0.000000  0.000000  0.000000  1
