# generated using pymatgen
data_Tb3Gd(HgO4)2
_symmetry_space_group_name_H-M   'P 1'
_cell_length_a   7.12100522
_cell_length_b   7.12100611
_cell_length_c   10.16104600
_cell_angle_alpha   59.08276434
_cell_angle_beta   59.08276001
_cell_angle_gamma   29.98615880
_symmetry_Int_Tables_number   1
_chemical_formula_structural   Tb3Gd(HgO4)2
_chemical_formula_sum   'Tb3 Gd1 Hg2 O8'
_cell_volume   218.06781542
_cell_formula_units_Z   1
loop_
 _symmetry_equiv_pos_site_id
 _symmetry_equiv_pos_as_xyz
  1  'x, y, z'
loop_
 _atom_site_type_symbol
 _atom_site_label
 _atom_site_symmetry_multiplicity
 _atom_site_fract_x
 _atom_site_fract_y
 _atom_site_fract_z
 _atom_site_occupancy
  Tb  Tb0  1  0.618506  0.618506  0.538488  1
  Tb  Tb1  1  0.159254  0.159254  0.200473  1
  Tb  Tb2  1  0.841069  0.841069  0.800075  1
  Gd  Gd3  1  0.380469  0.380469  0.461781  1
  Hg  Hg4  1  0.886242  0.886242  0.160923  1
  Hg  Hg5  1  0.113869  0.113869  0.838583  1
  O  O6  1  0.229740  0.229740  0.388678  1
  O  O7  1  0.796205  0.796205  0.055104  1
  O  O8  1  0.035029  0.035029  0.717952  1
  O  O9  1  0.582778  0.582778  0.346604  1
  O  O10  1  0.418617  0.418617  0.653982  1
  O  O11  1  0.966486  0.966486  0.279386  1
  O  O12  1  0.203879  0.203879  0.944610  1
  O  O13  1  0.767858  0.767858  0.613362  1
