# generated using pymatgen
data_Zr4InRh10Pb
_symmetry_space_group_name_H-M   'P 1'
_cell_length_a   5.69334233
_cell_length_b   5.69334118
_cell_length_c   8.27830000
_cell_angle_alpha   90.00000000
_cell_angle_beta   90.00000000
_cell_angle_gamma   96.27716824
_symmetry_Int_Tables_number   1
_chemical_formula_structural   Zr4InRh10Pb
_chemical_formula_sum   'Zr4 In1 Rh10 Pb1'
_cell_volume   266.72520958
_cell_formula_units_Z   1
loop_
 _symmetry_equiv_pos_site_id
 _symmetry_equiv_pos_as_xyz
  1  'x, y, z'
loop_
 _atom_site_type_symbol
 _atom_site_label
 _atom_site_symmetry_multiplicity
 _atom_site_fract_x
 _atom_site_fract_y
 _atom_site_fract_z
 _atom_site_occupancy
  Zr  Zr0  1  0.780624  0.219399  0.497188  1
  Zr  Zr1  1  0.219399  0.780624  0.002812  1
  Zr  Zr2  1  0.219399  0.780624  0.497188  1
  Zr  Zr3  1  0.780624  0.219399  0.002812  1
  In  In4  1  0.499033  0.499033  0.250000  1
  Rh  Rh5  1  0.737486  0.737486  0.002136  1
  Rh  Rh6  1  0.737486  0.737486  0.497864  1
  Rh  Rh7  1  0.262503  0.262503  0.001178  1
  Rh  Rh8  1  0.262503  0.262503  0.498822  1
  Rh  Rh9  1  0.499867  0.000554  0.750000  1
  Rh  Rh10  1  0.500132  0.999455  0.250000  1
  Rh  Rh11  1  0.000331  0.000331  0.250000  1
  Rh  Rh12  1  0.999757  0.999757  0.750000  1
  Rh  Rh13  1  0.000554  0.499867  0.750000  1
  Rh  Rh14  1  0.999455  0.500132  0.250000  1
  Pb  Pb15  1  0.500846  0.500846  0.750000  1
