# generated using pymatgen
data_Eu2DyTh(Sn2O7)2
_symmetry_space_group_name_H-M   'P 1'
_cell_length_a   7.51912316
_cell_length_b   7.55270718
_cell_length_c   7.55253428
_cell_angle_alpha   60.14323361
_cell_angle_beta   60.14623412
_cell_angle_gamma   60.14698759
_symmetry_Int_Tables_number   1
_chemical_formula_structural   Eu2DyTh(Sn2O7)2
_chemical_formula_sum   'Eu2 Dy1 Th1 Sn4 O14'
_cell_volume   304.28209948
_cell_formula_units_Z   1
loop_
 _symmetry_equiv_pos_site_id
 _symmetry_equiv_pos_as_xyz
  1  'x, y, z'
loop_
 _atom_site_type_symbol
 _atom_site_label
 _atom_site_symmetry_multiplicity
 _atom_site_fract_x
 _atom_site_fract_y
 _atom_site_fract_z
 _atom_site_occupancy
  Eu  Eu0  1  0.125000  0.125000  0.125000  1
  Eu  Eu1  1  0.625000  0.125000  0.125000  1
  Dy  Dy2  1  0.125000  0.125000  0.625000  1
  Th  Th3  1  0.125000  0.625000  0.125000  1
  Sn  Sn4  1  0.625000  0.625000  0.625000  1
  Sn  Sn5  1  0.125000  0.625000  0.625000  1
  Sn  Sn6  1  0.625000  0.125000  0.625000  1
  Sn  Sn7  1  0.625000  0.625000  0.125000  1
  O  O8  1  0.961096  0.545925  0.959562  1
  O  O9  1  0.707760  0.293306  0.291175  1
  O  O10  1  0.288582  0.710355  0.712483  1
  O  O11  1  0.715797  0.291485  0.704867  1
  O  O12  1  0.287852  0.291485  0.704867  1
  O  O13  1  0.716584  0.704075  0.290438  1
  O  O14  1  0.962148  0.958515  0.545133  1
  O  O15  1  0.542240  0.956694  0.958825  1
  O  O16  1  0.961418  0.539645  0.537517  1
  O  O17  1  0.533416  0.545925  0.959562  1
  O  O18  1  0.288904  0.704075  0.290438  1
  O  O19  1  0.534203  0.958515  0.545133  1
  O  O20  1  0.010468  0.989748  0.989314  1
  O  O21  1  0.239532  0.260252  0.260686  1
