# generated using pymatgen
data_Y3ErNi13C4
_symmetry_space_group_name_H-M   'P 1'
_cell_length_a   8.39805784
_cell_length_b   8.39805802
_cell_length_c   3.85450100
_cell_angle_alpha   90.00000000
_cell_angle_beta   90.00000000
_cell_angle_gamma   91.20767377
_symmetry_Int_Tables_number   1
_chemical_formula_structural   Y3ErNi13C4
_chemical_formula_sum   'Y3 Er1 Ni13 C4'
_cell_volume   271.78745948
_cell_formula_units_Z   1
loop_
 _symmetry_equiv_pos_site_id
 _symmetry_equiv_pos_as_xyz
  1  'x, y, z'
loop_
 _atom_site_type_symbol
 _atom_site_label
 _atom_site_symmetry_multiplicity
 _atom_site_fract_x
 _atom_site_fract_y
 _atom_site_fract_z
 _atom_site_occupancy
  Y  Y0  1  0.813125  0.186875  0.500000  1
  Y  Y1  1  0.650246  0.651519  0.500000  1
  Y  Y2  1  0.348481  0.349754  0.500000  1
  Er  Er3  1  0.187470  0.812530  0.500000  1
  Ni  Ni4  1  0.496212  0.000476  0.500000  1
  Ni  Ni5  1  0.999524  0.503788  0.500000  1
  Ni  Ni6  1  0.001839  0.998161  0.000000  1
  Ni  Ni7  1  0.429076  0.785440  0.000000  1
  Ni  Ni8  1  0.568703  0.216281  0.000000  1
  Ni  Ni9  1  0.214560  0.570924  0.000000  1
  Ni  Ni10  1  0.783719  0.431297  0.000000  1
  Ni  Ni11  1  0.709538  0.925613  0.000000  1
  Ni  Ni12  1  0.291822  0.071881  0.000000  1
  Ni  Ni13  1  0.074387  0.290462  0.000000  1
  Ni  Ni14  1  0.928119  0.708178  0.000000  1
  Ni  Ni15  1  0.878726  0.875241  0.500000  1
  Ni  Ni16  1  0.124759  0.121274  0.500000  1
  C  C17  1  0.442089  0.557911  0.000000  1
  C  C18  1  0.555983  0.444017  0.000000  1
  C  C19  1  0.501809  0.000189  0.000000  1
  C  C20  1  0.999811  0.498191  0.000000  1
