# generated using pymatgen
data_LiEr6Cd22Si
_symmetry_space_group_name_H-M   'P 1'
_cell_length_a   9.80410116
_cell_length_b   9.80410185
_cell_length_c   9.80410200
_cell_angle_alpha   60.00000624
_cell_angle_beta   60.00000391
_cell_angle_gamma   60.00000104
_symmetry_Int_Tables_number   1
_chemical_formula_structural   LiEr6Cd22Si
_chemical_formula_sum   'Li1 Er6 Cd22 Si1'
_cell_volume   666.35929144
_cell_formula_units_Z   1
loop_
 _symmetry_equiv_pos_site_id
 _symmetry_equiv_pos_as_xyz
  1  'x, y, z'
loop_
 _atom_site_type_symbol
 _atom_site_label
 _atom_site_symmetry_multiplicity
 _atom_site_fract_x
 _atom_site_fract_y
 _atom_site_fract_z
 _atom_site_occupancy
  Li  Li0  1  0.500000  0.500000  0.500000  1
  Er  Er1  1  0.797795  0.797795  0.202205  1
  Er  Er2  1  0.202205  0.797795  0.202205  1
  Er  Er3  1  0.797795  0.202205  0.202205  1
  Er  Er4  1  0.202205  0.202205  0.797795  1
  Er  Er5  1  0.797795  0.202205  0.797795  1
  Er  Er6  1  0.202205  0.797795  0.797795  1
  Cd  Cd7  1  0.835465  0.835465  0.493602  1
  Cd  Cd8  1  0.835465  0.493602  0.835465  1
  Cd  Cd9  1  0.493602  0.835465  0.835465  1
  Cd  Cd10  1  0.835465  0.835465  0.835465  1
  Cd  Cd11  1  0.164535  0.164535  0.506398  1
  Cd  Cd12  1  0.164535  0.506398  0.164535  1
  Cd  Cd13  1  0.506398  0.164535  0.164535  1
  Cd  Cd14  1  0.164535  0.164535  0.164535  1
  Cd  Cd15  1  0.616568  0.616568  0.150296  1
  Cd  Cd16  1  0.616568  0.150296  0.616568  1
  Cd  Cd17  1  0.150296  0.616568  0.616568  1
  Cd  Cd18  1  0.616568  0.616568  0.616568  1
  Cd  Cd19  1  0.383432  0.383432  0.849704  1
  Cd  Cd20  1  0.383432  0.849704  0.383432  1
  Cd  Cd21  1  0.849704  0.383432  0.383432  1
  Cd  Cd22  1  0.383432  0.383432  0.383432  1
  Cd  Cd23  1  0.000000  0.000000  0.500000  1
  Cd  Cd24  1  0.500000  0.000000  0.500000  1
  Cd  Cd25  1  0.000000  0.500000  0.500000  1
  Cd  Cd26  1  0.500000  0.500000  0.000000  1
  Cd  Cd27  1  0.000000  0.500000  0.000000  1
  Cd  Cd28  1  0.500000  0.000000  0.000000  1
  Si  Si29  1  0.000000  0.000000  0.000000  1
