# generated using pymatgen
data_Tb6ScFeO12
_symmetry_space_group_name_H-M   'P 1'
_cell_length_a   6.60795745
_cell_length_b   6.60795773
_cell_length_c   6.60795728
_cell_angle_alpha   92.78953259
_cell_angle_beta   92.78954823
_cell_angle_gamma   92.78954221
_symmetry_Int_Tables_number   1
_chemical_formula_structural   Tb6ScFeO12
_chemical_formula_sum   'Tb6 Sc1 Fe1 O12'
_cell_volume   287.47682166
_cell_formula_units_Z   1
loop_
 _symmetry_equiv_pos_site_id
 _symmetry_equiv_pos_as_xyz
  1  'x, y, z'
loop_
 _atom_site_type_symbol
 _atom_site_label
 _atom_site_symmetry_multiplicity
 _atom_site_fract_x
 _atom_site_fract_y
 _atom_site_fract_z
 _atom_site_occupancy
  Tb  Tb0  1  0.743205  0.926971  0.436137  1
  Tb  Tb1  1  0.926971  0.436137  0.743205  1
  Tb  Tb2  1  0.436137  0.743205  0.926971  1
  Tb  Tb3  1  0.256795  0.073029  0.563863  1
  Tb  Tb4  1  0.073029  0.563863  0.256795  1
  Tb  Tb5  1  0.563863  0.256795  0.073029  1
  Sc  Sc6  1  0.000000  0.000000  0.000000  1
  Fe  Fe7  1  0.500000  0.500000  0.500000  1
  O  O8  1  0.587925  0.460270  0.799642  1
  O  O9  1  0.460270  0.799642  0.587925  1
  O  O10  1  0.799642  0.587925  0.460270  1
  O  O11  1  0.412075  0.539730  0.200358  1
  O  O12  1  0.539730  0.200358  0.412075  1
  O  O13  1  0.200358  0.412075  0.539730  1
  O  O14  1  0.067784  0.915740  0.306755  1
  O  O15  1  0.915740  0.306755  0.067784  1
  O  O16  1  0.693245  0.932216  0.084260  1
  O  O17  1  0.084260  0.693245  0.932216  1
  O  O18  1  0.932216  0.084260  0.693245  1
  O  O19  1  0.306755  0.067784  0.915740  1
