# generated using pymatgen
data_Sc12Co4HgOs
_symmetry_space_group_name_H-M   'P 1'
_cell_length_a   7.68977623
_cell_length_b   7.69009758
_cell_length_c   7.68977553
_cell_angle_alpha   111.53926445
_cell_angle_beta   111.78060521
_cell_angle_gamma   105.17579813
_symmetry_Int_Tables_number   1
_chemical_formula_structural   Sc12Co4HgOs
_chemical_formula_sum   'Sc12 Co4 Hg1 Os1'
_cell_volume   348.60030619
_cell_formula_units_Z   1
loop_
 _symmetry_equiv_pos_site_id
 _symmetry_equiv_pos_as_xyz
  1  'x, y, z'
loop_
 _atom_site_type_symbol
 _atom_site_label
 _atom_site_symmetry_multiplicity
 _atom_site_fract_x
 _atom_site_fract_y
 _atom_site_fract_z
 _atom_site_occupancy
  Sc  Sc0  1  0.425318  0.228150  0.197164  1
  Sc  Sc1  1  0.574682  0.771850  0.802836  1
  Sc  Sc2  1  0.030986  0.228150  0.802832  1
  Sc  Sc3  1  0.969014  0.771850  0.197168  1
  Sc  Sc4  1  0.312261  0.612817  0.300556  1
  Sc  Sc5  1  0.687739  0.387183  0.699444  1
  Sc  Sc6  1  0.312253  0.011686  0.699433  1
  Sc  Sc7  1  0.687747  0.988314  0.300567  1
  Sc  Sc8  1  0.184312  0.273143  0.457453  1
  Sc  Sc9  1  0.815688  0.726856  0.542547  1
  Sc  Sc10  1  0.184309  0.726856  0.911169  1
  Sc  Sc11  1  0.815691  0.273143  0.088831  1
  Co  Co12  1  0.366979  0.000000  0.366979  1
  Co  Co13  1  0.633021  0.000000  0.633021  1
  Co  Co14  1  0.117930  0.617928  0.499998  1
  Co  Co15  1  0.882070  0.382072  0.500002  1
  Hg  Hg16  1  0.500000  0.500000  0.000000  1
  Os  Os17  1  0.000000  0.000000  0.000000  1
