# generated using pymatgen
data_Pr8Sm2Si5Sn
_symmetry_space_group_name_H-M   'P 1'
_cell_length_a   7.79890300
_cell_length_b   7.79890414
_cell_length_c   9.21707780
_cell_angle_alpha   115.02845631
_cell_angle_beta   115.02844884
_cell_angle_gamma   89.99999798
_symmetry_Int_Tables_number   1
_chemical_formula_structural   Pr8Sm2Si5Sn
_chemical_formula_sum   'Pr8 Sm2 Si5 Sn1'
_cell_volume   449.19697812
_cell_formula_units_Z   1
loop_
 _symmetry_equiv_pos_site_id
 _symmetry_equiv_pos_as_xyz
  1  'x, y, z'
loop_
 _atom_site_type_symbol
 _atom_site_label
 _atom_site_symmetry_multiplicity
 _atom_site_fract_x
 _atom_site_fract_y
 _atom_site_fract_z
 _atom_site_occupancy
  Pr  Pr0  1  0.974870  0.828802  0.279518  1
  Pr  Pr1  1  0.304647  0.450716  0.279518  1
  Pr  Pr2  1  0.828802  0.304647  0.279518  1
  Pr  Pr3  1  0.450716  0.974870  0.279518  1
  Pr  Pr4  1  0.049284  0.195353  0.720482  1
  Pr  Pr5  1  0.671198  0.525130  0.720482  1
  Pr  Pr6  1  0.195353  0.671198  0.720482  1
  Pr  Pr7  1  0.525130  0.049284  0.720482  1
  Sm  Sm8  1  0.523086  0.523086  0.046174  1
  Sm  Sm9  1  0.976914  0.976914  0.953826  1
  Si  Si10  1  0.250000  0.250000  0.500000  1
  Si  Si11  1  0.616801  0.883199  0.000000  1
  Si  Si12  1  0.383199  0.116801  0.000000  1
  Si  Si13  1  0.883199  0.383199  0.000000  1
  Si  Si14  1  0.116801  0.616801  0.000000  1
  Sn  Sn15  1  0.750000  0.750000  0.500000  1
