# generated using pymatgen
data_SmLu19(AlBi5)2
_symmetry_space_group_name_H-M   'P 1'
_cell_length_a   8.07746581
_cell_length_b   9.34983400
_cell_length_c   11.76828500
_cell_angle_alpha   90.00000000
_cell_angle_beta   90.02571316
_cell_angle_gamma   90.00000000
_symmetry_Int_Tables_number   1
_chemical_formula_structural   SmLu19(AlBi5)2
_chemical_formula_sum   'Sm1 Lu19 Al2 Bi10'
_cell_volume   888.77568073
_cell_formula_units_Z   1
loop_
 _symmetry_equiv_pos_site_id
 _symmetry_equiv_pos_as_xyz
  1  'x, y, z'
loop_
 _atom_site_type_symbol
 _atom_site_label
 _atom_site_symmetry_multiplicity
 _atom_site_fract_x
 _atom_site_fract_y
 _atom_site_fract_z
 _atom_site_occupancy
  Sm  Sm0  1  0.810484  0.250000  0.281739  1
  Lu  Lu1  1  0.351704  0.750000  0.205625  1
  Lu  Lu2  1  0.850632  0.750000  0.293572  1
  Lu  Lu3  1  0.654699  0.250000  0.780468  1
  Lu  Lu4  1  0.153981  0.250000  0.720373  1
  Lu  Lu5  1  0.686068  0.572328  0.056175  1
  Lu  Lu6  1  0.183888  0.927729  0.443688  1
  Lu  Lu7  1  0.307424  0.052419  0.941554  1
  Lu  Lu8  1  0.807913  0.447450  0.558417  1
  Lu  Lu9  1  0.307424  0.447581  0.941554  1
  Lu  Lu10  1  0.807913  0.052550  0.558417  1
  Lu  Lu11  1  0.686068  0.927672  0.056175  1
  Lu  Lu12  1  0.183888  0.572271  0.443688  1
  Lu  Lu13  1  0.479987  0.250000  0.491565  1
  Lu  Lu14  1  0.980391  0.250000  0.009217  1
  Lu  Lu15  1  0.535007  0.750000  0.509944  1
  Lu  Lu16  1  0.035892  0.750000  0.990095  1
  Lu  Lu17  1  0.309306  0.250000  0.217010  1
  Lu  Lu18  1  0.684366  0.750000  0.784555  1
  Lu  Lu19  1  0.184795  0.750000  0.715542  1
  Al  Al20  1  0.408105  0.750000  0.956113  1
  Al  Al21  1  0.907566  0.750000  0.543994  1
  Bi  Bi22  1  0.594081  0.250000  0.039152  1
  Bi  Bi23  1  0.100366  0.250000  0.461747  1
  Bi  Bi24  1  0.554118  0.995250  0.323800  1
  Bi  Bi25  1  0.061815  0.504865  0.175391  1
  Bi  Bi26  1  0.439365  0.498450  0.677923  1
  Bi  Bi27  1  0.938726  0.001678  0.822696  1
  Bi  Bi28  1  0.439365  0.001550  0.677923  1
  Bi  Bi29  1  0.938726  0.498322  0.822696  1
  Bi  Bi30  1  0.554118  0.504750  0.323800  1
  Bi  Bi31  1  0.061815  0.995135  0.175391  1
