# generated using pymatgen
data_Th2Ta3P7IrRh8
_symmetry_space_group_name_H-M   'P 1'
_cell_length_a   3.99256500
_cell_length_b   9.67875144
_cell_length_c   9.68196812
_cell_angle_alpha   119.93053180
_cell_angle_beta   89.99871426
_cell_angle_gamma   89.99907775
_symmetry_Int_Tables_number   1
_chemical_formula_structural   Th2Ta3P7IrRh8
_chemical_formula_sum   'Th2 Ta3 P7 Ir1 Rh8'
_cell_volume   324.24194515
_cell_formula_units_Z   1
loop_
 _symmetry_equiv_pos_site_id
 _symmetry_equiv_pos_as_xyz
  1  'x, y, z'
loop_
 _atom_site_type_symbol
 _atom_site_label
 _atom_site_symmetry_multiplicity
 _atom_site_fract_x
 _atom_site_fract_y
 _atom_site_fract_z
 _atom_site_occupancy
  Th  Th0  1  0.261880  0.667075  0.333656  1
  Th  Th1  1  0.761843  0.333186  0.666656  1
  Ta  Ta2  1  0.761979  0.094068  0.875179  1
  Ta  Ta3  1  0.761970  0.125120  0.219868  1
  Ta  Ta4  1  0.761896  0.779865  0.906615  1
  P  P5  1  0.262049  0.000731  0.998534  1
  P  P6  1  0.762002  0.884303  0.595657  1
  P  P7  1  0.761910  0.406180  0.290002  1
  P  P8  1  0.761890  0.709705  0.115500  1
  P  P9  1  0.261739  0.113342  0.410533  1
  P  P10  1  0.261869  0.589722  0.701680  1
  P  P11  1  0.261797  0.297467  0.887262  1
  Ir  Ir12  1  0.261872  0.884646  0.157901  1
  Rh  Rh13  1  0.261976  0.841812  0.725136  1
  Rh  Rh14  1  0.261943  0.275225  0.116575  1
  Rh  Rh15  1  0.761878  0.613374  0.561798  1
  Rh  Rh16  1  0.761957  0.438783  0.052379  1
  Rh  Rh17  1  0.761821  0.945683  0.386978  1
  Rh  Rh18  1  0.261935  0.367287  0.437679  1
  Rh  Rh19  1  0.261900  0.561540  0.928549  1
  Rh  Rh20  1  0.261895  0.070888  0.631863  1
