# generated using pymatgen
data_Hf4ZrTc8W3
_symmetry_space_group_name_H-M   'P 1'
_cell_length_a   6.44671100
_cell_length_b   4.53752800
_cell_length_c   9.07879100
_cell_angle_alpha   90.00000000
_cell_angle_beta   90.00007342
_cell_angle_gamma   90.00000000
_symmetry_Int_Tables_number   1
_chemical_formula_structural   Hf4ZrTc8W3
_chemical_formula_sum   'Hf4 Zr1 Tc8 W3'
_cell_volume   265.57398974
_cell_formula_units_Z   1
loop_
 _symmetry_equiv_pos_site_id
 _symmetry_equiv_pos_as_xyz
  1  'x, y, z'
loop_
 _atom_site_type_symbol
 _atom_site_label
 _atom_site_symmetry_multiplicity
 _atom_site_fract_x
 _atom_site_fract_y
 _atom_site_fract_z
 _atom_site_occupancy
  Hf  Hf0  1  0.249984  0.249999  0.125001  1
  Hf  Hf1  1  0.750002  0.749999  0.377045  1
  Hf  Hf2  1  0.249994  0.249999  0.625004  1
  Hf  Hf3  1  0.750018  0.749999  0.872939  1
  Zr  Zr4  1  0.750003  0.249999  0.125001  1
  Tc  Tc5  1  0.008788  0.749999  0.125006  1
  Tc  Tc6  1  0.491193  0.749999  0.125004  1
  Tc  Tc7  1  0.003234  0.249999  0.381836  1
  Tc  Tc8  1  0.496755  0.249999  0.381836  1
  Tc  Tc9  1  0.499951  0.749999  0.624996  1
  Tc  Tc10  1  0.000057  0.749999  0.624992  1
  Tc  Tc11  1  0.496726  0.249999  0.868168  1
  Tc  Tc12  1  0.003286  0.249999  0.868169  1
  W  W13  1  0.249995  0.749999  0.375619  1
  W  W14  1  0.750004  0.249999  0.625002  1
  W  W15  1  0.250008  0.749999  0.874384  1
