# generated using pymatgen
data_La4C4SeCl
_symmetry_space_group_name_H-M   'P 1'
_cell_length_a   7.65858235
_cell_length_b   7.65858248
_cell_length_c   7.05092158
_cell_angle_alpha   78.56880561
_cell_angle_beta   78.56880688
_cell_angle_gamma   32.23876003
_symmetry_Int_Tables_number   1
_chemical_formula_structural   La4C4SeCl
_chemical_formula_sum   'La4 C4 Se1 Cl1'
_cell_volume   215.86932642
_cell_formula_units_Z   1
loop_
 _symmetry_equiv_pos_site_id
 _symmetry_equiv_pos_as_xyz
  1  'x, y, z'
loop_
 _atom_site_type_symbol
 _atom_site_label
 _atom_site_symmetry_multiplicity
 _atom_site_fract_x
 _atom_site_fract_y
 _atom_site_fract_z
 _atom_site_occupancy
  La  La0  1  0.549880  0.157880  0.140937  1
  La  La1  1  0.156207  0.556120  0.649737  1
  La  La2  1  0.443880  0.843793  0.850263  1
  La  La3  1  0.842120  0.450120  0.359063  1
  C  C4  1  0.360717  0.091549  0.469289  1
  C  C5  1  0.908451  0.639283  0.030711  1
  C  C6  1  0.641122  0.910570  0.526488  1
  C  C7  1  0.089430  0.358878  0.973512  1
  Se  Se8  1  0.792969  0.207031  0.750000  1
  Cl  Cl9  1  0.215223  0.784777  0.250000  1
