# generated using pymatgen
data_SrLi(H3Pt)2
_symmetry_space_group_name_H-M   'P 1'
_cell_length_a   5.25733171
_cell_length_b   5.25732182
_cell_length_c   5.25734300
_cell_angle_alpha   90.00015685
_cell_angle_beta   119.99999599
_cell_angle_gamma   119.99988449
_symmetry_Int_Tables_number   1
_chemical_formula_structural   SrLi(H3Pt)2
_chemical_formula_sum   'Sr1 Li1 H6 Pt2'
_cell_volume   102.74990924
_cell_formula_units_Z   1
loop_
 _symmetry_equiv_pos_site_id
 _symmetry_equiv_pos_as_xyz
  1  'x, y, z'
loop_
 _atom_site_type_symbol
 _atom_site_label
 _atom_site_symmetry_multiplicity
 _atom_site_fract_x
 _atom_site_fract_y
 _atom_site_fract_z
 _atom_site_occupancy
  Sr  Sr0  1  0.500000  0.250001  0.750000  1
  Li  Li1  1  0.500002  0.750001  0.249999  1
  H  H2  1  0.000000  0.249193  0.249193  1
  H  H3  1  0.498388  0.249193  0.249193  1
  H  H4  1  0.000000  0.750804  0.249193  1
  H  H5  1  0.000000  0.249193  0.750805  1
  H  H6  1  0.000000  0.750807  0.750807  1
  H  H7  1  0.501614  0.750807  0.750807  1
  Pt  Pt8  1  0.000001  0.000001  0.000001  1
  Pt  Pt9  1  0.000001  0.499999  0.500000  1
