# generated using pymatgen
data_Cs2BaV4O12
_symmetry_space_group_name_H-M   'P 1'
_cell_length_a   8.23010500
_cell_length_b   8.23010500
_cell_length_c   5.81311400
_cell_angle_alpha   90.00000000
_cell_angle_beta   90.00000000
_cell_angle_gamma   90.00000000
_symmetry_Int_Tables_number   1
_chemical_formula_structural   Cs2BaV4O12
_chemical_formula_sum   'Cs2 Ba1 V4 O12'
_cell_volume   393.74911612
_cell_formula_units_Z   1
loop_
 _symmetry_equiv_pos_site_id
 _symmetry_equiv_pos_as_xyz
  1  'x, y, z'
loop_
 _atom_site_type_symbol
 _atom_site_label
 _atom_site_symmetry_multiplicity
 _atom_site_fract_x
 _atom_site_fract_y
 _atom_site_fract_z
 _atom_site_occupancy
  Cs  Cs0  1  0.000000  0.500000  0.500000  1
  Cs  Cs1  1  0.500000  0.000000  0.500000  1
  Ba  Ba2  1  0.500000  0.500000  0.500000  1
  V  V3  1  0.217803  0.217803  0.000000  1
  V  V4  1  0.782197  0.217803  0.000000  1
  V  V5  1  0.217803  0.782197  0.000000  1
  V  V6  1  0.782197  0.782197  0.000000  1
  O  O7  1  0.700411  0.700411  0.762254  1
  O  O8  1  0.299589  0.299589  0.762254  1
  O  O9  1  0.700411  0.299589  0.762254  1
  O  O10  1  0.299589  0.700411  0.762254  1
  O  O11  1  0.299589  0.700411  0.237746  1
  O  O12  1  0.299589  0.299589  0.237746  1
  O  O13  1  0.700411  0.700411  0.237746  1
  O  O14  1  0.700411  0.299589  0.237746  1
  O  O15  1  0.256674  0.000000  0.000000  1
  O  O16  1  0.000000  0.256674  0.000000  1
  O  O17  1  0.000000  0.743326  0.000000  1
  O  O18  1  0.743326  0.000000  0.000000  1
