# generated using pymatgen
data_Sc4Be4Ga2IrRh9
_symmetry_space_group_name_H-M   'P 1'
_cell_length_a   9.48272493
_cell_length_b   9.48272493
_cell_length_c   3.11253600
_cell_angle_alpha   90.00000000
_cell_angle_beta   90.00000000
_cell_angle_gamma   89.84274769
_symmetry_Int_Tables_number   1
_chemical_formula_structural   Sc4Be4Ga2IrRh9
_chemical_formula_sum   'Sc4 Be4 Ga2 Ir1 Rh9'
_cell_volume   279.88463239
_cell_formula_units_Z   1
loop_
 _symmetry_equiv_pos_site_id
 _symmetry_equiv_pos_as_xyz
  1  'x, y, z'
loop_
 _atom_site_type_symbol
 _atom_site_label
 _atom_site_symmetry_multiplicity
 _atom_site_fract_x
 _atom_site_fract_y
 _atom_site_fract_z
 _atom_site_occupancy
  Sc  Sc0  1  0.675195  0.175195  0.000000  1
  Sc  Sc1  1  0.324805  0.824805  0.000000  1
  Sc  Sc2  1  0.174701  0.325299  0.000000  1
  Sc  Sc3  1  0.825299  0.674701  0.000000  1
  Be  Be4  1  0.124077  0.624077  0.000000  1
  Be  Be5  1  0.875923  0.375923  0.000000  1
  Be  Be6  1  0.624183  0.875817  0.000000  1
  Be  Be7  1  0.375817  0.124183  0.000000  1
  Ga  Ga8  1  0.000000  0.000000  0.000000  1
  Ga  Ga9  1  0.500000  0.500000  0.000000  1
  Ir  Ir10  1  0.000000  0.500000  0.500000  1
  Rh  Rh11  1  0.209238  0.068212  0.500000  1
  Rh  Rh12  1  0.790762  0.931788  0.500000  1
  Rh  Rh13  1  0.068854  0.791142  0.500000  1
  Rh  Rh14  1  0.708858  0.431146  0.500000  1
  Rh  Rh15  1  0.931146  0.208858  0.500000  1
  Rh  Rh16  1  0.291142  0.568854  0.500000  1
  Rh  Rh17  1  0.568212  0.709238  0.500000  1
  Rh  Rh18  1  0.431788  0.290762  0.500000  1
  Rh  Rh19  1  0.500000  0.000000  0.500000  1
