# generated using pymatgen
data_LiPr6Co2(P4Rh5)3
_symmetry_space_group_name_H-M   'P 1'
_cell_length_a   3.94778500
_cell_length_b   11.26151400
_cell_length_c   12.98765600
_cell_angle_alpha   90.00000000
_cell_angle_beta   90.00000000
_cell_angle_gamma   90.00000000
_symmetry_Int_Tables_number   1
_chemical_formula_structural   LiPr6Co2(P4Rh5)3
_chemical_formula_sum   'Li1 Pr6 Co2 P12 Rh15'
_cell_volume   577.40567861
_cell_formula_units_Z   1
loop_
 _symmetry_equiv_pos_site_id
 _symmetry_equiv_pos_as_xyz
  1  'x, y, z'
loop_
 _atom_site_type_symbol
 _atom_site_label
 _atom_site_symmetry_multiplicity
 _atom_site_fract_x
 _atom_site_fract_y
 _atom_site_fract_z
 _atom_site_occupancy
  Li  Li0  1  0.500000  0.500000  0.153675  1
  Pr  Pr1  1  0.000000  0.500000  0.515978  1
  Pr  Pr2  1  0.500000  0.000000  0.479756  1
  Pr  Pr3  1  0.500000  0.817139  0.202525  1
  Pr  Pr4  1  0.500000  0.182861  0.202525  1
  Pr  Pr5  1  0.000000  0.681989  0.798525  1
  Pr  Pr6  1  0.000000  0.318011  0.798525  1
  Co  Co7  1  0.000000  0.500000  0.987290  1
  Co  Co8  1  0.500000  0.000000  0.015088  1
  P  P9  1  0.500000  0.500000  0.888327  1
  P  P10  1  0.000000  0.000000  0.113905  1
  P  P11  1  0.500000  0.500000  0.340341  1
  P  P12  1  0.000000  0.000000  0.653675  1
  P  P13  1  0.500000  0.312303  0.618019  1
  P  P14  1  0.500000  0.687697  0.618019  1
  P  P15  1  0.000000  0.189921  0.383067  1
  P  P16  1  0.000000  0.810079  0.383067  1
  P  P17  1  0.500000  0.854308  0.896474  1
  P  P18  1  0.500000  0.145692  0.896474  1
  P  P19  1  0.000000  0.650476  0.102350  1
  P  P20  1  0.000000  0.349524  0.102350  1
  Rh  Rh21  1  0.000000  0.000000  0.832362  1
  Rh  Rh22  1  0.500000  0.500000  0.705295  1
  Rh  Rh23  1  0.000000  0.000000  0.295414  1
  Rh  Rh24  1  0.500000  0.334540  0.997495  1
  Rh  Rh25  1  0.500000  0.665460  0.997495  1
  Rh  Rh26  1  0.000000  0.162480  0.003454  1
  Rh  Rh27  1  0.000000  0.837520  0.003454  1
  Rh  Rh28  1  0.500000  0.289362  0.432936  1
  Rh  Rh29  1  0.500000  0.710638  0.432936  1
  Rh  Rh30  1  0.000000  0.204677  0.572714  1
  Rh  Rh31  1  0.000000  0.795323  0.572714  1
  Rh  Rh32  1  0.500000  0.876511  0.712598  1
  Rh  Rh33  1  0.500000  0.123489  0.712598  1
  Rh  Rh34  1  0.000000  0.624546  0.289293  1
  Rh  Rh35  1  0.000000  0.375454  0.289293  1
