# generated using pymatgen
data_LiY14Ho2In3Rh4
_symmetry_space_group_name_H-M   'P 1'
_cell_length_a   9.69878891
_cell_length_b   9.71711827
_cell_length_c   9.69878940
_cell_angle_alpha   59.70776816
_cell_angle_beta   59.70650882
_cell_angle_gamma   59.70777106
_symmetry_Int_Tables_number   1
_chemical_formula_structural   LiY14Ho2In3Rh4
_chemical_formula_sum   'Li1 Y14 Ho2 In3 Rh4'
_cell_volume   642.03844614
_cell_formula_units_Z   1
loop_
 _symmetry_equiv_pos_site_id
 _symmetry_equiv_pos_as_xyz
  1  'x, y, z'
loop_
 _atom_site_type_symbol
 _atom_site_label
 _atom_site_symmetry_multiplicity
 _atom_site_fract_x
 _atom_site_fract_y
 _atom_site_fract_z
 _atom_site_occupancy
  Li  Li0  1  0.821828  0.821917  0.821828  1
  Y  Y1  1  0.188667  0.188187  0.811917  1
  Y  Y2  1  0.600235  0.600316  0.201495  1
  Y  Y3  1  0.442033  0.058134  0.442033  1
  Y  Y4  1  0.441887  0.441943  0.058100  1
  Y  Y5  1  0.812487  0.187327  0.812487  1
  Y  Y6  1  0.188091  0.812260  0.188091  1
  Y  Y7  1  0.436743  0.062627  0.062368  1
  Y  Y8  1  0.187272  0.812857  0.812744  1
  Y  Y9  1  0.062670  0.436542  0.062670  1
  Y  Y10  1  0.812744  0.812857  0.187272  1
  Y  Y11  1  0.201495  0.600316  0.600235  1
  Y  Y12  1  0.058100  0.441943  0.441887  1
  Y  Y13  1  0.062368  0.062627  0.436743  1
  Y  Y14  1  0.811917  0.188187  0.188667  1
  Ho  Ho15  1  0.599301  0.204160  0.599301  1
  Ho  Ho16  1  0.599442  0.599439  0.599442  1
  In  In17  1  0.832763  0.832709  0.503337  1
  In  In18  1  0.503337  0.832709  0.832763  1
  In  In19  1  0.832731  0.503370  0.832731  1
  Rh  Rh20  1  0.393643  0.822731  0.393643  1
  Rh  Rh21  1  0.393960  0.391737  0.393960  1
  Rh  Rh22  1  0.821337  0.392554  0.394955  1
  Rh  Rh23  1  0.394955  0.392554  0.821337  1
