# generated using pymatgen
data_Li12ZnSi4
_symmetry_space_group_name_H-M   'P 1'
_cell_length_a   7.92578900
_cell_length_b   14.72135900
_cell_length_c   4.42859500
_cell_angle_alpha   90.00000000
_cell_angle_beta   90.00000000
_cell_angle_gamma   90.00000000
_symmetry_Int_Tables_number   1
_chemical_formula_structural   Li12ZnSi4
_chemical_formula_sum   'Li24 Zn2 Si8'
_cell_volume   516.72131343
_cell_formula_units_Z   2
loop_
 _symmetry_equiv_pos_site_id
 _symmetry_equiv_pos_as_xyz
  1  'x, y, z'
loop_
 _atom_site_type_symbol
 _atom_site_label
 _atom_site_symmetry_multiplicity
 _atom_site_fract_x
 _atom_site_fract_y
 _atom_site_fract_z
 _atom_site_occupancy
  Li  Li0  1  0.149662  0.021858  0.000000  1
  Li  Li1  1  0.766332  0.149430  0.000000  1
  Li  Li2  1  0.094745  0.192356  0.000000  1
  Li  Li3  1  0.594747  0.307645  0.000000  1
  Li  Li4  1  0.266331  0.350570  0.000000  1
  Li  Li5  1  0.649663  0.478141  0.000000  1
  Li  Li6  1  0.350338  0.521858  0.000000  1
  Li  Li7  1  0.733669  0.649431  0.000000  1
  Li  Li8  1  0.405255  0.692356  0.000000  1
  Li  Li9  1  0.905254  0.807645  0.000000  1
  Li  Li10  1  0.233669  0.850570  0.000000  1
  Li  Li11  1  0.850339  0.978141  0.000000  1
  Li  Li12  1  0.261150  0.088158  0.500000  1
  Li  Li13  1  0.599574  0.100988  0.500000  1
  Li  Li14  1  0.907834  0.248171  0.500000  1
  Li  Li15  1  0.407835  0.251829  0.500000  1
  Li  Li16  1  0.099574  0.399012  0.500000  1
  Li  Li17  1  0.761149  0.411842  0.500000  1
  Li  Li18  1  0.238851  0.588158  0.500000  1
  Li  Li19  1  0.900426  0.600988  0.500000  1
  Li  Li20  1  0.592166  0.748171  0.500000  1
  Li  Li21  1  0.092165  0.751829  0.500000  1
  Li  Li22  1  0.400427  0.899012  0.500000  1
  Li  Li23  1  0.738851  0.911842  0.500000  1
  Zn  Zn24  1  0.500000  0.000000  0.000000  1
  Zn  Zn25  1  0.000000  0.500000  0.000000  1
  Si  Si26  1  0.418629  0.156131  0.000000  1
  Si  Si27  1  0.918629  0.343869  0.000000  1
  Si  Si28  1  0.081372  0.656131  0.000000  1
  Si  Si29  1  0.581371  0.843869  0.000000  1
  Si  Si30  1  0.927494  0.071704  0.500000  1
  Si  Si31  1  0.427495  0.428297  0.500000  1
  Si  Si32  1  0.572505  0.571703  0.500000  1
  Si  Si33  1  0.072506  0.928297  0.500000  1
