# generated using pymatgen
data_La(PrPb)3
_symmetry_space_group_name_H-M   'P 1'
_cell_length_a   8.51113135
_cell_length_b   8.51113039
_cell_length_c   8.49200555
_cell_angle_alpha   109.47003412
_cell_angle_beta   109.47002705
_cell_angle_gamma   109.55972017
_symmetry_Int_Tables_number   1
_chemical_formula_structural   La(PrPb)3
_chemical_formula_sum   'La2 Pr6 Pb6'
_cell_volume   473.04255173
_cell_formula_units_Z   2
loop_
 _symmetry_equiv_pos_site_id
 _symmetry_equiv_pos_as_xyz
  1  'x, y, z'
loop_
 _atom_site_type_symbol
 _atom_site_label
 _atom_site_symmetry_multiplicity
 _atom_site_fract_x
 _atom_site_fract_y
 _atom_site_fract_z
 _atom_site_occupancy
  La  La0  1  0.000048  0.859109  0.500069  1
  La  La1  1  0.359109  0.500048  0.000069  1
  Pr  Pr2  1  0.499968  0.000027  0.359837  1
  Pr  Pr3  1  0.500027  0.999968  0.859837  1
  Pr  Pr4  1  0.640164  0.640256  0.640199  1
  Pr  Pr5  1  0.999959  0.359636  0.499941  1
  Pr  Pr6  1  0.140256  0.140164  0.140199  1
  Pr  Pr7  1  0.859636  0.499959  0.999941  1
  Pb  Pb8  1  0.124655  0.750326  0.875674  1
  Pb  Pb9  1  0.873538  0.125416  0.750434  1
  Pb  Pb10  1  0.625416  0.373538  0.250434  1
  Pb  Pb11  1  0.376529  0.250368  0.623846  1
  Pb  Pb12  1  0.750368  0.876529  0.123846  1
  Pb  Pb13  1  0.250326  0.624655  0.375674  1
