# generated using pymatgen
data_Ho20Bi8OsRh3
_symmetry_space_group_name_H-M   'P 1'
_cell_length_a   7.97952017
_cell_length_b   8.99246700
_cell_length_c   12.40852728
_cell_angle_alpha   90.00000000
_cell_angle_beta   90.12495272
_cell_angle_gamma   90.00000000
_symmetry_Int_Tables_number   1
_chemical_formula_structural   Ho20Bi8OsRh3
_chemical_formula_sum   'Ho20 Bi8 Os1 Rh3'
_cell_volume   890.37885266
_cell_formula_units_Z   1
loop_
 _symmetry_equiv_pos_site_id
 _symmetry_equiv_pos_as_xyz
  1  'x, y, z'
loop_
 _atom_site_type_symbol
 _atom_site_label
 _atom_site_symmetry_multiplicity
 _atom_site_fract_x
 _atom_site_fract_y
 _atom_site_fract_z
 _atom_site_occupancy
  Ho  Ho0  1  0.343147  0.750000  0.705922  1
  Ho  Ho1  1  0.657404  0.250000  0.293234  1
  Ho  Ho2  1  0.841382  0.250000  0.793849  1
  Ho  Ho3  1  0.159918  0.750000  0.207926  1
  Ho  Ho4  1  0.879184  0.750000  0.807047  1
  Ho  Ho5  1  0.121908  0.250000  0.192838  1
  Ho  Ho6  1  0.379231  0.250000  0.693834  1
  Ho  Ho7  1  0.620268  0.750000  0.306288  1
  Ho  Ho8  1  0.677104  0.546753  0.564892  1
  Ho  Ho9  1  0.324270  0.461678  0.435784  1
  Ho  Ho10  1  0.177266  0.456478  0.934249  1
  Ho  Ho11  1  0.324270  0.038322  0.435784  1
  Ho  Ho12  1  0.822214  0.542358  0.065330  1
  Ho  Ho13  1  0.677104  0.953247  0.564892  1
  Ho  Ho14  1  0.822214  0.957642  0.065330  1
  Ho  Ho15  1  0.177266  0.043522  0.934249  1
  Ho  Ho16  1  0.054274  0.750000  0.497810  1
  Ho  Ho17  1  0.946674  0.250000  0.502248  1
  Ho  Ho18  1  0.547616  0.250000  0.001325  1
  Ho  Ho19  1  0.449684  0.750000  0.998182  1
  Bi  Bi20  1  0.570982  0.509082  0.827318  1
  Bi  Bi21  1  0.429206  0.490725  0.172287  1
  Bi  Bi22  1  0.070464  0.490242  0.672798  1
  Bi  Bi23  1  0.429206  0.009275  0.172287  1
  Bi  Bi24  1  0.929102  0.508594  0.327012  1
  Bi  Bi25  1  0.570982  0.990918  0.827318  1
  Bi  Bi26  1  0.929102  0.991406  0.327012  1
  Bi  Bi27  1  0.070464  0.009758  0.672798  1
  Os  Os28  1  0.425207  0.750000  0.489083  1
  Rh  Rh29  1  0.072066  0.750000  0.990684  1
  Rh  Rh30  1  0.927519  0.250000  0.010367  1
  Rh  Rh31  1  0.573300  0.250000  0.510020  1
