# generated using pymatgen
data_Tm4Al18RePt5
_symmetry_space_group_name_H-M   'P 1'
_cell_length_a   7.59813410
_cell_length_b   7.59813572
_cell_length_c   9.44128100
_cell_angle_alpha   89.76100974
_cell_angle_beta   89.76100215
_cell_angle_gamma   119.35544315
_symmetry_Int_Tables_number   1
_chemical_formula_structural   Tm4Al18RePt5
_chemical_formula_sum   'Tm4 Al18 Re1 Pt5'
_cell_volume   475.05619264
_cell_formula_units_Z   1
loop_
 _symmetry_equiv_pos_site_id
 _symmetry_equiv_pos_as_xyz
  1  'x, y, z'
loop_
 _atom_site_type_symbol
 _atom_site_label
 _atom_site_symmetry_multiplicity
 _atom_site_fract_x
 _atom_site_fract_y
 _atom_site_fract_z
 _atom_site_occupancy
  Tm  Tm0  1  0.995691  0.675296  0.247588  1
  Tm  Tm1  1  0.004309  0.324704  0.752412  1
  Tm  Tm2  1  0.675296  0.995691  0.247588  1
  Tm  Tm3  1  0.324704  0.004309  0.752412  1
  Al  Al4  1  0.131033  0.131033  0.247111  1
  Al  Al5  1  0.868967  0.868967  0.752889  1
  Al  Al6  1  0.999411  0.330831  0.075358  1
  Al  Al7  1  0.000589  0.669169  0.924642  1
  Al  Al8  1  0.999027  0.662477  0.579220  1
  Al  Al9  1  0.337523  0.000973  0.420780  1
  Al  Al10  1  0.000973  0.337523  0.420780  1
  Al  Al11  1  0.662477  0.999027  0.579220  1
  Al  Al12  1  0.669169  0.000589  0.924642  1
  Al  Al13  1  0.330831  0.999411  0.075358  1
  Al  Al14  1  0.332585  0.332585  0.557789  1
  Al  Al15  1  0.667415  0.667415  0.442211  1
  Al  Al16  1  0.671107  0.671107  0.053773  1
  Al  Al17  1  0.328893  0.328893  0.946227  1
  Al  Al18  1  0.341873  0.549268  0.249376  1
  Al  Al19  1  0.658127  0.450732  0.750624  1
  Al  Al20  1  0.549268  0.341873  0.249376  1
  Al  Al21  1  0.450732  0.658127  0.750624  1
  Re  Re22  1  0.000000  0.000000  0.000000  1
  Pt  Pt23  1  0.672422  0.327578  0.000000  1
  Pt  Pt24  1  0.327578  0.672422  0.000000  1
  Pt  Pt25  1  0.327407  0.672593  0.500000  1
  Pt  Pt26  1  0.672593  0.327407  0.500000  1
  Pt  Pt27  1  0.000000  0.000000  0.500000  1
