# generated using pymatgen
data_Tb4Er2MnSi24Ru7
_symmetry_space_group_name_H-M   'P 1'
_cell_length_a   10.09161544
_cell_length_b   10.09161598
_cell_length_c   8.12182522
_cell_angle_alpha   90.02108149
_cell_angle_beta   90.02108762
_cell_angle_gamma   132.57519020
_symmetry_Int_Tables_number   1
_chemical_formula_structural   Tb4Er2MnSi24Ru7
_chemical_formula_sum   'Tb4 Er2 Mn1 Si24 Ru7'
_cell_volume   609.09188806
_cell_formula_units_Z   1
loop_
 _symmetry_equiv_pos_site_id
 _symmetry_equiv_pos_as_xyz
  1  'x, y, z'
loop_
 _atom_site_type_symbol
 _atom_site_label
 _atom_site_symmetry_multiplicity
 _atom_site_fract_x
 _atom_site_fract_y
 _atom_site_fract_z
 _atom_site_occupancy
  Tb  Tb0  1  0.497939  0.997439  0.248690  1
  Tb  Tb1  1  0.003322  0.501848  0.750963  1
  Tb  Tb2  1  0.501848  0.003322  0.750963  1
  Tb  Tb3  1  0.997439  0.497939  0.248690  1
  Er  Er4  1  0.501898  0.501898  0.500575  1
  Er  Er5  1  0.999373  0.999373  0.997718  1
  Mn  Mn6  1  0.624367  0.624367  0.874559  1
  Si  Si7  1  0.386988  0.154473  0.004705  1
  Si  Si8  1  0.654517  0.887317  0.494471  1
  Si  Si9  1  0.112872  0.345317  0.506075  1
  Si  Si10  1  0.841891  0.614762  0.989364  1
  Si  Si11  1  0.614762  0.841891  0.989364  1
  Si  Si12  1  0.345317  0.112872  0.506075  1
  Si  Si13  1  0.887317  0.654517  0.494471  1
  Si  Si14  1  0.154473  0.386988  0.004705  1
  Si  Si15  1  0.612031  0.378207  0.229156  1
  Si  Si16  1  0.877203  0.110308  0.270842  1
  Si  Si17  1  0.888967  0.122207  0.729101  1
  Si  Si18  1  0.624398  0.396445  0.772206  1
  Si  Si19  1  0.396445  0.624398  0.772206  1
  Si  Si20  1  0.122207  0.888967  0.729101  1
  Si  Si21  1  0.704418  0.294699  0.000244  1
  Si  Si22  1  0.794988  0.205184  0.500027  1
  Si  Si23  1  0.294699  0.704418  0.000244  1
  Si  Si24  1  0.205184  0.794988  0.500027  1
  Si  Si25  1  0.166804  0.166804  0.333822  1
  Si  Si26  1  0.668058  0.668058  0.161110  1
  Si  Si27  1  0.338008  0.338008  0.832842  1
  Si  Si28  1  0.825706  0.825706  0.673442  1
  Si  Si29  1  0.378207  0.612031  0.229156  1
  Si  Si30  1  0.110308  0.877203  0.270842  1
  Ru  Ru31  1  0.124789  0.124789  0.628547  1
  Ru  Ru32  1  0.871996  0.871996  0.374507  1
  Ru  Ru33  1  0.374039  0.374039  0.127201  1
  Ru  Ru34  1  0.331257  0.669039  0.502171  1
  Ru  Ru35  1  0.167089  0.829829  0.999822  1
  Ru  Ru36  1  0.669039  0.331257  0.502171  1
  Ru  Ru37  1  0.829829  0.167089  0.999822  1
