# generated using pymatgen
data_Tm12In2SiOs3
_symmetry_space_group_name_H-M   'P 1'
_cell_length_a   8.34383780
_cell_length_b   8.34374107
_cell_length_c   8.34383700
_cell_angle_alpha   112.62495953
_cell_angle_beta   112.16719091
_cell_angle_gamma   103.76849816
_symmetry_Int_Tables_number   1
_chemical_formula_structural   Tm12In2SiOs3
_chemical_formula_sum   'Tm12 In2 Si1 Os3'
_cell_volume   443.87963716
_cell_formula_units_Z   1
loop_
 _symmetry_equiv_pos_site_id
 _symmetry_equiv_pos_as_xyz
  1  'x, y, z'
loop_
 _atom_site_type_symbol
 _atom_site_label
 _atom_site_symmetry_multiplicity
 _atom_site_fract_x
 _atom_site_fract_y
 _atom_site_fract_z
 _atom_site_occupancy
  Tm  Tm0  1  0.445794  0.243229  0.202526  1
  Tm  Tm1  1  0.550896  0.755978  0.794980  1
  Tm  Tm2  1  0.040703  0.243229  0.797435  1
  Tm  Tm3  1  0.960996  0.755978  0.205083  1
  Tm  Tm4  1  0.186445  0.284424  0.464259  1
  Tm  Tm5  1  0.820179  0.722218  0.535788  1
  Tm  Tm6  1  0.186431  0.722218  0.902040  1
  Tm  Tm7  1  0.820166  0.284424  0.097981  1
  Tm  Tm8  1  0.330926  0.643908  0.312981  1
  Tm  Tm9  1  0.663338  0.352674  0.689336  1
  Tm  Tm10  1  0.330918  0.017948  0.687029  1
  Tm  Tm11  1  0.663327  0.973967  0.310641  1
  In  In12  1  0.500571  0.500484  0.999913  1
  In  In13  1  0.996744  0.996795  0.000051  1
  Si  Si14  1  0.877852  0.377867  0.500016  1
  Os  Os15  1  0.332794  0.002949  0.329772  1
  Os  Os16  1  0.673176  0.002949  0.670155  1
  Os  Os17  1  0.118745  0.618761  0.500015  1
