# generated using pymatgen
data_Ta5NbB4(Os2Ru3)2
_symmetry_space_group_name_H-M   'P 1'
_cell_length_a   9.46453226
_cell_length_b   9.55158226
_cell_length_c   3.01474200
_cell_angle_alpha   90.00000000
_cell_angle_beta   90.00000000
_cell_angle_gamma   90.02680371
_symmetry_Int_Tables_number   1
_chemical_formula_structural   Ta5NbB4(Os2Ru3)2
_chemical_formula_sum   'Ta5 Nb1 B4 Os4 Ru6'
_cell_volume   272.53644084
_cell_formula_units_Z   1
loop_
 _symmetry_equiv_pos_site_id
 _symmetry_equiv_pos_as_xyz
  1  'x, y, z'
loop_
 _atom_site_type_symbol
 _atom_site_label
 _atom_site_symmetry_multiplicity
 _atom_site_fract_x
 _atom_site_fract_y
 _atom_site_fract_z
 _atom_site_occupancy
  Ta  Ta0  1  0.176171  0.323315  0.000000  1
  Ta  Ta1  1  0.323824  0.823336  0.000000  1
  Ta  Ta2  1  0.676200  0.176656  0.000000  1
  Ta  Ta3  1  0.500026  0.499995  0.000000  1
  Ta  Ta4  1  0.999977  0.999983  0.000000  1
  Nb  Nb5  1  0.823891  0.676589  0.000000  1
  B  B6  1  0.621057  0.878789  0.000000  1
  B  B7  1  0.378951  0.121171  0.000000  1
  B  B8  1  0.121007  0.621189  0.000000  1
  B  B9  1  0.878954  0.378863  0.000000  1
  Os  Os10  1  0.571106  0.719837  0.500000  1
  Os  Os11  1  0.428483  0.280433  0.500000  1
  Os  Os12  1  0.071848  0.780402  0.500000  1
  Os  Os13  1  0.928552  0.219545  0.500000  1
  Ru  Ru14  1  0.281871  0.570594  0.500000  1
  Ru  Ru15  1  0.718194  0.429079  0.500000  1
  Ru  Ru16  1  0.218202  0.070691  0.500000  1
  Ru  Ru17  1  0.781589  0.929598  0.500000  1
  Ru  Ru18  1  0.499922  0.000091  0.500000  1
  Ru  Ru19  1  0.000174  0.499844  0.500000  1
