# generated using pymatgen
data_Yb3(CoH6)2
_symmetry_space_group_name_H-M   'P 1'
_cell_length_a   4.71617600
_cell_length_b   4.71617357
_cell_length_c   7.77801400
_cell_angle_alpha   90.00000000
_cell_angle_beta   90.00000000
_cell_angle_gamma   120.00000299
_symmetry_Int_Tables_number   1
_chemical_formula_structural   Yb3(CoH6)2
_chemical_formula_sum   'Yb3 Co2 H12'
_cell_volume   149.82321888
_cell_formula_units_Z   1
loop_
 _symmetry_equiv_pos_site_id
 _symmetry_equiv_pos_as_xyz
  1  'x, y, z'
loop_
 _atom_site_type_symbol
 _atom_site_label
 _atom_site_symmetry_multiplicity
 _atom_site_fract_x
 _atom_site_fract_y
 _atom_site_fract_z
 _atom_site_occupancy
  Yb  Yb0  1  0.000000  0.000000  0.000000  1
  Yb  Yb1  1  0.666667  0.333333  0.362301  1
  Yb  Yb2  1  0.333333  0.666667  0.637699  1
  Co  Co3  1  0.666667  0.333333  0.751533  1
  Co  Co4  1  0.333333  0.666667  0.248467  1
  H  H5  1  0.176712  0.823288  0.359517  1
  H  H6  1  0.646575  0.823288  0.359517  1
  H  H7  1  0.176712  0.353425  0.359517  1
  H  H8  1  0.823288  0.176712  0.640483  1
  H  H9  1  0.353425  0.176712  0.640483  1
  H  H10  1  0.823288  0.646575  0.640483  1
  H  H11  1  0.516931  0.033863  0.870229  1
  H  H12  1  0.516931  0.483069  0.870229  1
  H  H13  1  0.966137  0.483069  0.870229  1
  H  H14  1  0.483069  0.966137  0.129771  1
  H  H15  1  0.483069  0.516931  0.129771  1
  H  H16  1  0.033863  0.516931  0.129771  1
