# generated using pymatgen
data_AgHg4Ir3O14
_symmetry_space_group_name_H-M   'P 1'
_cell_length_a   7.36857400
_cell_length_b   7.42100485
_cell_length_c   7.42100428
_cell_angle_alpha   59.53312301
_cell_angle_beta   90.00000000
_cell_angle_gamma   60.23344086
_symmetry_Int_Tables_number   1
_chemical_formula_structural   AgHg4Ir3O14
_chemical_formula_sum   'Ag1 Hg4 Ir3 O14'
_cell_volume   285.91571498
_cell_formula_units_Z   1
loop_
 _symmetry_equiv_pos_site_id
 _symmetry_equiv_pos_as_xyz
  1  'x, y, z'
loop_
 _atom_site_type_symbol
 _atom_site_label
 _atom_site_symmetry_multiplicity
 _atom_site_fract_x
 _atom_site_fract_y
 _atom_site_fract_z
 _atom_site_occupancy
  Ag  Ag0  1  0.000000  0.000000  0.500000  1
  Hg  Hg1  1  0.499999  0.000000  0.000000  1
  Hg  Hg2  1  0.000000  0.500000  0.000000  1
  Hg  Hg3  1  0.500001  0.500000  0.000000  1
  Hg  Hg4  1  0.500001  0.000000  0.500000  1
  Ir  Ir5  1  0.000000  0.000000  0.000000  1
  Ir  Ir6  1  0.000000  0.499998  0.500002  1
  Ir  Ir7  1  0.500001  0.499998  0.500002  1
  O  O8  1  0.374954  0.250091  0.125044  1
  O  O9  1  0.314659  0.773196  0.185338  1
  O  O10  1  0.912145  0.773196  0.185338  1
  O  O11  1  0.917132  0.165736  0.144025  1
  O  O12  1  0.082866  0.273108  0.417131  1
  O  O13  1  0.644025  0.273108  0.417131  1
  O  O14  1  0.685339  0.629321  0.412147  1
  O  O15  1  0.355975  0.726893  0.582868  1
  O  O16  1  0.917132  0.726893  0.582868  1
  O  O17  1  0.314661  0.370678  0.587855  1
  O  O18  1  0.082869  0.834263  0.855974  1
  O  O19  1  0.087855  0.226806  0.814661  1
  O  O20  1  0.685338  0.226806  0.814661  1
  O  O21  1  0.625045  0.749910  0.874956  1
