# generated using pymatgen
data_Hf2ZrV(OF3)3
_symmetry_space_group_name_H-M   'P 1'
_cell_length_a   5.77602119
_cell_length_b   5.77286303
_cell_length_c   9.88469938
_cell_angle_alpha   73.30894545
_cell_angle_beta   73.21861251
_cell_angle_gamma   59.66700361
_symmetry_Int_Tables_number   1
_chemical_formula_structural   Hf2ZrV(OF3)3
_chemical_formula_sum   'Hf2 Zr1 V1 O3 F9'
_cell_volume   268.34500081
_cell_formula_units_Z   1
loop_
 _symmetry_equiv_pos_site_id
 _symmetry_equiv_pos_as_xyz
  1  'x, y, z'
loop_
 _atom_site_type_symbol
 _atom_site_label
 _atom_site_symmetry_multiplicity
 _atom_site_fract_x
 _atom_site_fract_y
 _atom_site_fract_z
 _atom_site_occupancy
  Hf  Hf0  1  0.535968  0.243742  0.375978  1
  Hf  Hf1  1  0.226846  0.016101  0.122652  1
  Zr  Zr2  1  0.752998  0.458912  0.637393  1
  V  V3  1  0.985957  0.772015  0.869934  1
  O  O4  1  0.660269  0.341307  0.500421  1
  O  O5  1  0.863804  0.131060  0.778485  1
  O  O6  1  0.862926  0.135801  0.228564  1
  F  F7  1  0.361013  0.640807  0.258533  1
  F  F8  1  0.350119  0.649377  0.739601  1
  F  F9  1  0.845827  0.664928  0.750153  1
  F  F10  1  0.140956  0.375076  0.505592  1
  F  F11  1  0.140642  0.367749  0.981037  1
  F  F12  1  0.344317  0.150733  0.248487  1
  F  F13  1  0.167146  0.831142  0.998964  1
  F  F14  1  0.636148  0.856267  0.017061  1
  F  F15  1  0.625063  0.864983  0.487143  1
