# generated using pymatgen
data_Tb6Y10Cd3InPd4
_symmetry_space_group_name_H-M   'P 1'
_cell_length_a   9.74180117
_cell_length_b   9.74310057
_cell_length_c   9.74310043
_cell_angle_alpha   60.03919187
_cell_angle_beta   60.09617151
_cell_angle_gamma   60.09617822
_symmetry_Int_Tables_number   1
_chemical_formula_structural   Tb6Y10Cd3InPd4
_chemical_formula_sum   'Tb6 Y10 Cd3 In1 Pd4'
_cell_volume   655.05425129
_cell_formula_units_Z   1
loop_
 _symmetry_equiv_pos_site_id
 _symmetry_equiv_pos_as_xyz
  1  'x, y, z'
loop_
 _atom_site_type_symbol
 _atom_site_label
 _atom_site_symmetry_multiplicity
 _atom_site_fract_x
 _atom_site_fract_y
 _atom_site_fract_z
 _atom_site_occupancy
  Tb  Tb0  1  0.351456  0.351588  0.351588  1
  Tb  Tb1  1  0.355587  0.355560  0.937143  1
  Tb  Tb2  1  0.355587  0.937143  0.355560  1
  Tb  Tb3  1  0.937276  0.355552  0.355552  1
  Tb  Tb4  1  0.811301  0.189501  0.189501  1
  Tb  Tb5  1  0.190126  0.809800  0.809800  1
  Y  Y6  1  0.189857  0.810769  0.189825  1
  Y  Y7  1  0.809325  0.190768  0.809447  1
  Y  Y8  1  0.189857  0.189825  0.810769  1
  Y  Y9  1  0.809325  0.809447  0.190768  1
  Y  Y10  1  0.936107  0.566429  0.566429  1
  Y  Y11  1  0.564393  0.935760  0.935760  1
  Y  Y12  1  0.566491  0.936254  0.566281  1
  Y  Y13  1  0.935748  0.564475  0.935737  1
  Y  Y14  1  0.566491  0.566281  0.936254  1
  Y  Y15  1  0.935748  0.935737  0.564475  1
  Cd  Cd16  1  0.580892  0.581115  0.252090  1
  Cd  Cd17  1  0.580892  0.252090  0.581115  1
  Cd  Cd18  1  0.252033  0.580911  0.580911  1
  In  In19  1  0.582695  0.582334  0.582334  1
  Pd  Pd20  1  0.145316  0.145994  0.145994  1
  Pd  Pd21  1  0.143277  0.142513  0.566864  1
  Pd  Pd22  1  0.143277  0.566864  0.142513  1
  Pd  Pd23  1  0.566942  0.143288  0.143288  1
