# generated using pymatgen
data_Tb2Er3Sn3Cl
_symmetry_space_group_name_H-M   'P 1'
_cell_length_a   9.07840000
_cell_length_b   9.07829913
_cell_length_c   6.51712600
_cell_angle_alpha   90.00000000
_cell_angle_beta   90.00000000
_cell_angle_gamma   119.99962351
_symmetry_Int_Tables_number   1
_chemical_formula_structural   Tb2Er3Sn3Cl
_chemical_formula_sum   'Tb4 Er6 Sn6 Cl2'
_cell_volume   465.15982647
_cell_formula_units_Z   2
loop_
 _symmetry_equiv_pos_site_id
 _symmetry_equiv_pos_as_xyz
  1  'x, y, z'
loop_
 _atom_site_type_symbol
 _atom_site_label
 _atom_site_symmetry_multiplicity
 _atom_site_fract_x
 _atom_site_fract_y
 _atom_site_fract_z
 _atom_site_occupancy
  Tb  Tb0  1  0.738217  0.999777  0.750000  1
  Tb  Tb1  1  0.738217  0.738440  0.250000  1
  Tb  Tb2  1  0.999899  0.261562  0.250000  1
  Tb  Tb3  1  0.999899  0.738337  0.750000  1
  Er  Er4  1  0.666306  0.333153  0.000000  1
  Er  Er5  1  0.333405  0.666703  0.500000  1
  Er  Er6  1  0.666306  0.333153  0.500000  1
  Er  Er7  1  0.333405  0.666703  0.000000  1
  Er  Er8  1  0.261776  0.261599  0.750000  1
  Er  Er9  1  0.261776  0.000177  0.250000  1
  Sn  Sn10  1  0.607904  0.607783  0.750000  1
  Sn  Sn11  1  0.001135  0.610725  0.250000  1
  Sn  Sn12  1  0.607904  0.000121  0.250000  1
  Sn  Sn13  1  0.390223  0.001141  0.750000  1
  Sn  Sn14  1  0.001135  0.390410  0.750000  1
  Sn  Sn15  1  0.390223  0.389082  0.250000  1
  Cl  Cl16  1  0.001134  0.000567  0.500000  1
  Cl  Cl17  1  0.001134  0.000567  0.000000  1
