# generated using pymatgen
data_CaSmY3Si3O13
_symmetry_space_group_name_H-M   'P 1'
_cell_length_a   6.90396500
_cell_length_b   9.45159243
_cell_length_c   9.45340916
_cell_angle_alpha   120.00524774
_cell_angle_beta   90.00000000
_cell_angle_gamma   90.00000000
_symmetry_Int_Tables_number   1
_chemical_formula_structural   CaSmY3Si3O13
_chemical_formula_sum   'Ca2 Sm2 Y6 Si6 O26'
_cell_volume   534.19483666
_cell_formula_units_Z   2
loop_
 _symmetry_equiv_pos_site_id
 _symmetry_equiv_pos_as_xyz
  1  'x, y, z'
loop_
 _atom_site_type_symbol
 _atom_site_label
 _atom_site_symmetry_multiplicity
 _atom_site_fract_x
 _atom_site_fract_y
 _atom_site_fract_z
 _atom_site_occupancy
  Ca  Ca0  1  0.512729  0.667028  0.333939  1
  Ca  Ca1  1  0.012729  0.332972  0.666061  1
  Sm  Sm2  1  0.014433  0.666599  0.333500  1
  Sm  Sm3  1  0.514433  0.333401  0.666500  1
  Y  Y4  1  0.765684  0.232879  0.236412  1
  Y  Y5  1  0.265684  0.767121  0.763588  1
  Y  Y6  1  0.765689  0.763171  0.997093  1
  Y  Y7  1  0.265689  0.236829  0.002907  1
  Y  Y8  1  0.265492  0.996702  0.233223  1
  Y  Y9  1  0.765492  0.003298  0.766777  1
  Si  Si10  1  0.764611  0.974219  0.370074  1
  Si  Si11  1  0.264611  0.025781  0.629926  1
  Si  Si12  1  0.764874  0.395075  0.025621  1
  Si  Si13  1  0.264874  0.604925  0.974379  1
  Si  Si14  1  0.264948  0.369754  0.395477  1
  Si  Si15  1  0.764948  0.630246  0.604523  1
  O  O16  1  0.263753  0.690597  0.172655  1
  O  O17  1  0.763753  0.309403  0.827345  1
  O  O18  1  0.766891  0.523983  0.403674  1
  O  O19  1  0.266891  0.476017  0.596326  1
  O  O20  1  0.766597  0.879045  0.475697  1
  O  O21  1  0.266597  0.120955  0.524303  1
  O  O22  1  0.763601  0.172600  0.481915  1
  O  O23  1  0.263601  0.827400  0.518085  1
  O  O24  1  0.766465  0.595997  0.121322  1
  O  O25  1  0.266465  0.404003  0.878678  1
  O  O26  1  0.263974  0.481141  0.308422  1
  O  O27  1  0.763974  0.518859  0.691578  1
  O  O28  1  0.955847  0.906596  0.249304  1
  O  O29  1  0.455847  0.093404  0.750696  1
  O  O30  1  0.579744  0.912453  0.243021  1
  O  O31  1  0.079744  0.087547  0.756979  1
  O  O32  1  0.956000  0.341509  0.092935  1
  O  O33  1  0.456000  0.658491  0.907065  1
  O  O34  1  0.580360  0.328688  0.086630  1
  O  O35  1  0.080360  0.671312  0.913370  1
  O  O36  1  0.456141  0.248857  0.342674  1
  O  O37  1  0.956141  0.751143  0.657326  1
  O  O38  1  0.079900  0.242698  0.330622  1
  O  O39  1  0.579900  0.757302  0.669378  1
  O  O40  1  0.772970  0.999344  0.999828  1
  O  O41  1  0.272970  0.000656  0.000172  1
