# generated using pymatgen
data_SmNp3(B6W)2
_symmetry_space_group_name_H-M   'P 1'
_cell_length_a   3.66229100
_cell_length_b   9.35176761
_cell_length_c   11.41244402
_cell_angle_alpha   90.03656329
_cell_angle_beta   90.00000000
_cell_angle_gamma   90.00000000
_symmetry_Int_Tables_number   1
_chemical_formula_structural   SmNp3(B6W)2
_chemical_formula_sum   'Sm2 Np6 B24 W4'
_cell_volume   390.86350975
_cell_formula_units_Z   2
loop_
 _symmetry_equiv_pos_site_id
 _symmetry_equiv_pos_as_xyz
  1  'x, y, z'
loop_
 _atom_site_type_symbol
 _atom_site_label
 _atom_site_symmetry_multiplicity
 _atom_site_fract_x
 _atom_site_fract_y
 _atom_site_fract_z
 _atom_site_occupancy
  Sm  Sm0  1  0.000000  0.337549  0.407556  1
  Sm  Sm1  1  0.000000  0.662451  0.592444  1
  Np  Np2  1  0.000000  0.838273  0.092297  1
  Np  Np3  1  0.000000  0.161727  0.907703  1
  Np  Np4  1  0.000000  0.959284  0.400165  1
  Np  Np5  1  0.000000  0.040716  0.599835  1
  Np  Np6  1  0.000000  0.458997  0.099356  1
  Np  Np7  1  0.000000  0.541003  0.900644  1
  B  B8  1  0.500000  0.553988  0.430268  1
  B  B9  1  0.500000  0.446012  0.569732  1
  B  B10  1  0.500000  0.051183  0.067284  1
  B  B11  1  0.500000  0.948817  0.932716  1
  B  B12  1  0.500000  0.747714  0.422405  1
  B  B13  1  0.500000  0.252286  0.577595  1
  B  B14  1  0.500000  0.245016  0.075450  1
  B  B15  1  0.500000  0.754984  0.924550  1
  B  B16  1  0.500000  0.807695  0.272918  1
  B  B17  1  0.500000  0.192305  0.727082  1
  B  B18  1  0.500000  0.305320  0.223611  1
  B  B19  1  0.500000  0.694680  0.776389  1
  B  B20  1  0.500000  0.646688  0.185518  1
  B  B21  1  0.500000  0.353312  0.814482  1
  B  B22  1  0.500000  0.143464  0.312438  1
  B  B23  1  0.500000  0.856536  0.687562  1
  B  B24  1  0.500000  0.987391  0.220477  1
  B  B25  1  0.500000  0.012609  0.779523  1
  B  B26  1  0.500000  0.489999  0.277037  1
  B  B27  1  0.500000  0.510001  0.722963  1
  B  B28  1  0.500000  0.641821  0.038690  1
  B  B29  1  0.500000  0.358179  0.961310  1
  B  B30  1  0.500000  0.135721  0.462137  1
  B  B31  1  0.500000  0.864279  0.537863  1
  W  W32  1  0.000000  0.651112  0.314442  1
  W  W33  1  0.000000  0.348888  0.685558  1
  W  W34  1  0.000000  0.144414  0.178178  1
  W  W35  1  0.000000  0.855586  0.821822  1
