# generated using pymatgen
data_Ti7MnNbSiBi4
_symmetry_space_group_name_H-M   'P 1'
_cell_length_a   7.87151003
_cell_length_b   7.86074397
_cell_length_c   7.88578657
_cell_angle_alpha   95.77416101
_cell_angle_beta   95.57699955
_cell_angle_gamma   143.15239258
_symmetry_Int_Tables_number   1
_chemical_formula_structural   Ti7MnNbSiBi4
_chemical_formula_sum   'Ti7 Mn1 Nb1 Si1 Bi4'
_cell_volume   277.91690464
_cell_formula_units_Z   1
loop_
 _symmetry_equiv_pos_site_id
 _symmetry_equiv_pos_as_xyz
  1  'x, y, z'
loop_
 _atom_site_type_symbol
 _atom_site_label
 _atom_site_symmetry_multiplicity
 _atom_site_fract_x
 _atom_site_fract_y
 _atom_site_fract_z
 _atom_site_occupancy
  Ti  Ti0  1  0.309448  0.421964  0.725660  1
  Ti  Ti1  1  0.583768  0.308963  0.886239  1
  Ti  Ti2  1  0.081777  0.193787  0.277533  1
  Ti  Ti3  1  0.801669  0.076991  0.886629  1
  Ti  Ti4  1  0.419502  0.696298  0.111112  1
  Ti  Ti5  1  0.915315  0.802169  0.722098  1
  Ti  Ti6  1  0.196725  0.920263  0.115145  1
  Mn  Mn7  1  0.748413  0.749447  0.999322  1
  Nb  Nb8  1  0.698552  0.585022  0.277401  1
  Si  Si9  1  0.244218  0.245090  0.997481  1
  Bi  Bi10  1  0.139435  0.640254  0.779564  1
  Bi  Bi11  1  0.359443  0.137367  0.500975  1
  Bi  Bi12  1  0.862567  0.359761  0.220344  1
  Bi  Bi13  1  0.639168  0.862625  0.500496  1
