# generated using pymatgen
data_Nb4ZnGe(B2Ru5)2
_symmetry_space_group_name_H-M   'P 1'
_cell_length_a   9.34447000
_cell_length_b   9.34447000
_cell_length_c   2.98611700
_cell_angle_alpha   90.00000000
_cell_angle_beta   90.00000000
_cell_angle_gamma   90.00000000
_symmetry_Int_Tables_number   1
_chemical_formula_structural   Nb4ZnGe(B2Ru5)2
_chemical_formula_sum   'Nb4 Zn1 Ge1 B4 Ru10'
_cell_volume   260.74510741
_cell_formula_units_Z   1
loop_
 _symmetry_equiv_pos_site_id
 _symmetry_equiv_pos_as_xyz
  1  'x, y, z'
loop_
 _atom_site_type_symbol
 _atom_site_label
 _atom_site_symmetry_multiplicity
 _atom_site_fract_x
 _atom_site_fract_y
 _atom_site_fract_z
 _atom_site_occupancy
  Nb  Nb0  1  0.821467  0.674476  0.000000  1
  Nb  Nb1  1  0.178533  0.325524  0.000000  1
  Nb  Nb2  1  0.325524  0.821467  0.000000  1
  Nb  Nb3  1  0.674476  0.178533  0.000000  1
  Zn  Zn4  1  0.500000  0.500000  0.000000  1
  Ge  Ge5  1  0.000000  0.000000  0.000000  1
  B  B6  1  0.622567  0.873519  0.000000  1
  B  B7  1  0.377433  0.126481  0.000000  1
  B  B8  1  0.126481  0.622567  0.000000  1
  B  B9  1  0.873519  0.377433  0.000000  1
  Ru  Ru10  1  0.569176  0.716502  0.500000  1
  Ru  Ru11  1  0.430824  0.283498  0.500000  1
  Ru  Ru12  1  0.067003  0.786503  0.500000  1
  Ru  Ru13  1  0.932997  0.213497  0.500000  1
  Ru  Ru14  1  0.283498  0.569176  0.500000  1
  Ru  Ru15  1  0.716502  0.430824  0.500000  1
  Ru  Ru16  1  0.213497  0.067003  0.500000  1
  Ru  Ru17  1  0.786503  0.932997  0.500000  1
  Ru  Ru18  1  0.500000  0.000000  0.500000  1
  Ru  Ru19  1  0.000000  0.500000  0.500000  1
