# generated using pymatgen
data_Y13Ho3Cd4(IrPd)2
_symmetry_space_group_name_H-M   'P 1'
_cell_length_a   9.68489449
_cell_length_b   9.69325797
_cell_length_c   9.66217100
_cell_angle_alpha   60.10602907
_cell_angle_beta   60.07758064
_cell_angle_gamma   60.26810017
_symmetry_Int_Tables_number   1
_chemical_formula_structural   Y13Ho3Cd4(IrPd)2
_chemical_formula_sum   'Y13 Ho3 Cd4 Ir2 Pd2'
_cell_volume   643.57662310
_cell_formula_units_Z   1
loop_
 _symmetry_equiv_pos_site_id
 _symmetry_equiv_pos_as_xyz
  1  'x, y, z'
loop_
 _atom_site_type_symbol
 _atom_site_label
 _atom_site_symmetry_multiplicity
 _atom_site_fract_x
 _atom_site_fract_y
 _atom_site_fract_z
 _atom_site_occupancy
  Y  Y0  1  0.938668  0.359854  0.350738  1
  Y  Y1  1  0.805376  0.190842  0.189915  1
  Y  Y2  1  0.191142  0.805345  0.813257  1
  Y  Y3  1  0.191142  0.805345  0.190256  1
  Y  Y4  1  0.805376  0.190842  0.813866  1
  Y  Y5  1  0.191922  0.191915  0.808081  1
  Y  Y6  1  0.811235  0.811372  0.188696  1
  Y  Y7  1  0.937655  0.565663  0.561546  1
  Y  Y8  1  0.565151  0.937819  0.935774  1
  Y  Y9  1  0.565151  0.937819  0.561257  1
  Y  Y10  1  0.937655  0.565663  0.935138  1
  Y  Y11  1  0.563243  0.563710  0.936523  1
  Y  Y12  1  0.937052  0.936490  0.563229  1
  Ho  Ho13  1  0.350973  0.351130  0.344230  1
  Ho  Ho14  1  0.350973  0.351130  0.953668  1
  Ho  Ho15  1  0.359294  0.941130  0.349788  1
  Cd  Cd16  1  0.580496  0.581100  0.582547  1
  Cd  Cd17  1  0.580496  0.581100  0.255857  1
  Cd  Cd18  1  0.579671  0.256121  0.582105  1
  Cd  Cd19  1  0.256364  0.579968  0.581835  1
  Ir  Ir20  1  0.142254  0.571002  0.143372  1
  Ir  Ir21  1  0.569808  0.140663  0.144765  1
  Pd  Pd22  1  0.144450  0.141987  0.146899  1
  Pd  Pd23  1  0.144450  0.141987  0.566663  1
