# generated using pymatgen
data_Y3Tm7(Al2Ru3)2
_symmetry_space_group_name_H-M   'P 1'
_cell_length_a   8.28950277
_cell_length_b   8.28950165
_cell_length_c   8.28950296
_cell_angle_alpha   109.52208226
_cell_angle_beta   109.52208538
_cell_angle_gamma   109.52207730
_symmetry_Int_Tables_number   1
_chemical_formula_structural   Y3Tm7(Al2Ru3)2
_chemical_formula_sum   'Y3 Tm7 Al4 Ru6'
_cell_volume   437.66618087
_cell_formula_units_Z   1
loop_
 _symmetry_equiv_pos_site_id
 _symmetry_equiv_pos_as_xyz
  1  'x, y, z'
loop_
 _atom_site_type_symbol
 _atom_site_label
 _atom_site_symmetry_multiplicity
 _atom_site_fract_x
 _atom_site_fract_y
 _atom_site_fract_z
 _atom_site_occupancy
  Y  Y0  1  0.250833  0.181616  0.929645  1
  Y  Y1  1  0.929645  0.250833  0.181616  1
  Y  Y2  1  0.181616  0.929645  0.250833  1
  Tm  Tm3  1  0.785390  0.785390  0.785390  1
  Tm  Tm4  1  0.320425  0.570638  0.750467  1
  Tm  Tm5  1  0.750467  0.320425  0.570638  1
  Tm  Tm6  1  0.570638  0.750467  0.320425  1
  Tm  Tm7  1  0.712983  0.501201  0.999552  1
  Tm  Tm8  1  0.999552  0.712983  0.501201  1
  Tm  Tm9  1  0.501201  0.999552  0.712983  1
  Al  Al10  1  0.412364  0.412364  0.412364  1
  Al  Al11  1  0.089280  0.498093  0.000048  1
  Al  Al12  1  0.000048  0.089280  0.498093  1
  Al  Al13  1  0.498093  0.000048  0.089280  1
  Ru  Ru14  1  0.873191  0.123446  0.745261  1
  Ru  Ru15  1  0.745261  0.873191  0.123446  1
  Ru  Ru16  1  0.123446  0.745261  0.873191  1
  Ru  Ru17  1  0.253153  0.625687  0.376730  1
  Ru  Ru18  1  0.376730  0.253153  0.625687  1
  Ru  Ru19  1  0.625687  0.376730  0.253153  1
