# generated using pymatgen
data_Ho4Sc4Re(B8Ru)3
_symmetry_space_group_name_H-M   'P 1'
_cell_length_a   3.56674400
_cell_length_b   8.96073351
_cell_length_c   11.34430930
_cell_angle_alpha   90.04440080
_cell_angle_beta   90.00000000
_cell_angle_gamma   90.00000000
_symmetry_Int_Tables_number   1
_chemical_formula_structural   Ho4Sc4Re(B8Ru)3
_chemical_formula_sum   'Ho4 Sc4 Re1 B24 Ru3'
_cell_volume   362.57130488
_cell_formula_units_Z   1
loop_
 _symmetry_equiv_pos_site_id
 _symmetry_equiv_pos_as_xyz
  1  'x, y, z'
loop_
 _atom_site_type_symbol
 _atom_site_label
 _atom_site_symmetry_multiplicity
 _atom_site_fract_x
 _atom_site_fract_y
 _atom_site_fract_z
 _atom_site_occupancy
  Ho  Ho0  1  0.000000  0.320302  0.414950  1
  Ho  Ho1  1  0.000000  0.681481  0.587682  1
  Ho  Ho2  1  0.000000  0.820201  0.084509  1
  Ho  Ho3  1  0.000000  0.178755  0.913221  1
  Sc  Sc4  1  0.000000  0.944647  0.372738  1
  Sc  Sc5  1  0.000000  0.054352  0.627043  1
  Sc  Sc6  1  0.000000  0.443801  0.127465  1
  Sc  Sc7  1  0.000000  0.556013  0.873162  1
  Re  Re8  1  0.000000  0.860196  0.818713  1
  B  B9  1  0.500000  0.554782  0.432994  1
  B  B10  1  0.500000  0.445694  0.567166  1
  B  B11  1  0.500000  0.054521  0.067529  1
  B  B12  1  0.500000  0.946354  0.933179  1
  B  B13  1  0.500000  0.753104  0.418733  1
  B  B14  1  0.500000  0.247229  0.580890  1
  B  B15  1  0.500000  0.252447  0.081322  1
  B  B16  1  0.500000  0.746888  0.918949  1
  B  B17  1  0.500000  0.793024  0.265090  1
  B  B18  1  0.500000  0.206824  0.734056  1
  B  B19  1  0.500000  0.293422  0.234858  1
  B  B20  1  0.500000  0.705710  0.765131  1
  B  B21  1  0.500000  0.628254  0.182805  1
  B  B22  1  0.500000  0.371189  0.816744  1
  B  B23  1  0.500000  0.128773  0.317331  1
  B  B24  1  0.500000  0.871483  0.682883  1
  B  B25  1  0.500000  0.981504  0.214368  1
  B  B26  1  0.500000  0.019875  0.785612  1
  B  B27  1  0.500000  0.481314  0.286120  1
  B  B28  1  0.500000  0.518639  0.714030  1
  B  B29  1  0.500000  0.598173  0.027485  1
  B  B30  1  0.500000  0.400132  0.973206  1
  B  B31  1  0.500000  0.099834  0.472497  1
  B  B32  1  0.500000  0.900954  0.526300  1
  Ru  Ru33  1  0.000000  0.639622  0.318548  1
  Ru  Ru34  1  0.000000  0.360588  0.680958  1
  Ru  Ru35  1  0.000000  0.139918  0.181734  1
