# generated using pymatgen
data_Tb2Sm2(Ga8Pd3)3
_symmetry_space_group_name_H-M   'P 1'
_cell_length_a   7.52754700
_cell_length_b   7.58495234
_cell_length_c   13.46522442
_cell_angle_alpha   85.00248861
_cell_angle_beta   100.27902036
_cell_angle_gamma   119.68720349
_symmetry_Int_Tables_number   1
_chemical_formula_structural   Tb2Sm2(Ga8Pd3)3
_chemical_formula_sum   'Tb2 Sm2 Ga24 Pd9'
_cell_volume   657.17884124
_cell_formula_units_Z   1
loop_
 _symmetry_equiv_pos_site_id
 _symmetry_equiv_pos_as_xyz
  1  'x, y, z'
loop_
 _atom_site_type_symbol
 _atom_site_label
 _atom_site_symmetry_multiplicity
 _atom_site_fract_x
 _atom_site_fract_y
 _atom_site_fract_z
 _atom_site_occupancy
  Tb  Tb0  1  0.770672  0.502794  0.810892  1
  Tb  Tb1  1  0.229328  0.497206  0.189108  1
  Sm  Sm2  1  0.437531  0.831416  0.810969  1
  Sm  Sm3  1  0.562469  0.168584  0.189031  1
  Ga  Ga4  1  0.479535  0.167382  0.940250  1
  Ga  Ga5  1  0.520465  0.832618  0.059750  1
  Ga  Ga6  1  0.021041  0.165311  0.558240  1
  Ga  Ga7  1  0.978959  0.834689  0.441760  1
  Ga  Ga8  1  0.353981  0.832667  0.556465  1
  Ga  Ga9  1  0.646019  0.167333  0.443535  1
  Ga  Ga10  1  0.615845  0.834582  0.328061  1
  Ga  Ga11  1  0.384155  0.165418  0.671939  1
  Ga  Ga12  1  0.058107  0.494720  0.671526  1
  Ga  Ga13  1  0.941893  0.505280  0.328474  1
  Ga  Ga14  1  0.730470  0.838162  0.670480  1
  Ga  Ga15  1  0.269530  0.161838  0.329520  1
  Ga  Ga16  1  0.144663  0.499628  0.941583  1
  Ga  Ga17  1  0.855337  0.500372  0.058417  1
  Ga  Ga18  1  0.815425  0.832286  0.947678  1
  Ga  Ga19  1  0.184575  0.167714  0.052322  1
  Ga  Ga20  1  0.312723  0.499558  0.442743  1
  Ga  Ga21  1  0.687277  0.500442  0.557257  1
  Ga  Ga22  1  0.100476  0.834823  0.182933  1
  Ga  Ga23  1  0.899524  0.165177  0.817067  1
  Ga  Ga24  1  0.308409  0.367991  0.816341  1
  Ga  Ga25  1  0.691591  0.632009  0.183659  1
  Ga  Ga26  1  0.100945  0.959258  0.816698  1
  Ga  Ga27  1  0.899055  0.040742  0.183302  1
  Pd  Pd28  1  0.386345  0.503145  0.637727  1
  Pd  Pd29  1  0.613655  0.496855  0.362273  1
  Pd  Pd30  1  0.171562  0.830585  0.999511  1
  Pd  Pd31  1  0.828438  0.169415  0.000489  1
  Pd  Pd32  1  0.290794  0.832461  0.361786  1
  Pd  Pd33  1  0.709206  0.167539  0.638214  1
  Pd  Pd34  1  0.048770  0.827915  0.637528  1
  Pd  Pd35  1  0.951230  0.172085  0.362472  1
  Pd  Pd36  1  0.500000  0.500000  0.000000  1
