# generated using pymatgen
data_YScP7Ru12
_symmetry_space_group_name_H-M   'P 1'
_cell_length_a   9.38609300
_cell_length_b   9.38609227
_cell_length_c   3.93789400
_cell_angle_alpha   90.00000000
_cell_angle_beta   90.00000000
_cell_angle_gamma   119.99999811
_symmetry_Int_Tables_number   1
_chemical_formula_structural   YScP7Ru12
_chemical_formula_sum   'Y1 Sc1 P7 Ru12'
_cell_volume   300.44455227
_cell_formula_units_Z   1
loop_
 _symmetry_equiv_pos_site_id
 _symmetry_equiv_pos_as_xyz
  1  'x, y, z'
loop_
 _atom_site_type_symbol
 _atom_site_label
 _atom_site_symmetry_multiplicity
 _atom_site_fract_x
 _atom_site_fract_y
 _atom_site_fract_z
 _atom_site_occupancy
  Y  Y0  1  0.333333  0.666667  0.000000  1
  Sc  Sc1  1  0.666667  0.333333  0.500000  1
  P  P2  1  0.600486  0.718613  0.500000  1
  P  P3  1  0.000000  0.000000  0.000000  1
  P  P4  1  0.281387  0.881873  0.500000  1
  P  P5  1  0.118127  0.399514  0.500000  1
  P  P6  1  0.882925  0.571520  0.000000  1
  P  P7  1  0.428480  0.311405  0.000000  1
  P  P8  1  0.688595  0.117075  0.000000  1
  Ru  Ru9  1  0.557208  0.952260  0.500000  1
  Ru  Ru10  1  0.395053  0.442792  0.500000  1
  Ru  Ru11  1  0.914535  0.121379  0.500000  1
  Ru  Ru12  1  0.206844  0.085465  0.500000  1
  Ru  Ru13  1  0.878621  0.793156  0.500000  1
  Ru  Ru14  1  0.726934  0.891779  0.000000  1
  Ru  Ru15  1  0.108221  0.835154  0.000000  1
  Ru  Ru16  1  0.164846  0.273066  0.000000  1
  Ru  Ru17  1  0.425841  0.069737  0.000000  1
  Ru  Ru18  1  0.930263  0.356105  0.000000  1
  Ru  Ru19  1  0.643895  0.574159  0.000000  1
  Ru  Ru20  1  0.047740  0.604947  0.500000  1
