# generated using pymatgen
data_LaCdGaCu4
_symmetry_space_group_name_H-M   'P 1'
_cell_length_a   5.16430600
_cell_length_b   8.37826300
_cell_length_c   10.76807600
_cell_angle_alpha   90.00000000
_cell_angle_beta   90.00000000
_cell_angle_gamma   90.00000000
_symmetry_Int_Tables_number   1
_chemical_formula_structural   LaCdGaCu4
_chemical_formula_sum   'La4 Cd4 Ga4 Cu16'
_cell_volume   465.91218503
_cell_formula_units_Z   4
loop_
 _symmetry_equiv_pos_site_id
 _symmetry_equiv_pos_as_xyz
  1  'x, y, z'
loop_
 _atom_site_type_symbol
 _atom_site_label
 _atom_site_symmetry_multiplicity
 _atom_site_fract_x
 _atom_site_fract_y
 _atom_site_fract_z
 _atom_site_occupancy
  La  La0  1  0.250000  0.755474  0.058319  1
  La  La1  1  0.750000  0.244526  0.941681  1
  La  La2  1  0.750000  0.744526  0.558319  1
  La  La3  1  0.250000  0.255474  0.441681  1
  Cd  Cd4  1  0.250000  0.638511  0.365470  1
  Cd  Cd5  1  0.750000  0.361489  0.634530  1
  Cd  Cd6  1  0.750000  0.861489  0.865470  1
  Cd  Cd7  1  0.250000  0.138511  0.134530  1
  Ga  Ga8  1  0.250000  0.817171  0.743650  1
  Ga  Ga9  1  0.750000  0.182829  0.256350  1
  Ga  Ga10  1  0.750000  0.682829  0.243650  1
  Ga  Ga11  1  0.250000  0.317171  0.756350  1
  Cu  Cu12  1  0.503982  0.565506  0.814258  1
  Cu  Cu13  1  0.496018  0.434494  0.185742  1
  Cu  Cu14  1  0.496018  0.934494  0.314258  1
  Cu  Cu15  1  0.003982  0.434494  0.185742  1
  Cu  Cu16  1  0.503982  0.065506  0.685742  1
  Cu  Cu17  1  0.996018  0.565506  0.814258  1
  Cu  Cu18  1  0.996018  0.065506  0.685742  1
  Cu  Cu19  1  0.003982  0.934494  0.314258  1
  Cu  Cu20  1  0.250000  0.913364  0.515656  1
  Cu  Cu21  1  0.750000  0.086636  0.484344  1
  Cu  Cu22  1  0.750000  0.586636  0.015656  1
  Cu  Cu23  1  0.250000  0.413364  0.984344  1
  Cu  Cu24  1  0.250000  0.558047  0.607792  1
  Cu  Cu25  1  0.750000  0.441953  0.392208  1
  Cu  Cu26  1  0.750000  0.941953  0.107792  1
  Cu  Cu27  1  0.250000  0.058047  0.892208  1
