# generated using pymatgen
data_Y3(P3Pd10)2
_symmetry_space_group_name_H-M   'P 1'
_cell_length_a   8.68711451
_cell_length_b   8.68711416
_cell_length_c   8.68711500
_cell_angle_alpha   60.00000059
_cell_angle_beta   60.00000195
_cell_angle_gamma   59.99999994
_symmetry_Int_Tables_number   1
_chemical_formula_structural   Y3(P3Pd10)2
_chemical_formula_sum   'Y3 P6 Pd20'
_cell_volume   463.56608595
_cell_formula_units_Z   1
loop_
 _symmetry_equiv_pos_site_id
 _symmetry_equiv_pos_as_xyz
  1  'x, y, z'
loop_
 _atom_site_type_symbol
 _atom_site_label
 _atom_site_symmetry_multiplicity
 _atom_site_fract_x
 _atom_site_fract_y
 _atom_site_fract_z
 _atom_site_occupancy
  Y  Y0  1  0.250000  0.250000  0.250000  1
  Y  Y1  1  0.750000  0.750000  0.750000  1
  Y  Y2  1  0.000000  0.000000  0.000000  1
  P  P3  1  0.737235  0.262765  0.262765  1
  P  P4  1  0.262765  0.737235  0.737235  1
  P  P5  1  0.262765  0.737235  0.262765  1
  P  P6  1  0.737235  0.262765  0.737235  1
  P  P7  1  0.262765  0.262765  0.737235  1
  P  P8  1  0.737235  0.737235  0.262765  1
  Pd  Pd9  1  0.385128  0.385128  0.385128  1
  Pd  Pd10  1  0.614872  0.614872  0.614872  1
  Pd  Pd11  1  0.385128  0.385128  0.844614  1
  Pd  Pd12  1  0.385128  0.844614  0.385128  1
  Pd  Pd13  1  0.614872  0.614872  0.155386  1
  Pd  Pd14  1  0.614872  0.155386  0.614872  1
  Pd  Pd15  1  0.844614  0.385128  0.385128  1
  Pd  Pd16  1  0.155386  0.614872  0.614872  1
  Pd  Pd17  1  0.346181  0.000000  0.000000  1
  Pd  Pd18  1  0.653819  0.000000  0.000000  1
  Pd  Pd19  1  0.000000  0.346181  0.653819  1
  Pd  Pd20  1  0.000000  0.653819  0.346181  1
  Pd  Pd21  1  0.000000  0.346181  0.000000  1
  Pd  Pd22  1  0.653819  0.000000  0.346181  1
  Pd  Pd23  1  0.000000  0.653819  0.000000  1
  Pd  Pd24  1  0.346181  0.000000  0.653819  1
  Pd  Pd25  1  0.000000  0.000000  0.346181  1
  Pd  Pd26  1  0.000000  0.000000  0.653819  1
  Pd  Pd27  1  0.653819  0.346181  0.000000  1
  Pd  Pd28  1  0.346181  0.653819  0.000000  1
