# generated using pymatgen
data_ErTh3(Ga3Ir)6
_symmetry_space_group_name_H-M   'P 1'
_cell_length_a   7.69318686
_cell_length_b   7.69246485
_cell_length_c   9.48412700
_cell_angle_alpha   90.00000000
_cell_angle_beta   90.00000000
_cell_angle_gamma   119.86068316
_symmetry_Int_Tables_number   1
_chemical_formula_structural   ErTh3(Ga3Ir)6
_chemical_formula_sum   'Er1 Th3 Ga18 Ir6'
_cell_volume   486.75202597
_cell_formula_units_Z   1
loop_
 _symmetry_equiv_pos_site_id
 _symmetry_equiv_pos_as_xyz
  1  'x, y, z'
loop_
 _atom_site_type_symbol
 _atom_site_label
 _atom_site_symmetry_multiplicity
 _atom_site_fract_x
 _atom_site_fract_y
 _atom_site_fract_z
 _atom_site_occupancy
  Er  Er0  1  0.331692  0.004076  0.250000  1
  Th  Th1  1  0.996327  0.668635  0.750000  1
  Th  Th2  1  0.003425  0.331844  0.250000  1
  Th  Th3  1  0.667528  0.995929  0.750000  1
  Ga  Ga4  1  0.132673  0.131747  0.750000  1
  Ga  Ga5  1  0.872637  0.870316  0.250000  1
  Ga  Ga6  1  0.003402  0.334270  0.578831  1
  Ga  Ga7  1  0.002517  0.671307  0.418312  1
  Ga  Ga8  1  0.002517  0.671307  0.081688  1
  Ga  Ga9  1  0.334031  0.003016  0.925140  1
  Ga  Ga10  1  0.003402  0.334270  0.921169  1
  Ga  Ga11  1  0.660441  0.996888  0.081682  1
  Ga  Ga12  1  0.660441  0.996888  0.418318  1
  Ga  Ga13  1  0.334031  0.003016  0.574860  1
  Ga  Ga14  1  0.336179  0.330942  0.065394  1
  Ga  Ga15  1  0.663618  0.663774  0.938428  1
  Ga  Ga16  1  0.663618  0.663774  0.561572  1
  Ga  Ga17  1  0.336179  0.330942  0.434606  1
  Ga  Ga18  1  0.338916  0.541786  0.750000  1
  Ga  Ga19  1  0.658173  0.452953  0.250000  1
  Ga  Ga20  1  0.541292  0.338091  0.750000  1
  Ga  Ga21  1  0.456820  0.663483  0.250000  1
  Ir  Ir22  1  0.674172  0.329307  0.500733  1
  Ir  Ir23  1  0.327591  0.670955  0.500621  1
  Ir  Ir24  1  0.327591  0.670955  0.999379  1
  Ir  Ir25  1  0.674172  0.329307  0.999267  1
  Ir  Ir26  1  0.998307  0.000113  0.500683  1
  Ir  Ir27  1  0.998307  0.000113  0.999317  1
