# generated using pymatgen
data_Be3Co2(BRu)2
_symmetry_space_group_name_H-M   'P 1'
_cell_length_a   7.64093000
_cell_length_b   7.64093000
_cell_length_c   2.84071400
_cell_angle_alpha   90.00000000
_cell_angle_beta   90.00000000
_cell_angle_gamma   90.00000000
_symmetry_Int_Tables_number   1
_chemical_formula_structural   Be3Co2(BRu)2
_chemical_formula_sum   'Be6 Co4 B4 Ru4'
_cell_volume   165.85171003
_cell_formula_units_Z   2
loop_
 _symmetry_equiv_pos_site_id
 _symmetry_equiv_pos_as_xyz
  1  'x, y, z'
loop_
 _atom_site_type_symbol
 _atom_site_label
 _atom_site_symmetry_multiplicity
 _atom_site_fract_x
 _atom_site_fract_y
 _atom_site_fract_z
 _atom_site_occupancy
  Be  Be0  1  0.000000  0.000000  0.500000  1
  Be  Be1  1  0.500000  0.500000  0.500000  1
  Be  Be2  1  0.000000  0.342432  0.500000  1
  Be  Be3  1  0.342432  0.000000  0.500000  1
  Be  Be4  1  0.657568  0.000000  0.500000  1
  Be  Be5  1  0.000000  0.657568  0.500000  1
  Co  Co6  1  0.839234  0.839234  0.000000  1
  Co  Co7  1  0.839234  0.160766  0.000000  1
  Co  Co8  1  0.160766  0.839234  0.000000  1
  Co  Co9  1  0.160766  0.160766  0.000000  1
  B  B10  1  0.290323  0.290323  0.500000  1
  B  B11  1  0.290323  0.709677  0.500000  1
  B  B12  1  0.709677  0.290323  0.500000  1
  B  B13  1  0.709677  0.709677  0.500000  1
  Ru  Ru14  1  0.500000  0.773541  0.000000  1
  Ru  Ru15  1  0.773541  0.500000  0.000000  1
  Ru  Ru16  1  0.226459  0.500000  0.000000  1
  Ru  Ru17  1  0.500000  0.226459  0.000000  1
