# generated using pymatgen
data_TbDy2Co8P6W
_symmetry_space_group_name_H-M   'P 1'
_cell_length_a   3.72012200
_cell_length_b   10.54831500
_cell_length_c   12.25096000
_cell_angle_alpha   90.00000000
_cell_angle_beta   90.00000000
_cell_angle_gamma   90.00000000
_symmetry_Int_Tables_number   1
_chemical_formula_structural   TbDy2Co8P6W
_chemical_formula_sum   'Tb2 Dy4 Co16 P12 W2'
_cell_volume   480.74015038
_cell_formula_units_Z   2
loop_
 _symmetry_equiv_pos_site_id
 _symmetry_equiv_pos_as_xyz
  1  'x, y, z'
loop_
 _atom_site_type_symbol
 _atom_site_label
 _atom_site_symmetry_multiplicity
 _atom_site_fract_x
 _atom_site_fract_y
 _atom_site_fract_z
 _atom_site_occupancy
  Tb  Tb0  1  0.000000  0.500000  0.524103  1
  Tb  Tb1  1  0.500000  0.000000  0.475897  1
  Dy  Dy2  1  0.500000  0.819332  0.205094  1
  Dy  Dy3  1  0.500000  0.180668  0.205094  1
  Dy  Dy4  1  0.000000  0.680668  0.794906  1
  Dy  Dy5  1  0.000000  0.319332  0.794906  1
  Co  Co6  1  0.500000  0.500000  0.701748  1
  Co  Co7  1  0.000000  0.000000  0.298252  1
  Co  Co8  1  0.000000  0.500000  0.986952  1
  Co  Co9  1  0.500000  0.000000  0.013048  1
  Co  Co10  1  0.500000  0.332667  0.990583  1
  Co  Co11  1  0.500000  0.667333  0.990583  1
  Co  Co12  1  0.000000  0.167333  0.009417  1
  Co  Co13  1  0.000000  0.832667  0.009417  1
  Co  Co14  1  0.500000  0.295929  0.431143  1
  Co  Co15  1  0.500000  0.704071  0.431143  1
  Co  Co16  1  0.000000  0.204071  0.568857  1
  Co  Co17  1  0.000000  0.795929  0.568857  1
  Co  Co18  1  0.500000  0.878414  0.707950  1
  Co  Co19  1  0.500000  0.121586  0.707950  1
  Co  Co20  1  0.000000  0.621586  0.292050  1
  Co  Co21  1  0.000000  0.378414  0.292050  1
  P  P22  1  0.500000  0.500000  0.880738  1
  P  P23  1  0.000000  0.000000  0.119262  1
  P  P24  1  0.500000  0.500000  0.349421  1
  P  P25  1  0.000000  0.000000  0.650579  1
  P  P26  1  0.500000  0.310887  0.615829  1
  P  P27  1  0.500000  0.689113  0.615829  1
  P  P28  1  0.000000  0.189113  0.384171  1
  P  P29  1  0.000000  0.810887  0.384171  1
  P  P30  1  0.500000  0.844153  0.892839  1
  P  P31  1  0.500000  0.155847  0.892839  1
  P  P32  1  0.000000  0.655847  0.107161  1
  P  P33  1  0.000000  0.344153  0.107161  1
  W  W34  1  0.500000  0.500000  0.156087  1
  W  W35  1  0.000000  0.000000  0.843913  1
