# generated using pymatgen
data_KNp2NiSe5
_symmetry_space_group_name_H-M   'P 1'
_cell_length_a   7.76274484
_cell_length_b   7.76274500
_cell_length_c   17.43602300
_cell_angle_alpha   90.00000000
_cell_angle_beta   90.00000000
_cell_angle_gamma   149.38481489
_symmetry_Int_Tables_number   1
_chemical_formula_structural   KNp2NiSe5
_chemical_formula_sum   'K2 Np4 Ni2 Se10'
_cell_volume   535.08866226
_cell_formula_units_Z   2
loop_
 _symmetry_equiv_pos_site_id
 _symmetry_equiv_pos_as_xyz
  1  'x, y, z'
loop_
 _atom_site_type_symbol
 _atom_site_label
 _atom_site_symmetry_multiplicity
 _atom_site_fract_x
 _atom_site_fract_y
 _atom_site_fract_z
 _atom_site_occupancy
  K  K0  1  0.040653  0.959347  0.250000  1
  K  K1  1  0.959347  0.040653  0.750000  1
  Np  Np2  1  0.209393  0.790607  0.901461  1
  Np  Np3  1  0.790607  0.209393  0.401461  1
  Np  Np4  1  0.209393  0.790607  0.598539  1
  Np  Np5  1  0.790607  0.209393  0.098539  1
  Ni  Ni6  1  0.318137  0.681863  0.250000  1
  Ni  Ni7  1  0.681863  0.318137  0.750000  1
  Se  Se8  1  0.167261  0.832739  0.439311  1
  Se  Se9  1  0.832739  0.167261  0.939311  1
  Se  Se10  1  0.270881  0.729119  0.750000  1
  Se  Se11  1  0.409554  0.590446  0.362799  1
  Se  Se12  1  0.167261  0.832739  0.060689  1
  Se  Se13  1  0.590446  0.409554  0.862799  1
  Se  Se14  1  0.590446  0.409554  0.637201  1
  Se  Se15  1  0.409554  0.590446  0.137201  1
  Se  Se16  1  0.832739  0.167261  0.560689  1
  Se  Se17  1  0.729119  0.270881  0.250000  1
