# generated using pymatgen
data_Na5Sc3(Cu4As3)4
_symmetry_space_group_name_H-M   'P 1'
_cell_length_a   13.11536500
_cell_length_b   13.11536502
_cell_length_c   4.03032900
_cell_angle_alpha   90.00000000
_cell_angle_beta   90.00000000
_cell_angle_gamma   120.00000248
_symmetry_Int_Tables_number   1
_chemical_formula_structural   Na5Sc3(Cu4As3)4
_chemical_formula_sum   'Na5 Sc3 Cu16 As12'
_cell_volume   600.38783477
_cell_formula_units_Z   1
loop_
 _symmetry_equiv_pos_site_id
 _symmetry_equiv_pos_as_xyz
  1  'x, y, z'
loop_
 _atom_site_type_symbol
 _atom_site_label
 _atom_site_symmetry_multiplicity
 _atom_site_fract_x
 _atom_site_fract_y
 _atom_site_fract_z
 _atom_site_occupancy
  Na  Na0  1  0.185373  0.185373  0.500000  1
  Na  Na1  1  0.814627  0.000000  0.500000  1
  Na  Na2  1  0.000000  0.814627  0.500000  1
  Na  Na3  1  0.333333  0.666667  0.000000  1
  Na  Na4  1  0.666667  0.333333  0.000000  1
  Sc  Sc5  1  0.567152  0.567152  0.000000  1
  Sc  Sc6  1  0.432848  0.000000  0.000000  1
  Sc  Sc7  1  0.000000  0.432848  0.000000  1
  Cu  Cu8  1  0.723714  0.723714  0.500000  1
  Cu  Cu9  1  0.276286  0.000000  0.500000  1
  Cu  Cu10  1  0.000000  0.276286  0.500000  1
  Cu  Cu11  1  0.184170  0.375662  0.000000  1
  Cu  Cu12  1  0.624338  0.808507  0.000000  1
  Cu  Cu13  1  0.191493  0.815830  0.000000  1
  Cu  Cu14  1  0.808507  0.624338  0.000000  1
  Cu  Cu15  1  0.815830  0.191493  0.000000  1
  Cu  Cu16  1  0.375662  0.184170  0.000000  1
  Cu  Cu17  1  0.359142  0.479575  0.500000  1
  Cu  Cu18  1  0.520425  0.879568  0.500000  1
  Cu  Cu19  1  0.120432  0.640858  0.500000  1
  Cu  Cu20  1  0.879568  0.520425  0.500000  1
  Cu  Cu21  1  0.640858  0.120432  0.500000  1
  Cu  Cu22  1  0.479575  0.359142  0.500000  1
  Cu  Cu23  1  0.000000  0.000000  0.000000  1
  As  As24  1  0.821753  0.821753  0.000000  1
  As  As25  1  0.178247  0.000000  0.000000  1
  As  As26  1  0.000000  0.178247  0.000000  1
  As  As27  1  0.169251  0.482691  0.500000  1
  As  As28  1  0.517309  0.686559  0.500000  1
  As  As29  1  0.313441  0.830749  0.500000  1
  As  As30  1  0.686559  0.517309  0.500000  1
  As  As31  1  0.830749  0.313441  0.500000  1
  As  As32  1  0.482691  0.169251  0.500000  1
  As  As33  1  0.360202  0.360202  0.000000  1
  As  As34  1  0.639798  0.000000  0.000000  1
  As  As35  1  0.000000  0.639798  0.000000  1
