# generated using pymatgen
data_Dy2MnFe(TeO6)2
_symmetry_space_group_name_H-M   'P 1'
_cell_length_a   5.20082000
_cell_length_b   5.20117996
_cell_length_c   9.80994100
_cell_angle_alpha   90.00181763
_cell_angle_beta   89.99912968
_cell_angle_gamma   119.99744359
_symmetry_Int_Tables_number   1
_chemical_formula_structural   Dy2MnFe(TeO6)2
_chemical_formula_sum   'Dy2 Mn1 Fe1 Te2 O12'
_cell_volume   229.81687631
_cell_formula_units_Z   1
loop_
 _symmetry_equiv_pos_site_id
 _symmetry_equiv_pos_as_xyz
  1  'x, y, z'
loop_
 _atom_site_type_symbol
 _atom_site_label
 _atom_site_symmetry_multiplicity
 _atom_site_fract_x
 _atom_site_fract_y
 _atom_site_fract_z
 _atom_site_occupancy
  Dy  Dy0  1  0.000068  0.000798  0.000120  1
  Dy  Dy1  1  0.000183  0.999414  0.499884  1
  Mn  Mn2  1  0.659943  0.328409  0.750130  1
  Fe  Fe3  1  0.333214  0.666484  0.249855  1
  Te  Te4  1  0.666492  0.333244  0.250010  1
  Te  Te5  1  0.327725  0.662112  0.750019  1
  O  O6  1  0.646175  0.633972  0.139280  1
  O  O7  1  0.986624  0.353324  0.138989  1
  O  O8  1  0.366455  0.013217  0.138230  1
  O  O9  1  0.987151  0.633594  0.360655  1
  O  O10  1  0.366500  0.352993  0.361590  1
  O  O11  1  0.646231  0.012289  0.360958  1
  O  O12  1  0.354232  0.982012  0.636203  1
  O  O13  1  0.639320  0.637119  0.644929  1
  O  O14  1  0.024520  0.365412  0.635251  1
  O  O15  1  0.012878  0.651847  0.860426  1
  O  O16  1  0.636328  0.000078  0.856084  1
  O  O17  1  0.345963  0.373682  0.867385  1
