# generated using pymatgen
data_Ti2AlGaPt12
_symmetry_space_group_name_H-M   'P 1'
_cell_length_a   5.57363782
_cell_length_b   5.57363781
_cell_length_c   7.88235200
_cell_angle_alpha   90.00000000
_cell_angle_beta   90.00000000
_cell_angle_gamma   90.00952936
_symmetry_Int_Tables_number   1
_chemical_formula_structural   Ti2AlGaPt12
_chemical_formula_sum   'Ti2 Al1 Ga1 Pt12'
_cell_volume   244.86871797
_cell_formula_units_Z   1
loop_
 _symmetry_equiv_pos_site_id
 _symmetry_equiv_pos_as_xyz
  1  'x, y, z'
loop_
 _atom_site_type_symbol
 _atom_site_label
 _atom_site_symmetry_multiplicity
 _atom_site_fract_x
 _atom_site_fract_y
 _atom_site_fract_z
 _atom_site_occupancy
  Ti  Ti0  1  0.500000  0.000000  0.250022  1
  Ti  Ti1  1  0.000000  0.500000  0.250177  1
  Al  Al2  1  0.000000  0.500000  0.749818  1
  Ga  Ga3  1  0.500000  0.000000  0.750207  1
  Pt  Pt4  1  0.245593  0.254407  0.003214  1
  Pt  Pt5  1  0.747435  0.247435  0.003534  1
  Pt  Pt6  1  0.252565  0.752565  0.003534  1
  Pt  Pt7  1  0.754407  0.745593  0.003214  1
  Pt  Pt8  1  0.000000  0.000000  0.249940  1
  Pt  Pt9  1  0.500000  0.500000  0.249940  1
  Pt  Pt10  1  0.751040  0.251040  0.496488  1
  Pt  Pt11  1  0.249285  0.250715  0.496705  1
  Pt  Pt12  1  0.750715  0.749285  0.496705  1
  Pt  Pt13  1  0.248960  0.748960  0.496488  1
  Pt  Pt14  1  0.000000  0.000000  0.750007  1
  Pt  Pt15  1  0.500000  0.500000  0.750007  1
