# generated using pymatgen
data_Dy3Y9ZnCo4Sn
_symmetry_space_group_name_H-M   'P 1'
_cell_length_a   8.34511636
_cell_length_b   8.35456020
_cell_length_c   8.34511696
_cell_angle_alpha   111.76354402
_cell_angle_beta   109.10779493
_cell_angle_gamma   107.52464633
_symmetry_Int_Tables_number   1
_chemical_formula_structural   Dy3Y9ZnCo4Sn
_chemical_formula_sum   'Dy3 Y9 Zn1 Co4 Sn1'
_cell_volume   447.51104890
_cell_formula_units_Z   1
loop_
 _symmetry_equiv_pos_site_id
 _symmetry_equiv_pos_as_xyz
  1  'x, y, z'
loop_
 _atom_site_type_symbol
 _atom_site_label
 _atom_site_symmetry_multiplicity
 _atom_site_fract_x
 _atom_site_fract_y
 _atom_site_fract_z
 _atom_site_occupancy
  Dy  Dy0  1  0.675214  0.361968  0.686754  1
  Dy  Dy1  1  0.324869  0.011100  0.686231  1
  Dy  Dy2  1  0.675594  0.989093  0.313499  1
  Y  Y3  1  0.428247  0.228492  0.199093  1
  Y  Y4  1  0.572049  0.771307  0.800916  1
  Y  Y5  1  0.029398  0.228492  0.800245  1
  Y  Y6  1  0.970391  0.771307  0.199257  1
  Y  Y7  1  0.181551  0.283244  0.465120  1
  Y  Y8  1  0.818614  0.716557  0.535032  1
  Y  Y9  1  0.181526  0.716557  0.897943  1
  Y  Y10  1  0.818124  0.283244  0.101693  1
  Y  Y11  1  0.324518  0.635723  0.311205  1
  Zn  Zn12  1  0.000165  0.000369  0.000204  1
  Co  Co13  1  0.347561  0.001339  0.347893  1
  Co  Co14  1  0.653446  0.001339  0.653778  1
  Co  Co15  1  0.113206  0.614321  0.501115  1
  Co  Co16  1  0.885682  0.385640  0.499958  1
  Sn  Sn17  1  0.499844  0.499909  0.000064  1
