# generated using pymatgen
data_Y2Tm(InIr)3
_symmetry_space_group_name_H-M   'P 1'
_cell_length_a   7.50522592
_cell_length_b   7.56146176
_cell_length_c   3.94241900
_cell_angle_alpha   90.00000000
_cell_angle_beta   90.00000000
_cell_angle_gamma   120.24815856
_symmetry_Int_Tables_number   1
_chemical_formula_structural   Y2Tm(InIr)3
_chemical_formula_sum   'Y2 Tm1 In3 Ir3'
_cell_volume   193.27313851
_cell_formula_units_Z   1
loop_
 _symmetry_equiv_pos_site_id
 _symmetry_equiv_pos_as_xyz
  1  'x, y, z'
loop_
 _atom_site_type_symbol
 _atom_site_label
 _atom_site_symmetry_multiplicity
 _atom_site_fract_x
 _atom_site_fract_y
 _atom_site_fract_z
 _atom_site_occupancy
  Y  Y0  1  0.407045  0.405565  0.000000  1
  Y  Y1  1  0.592955  0.998520  0.000000  1
  Tm  Tm2  1  0.000000  0.595288  0.000000  1
  In  In3  1  0.000000  0.257004  0.500000  1
  In  In4  1  0.740294  0.741333  0.500000  1
  In  In5  1  0.259706  0.001038  0.500000  1
  Ir  Ir6  1  0.000000  0.996772  0.000000  1
  Ir  Ir7  1  0.326468  0.665475  0.500000  1
  Ir  Ir8  1  0.673532  0.339006  0.500000  1
