# generated using pymatgen
data_TmLuMn5(PRh)7
_symmetry_space_group_name_H-M   'P 1'
_cell_length_a   9.42456673
_cell_length_b   9.41299550
_cell_length_c   3.77565200
_cell_angle_alpha   90.00000000
_cell_angle_beta   90.00000000
_cell_angle_gamma   119.95327858
_symmetry_Int_Tables_number   1
_chemical_formula_structural   TmLuMn5(PRh)7
_chemical_formula_sum   'Tm1 Lu1 Mn5 P7 Rh7'
_cell_volume   290.21249478
_cell_formula_units_Z   1
loop_
 _symmetry_equiv_pos_site_id
 _symmetry_equiv_pos_as_xyz
  1  'x, y, z'
loop_
 _atom_site_type_symbol
 _atom_site_label
 _atom_site_symmetry_multiplicity
 _atom_site_fract_x
 _atom_site_fract_y
 _atom_site_fract_z
 _atom_site_occupancy
  Tm  Tm0  1  0.666476  0.333211  0.500000  1
  Lu  Lu1  1  0.000118  0.000456  0.000000  1
  Mn  Mn2  1  0.219193  0.396153  0.000000  1
  Mn  Mn3  1  0.603149  0.823268  0.000000  1
  Mn  Mn4  1  0.175169  0.778551  0.000000  1
  Mn  Mn5  1  0.435037  0.890531  0.500000  1
  Mn  Mn6  1  0.109287  0.544651  0.500000  1
  P  P7  1  0.443169  0.368605  0.000000  1
  P  P8  1  0.629714  0.072764  0.000000  1
  P  P9  1  0.924839  0.555166  0.000000  1
  P  P10  1  0.055501  0.267781  0.500000  1
  P  P11  1  0.731484  0.789538  0.500000  1
  P  P12  1  0.214116  0.942897  0.500000  1
  P  P13  1  0.334827  0.668939  0.000000  1
  Rh  Rh14  1  0.699086  0.601889  0.000000  1
  Rh  Rh15  1  0.398964  0.096375  0.000000  1
  Rh  Rh16  1  0.902317  0.302029  0.000000  1
  Rh  Rh17  1  0.275027  0.219918  0.500000  1
  Rh  Rh18  1  0.777380  0.054398  0.500000  1
  Rh  Rh19  1  0.944639  0.723949  0.500000  1
  Rh  Rh20  1  0.460510  0.568935  0.500000  1
