# generated using pymatgen
data_Sc8Ti11ReSi15As
_symmetry_space_group_name_H-M   'P 1'
_cell_length_a   6.85750134
_cell_length_b   6.85435035
_cell_length_c   12.55379683
_cell_angle_alpha   89.97188459
_cell_angle_beta   89.87420887
_cell_angle_gamma   90.04177362
_symmetry_Int_Tables_number   1
_chemical_formula_structural   Sc8Ti11ReSi15As
_chemical_formula_sum   'Sc8 Ti11 Re1 Si15 As1'
_cell_volume   590.07345953
_cell_formula_units_Z   1
loop_
 _symmetry_equiv_pos_site_id
 _symmetry_equiv_pos_as_xyz
  1  'x, y, z'
loop_
 _atom_site_type_symbol
 _atom_site_label
 _atom_site_symmetry_multiplicity
 _atom_site_fract_x
 _atom_site_fract_y
 _atom_site_fract_z
 _atom_site_occupancy
  Sc  Sc0  1  0.999023  0.659323  0.031575  1
  Sc  Sc1  1  0.998951  0.340380  0.535064  1
  Sc  Sc2  1  0.341937  0.000867  0.469534  1
  Sc  Sc3  1  0.157839  0.499789  0.781686  1
  Sc  Sc4  1  0.837957  0.494910  0.280324  1
  Sc  Sc5  1  0.500715  0.158627  0.217038  1
  Sc  Sc6  1  0.502438  0.844699  0.718915  1
  Sc  Sc7  1  0.658781  0.001196  0.964754  1
  Ti  Ti8  1  0.668987  0.671609  0.501918  1
  Ti  Ti9  1  0.172704  0.828204  0.249053  1
  Ti  Ti10  1  0.328112  0.327757  0.998542  1
  Ti  Ti11  1  0.994655  0.849773  0.627109  1
  Ti  Ti12  1  0.005794  0.148200  0.123952  1
  Ti  Ti13  1  0.849690  0.997642  0.374718  1
  Ti  Ti14  1  0.350705  0.505618  0.377042  1
  Ti  Ti15  1  0.651371  0.495920  0.876086  1
  Ti  Ti16  1  0.506043  0.347806  0.623859  1
  Ti  Ti17  1  0.494248  0.649087  0.124149  1
  Ti  Ti18  1  0.151095  0.007708  0.873085  1
  Re  Re19  1  0.828061  0.172371  0.750026  1
  Si  Si20  1  0.635832  0.294550  0.429609  1
  Si  Si21  1  0.363298  0.705719  0.929014  1
  Si  Si22  1  0.204456  0.135304  0.679336  1
  Si  Si23  1  0.300384  0.636215  0.575763  1
  Si  Si24  1  0.704782  0.363107  0.069770  1
  Si  Si25  1  0.793773  0.863471  0.179186  1
  Si  Si26  1  0.137600  0.205054  0.320365  1
  Si  Si27  1  0.953157  0.296951  0.933381  1
  Si  Si28  1  0.704108  0.046357  0.566392  1
  Si  Si29  1  0.201649  0.453437  0.184703  1
  Si  Si30  1  0.796074  0.543560  0.685680  1
  Si  Si31  1  0.456706  0.205399  0.814707  1
  Si  Si32  1  0.545504  0.798407  0.315318  1
  Si  Si33  1  0.298220  0.954241  0.064520  1
  Si  Si34  1  0.865907  0.796182  0.820756  1
  As  As35  1  0.039449  0.700555  0.433073  1
