# generated using pymatgen
data_Li3(Al3Rh)4
_symmetry_space_group_name_H-M   'P 1'
_cell_length_a   8.97180490
_cell_length_b   8.97180530
_cell_length_c   8.97180500
_cell_angle_alpha   109.47121544
_cell_angle_beta   109.47121635
_cell_angle_gamma   109.47122081
_symmetry_Int_Tables_number   1
_chemical_formula_structural   Li3(Al3Rh)4
_chemical_formula_sum   'Li6 Al24 Rh8'
_cell_volume   555.92684474
_cell_formula_units_Z   2
loop_
 _symmetry_equiv_pos_site_id
 _symmetry_equiv_pos_as_xyz
  1  'x, y, z'
loop_
 _atom_site_type_symbol
 _atom_site_label
 _atom_site_symmetry_multiplicity
 _atom_site_fract_x
 _atom_site_fract_y
 _atom_site_fract_z
 _atom_site_occupancy
  Li  Li0  1  0.750001  0.875001  0.125000  1
  Li  Li1  1  0.625000  0.375000  0.250000  1
  Li  Li2  1  0.250000  0.625000  0.375000  1
  Li  Li3  1  0.375000  0.250000  0.625000  1
  Li  Li4  1  0.875000  0.125000  0.750001  1
  Li  Li5  1  0.125000  0.750001  0.875000  1
  Al  Al6  1  0.922368  0.698239  0.033393  1
  Al  Al7  1  0.275870  0.111023  0.077630  1
  Al  Al8  1  0.077630  0.275870  0.111023  1
  Al  Al9  1  0.888976  0.466606  0.164846  1
  Al  Al10  1  0.422369  0.533392  0.198240  1
  Al  Al11  1  0.301761  0.835154  0.224129  1
  Al  Al12  1  0.111024  0.077630  0.275869  1
  Al  Al13  1  0.835154  0.224130  0.301761  1
  Al  Al14  1  0.801761  0.724128  0.335154  1
  Al  Al15  1  0.664848  0.966607  0.388975  1
  Al  Al16  1  0.533393  0.198240  0.422368  1
  Al  Al17  1  0.164846  0.888976  0.466606  1
  Al  Al18  1  0.198240  0.422369  0.533392  1
  Al  Al19  1  0.611025  0.775871  0.577632  1
  Al  Al20  1  0.775871  0.577632  0.611025  1
  Al  Al21  1  0.966607  0.388975  0.664848  1
  Al  Al22  1  0.033393  0.922368  0.698238  1
  Al  Al23  1  0.335154  0.801761  0.724128  1
  Al  Al24  1  0.577632  0.611025  0.775871  1
  Al  Al25  1  0.724128  0.335154  0.801761  1
  Al  Al26  1  0.224129  0.301762  0.835154  1
  Al  Al27  1  0.466606  0.164846  0.888975  1
  Al  Al28  1  0.698239  0.033393  0.922368  1
  Al  Al29  1  0.388976  0.664847  0.966607  1
  Rh  Rh30  1  0.097750  0.499999  0.000000  1
  Rh  Rh31  1  0.597750  0.500000  0.000000  1
  Rh  Rh32  1  0.499999  0.000000  0.097750  1
  Rh  Rh33  1  0.402249  0.402249  0.402249  1
  Rh  Rh34  1  0.000000  0.097749  0.499999  1
  Rh  Rh35  1  0.000000  0.597750  0.500000  1
  Rh  Rh36  1  0.500000  0.000000  0.597750  1
  Rh  Rh37  1  0.902250  0.902250  0.902250  1
