# generated using pymatgen
data_TbSm3(B4Os)4
_symmetry_space_group_name_H-M   'P 1'
_cell_length_a   3.60221600
_cell_length_b   6.02720034
_cell_length_c   11.66122000
_cell_angle_alpha   90.04912612
_cell_angle_beta   90.00000000
_cell_angle_gamma   90.00000000
_symmetry_Int_Tables_number   1
_chemical_formula_structural   TbSm3(B4Os)4
_chemical_formula_sum   'Tb1 Sm3 B16 Os4'
_cell_volume   253.17989045
_cell_formula_units_Z   1
loop_
 _symmetry_equiv_pos_site_id
 _symmetry_equiv_pos_as_xyz
  1  'x, y, z'
loop_
 _atom_site_type_symbol
 _atom_site_label
 _atom_site_symmetry_multiplicity
 _atom_site_fract_x
 _atom_site_fract_y
 _atom_site_fract_z
 _atom_site_occupancy
  Tb  Tb0  1  0.500000  0.372199  0.650254  1
  Sm  Sm1  1  0.500000  0.127853  0.150419  1
  Sm  Sm2  1  0.500000  0.872226  0.849312  1
  Sm  Sm3  1  0.500000  0.627800  0.349910  1
  B  B4  1  0.000000  0.475104  0.190160  1
  B  B5  1  0.000000  0.524177  0.808612  1
  B  B6  1  0.000000  0.975201  0.310251  1
  B  B7  1  0.000000  0.026153  0.690250  1
  B  B8  1  0.000000  0.286469  0.315534  1
  B  B9  1  0.000000  0.711388  0.684696  1
  B  B10  1  0.000000  0.786577  0.184872  1
  B  B11  1  0.000000  0.213590  0.814097  1
  B  B12  1  0.000000  0.362343  0.470569  1
  B  B13  1  0.000000  0.637478  0.531146  1
  B  B14  1  0.000000  0.861683  0.030241  1
  B  B15  1  0.000000  0.138461  0.969050  1
  B  B16  1  0.000000  0.388668  0.045672  1
  B  B17  1  0.000000  0.611024  0.953426  1
  B  B18  1  0.000000  0.888971  0.454643  1
  B  B19  1  0.000000  0.112708  0.546870  1
  Os  Os20  1  0.500000  0.139654  0.408523  1
  Os  Os21  1  0.500000  0.860423  0.592861  1
  Os  Os22  1  0.500000  0.638731  0.092174  1
  Os  Os23  1  0.500000  0.361120  0.906455  1
