# generated using pymatgen
data_CaEu11(ErSi2)8
_symmetry_space_group_name_H-M   'P 1'
_cell_length_a   7.56483612
_cell_length_b   7.98269103
_cell_length_c   15.43903900
_cell_angle_alpha   89.99505470
_cell_angle_beta   89.98988119
_cell_angle_gamma   89.99850621
_symmetry_Int_Tables_number   1
_chemical_formula_structural   CaEu11(ErSi2)8
_chemical_formula_sum   'Ca1 Eu11 Er8 Si16'
_cell_volume   932.32880041
_cell_formula_units_Z   1
loop_
 _symmetry_equiv_pos_site_id
 _symmetry_equiv_pos_as_xyz
  1  'x, y, z'
loop_
 _atom_site_type_symbol
 _atom_site_label
 _atom_site_symmetry_multiplicity
 _atom_site_fract_x
 _atom_site_fract_y
 _atom_site_fract_z
 _atom_site_occupancy
  Ca  Ca0  1  0.971005  0.814698  0.403640  1
  Eu  Eu1  1  0.473762  0.680358  0.095122  1
  Eu  Eu2  1  0.527663  0.320004  0.595390  1
  Eu  Eu3  1  0.026062  0.179609  0.906006  1
  Eu  Eu4  1  0.026163  0.180664  0.594875  1
  Eu  Eu5  1  0.525893  0.321057  0.906252  1
  Eu  Eu6  1  0.472410  0.682361  0.403007  1
  Eu  Eu7  1  0.973403  0.819601  0.094388  1
  Eu  Eu8  1  0.350376  0.023002  0.751501  1
  Eu  Eu9  1  0.850259  0.476850  0.751023  1
  Eu  Eu10  1  0.149997  0.523112  0.249286  1
  Eu  Eu11  1  0.649279  0.976062  0.249387  1
  Er  Er12  1  0.314989  0.178390  0.121809  1
  Er  Er13  1  0.816262  0.321922  0.378417  1
  Er  Er14  1  0.184422  0.678817  0.878982  1
  Er  Er15  1  0.684393  0.821312  0.621122  1
  Er  Er16  1  0.315674  0.178197  0.378372  1
  Er  Er17  1  0.816435  0.320776  0.121419  1
  Er  Er18  1  0.183886  0.679573  0.620999  1
  Er  Er19  1  0.684663  0.821194  0.879076  1
  Si  Si20  1  0.859588  0.533442  0.537724  1
  Si  Si21  1  0.358857  0.967724  0.962827  1
  Si  Si22  1  0.641757  0.033406  0.461655  1
  Si  Si23  1  0.141887  0.467667  0.038013  1
  Si  Si24  1  0.141784  0.467479  0.461487  1
  Si  Si25  1  0.641429  0.032490  0.038116  1
  Si  Si26  1  0.360458  0.967955  0.537962  1
  Si  Si27  1  0.859047  0.532252  0.962537  1
  Si  Si28  1  0.974455  0.874186  0.750232  1
  Si  Si29  1  0.474321  0.626381  0.750388  1
  Si  Si30  1  0.525569  0.374322  0.249807  1
  Si  Si31  1  0.025024  0.126298  0.249439  1
  Si  Si32  1  0.249770  0.405112  0.750267  1
  Si  Si33  1  0.749560  0.095196  0.750479  1
  Si  Si34  1  0.249067  0.904063  0.250076  1
  Si  Si35  1  0.750432  0.594473  0.248919  1
