# generated using pymatgen
data_LaPr2Al10(SiOs2)2
_symmetry_space_group_name_H-M   'P 1'
_cell_length_a   8.84606100
_cell_length_b   8.83210412
_cell_length_c   9.76614400
_cell_angle_alpha   90.00000000
_cell_angle_beta   90.00000000
_cell_angle_gamma   120.05229157
_symmetry_Int_Tables_number   1
_chemical_formula_structural   LaPr2Al10(SiOs2)2
_chemical_formula_sum   'La2 Pr4 Al20 Si4 Os8'
_cell_volume   660.44823487
_cell_formula_units_Z   2
loop_
 _symmetry_equiv_pos_site_id
 _symmetry_equiv_pos_as_xyz
  1  'x, y, z'
loop_
 _atom_site_type_symbol
 _atom_site_label
 _atom_site_symmetry_multiplicity
 _atom_site_fract_x
 _atom_site_fract_y
 _atom_site_fract_z
 _atom_site_occupancy
  La  La0  1  0.193639  0.387278  0.250000  1
  La  La1  1  0.806361  0.612722  0.750000  1
  Pr  Pr2  1  0.613358  0.805930  0.250000  1
  Pr  Pr3  1  0.386642  0.194070  0.750000  1
  Pr  Pr4  1  0.192571  0.805930  0.250000  1
  Pr  Pr5  1  0.807429  0.194070  0.750000  1
  Al  Al6  1  0.164607  0.329212  0.573747  1
  Al  Al7  1  0.835393  0.670788  0.426253  1
  Al  Al8  1  0.671377  0.836058  0.574025  1
  Al  Al9  1  0.835393  0.670788  0.073747  1
  Al  Al10  1  0.328623  0.163942  0.425975  1
  Al  Al11  1  0.164607  0.329212  0.926253  1
  Al  Al12  1  0.164682  0.836058  0.574025  1
  Al  Al13  1  0.328623  0.163942  0.074025  1
  Al  Al14  1  0.835318  0.163942  0.425975  1
  Al  Al15  1  0.671377  0.836058  0.925975  1
  Al  Al16  1  0.835318  0.163942  0.074025  1
  Al  Al17  1  0.164682  0.836058  0.925975  1
  Al  Al18  1  0.565222  0.130444  0.250000  1
  Al  Al19  1  0.434778  0.869556  0.750000  1
  Al  Al20  1  0.869609  0.434858  0.250000  1
  Al  Al21  1  0.130391  0.565142  0.750000  1
  Al  Al22  1  0.565248  0.434858  0.250000  1
  Al  Al23  1  0.434752  0.565142  0.750000  1
  Al  Al24  1  0.999600  0.999200  0.250000  1
  Al  Al25  1  0.000400  0.000800  0.750000  1
  Si  Si26  1  0.334035  0.668070  0.023955  1
  Si  Si27  1  0.665965  0.331930  0.976045  1
  Si  Si28  1  0.665965  0.331930  0.523955  1
  Si  Si29  1  0.334035  0.668070  0.476045  1
  Os  Os30  1  0.500000  0.000000  0.000000  1
  Os  Os31  1  0.000000  0.500000  0.000000  1
  Os  Os32  1  0.500000  0.000000  0.500000  1
  Os  Os33  1  0.500000  0.500000  0.000000  1
  Os  Os34  1  0.000000  0.500000  0.500000  1
  Os  Os35  1  0.500000  0.500000  0.500000  1
  Os  Os36  1  0.000000  0.000000  0.000000  1
  Os  Os37  1  0.000000  0.000000  0.500000  1
