# generated using pymatgen
data_Tb3HoCI5
_symmetry_space_group_name_H-M   'P 1'
_cell_length_a   9.76912895
_cell_length_b   9.76912943
_cell_length_c   8.58973666
_cell_angle_alpha   102.21363623
_cell_angle_beta   102.21363603
_cell_angle_gamma   23.63996686
_symmetry_Int_Tables_number   1
_chemical_formula_structural   Tb3HoCI5
_chemical_formula_sum   'Tb3 Ho1 C1 I5'
_cell_volume   320.94756444
_cell_formula_units_Z   1
loop_
 _symmetry_equiv_pos_site_id
 _symmetry_equiv_pos_as_xyz
  1  'x, y, z'
loop_
 _atom_site_type_symbol
 _atom_site_label
 _atom_site_symmetry_multiplicity
 _atom_site_fract_x
 _atom_site_fract_y
 _atom_site_fract_z
 _atom_site_occupancy
  Tb  Tb0  1  0.999268  0.999268  0.191656  1
  Tb  Tb1  1  0.000703  0.000703  0.808307  1
  Tb  Tb2  1  0.370638  0.370638  0.935921  1
  Ho  Ho3  1  0.628531  0.628531  0.063832  1
  C  C4  1  0.500993  0.500993  0.000503  1
  I  I5  1  0.832624  0.832624  0.178225  1
  I  I6  1  0.162944  0.162944  0.337360  1
  I  I7  1  0.500075  0.500075  0.500015  1
  I  I8  1  0.837033  0.837033  0.659813  1
  I  I9  1  0.167191  0.167191  0.824367  1
