# generated using pymatgen
data_DyZrMn12P7
_symmetry_space_group_name_H-M   'P 1'
_cell_length_a   9.25383800
_cell_length_b   9.25383732
_cell_length_c   3.57380300
_cell_angle_alpha   90.00000000
_cell_angle_beta   90.00000000
_cell_angle_gamma   120.00000245
_symmetry_Int_Tables_number   1
_chemical_formula_structural   DyZrMn12P7
_chemical_formula_sum   'Dy1 Zr1 Mn12 P7'
_cell_volume   265.03606970
_cell_formula_units_Z   1
loop_
 _symmetry_equiv_pos_site_id
 _symmetry_equiv_pos_as_xyz
  1  'x, y, z'
loop_
 _atom_site_type_symbol
 _atom_site_label
 _atom_site_symmetry_multiplicity
 _atom_site_fract_x
 _atom_site_fract_y
 _atom_site_fract_z
 _atom_site_occupancy
  Dy  Dy0  1  0.333333  0.666667  0.500000  1
  Zr  Zr1  1  0.666667  0.333333  0.000000  1
  Mn  Mn2  1  0.377886  0.952913  0.000000  1
  Mn  Mn3  1  0.047087  0.424973  0.000000  1
  Mn  Mn4  1  0.575027  0.622114  0.000000  1
  Mn  Mn5  1  0.879355  0.721518  0.000000  1
  Mn  Mn6  1  0.278482  0.157837  0.000000  1
  Mn  Mn7  1  0.842163  0.120645  0.000000  1
  Mn  Mn8  1  0.952605  0.560063  0.500000  1
  Mn  Mn9  1  0.439937  0.392542  0.500000  1
  Mn  Mn10  1  0.607458  0.047395  0.500000  1
  Mn  Mn11  1  0.124811  0.896568  0.500000  1
  Mn  Mn12  1  0.103432  0.228243  0.500000  1
  Mn  Mn13  1  0.771757  0.875189  0.500000  1
  P  P14  1  0.119844  0.709370  0.000000  1
  P  P15  1  0.290630  0.410474  0.000000  1
  P  P16  1  0.589526  0.880156  0.000000  1
  P  P17  1  0.718937  0.588169  0.500000  1
  P  P18  1  0.411831  0.130769  0.500000  1
  P  P19  1  0.869231  0.281063  0.500000  1
  P  P20  1  0.000000  0.000000  0.000000  1
