# generated using pymatgen
data_Yb3(LuSi2)2
_symmetry_space_group_name_H-M   'P 1'
_cell_length_a   7.31884900
_cell_length_b   7.74793100
_cell_length_c   14.93466500
_cell_angle_alpha   90.00000000
_cell_angle_beta   90.00000000
_cell_angle_gamma   90.00000000
_symmetry_Int_Tables_number   1
_chemical_formula_structural   Yb3(LuSi2)2
_chemical_formula_sum   'Yb12 Lu8 Si16'
_cell_volume   846.88417337
_cell_formula_units_Z   4
loop_
 _symmetry_equiv_pos_site_id
 _symmetry_equiv_pos_as_xyz
  1  'x, y, z'
loop_
 _atom_site_type_symbol
 _atom_site_label
 _atom_site_symmetry_multiplicity
 _atom_site_fract_x
 _atom_site_fract_y
 _atom_site_fract_z
 _atom_site_occupancy
  Yb  Yb0  1  0.973491  0.817048  0.403848  1
  Yb  Yb1  1  0.473491  0.682952  0.096152  1
  Yb  Yb2  1  0.526509  0.317048  0.596152  1
  Yb  Yb3  1  0.026509  0.182952  0.903848  1
  Yb  Yb4  1  0.026509  0.182952  0.596152  1
  Yb  Yb5  1  0.526509  0.317048  0.903848  1
  Yb  Yb6  1  0.473491  0.682952  0.403848  1
  Yb  Yb7  1  0.973491  0.817048  0.096152  1
  Yb  Yb8  1  0.351973  0.019633  0.750000  1
  Yb  Yb9  1  0.851973  0.480367  0.750000  1
  Yb  Yb10  1  0.148027  0.519633  0.250000  1
  Yb  Yb11  1  0.648027  0.980367  0.250000  1
  Lu  Lu12  1  0.314936  0.176662  0.121122  1
  Lu  Lu13  1  0.814936  0.323338  0.378878  1
  Lu  Lu14  1  0.185064  0.676662  0.878878  1
  Lu  Lu15  1  0.685064  0.823338  0.621122  1
  Lu  Lu16  1  0.314936  0.176662  0.378878  1
  Lu  Lu17  1  0.814936  0.323338  0.121122  1
  Lu  Lu18  1  0.185064  0.676662  0.621122  1
  Lu  Lu19  1  0.685064  0.823338  0.878878  1
  Si  Si20  1  0.856228  0.534153  0.538386  1
  Si  Si21  1  0.356228  0.965847  0.961614  1
  Si  Si22  1  0.643772  0.034153  0.461614  1
  Si  Si23  1  0.143772  0.465847  0.038386  1
  Si  Si24  1  0.143772  0.465847  0.461614  1
  Si  Si25  1  0.643772  0.034153  0.038386  1
  Si  Si26  1  0.356228  0.965847  0.538386  1
  Si  Si27  1  0.856228  0.534153  0.961614  1
  Si  Si28  1  0.977437  0.878123  0.750000  1
  Si  Si29  1  0.477437  0.621877  0.750000  1
  Si  Si30  1  0.522563  0.378123  0.250000  1
  Si  Si31  1  0.022563  0.121877  0.250000  1
  Si  Si32  1  0.248587  0.397248  0.750000  1
  Si  Si33  1  0.748587  0.102752  0.750000  1
  Si  Si34  1  0.251413  0.897248  0.250000  1
  Si  Si35  1  0.751413  0.602752  0.250000  1
