# generated using pymatgen
data_KNbH5
_symmetry_space_group_name_H-M   'P 1'
_cell_length_a   5.20817600
_cell_length_b   5.74874300
_cell_length_c   12.86163400
_cell_angle_alpha   90.00000000
_cell_angle_beta   90.00000000
_cell_angle_gamma   90.00000000
_symmetry_Int_Tables_number   1
_chemical_formula_structural   KNbH5
_chemical_formula_sum   'K4 Nb4 H20'
_cell_volume   385.08330677
_cell_formula_units_Z   4
loop_
 _symmetry_equiv_pos_site_id
 _symmetry_equiv_pos_as_xyz
  1  'x, y, z'
loop_
 _atom_site_type_symbol
 _atom_site_label
 _atom_site_symmetry_multiplicity
 _atom_site_fract_x
 _atom_site_fract_y
 _atom_site_fract_z
 _atom_site_occupancy
  K  K0  1  0.729315  0.749735  0.840642  1
  K  K1  1  0.229315  0.750265  0.159358  1
  K  K2  1  0.770685  0.250265  0.340642  1
  K  K3  1  0.270685  0.249735  0.659358  1
  Nb  Nb4  1  0.249029  0.249826  0.962831  1
  Nb  Nb5  1  0.749029  0.250174  0.037169  1
  Nb  Nb6  1  0.250971  0.750174  0.462831  1
  Nb  Nb7  1  0.750971  0.749826  0.537169  1
  H  H8  1  0.488202  0.017642  0.015634  1
  H  H9  1  0.988202  0.482358  0.984366  1
  H  H10  1  0.011798  0.982358  0.515634  1
  H  H11  1  0.511798  0.517642  0.484366  1
  H  H12  1  0.233309  0.057014  0.850175  1
  H  H13  1  0.733309  0.442986  0.149825  1
  H  H14  1  0.266691  0.942986  0.350175  1
  H  H15  1  0.766691  0.557014  0.649825  1
  H  H16  1  0.733923  0.058018  0.150033  1
  H  H17  1  0.233923  0.441982  0.849967  1
  H  H18  1  0.766077  0.941982  0.650033  1
  H  H19  1  0.266077  0.558018  0.349967  1
  H  H20  1  0.595297  0.249212  0.898514  1
  H  H21  1  0.095297  0.250788  0.101486  1
  H  H22  1  0.904703  0.750788  0.398514  1
  H  H23  1  0.404703  0.749212  0.601486  1
  H  H24  1  0.988625  0.017394  0.984861  1
  H  H25  1  0.488625  0.482606  0.015139  1
  H  H26  1  0.511375  0.982606  0.484861  1
  H  H27  1  0.011375  0.517394  0.515139  1
