# generated using pymatgen
data_Yb3U5(ReB6)4
_symmetry_space_group_name_H-M   'P 1'
_cell_length_a   3.64564400
_cell_length_b   9.26166735
_cell_length_c   11.37983342
_cell_angle_alpha   89.96855796
_cell_angle_beta   90.00000000
_cell_angle_gamma   90.00000000
_symmetry_Int_Tables_number   1
_chemical_formula_structural   Yb3U5(ReB6)4
_chemical_formula_sum   'Yb3 U5 Re4 B24'
_cell_volume   384.23708185
_cell_formula_units_Z   1
loop_
 _symmetry_equiv_pos_site_id
 _symmetry_equiv_pos_as_xyz
  1  'x, y, z'
loop_
 _atom_site_type_symbol
 _atom_site_label
 _atom_site_symmetry_multiplicity
 _atom_site_fract_x
 _atom_site_fract_y
 _atom_site_fract_z
 _atom_site_occupancy
  Yb  Yb0  1  0.000000  0.337991  0.408201  1
  Yb  Yb1  1  0.000000  0.661964  0.590023  1
  Yb  Yb2  1  0.000000  0.835717  0.092966  1
  U  U3  1  0.000000  0.163354  0.908619  1
  U  U4  1  0.000000  0.954688  0.394846  1
  U  U5  1  0.000000  0.043223  0.602891  1
  U  U6  1  0.000000  0.458445  0.105693  1
  U  U7  1  0.000000  0.544833  0.896170  1
  Re  Re8  1  0.000000  0.646686  0.317668  1
  Re  Re9  1  0.000000  0.350669  0.686102  1
  Re  Re10  1  0.000000  0.145988  0.177201  1
  Re  Re11  1  0.000000  0.858278  0.819689  1
  B  B12  1  0.500000  0.552104  0.431752  1
  B  B13  1  0.500000  0.447055  0.570087  1
  B  B14  1  0.500000  0.052799  0.067779  1
  B  B15  1  0.500000  0.950126  0.930754  1
  B  B16  1  0.500000  0.742927  0.422576  1
  B  B17  1  0.500000  0.256518  0.577641  1
  B  B18  1  0.500000  0.242860  0.076258  1
  B  B19  1  0.500000  0.756735  0.922076  1
  B  B20  1  0.500000  0.801704  0.274543  1
  B  B21  1  0.500000  0.196743  0.727129  1
  B  B22  1  0.500000  0.301974  0.225699  1
  B  B23  1  0.500000  0.699290  0.774380  1
  B  B24  1  0.500000  0.643079  0.189017  1
  B  B25  1  0.500000  0.355049  0.812564  1
  B  B26  1  0.500000  0.143387  0.310432  1
  B  B27  1  0.500000  0.856932  0.688460  1
  B  B28  1  0.500000  0.989445  0.218821  1
  B  B29  1  0.500000  0.013583  0.781673  1
  B  B30  1  0.500000  0.489267  0.281607  1
  B  B31  1  0.500000  0.510840  0.718984  1
  B  B32  1  0.500000  0.638184  0.037959  1
  B  B33  1  0.500000  0.357804  0.960970  1
  B  B34  1  0.500000  0.137057  0.460980  1
  B  B35  1  0.500000  0.862703  0.537792  1
