# generated using pymatgen
data_Pr12Ir2RuAuBr12
_symmetry_space_group_name_H-M   'P 1'
_cell_length_a   10.64283782
_cell_length_b   10.64283942
_cell_length_c   10.70100934
_cell_angle_alpha   109.96954099
_cell_angle_beta   109.96953487
_cell_angle_gamma   109.55747405
_symmetry_Int_Tables_number   1
_chemical_formula_structural   Pr12Ir2RuAuBr12
_chemical_formula_sum   'Pr12 Ir2 Ru1 Au1 Br12'
_cell_volume   920.38484011
_cell_formula_units_Z   1
loop_
 _symmetry_equiv_pos_site_id
 _symmetry_equiv_pos_as_xyz
  1  'x, y, z'
loop_
 _atom_site_type_symbol
 _atom_site_label
 _atom_site_symmetry_multiplicity
 _atom_site_fract_x
 _atom_site_fract_y
 _atom_site_fract_z
 _atom_site_occupancy
  Pr  Pr0  1  0.471042  0.493297  0.229926  1
  Pr  Pr1  1  0.747804  0.232891  0.265842  1
  Pr  Pr2  1  0.746975  0.013592  0.483686  1
  Pr  Pr3  1  0.230527  0.471247  0.493484  1
  Pr  Pr4  1  0.267109  0.752196  0.234158  1
  Pr  Pr5  1  0.028753  0.269473  0.006516  1
  Pr  Pr6  1  0.006703  0.028958  0.270074  1
  Pr  Pr7  1  0.486408  0.753025  0.016314  1
  Pr  Pr8  1  0.494610  0.228315  0.470115  1
  Pr  Pr9  1  0.014859  0.485141  0.750000  1
  Pr  Pr10  1  0.271685  0.005390  0.029885  1
  Pr  Pr11  1  0.233851  0.266149  0.750000  1
  Ir  Ir12  1  0.998596  0.249832  0.500928  1
  Ir  Ir13  1  0.250168  0.501404  0.999072  1
  Ru  Ru14  1  0.500925  0.999075  0.250000  1
  Au  Au15  1  0.250250  0.249750  0.250000  1
  Br  Br16  1  0.249914  0.755300  0.744190  1
  Br  Br17  1  0.506124  0.502075  0.752210  1
  Br  Br18  1  0.993345  0.748157  0.997969  1
  Br  Br19  1  0.744700  0.250086  0.755810  1
  Br  Br20  1  0.997925  0.993876  0.747790  1
  Br  Br21  1  0.250273  0.998211  0.501897  1
  Br  Br22  1  0.751843  0.506655  0.502031  1
  Br  Br23  1  0.501789  0.249727  0.998103  1
  Br  Br24  1  0.755540  0.744460  0.250000  1
  Br  Br25  1  0.748027  0.998098  0.993638  1
  Br  Br26  1  0.998352  0.501648  0.250000  1
  Br  Br27  1  0.501902  0.751973  0.506362  1
