# generated using pymatgen
data_DyErCCl
_symmetry_space_group_name_H-M   'P 1'
_cell_length_a   3.62004400
_cell_length_b   3.62004258
_cell_length_c   13.51212200
_cell_angle_alpha   90.00000000
_cell_angle_beta   90.00000000
_cell_angle_gamma   119.99999474
_symmetry_Int_Tables_number   1
_chemical_formula_structural   DyErCCl
_chemical_formula_sum   'Dy2 Er2 C2 Cl2'
_cell_volume   153.34927961
_cell_formula_units_Z   2
loop_
 _symmetry_equiv_pos_site_id
 _symmetry_equiv_pos_as_xyz
  1  'x, y, z'
loop_
 _atom_site_type_symbol
 _atom_site_label
 _atom_site_symmetry_multiplicity
 _atom_site_fract_x
 _atom_site_fract_y
 _atom_site_fract_z
 _atom_site_occupancy
  Dy  Dy0  1  0.666667  0.333333  0.906214  1
  Dy  Dy1  1  0.333333  0.666667  0.406214  1
  Er  Er2  1  0.333333  0.666667  0.094013  1
  Er  Er3  1  0.666667  0.333333  0.594013  1
  C  C4  1  0.000000  0.000000  0.002008  1
  C  C5  1  0.000000  0.000000  0.502008  1
  Cl  Cl6  1  0.333333  0.666667  0.747763  1
  Cl  Cl7  1  0.666667  0.333333  0.247763  1
