# generated using pymatgen
data_Ho20(NiRu3)3
_symmetry_space_group_name_H-M   'P 1'
_cell_length_a   10.74604133
_cell_length_b   10.74343382
_cell_length_c   6.34369138
_cell_angle_alpha   90.14350432
_cell_angle_beta   90.07373760
_cell_angle_gamma   90.15674007
_symmetry_Int_Tables_number   1
_chemical_formula_structural   Ho20(NiRu3)3
_chemical_formula_sum   'Ho20 Ni3 Ru9'
_cell_volume   732.36961013
_cell_formula_units_Z   1
loop_
 _symmetry_equiv_pos_site_id
 _symmetry_equiv_pos_as_xyz
  1  'x, y, z'
loop_
 _atom_site_type_symbol
 _atom_site_label
 _atom_site_symmetry_multiplicity
 _atom_site_fract_x
 _atom_site_fract_y
 _atom_site_fract_z
 _atom_site_occupancy
  Ho  Ho0  1  0.291527  0.085625  0.374499  1
  Ho  Ho1  1  0.292052  0.909968  0.876805  1
  Ho  Ho2  1  0.706204  0.088763  0.877857  1
  Ho  Ho3  1  0.704311  0.910525  0.377359  1
  Ho  Ho4  1  0.585264  0.790908  0.875133  1
  Ho  Ho5  1  0.584930  0.207495  0.374435  1
  Ho  Ho6  1  0.412256  0.790774  0.375804  1
  Ho  Ho7  1  0.415124  0.207645  0.873346  1
  Ho  Ho8  1  0.208899  0.414790  0.625137  1
  Ho  Ho9  1  0.209106  0.587716  0.124526  1
  Ho  Ho10  1  0.792612  0.415027  0.125670  1
  Ho  Ho11  1  0.792159  0.584937  0.626620  1
  Ho  Ho12  1  0.914135  0.708674  0.125383  1
  Ho  Ho13  1  0.911070  0.293788  0.622530  1
  Ho  Ho14  1  0.089822  0.708011  0.623072  1
  Ho  Ho15  1  0.089306  0.295633  0.122850  1
  Ho  Ho16  1  0.997632  0.000105  0.500525  1
  Ho  Ho17  1  0.000287  0.002499  0.998273  1
  Ho  Ho18  1  0.500608  0.499065  0.000838  1
  Ho  Ho19  1  0.500776  0.499209  0.499754  1
  Ni  Ni20  1  0.850080  0.150803  0.249638  1
  Ni  Ni21  1  0.848884  0.849834  0.749560  1
  Ni  Ni22  1  0.150302  0.151489  0.749280  1
  Ru  Ru23  1  0.148376  0.851646  0.249992  1
  Ru  Ru24  1  0.654939  0.344823  0.750516  1
  Ru  Ru25  1  0.656041  0.655634  0.252868  1
  Ru  Ru26  1  0.344249  0.343924  0.247469  1
  Ru  Ru27  1  0.347872  0.651856  0.749958  1
  Ru  Ru28  1  0.499871  0.999382  0.124647  1
  Ru  Ru29  1  0.500446  0.999787  0.625741  1
  Ru  Ru30  1  0.000263  0.499601  0.874381  1
  Ru  Ru31  1  0.000600  0.500058  0.375535  1
