# generated using pymatgen
data_ZrCuSi2Ni
_symmetry_space_group_name_H-M   'P 1'
_cell_length_a   3.75708934
_cell_length_b   3.75708994
_cell_length_c   5.67228959
_cell_angle_alpha   109.34035708
_cell_angle_beta   109.34035089
_cell_angle_gamma   90.00001055
_symmetry_Int_Tables_number   1
_chemical_formula_structural   ZrCuSi2Ni
_chemical_formula_sum   'Zr1 Cu1 Si2 Ni1'
_cell_volume   70.74359802
_cell_formula_units_Z   1
loop_
 _symmetry_equiv_pos_site_id
 _symmetry_equiv_pos_as_xyz
  1  'x, y, z'
loop_
 _atom_site_type_symbol
 _atom_site_label
 _atom_site_symmetry_multiplicity
 _atom_site_fract_x
 _atom_site_fract_y
 _atom_site_fract_z
 _atom_site_occupancy
  Zr  Zr0  1  0.000000  0.000000  0.000000  1
  Cu  Cu1  1  0.749999  0.250000  0.500000  1
  Si  Si2  1  0.615560  0.615560  0.231122  1
  Si  Si3  1  0.384439  0.384439  0.768879  1
  Ni  Ni4  1  0.250000  0.749999  0.500000  1
