# generated using pymatgen
data_TiCrBiO5
_symmetry_space_group_name_H-M   'P 1'
_cell_length_a   5.96992000
_cell_length_b   7.70360900
_cell_length_c   8.65701500
_cell_angle_alpha   90.00000000
_cell_angle_beta   90.00000000
_cell_angle_gamma   90.00000000
_symmetry_Int_Tables_number   1
_chemical_formula_structural   TiCrBiO5
_chemical_formula_sum   'Ti4 Cr4 Bi4 O20'
_cell_volume   398.13550902
_cell_formula_units_Z   4
loop_
 _symmetry_equiv_pos_site_id
 _symmetry_equiv_pos_as_xyz
  1  'x, y, z'
loop_
 _atom_site_type_symbol
 _atom_site_label
 _atom_site_symmetry_multiplicity
 _atom_site_fract_x
 _atom_site_fract_y
 _atom_site_fract_z
 _atom_site_occupancy
  Ti  Ti0  1  0.500000  0.877617  0.142543  1
  Ti  Ti1  1  0.500000  0.622383  0.642543  1
  Ti  Ti2  1  0.500000  0.377617  0.357457  1
  Ti  Ti3  1  0.500000  0.122383  0.857457  1
  Cr  Cr4  1  0.749610  0.500000  0.000000  1
  Cr  Cr5  1  0.250390  0.500000  0.000000  1
  Cr  Cr6  1  0.749610  0.000000  0.500000  1
  Cr  Cr7  1  0.250390  0.000000  0.500000  1
  Bi  Bi8  1  0.000000  0.839011  0.833623  1
  Bi  Bi9  1  0.000000  0.339011  0.666377  1
  Bi  Bi10  1  0.000000  0.160989  0.166377  1
  Bi  Bi11  1  0.000000  0.660989  0.333623  1
  O  O12  1  0.500000  0.656001  0.077510  1
  O  O13  1  0.000000  0.159451  0.442485  1
  O  O14  1  0.257296  0.883129  0.292203  1
  O  O15  1  0.706917  0.000000  0.000000  1
  O  O16  1  0.742704  0.616871  0.792203  1
  O  O17  1  0.742704  0.116871  0.707797  1
  O  O18  1  0.500000  0.343999  0.922490  1
  O  O19  1  0.293083  0.500000  0.500000  1
  O  O20  1  0.000000  0.840549  0.557515  1
  O  O21  1  0.257296  0.116871  0.707797  1
  O  O22  1  0.000000  0.659451  0.057515  1
  O  O23  1  0.742704  0.383129  0.207797  1
  O  O24  1  0.742704  0.883129  0.292203  1
  O  O25  1  0.257296  0.616871  0.792203  1
  O  O26  1  0.293083  0.000000  0.000000  1
  O  O27  1  0.500000  0.843999  0.577510  1
  O  O28  1  0.500000  0.156001  0.422490  1
  O  O29  1  0.706917  0.500000  0.500000  1
  O  O30  1  0.257296  0.383129  0.207797  1
  O  O31  1  0.000000  0.340549  0.942485  1
