# generated using pymatgen
data_K3As7S12
_symmetry_space_group_name_H-M   'P 1'
_cell_length_a   9.45294300
_cell_length_b   9.45294394
_cell_length_c   7.86967300
_cell_angle_alpha   90.00000000
_cell_angle_beta   90.00000000
_cell_angle_gamma   120.00000114
_symmetry_Int_Tables_number   1
_chemical_formula_structural   K3As7S12
_chemical_formula_sum   'K3 As7 S12'
_cell_volume   609.00580913
_cell_formula_units_Z   1
loop_
 _symmetry_equiv_pos_site_id
 _symmetry_equiv_pos_as_xyz
  1  'x, y, z'
loop_
 _atom_site_type_symbol
 _atom_site_label
 _atom_site_symmetry_multiplicity
 _atom_site_fract_x
 _atom_site_fract_y
 _atom_site_fract_z
 _atom_site_occupancy
  K  K0  1  0.000000  0.000000  0.000000  1
  K  K1  1  0.333333  0.666667  0.868622  1
  K  K2  1  0.666667  0.333333  0.131378  1
  As  As3  1  0.000000  0.000000  0.500000  1
  As  As4  1  0.279017  0.831620  0.389315  1
  As  As5  1  0.168380  0.447398  0.389315  1
  As  As6  1  0.552602  0.720983  0.389315  1
  As  As7  1  0.720983  0.168380  0.610685  1
  As  As8  1  0.831620  0.552602  0.610685  1
  As  As9  1  0.447398  0.279017  0.610685  1
  S  S10  1  0.239416  0.033246  0.302132  1
  S  S11  1  0.966754  0.206171  0.302132  1
  S  S12  1  0.793829  0.760584  0.302132  1
  S  S13  1  0.760584  0.966754  0.697868  1
  S  S14  1  0.033246  0.793829  0.697868  1
  S  S15  1  0.206171  0.239416  0.697868  1
  S  S16  1  0.515706  0.907707  0.228763  1
  S  S17  1  0.092293  0.607998  0.228763  1
  S  S18  1  0.392002  0.484294  0.228763  1
  S  S19  1  0.484294  0.092293  0.771237  1
  S  S20  1  0.907707  0.392002  0.771237  1
  S  S21  1  0.607998  0.515706  0.771237  1
