# generated using pymatgen
data_Zr8Sc2Sb7Au
_symmetry_space_group_name_H-M   'P 1'
_cell_length_a   8.84028254
_cell_length_b   8.84028183
_cell_length_c   5.91058641
_cell_angle_alpha   90.02114193
_cell_angle_beta   90.02114799
_cell_angle_gamma   120.49172186
_symmetry_Int_Tables_number   1
_chemical_formula_structural   Zr8Sc2Sb7Au
_chemical_formula_sum   'Zr8 Sc2 Sb7 Au1'
_cell_volume   398.03388954
_cell_formula_units_Z   1
loop_
 _symmetry_equiv_pos_site_id
 _symmetry_equiv_pos_as_xyz
  1  'x, y, z'
loop_
 _atom_site_type_symbol
 _atom_site_label
 _atom_site_symmetry_multiplicity
 _atom_site_fract_x
 _atom_site_fract_y
 _atom_site_fract_z
 _atom_site_occupancy
  Zr  Zr0  1  0.719588  0.000561  0.749181  1
  Zr  Zr1  1  0.999439  0.280412  0.250819  1
  Zr  Zr2  1  0.332775  0.667225  0.500000  1
  Zr  Zr3  1  0.667225  0.332775  0.500000  1
  Zr  Zr4  1  0.000561  0.719588  0.749181  1
  Zr  Zr5  1  0.332756  0.667244  0.000000  1
  Zr  Zr6  1  0.280412  0.999439  0.250819  1
  Zr  Zr7  1  0.667244  0.332756  0.000000  1
  Sc  Sc8  1  0.279107  0.279107  0.748107  1
  Sc  Sc9  1  0.720893  0.720893  0.251893  1
  Sb  Sb10  1  0.614939  0.614939  0.747508  1
  Sb  Sb11  1  0.384642  0.000545  0.747895  1
  Sb  Sb12  1  0.000000  0.000000  0.000000  1
  Sb  Sb13  1  0.615358  0.999455  0.252105  1
  Sb  Sb14  1  0.385061  0.385061  0.252492  1
  Sb  Sb15  1  0.000545  0.384642  0.747895  1
  Sb  Sb16  1  0.999455  0.615358  0.252105  1
  Au  Au17  1  0.000000  0.000000  0.500000  1
