# generated using pymatgen
data_TbY3Ho4(OsC2)4
_symmetry_space_group_name_H-M   'P 1'
_cell_length_a   5.13438200
_cell_length_b   6.45268437
_cell_length_c   9.77510808
_cell_angle_alpha   90.07464520
_cell_angle_beta   90.00000000
_cell_angle_gamma   90.00000000
_symmetry_Int_Tables_number   1
_chemical_formula_structural   TbY3Ho4(OsC2)4
_chemical_formula_sum   'Tb1 Y3 Ho4 Os4 C8'
_cell_volume   323.85439751
_cell_formula_units_Z   1
loop_
 _symmetry_equiv_pos_site_id
 _symmetry_equiv_pos_as_xyz
  1  'x, y, z'
loop_
 _atom_site_type_symbol
 _atom_site_label
 _atom_site_symmetry_multiplicity
 _atom_site_fract_x
 _atom_site_fract_y
 _atom_site_fract_z
 _atom_site_occupancy
  Tb  Tb0  1  0.250000  0.526148  0.218151  1
  Y  Y1  1  0.750000  0.473308  0.781568  1
  Y  Y2  1  0.750000  0.973348  0.718517  1
  Y  Y3  1  0.250000  0.026480  0.281521  1
  Ho  Ho4  1  0.250000  0.682134  0.552586  1
  Ho  Ho5  1  0.750000  0.317372  0.447336  1
  Ho  Ho6  1  0.750000  0.817604  0.052753  1
  Ho  Ho7  1  0.250000  0.182942  0.947229  1
  Os  Os8  1  0.250000  0.726114  0.865139  1
  Os  Os9  1  0.750000  0.274065  0.134896  1
  Os  Os10  1  0.750000  0.774365  0.365363  1
  Os  Os11  1  0.250000  0.225614  0.634844  1
  C  C12  1  0.250000  0.461539  0.758211  1
  C  C13  1  0.750000  0.538555  0.241916  1
  C  C14  1  0.750000  0.038425  0.258189  1
  C  C15  1  0.250000  0.961416  0.741728  1
  C  C16  1  0.250000  0.827277  0.052574  1
  C  C17  1  0.750000  0.173380  0.947276  1
  C  C18  1  0.750000  0.673465  0.552740  1
  C  C19  1  0.250000  0.326449  0.447462  1
