# generated using pymatgen
data_Lu8Hf12Si15Os
_symmetry_space_group_name_H-M   'P 1'
_cell_length_a   7.24018140
_cell_length_b   7.23690947
_cell_length_c   13.27807620
_cell_angle_alpha   89.85190242
_cell_angle_beta   89.89451558
_cell_angle_gamma   90.03477595
_symmetry_Int_Tables_number   1
_chemical_formula_structural   Lu8Hf12Si15Os
_chemical_formula_sum   'Lu8 Hf12 Si15 Os1'
_cell_volume   695.72158147
_cell_formula_units_Z   1
loop_
 _symmetry_equiv_pos_site_id
 _symmetry_equiv_pos_as_xyz
  1  'x, y, z'
loop_
 _atom_site_type_symbol
 _atom_site_label
 _atom_site_symmetry_multiplicity
 _atom_site_fract_x
 _atom_site_fract_y
 _atom_site_fract_z
 _atom_site_occupancy
  Lu  Lu0  1  0.997669  0.347290  0.215852  1
  Lu  Lu1  1  0.004788  0.654748  0.715204  1
  Lu  Lu2  1  0.157496  0.494692  0.463664  1
  Lu  Lu3  1  0.504802  0.843823  0.033532  1
  Lu  Lu4  1  0.845244  0.503637  0.965596  1
  Lu  Lu5  1  0.495196  0.157836  0.533645  1
  Lu  Lu6  1  0.344656  0.995941  0.784131  1
  Lu  Lu7  1  0.654615  0.003069  0.284454  1
  Hf  Hf8  1  0.176595  0.174173  0.998268  1
  Hf  Hf9  1  0.826136  0.826025  0.500505  1
  Hf  Hf10  1  0.323360  0.665224  0.253017  1
  Hf  Hf11  1  0.675285  0.325033  0.750302  1
  Hf  Hf12  1  0.152392  0.005974  0.373415  1
  Hf  Hf13  1  0.852785  0.002491  0.875691  1
  Hf  Hf14  1  0.502460  0.648962  0.626620  1
  Hf  Hf15  1  0.354082  0.497690  0.872760  1
  Hf  Hf16  1  0.495563  0.347826  0.127807  1
  Hf  Hf17  1  0.642634  0.499245  0.377455  1
  Hf  Hf18  1  0.997767  0.147100  0.625653  1
  Hf  Hf19  1  0.998388  0.850816  0.123742  1
  Si  Si20  1  0.642425  0.705776  0.820034  1
  Si  Si21  1  0.205493  0.858584  0.568743  1
  Si  Si22  1  0.141558  0.795288  0.931262  1
  Si  Si23  1  0.797316  0.141595  0.067550  1
  Si  Si24  1  0.857534  0.200938  0.434315  1
  Si  Si25  1  0.295892  0.358626  0.681970  1
  Si  Si26  1  0.703218  0.642140  0.180664  1
  Si  Si27  1  0.294555  0.043711  0.183021  1
  Si  Si28  1  0.702198  0.951811  0.685733  1
  Si  Si29  1  0.451351  0.800880  0.438643  1
  Si  Si30  1  0.203148  0.550542  0.060912  1
  Si  Si31  1  0.548568  0.201763  0.934979  1
  Si  Si32  1  0.798630  0.452613  0.566095  1
  Si  Si33  1  0.048010  0.298543  0.814449  1
  Si  Si34  1  0.946909  0.707900  0.314055  1
  Os  Os35  1  0.361282  0.297694  0.316260  1
