# generated using pymatgen
data_Sm4DyY3(B6Ru)4
_symmetry_space_group_name_H-M   'P 1'
_cell_length_a   3.70030600
_cell_length_b   9.20282400
_cell_length_c   11.59878900
_cell_angle_alpha   90.00168026
_cell_angle_beta   90.00000000
_cell_angle_gamma   90.00000000
_symmetry_Int_Tables_number   1
_chemical_formula_structural   Sm4DyY3(B6Ru)4
_chemical_formula_sum   'Sm4 Dy1 Y3 B24 Ru4'
_cell_volume   394.97663384
_cell_formula_units_Z   1
loop_
 _symmetry_equiv_pos_site_id
 _symmetry_equiv_pos_as_xyz
  1  'x, y, z'
loop_
 _atom_site_type_symbol
 _atom_site_label
 _atom_site_symmetry_multiplicity
 _atom_site_fract_x
 _atom_site_fract_y
 _atom_site_fract_z
 _atom_site_occupancy
  Sm  Sm0  1  0.000000  0.323237  0.414056  1
  Sm  Sm1  1  0.000000  0.676751  0.585945  1
  Sm  Sm2  1  0.000000  0.823203  0.085913  1
  Sm  Sm3  1  0.000000  0.176801  0.914085  1
  Dy  Dy4  1  0.000000  0.556020  0.871881  1
  Y  Y5  1  0.000000  0.944076  0.372133  1
  Y  Y6  1  0.000000  0.055912  0.627868  1
  Y  Y7  1  0.000000  0.444106  0.127827  1
  B  B8  1  0.500000  0.555311  0.431540  1
  B  B9  1  0.500000  0.444686  0.568485  1
  B  B10  1  0.500000  0.055314  0.068466  1
  B  B11  1  0.500000  0.944687  0.931528  1
  B  B12  1  0.500000  0.748682  0.418590  1
  B  B13  1  0.500000  0.251325  0.581428  1
  B  B14  1  0.500000  0.248698  0.081399  1
  B  B15  1  0.500000  0.751232  0.918526  1
  B  B16  1  0.500000  0.790505  0.266649  1
  B  B17  1  0.500000  0.209510  0.733341  1
  B  B18  1  0.500000  0.290510  0.233340  1
  B  B19  1  0.500000  0.709473  0.766753  1
  B  B20  1  0.500000  0.631690  0.185254  1
  B  B21  1  0.500000  0.368418  0.814712  1
  B  B22  1  0.500000  0.131689  0.314715  1
  B  B23  1  0.500000  0.868288  0.685301  1
  B  B24  1  0.500000  0.985419  0.213285  1
  B  B25  1  0.500000  0.014555  0.786731  1
  B  B26  1  0.500000  0.485428  0.286712  1
  B  B27  1  0.500000  0.514523  0.713372  1
  B  B28  1  0.500000  0.606132  0.029118  1
  B  B29  1  0.500000  0.393884  0.970849  1
  B  B30  1  0.500000  0.106175  0.470858  1
  B  B31  1  0.500000  0.893825  0.529151  1
  Ru  Ru32  1  0.000000  0.638899  0.320435  1
  Ru  Ru33  1  0.000000  0.361197  0.679708  1
  Ru  Ru34  1  0.000000  0.138889  0.179608  1
  Ru  Ru35  1  0.000000  0.860950  0.820439  1
