# generated using pymatgen
data_CaYHo2(SiPd)4
_symmetry_space_group_name_H-M   'P 1'
_cell_length_a   4.34294900
_cell_length_b   7.45573200
_cell_length_c   14.02806500
_cell_angle_alpha   90.00000000
_cell_angle_beta   90.00000000
_cell_angle_gamma   90.00000000
_symmetry_Int_Tables_number   1
_chemical_formula_structural   CaYHo2(SiPd)4
_chemical_formula_sum   'Ca2 Y2 Ho4 Si8 Pd8'
_cell_volume   454.22683455
_cell_formula_units_Z   2
loop_
 _symmetry_equiv_pos_site_id
 _symmetry_equiv_pos_as_xyz
  1  'x, y, z'
loop_
 _atom_site_type_symbol
 _atom_site_label
 _atom_site_symmetry_multiplicity
 _atom_site_fract_x
 _atom_site_fract_y
 _atom_site_fract_z
 _atom_site_occupancy
  Ca  Ca0  1  0.500000  0.709183  0.000000  1
  Ca  Ca1  1  0.000000  0.290817  0.500000  1
  Y  Y2  1  0.500000  0.698735  0.500000  1
  Y  Y3  1  0.000000  0.301265  0.000000  1
  Ho  Ho4  1  0.500000  0.792507  0.749650  1
  Ho  Ho5  1  0.000000  0.207493  0.750350  1
  Ho  Ho6  1  0.500000  0.792507  0.250350  1
  Ho  Ho7  1  0.000000  0.207493  0.249650  1
  Si  Si8  1  0.500000  0.411041  0.650443  1
  Si  Si9  1  0.000000  0.588959  0.849557  1
  Si  Si10  1  0.500000  0.411041  0.349557  1
  Si  Si11  1  0.000000  0.588959  0.150443  1
  Si  Si12  1  0.500000  0.093261  0.093271  1
  Si  Si13  1  0.000000  0.906739  0.406729  1
  Si  Si14  1  0.500000  0.093261  0.906729  1
  Si  Si15  1  0.000000  0.906739  0.593271  1
  Pd  Pd16  1  0.500000  0.076786  0.610660  1
  Pd  Pd17  1  0.000000  0.923214  0.889340  1
  Pd  Pd18  1  0.500000  0.076786  0.389340  1
  Pd  Pd19  1  0.000000  0.923214  0.110660  1
  Pd  Pd20  1  0.500000  0.419020  0.156959  1
  Pd  Pd21  1  0.000000  0.580980  0.343041  1
  Pd  Pd22  1  0.500000  0.419020  0.843041  1
  Pd  Pd23  1  0.000000  0.580980  0.656959  1
