# generated using pymatgen
data_TlPdCl6
_symmetry_space_group_name_H-M   'P 1'
_cell_length_a   6.47048408
_cell_length_b   6.47946335
_cell_length_c   7.21030909
_cell_angle_alpha   64.97635675
_cell_angle_beta   65.37218516
_cell_angle_gamma   62.23981594
_symmetry_Int_Tables_number   1
_chemical_formula_structural   TlPdCl6
_chemical_formula_sum   'Tl1 Pd1 Cl6'
_cell_volume   233.11566301
_cell_formula_units_Z   1
loop_
 _symmetry_equiv_pos_site_id
 _symmetry_equiv_pos_as_xyz
  1  'x, y, z'
loop_
 _atom_site_type_symbol
 _atom_site_label
 _atom_site_symmetry_multiplicity
 _atom_site_fract_x
 _atom_site_fract_y
 _atom_site_fract_z
 _atom_site_occupancy
  Tl  Tl0  1  0.676344  0.676621  0.000791  1
  Pd  Pd1  1  0.334029  0.334019  0.999753  1
  Cl  Cl2  1  0.565020  0.929197  0.245110  1
  Cl  Cl3  1  0.967173  0.264677  0.216932  1
  Cl  Cl4  1  0.278458  0.551706  0.217416  1
  Cl  Cl5  1  0.690664  0.418107  0.782959  1
  Cl  Cl6  1  0.084613  0.720185  0.753959  1
  Cl  Cl7  1  0.403695  0.105489  0.783083  1
