# generated using pymatgen
data_NaLa2Fe3(CoP2)3
_symmetry_space_group_name_H-M   'P 1'
_cell_length_a   8.20057427
_cell_length_b   8.20057416
_cell_length_c   6.28234873
_cell_angle_alpha   68.86511963
_cell_angle_beta   68.86512945
_cell_angle_gamma   37.46673655
_symmetry_Int_Tables_number   1
_chemical_formula_structural   NaLa2Fe3(CoP2)3
_chemical_formula_sum   'Na1 La2 Fe3 Co3 P6'
_cell_volume   237.64157012
_cell_formula_units_Z   1
loop_
 _symmetry_equiv_pos_site_id
 _symmetry_equiv_pos_as_xyz
  1  'x, y, z'
loop_
 _atom_site_type_symbol
 _atom_site_label
 _atom_site_symmetry_multiplicity
 _atom_site_fract_x
 _atom_site_fract_y
 _atom_site_fract_z
 _atom_site_occupancy
  Na  Na0  1  0.000184  0.999816  0.000000  1
  La  La1  1  0.661620  0.660669  0.679157  1
  La  La2  1  0.339331  0.338380  0.320843  1
  Fe  Fe3  1  0.247559  0.752441  0.500000  1
  Fe  Fe4  1  0.584246  0.082135  0.832486  1
  Fe  Fe5  1  0.917865  0.415754  0.167514  1
  Co  Co6  1  0.081596  0.584544  0.833070  1
  Co  Co7  1  0.415456  0.918404  0.166930  1
  Co  Co8  1  0.753169  0.246831  0.500000  1
  P  P9  1  0.881762  0.880135  0.528937  1
  P  P10  1  0.215390  0.216885  0.861575  1
  P  P11  1  0.548962  0.550120  0.199029  1
  P  P12  1  0.449880  0.451038  0.800971  1
  P  P13  1  0.783115  0.784610  0.138425  1
  P  P14  1  0.119865  0.118238  0.471063  1
