# generated using pymatgen
data_CsDy(CO3)2
_symmetry_space_group_name_H-M   'P 1'
_cell_length_a   6.53395399
_cell_length_b   6.53395381
_cell_length_c   7.48998765
_cell_angle_alpha   74.64913744
_cell_angle_beta   74.64913845
_cell_angle_gamma   91.26130561
_symmetry_Int_Tables_number   1
_chemical_formula_structural   CsDy(CO3)2
_chemical_formula_sum   'Cs2 Dy2 C4 O12'
_cell_volume   295.89515739
_cell_formula_units_Z   2
loop_
 _symmetry_equiv_pos_site_id
 _symmetry_equiv_pos_as_xyz
  1  'x, y, z'
loop_
 _atom_site_type_symbol
 _atom_site_label
 _atom_site_symmetry_multiplicity
 _atom_site_fract_x
 _atom_site_fract_y
 _atom_site_fract_z
 _atom_site_occupancy
  Cs  Cs0  1  0.600230  0.399770  0.750000  1
  Cs  Cs1  1  0.399770  0.600230  0.250000  1
  Dy  Dy2  1  0.097876  0.902124  0.750000  1
  Dy  Dy3  1  0.902124  0.097876  0.250000  1
  C  C4  1  0.654321  0.904559  0.733030  1
  C  C5  1  0.345679  0.095441  0.266970  1
  C  C6  1  0.095441  0.345679  0.766970  1
  C  C7  1  0.904559  0.654321  0.233030  1
  O  O8  1  0.454917  0.888776  0.746004  1
  O  O9  1  0.545083  0.111224  0.253996  1
  O  O10  1  0.111224  0.545083  0.753996  1
  O  O11  1  0.888776  0.454917  0.246004  1
  O  O12  1  0.731444  0.788357  0.864986  1
  O  O13  1  0.268556  0.211643  0.135014  1
  O  O14  1  0.211643  0.268556  0.635014  1
  O  O15  1  0.788357  0.731444  0.364986  1
  O  O16  1  0.794861  0.039523  0.587453  1
  O  O17  1  0.205139  0.960477  0.412547  1
  O  O18  1  0.960477  0.205139  0.912547  1
  O  O19  1  0.039523  0.794861  0.087453  1
