# generated using pymatgen
data_La2Tb3Ho3(CdNi)2
_symmetry_space_group_name_H-M   'P 1'
_cell_length_a   9.68145391
_cell_length_b   9.68145392
_cell_length_c   9.68145500
_cell_angle_alpha   59.99999971
_cell_angle_beta   59.99999968
_cell_angle_gamma   59.99999982
_symmetry_Int_Tables_number   1
_chemical_formula_structural   La2Tb3Ho3(CdNi)2
_chemical_formula_sum   'La4 Tb6 Ho6 Cd4 Ni4'
_cell_volume   641.66270146
_cell_formula_units_Z   2
loop_
 _symmetry_equiv_pos_site_id
 _symmetry_equiv_pos_as_xyz
  1  'x, y, z'
loop_
 _atom_site_type_symbol
 _atom_site_label
 _atom_site_symmetry_multiplicity
 _atom_site_fract_x
 _atom_site_fract_y
 _atom_site_fract_z
 _atom_site_occupancy
  La  La0  1  0.350265  0.350265  0.350265  1
  La  La1  1  0.350265  0.350265  0.949205  1
  La  La2  1  0.350265  0.949205  0.350265  1
  La  La3  1  0.949205  0.350265  0.350265  1
  Tb  Tb4  1  0.934330  0.565670  0.565670  1
  Tb  Tb5  1  0.565670  0.934330  0.934330  1
  Tb  Tb6  1  0.565670  0.934330  0.565670  1
  Tb  Tb7  1  0.934330  0.565670  0.934330  1
  Tb  Tb8  1  0.565670  0.565670  0.934330  1
  Tb  Tb9  1  0.934330  0.934330  0.565670  1
  Ho  Ho10  1  0.814801  0.185199  0.185199  1
  Ho  Ho11  1  0.185199  0.814801  0.814801  1
  Ho  Ho12  1  0.185199  0.814801  0.185199  1
  Ho  Ho13  1  0.814801  0.185199  0.814801  1
  Ho  Ho14  1  0.185199  0.185199  0.814801  1
  Ho  Ho15  1  0.814801  0.814801  0.185199  1
  Cd  Cd16  1  0.582187  0.582187  0.582187  1
  Cd  Cd17  1  0.582187  0.582187  0.253439  1
  Cd  Cd18  1  0.582187  0.253439  0.582187  1
  Cd  Cd19  1  0.253439  0.582187  0.582187  1
  Ni  Ni20  1  0.140853  0.140853  0.140853  1
  Ni  Ni21  1  0.140853  0.140853  0.577442  1
  Ni  Ni22  1  0.140853  0.577442  0.140853  1
  Ni  Ni23  1  0.577442  0.140853  0.140853  1
