# generated using pymatgen
data_Dy3YGa5Tc3
_symmetry_space_group_name_H-M   'P 1'
_cell_length_a   5.49281734
_cell_length_b   5.55073859
_cell_length_c   8.70809910
_cell_angle_alpha   89.99999934
_cell_angle_beta   90.06879017
_cell_angle_gamma   120.34944298
_symmetry_Int_Tables_number   1
_chemical_formula_structural   Dy3YGa5Tc3
_chemical_formula_sum   'Dy3 Y1 Ga5 Tc3'
_cell_volume   229.11813492
_cell_formula_units_Z   1
loop_
 _symmetry_equiv_pos_site_id
 _symmetry_equiv_pos_as_xyz
  1  'x, y, z'
loop_
 _atom_site_type_symbol
 _atom_site_label
 _atom_site_symmetry_multiplicity
 _atom_site_fract_x
 _atom_site_fract_y
 _atom_site_fract_z
 _atom_site_occupancy
  Dy  Dy0  1  0.333498  0.666749  0.443467  1
  Dy  Dy1  1  0.662448  0.331223  0.553435  1
  Dy  Dy2  1  0.662386  0.331192  0.946406  1
  Y  Y3  1  0.332437  0.666218  0.057332  1
  Ga  Ga4  1  0.836077  0.162930  0.250111  1
  Ga  Ga5  1  0.836077  0.673147  0.250111  1
  Ga  Ga6  1  0.325951  0.162976  0.250190  1
  Ga  Ga7  1  0.189062  0.841673  0.749813  1
  Ga  Ga8  1  0.189062  0.347389  0.749813  1
  Tc  Tc9  1  0.976289  0.988145  0.510115  1
  Tc  Tc10  1  0.976114  0.988058  0.989483  1
  Tc  Tc11  1  0.680597  0.840298  0.749726  1
