# generated using pymatgen
data_Ce12Al2Co3Si4Os3
_symmetry_space_group_name_H-M   'P 1'
_cell_length_a   7.44183200
_cell_length_b   7.44183238
_cell_length_c   9.68863400
_cell_angle_alpha   90.00000000
_cell_angle_beta   90.00000000
_cell_angle_gamma   119.99999832
_symmetry_Int_Tables_number   1
_chemical_formula_structural   Ce12Al2Co3Si4Os3
_chemical_formula_sum   'Ce12 Al2 Co3 Si4 Os3'
_cell_volume   464.67888062
_cell_formula_units_Z   1
loop_
 _symmetry_equiv_pos_site_id
 _symmetry_equiv_pos_as_xyz
  1  'x, y, z'
loop_
 _atom_site_type_symbol
 _atom_site_label
 _atom_site_symmetry_multiplicity
 _atom_site_fract_x
 _atom_site_fract_y
 _atom_site_fract_z
 _atom_site_occupancy
  Ce  Ce0  1  0.000000  0.601886  0.513876  1
  Ce  Ce1  1  0.601886  0.000000  0.513876  1
  Ce  Ce2  1  0.398114  0.398114  0.513876  1
  Ce  Ce3  1  0.000000  0.406893  0.001612  1
  Ce  Ce4  1  0.406893  0.000000  0.001612  1
  Ce  Ce5  1  0.593107  0.593107  0.001612  1
  Ce  Ce6  1  0.000000  0.726976  0.164073  1
  Ce  Ce7  1  0.726976  0.000000  0.164073  1
  Ce  Ce8  1  0.273024  0.273024  0.164073  1
  Ce  Ce9  1  0.000000  0.268833  0.670457  1
  Ce  Ce10  1  0.268833  0.000000  0.670457  1
  Ce  Ce11  1  0.731167  0.731167  0.670457  1
  Al  Al12  1  0.000000  0.000000  0.413954  1
  Al  Al13  1  0.000000  0.000000  0.909515  1
  Co  Co14  1  0.000000  0.653493  0.835793  1
  Co  Co15  1  0.653493  0.000000  0.835793  1
  Co  Co16  1  0.346507  0.346507  0.835793  1
  Si  Si17  1  0.666667  0.333333  0.284562  1
  Si  Si18  1  0.333333  0.666667  0.284562  1
  Si  Si19  1  0.333333  0.666667  0.784397  1
  Si  Si20  1  0.666667  0.333333  0.784397  1
  Os  Os21  1  0.000000  0.340853  0.336809  1
  Os  Os22  1  0.340853  0.000000  0.336809  1
  Os  Os23  1  0.659147  0.659147  0.336809  1
