# generated using pymatgen
data_Ho7Tm4In9Co4
_symmetry_space_group_name_H-M   'P 1'
_cell_length_a   12.90280905
_cell_length_b   12.90280986
_cell_length_c   3.60854500
_cell_angle_alpha   90.00000000
_cell_angle_beta   90.00000000
_cell_angle_gamma   112.42376868
_symmetry_Int_Tables_number   1
_chemical_formula_structural   Ho7Tm4In9Co4
_chemical_formula_sum   'Ho7 Tm4 In9 Co4'
_cell_volume   555.33485378
_cell_formula_units_Z   1
loop_
 _symmetry_equiv_pos_site_id
 _symmetry_equiv_pos_as_xyz
  1  'x, y, z'
loop_
 _atom_site_type_symbol
 _atom_site_label
 _atom_site_symmetry_multiplicity
 _atom_site_fract_x
 _atom_site_fract_y
 _atom_site_fract_z
 _atom_site_occupancy
  Ho  Ho0  1  0.624650  0.375350  0.000000  1
  Ho  Ho1  1  0.375350  0.624650  0.000000  1
  Ho  Ho2  1  0.838293  0.161707  0.000000  1
  Ho  Ho3  1  0.161707  0.838293  0.000000  1
  Ho  Ho4  1  0.000000  0.000000  0.000000  1
  Ho  Ho5  1  0.313667  0.313667  0.000000  1
  Ho  Ho6  1  0.686333  0.686333  0.000000  1
  Tm  Tm7  1  0.082956  0.417798  0.000000  1
  Tm  Tm8  1  0.917044  0.582202  0.000000  1
  Tm  Tm9  1  0.417798  0.082956  0.000000  1
  Tm  Tm10  1  0.582202  0.917044  0.000000  1
  In  In11  1  0.841877  0.370259  0.500000  1
  In  In12  1  0.158123  0.629741  0.500000  1
  In  In13  1  0.370259  0.841877  0.500000  1
  In  In14  1  0.629741  0.158123  0.500000  1
  In  In15  1  0.077511  0.220902  0.500000  1
  In  In16  1  0.922489  0.779098  0.500000  1
  In  In17  1  0.220902  0.077511  0.500000  1
  In  In18  1  0.779098  0.922489  0.500000  1
  In  In19  1  0.500000  0.500000  0.500000  1
  Co  Co20  1  0.245895  0.448583  0.500000  1
  Co  Co21  1  0.754105  0.551417  0.500000  1
  Co  Co22  1  0.448583  0.245895  0.500000  1
  Co  Co23  1  0.551417  0.754105  0.500000  1
