# generated using pymatgen
data_Rb8Ce(MoO4)6
_symmetry_space_group_name_H-M   'P 1'
_cell_length_a   11.06097547
_cell_length_b   11.06097647
_cell_length_c   8.13007206
_cell_angle_alpha   81.43798404
_cell_angle_beta   81.43798991
_cell_angle_gamma   124.28042506
_symmetry_Int_Tables_number   1
_chemical_formula_structural   Rb8Ce(MoO4)6
_chemical_formula_sum   'Rb8 Ce1 Mo6 O24'
_cell_volume   779.06456307
_cell_formula_units_Z   1
loop_
 _symmetry_equiv_pos_site_id
 _symmetry_equiv_pos_as_xyz
  1  'x, y, z'
loop_
 _atom_site_type_symbol
 _atom_site_label
 _atom_site_symmetry_multiplicity
 _atom_site_fract_x
 _atom_site_fract_y
 _atom_site_fract_z
 _atom_site_occupancy
  Rb  Rb0  1  0.212793  0.212793  0.355656  1
  Rb  Rb1  1  0.787207  0.787207  0.644344  1
  Rb  Rb2  1  0.662769  0.337231  0.500000  1
  Rb  Rb3  1  0.337231  0.662769  0.500000  1
  Rb  Rb4  1  0.865785  0.518105  0.894312  1
  Rb  Rb5  1  0.518105  0.865785  0.894312  1
  Rb  Rb6  1  0.134215  0.481895  0.105688  1
  Rb  Rb7  1  0.481895  0.134215  0.105688  1
  Ce  Ce8  1  0.000000  0.000000  0.000000  1
  Mo  Mo9  1  0.943272  0.261726  0.703927  1
  Mo  Mo10  1  0.261726  0.943272  0.703927  1
  Mo  Mo11  1  0.056728  0.738274  0.296073  1
  Mo  Mo12  1  0.738274  0.056728  0.296073  1
  Mo  Mo13  1  0.393616  0.393616  0.792095  1
  Mo  Mo14  1  0.606384  0.606384  0.207905  1
  O  O15  1  0.927904  0.086476  0.796089  1
  O  O16  1  0.086476  0.927904  0.796089  1
  O  O17  1  0.072096  0.913524  0.203911  1
  O  O18  1  0.913524  0.072096  0.203911  1
  O  O19  1  0.762833  0.227465  0.765022  1
  O  O20  1  0.227465  0.762833  0.765022  1
  O  O21  1  0.237167  0.772535  0.234978  1
  O  O22  1  0.772535  0.237167  0.234978  1
  O  O23  1  0.065158  0.408694  0.792277  1
  O  O24  1  0.408694  0.065158  0.792277  1
  O  O25  1  0.934842  0.591306  0.207723  1
  O  O26  1  0.591306  0.934842  0.207723  1
  O  O27  1  0.022887  0.326052  0.474140  1
  O  O28  1  0.326052  0.022887  0.474140  1
  O  O29  1  0.977113  0.673948  0.525860  1
  O  O30  1  0.673948  0.977113  0.525860  1
  O  O31  1  0.419907  0.567382  0.799548  1
  O  O32  1  0.567382  0.419907  0.799548  1
  O  O33  1  0.580093  0.432618  0.200452  1
  O  O34  1  0.432618  0.580093  0.200452  1
  O  O35  1  0.228398  0.228398  0.975856  1
  O  O36  1  0.771602  0.771602  0.024144  1
  O  O37  1  0.349421  0.349421  0.598605  1
  O  O38  1  0.650579  0.650579  0.401395  1
