# generated using pymatgen
data_LaAg3Pd2
_symmetry_space_group_name_H-M   'P 1'
_cell_length_a   5.52423967
_cell_length_b   5.52424001
_cell_length_c   5.52424068
_cell_angle_alpha   120.80530077
_cell_angle_beta   118.57774352
_cell_angle_gamma   90.54585547
_symmetry_Int_Tables_number   1
_chemical_formula_structural   LaAg3Pd2
_chemical_formula_sum   'La1 Ag3 Pd2'
_cell_volume   119.70126886
_cell_formula_units_Z   1
loop_
 _symmetry_equiv_pos_site_id
 _symmetry_equiv_pos_as_xyz
  1  'x, y, z'
loop_
 _atom_site_type_symbol
 _atom_site_label
 _atom_site_symmetry_multiplicity
 _atom_site_fract_x
 _atom_site_fract_y
 _atom_site_fract_z
 _atom_site_occupancy
  La  La0  1  0.006964  0.006964  0.000000  1
  Ag  Ag1  1  0.621131  0.372488  0.751356  1
  Ag  Ag2  1  0.621131  0.869775  0.248644  1
  Ag  Ag3  1  0.256578  0.756578  0.500000  1
  Pd  Pd4  1  0.621605  0.372098  0.249507  1
  Pd  Pd5  1  0.122590  0.372098  0.750493  1
