# generated using pymatgen
data_Ca3Ho(AgPb)2
_symmetry_space_group_name_H-M   'P 1'
_cell_length_a   7.53517800
_cell_length_b   5.37171400
_cell_length_c   10.73282500
_cell_angle_alpha   90.00023477
_cell_angle_beta   89.99777106
_cell_angle_gamma   89.99996346
_symmetry_Int_Tables_number   1
_chemical_formula_structural   Ca3Ho(AgPb)2
_chemical_formula_sum   'Ca6 Ho2 Ag4 Pb4'
_cell_volume   434.43063785
_cell_formula_units_Z   2
loop_
 _symmetry_equiv_pos_site_id
 _symmetry_equiv_pos_as_xyz
  1  'x, y, z'
loop_
 _atom_site_type_symbol
 _atom_site_label
 _atom_site_symmetry_multiplicity
 _atom_site_fract_x
 _atom_site_fract_y
 _atom_site_fract_z
 _atom_site_occupancy
  Ca  Ca0  1  0.000159  0.249983  0.378105  1
  Ca  Ca1  1  0.500024  0.250006  0.378267  1
  Ca  Ca2  1  0.501913  0.750007  0.625011  1
  Ca  Ca3  1  0.997857  0.749996  0.625117  1
  Ca  Ca4  1  0.499745  0.249989  0.871548  1
  Ca  Ca5  1  0.000073  0.250008  0.871698  1
  Ho  Ho6  1  0.003221  0.750012  0.125007  1
  Ho  Ho7  1  0.496978  0.750039  0.125147  1
  Ag  Ag8  1  0.750008  0.249989  0.125068  1
  Ag  Ag9  1  0.249965  0.749959  0.363583  1
  Ag  Ag10  1  0.749947  0.249999  0.624980  1
  Ag  Ag11  1  0.249970  0.749937  0.886731  1
  Pb  Pb12  1  0.250392  0.250063  0.124913  1
  Pb  Pb13  1  0.750184  0.749994  0.366942  1
  Pb  Pb14  1  0.249789  0.250029  0.624719  1
  Pb  Pb15  1  0.749773  0.749982  0.883164  1
