# generated using pymatgen
data_ScIn(SiTe3)2
_symmetry_space_group_name_H-M   'P 1'
_cell_length_a   7.11052700
_cell_length_b   7.11052624
_cell_length_c   7.63074100
_cell_angle_alpha   90.00000000
_cell_angle_beta   90.00000000
_cell_angle_gamma   119.99998960
_symmetry_Int_Tables_number   1
_chemical_formula_structural   ScIn(SiTe3)2
_chemical_formula_sum   'Sc1 In1 Si2 Te6'
_cell_volume   334.11880803
_cell_formula_units_Z   1
loop_
 _symmetry_equiv_pos_site_id
 _symmetry_equiv_pos_as_xyz
  1  'x, y, z'
loop_
 _atom_site_type_symbol
 _atom_site_label
 _atom_site_symmetry_multiplicity
 _atom_site_fract_x
 _atom_site_fract_y
 _atom_site_fract_z
 _atom_site_occupancy
  Sc  Sc0  1  0.666667  0.333333  0.500000  1
  In  In1  1  0.333333  0.666667  0.500000  1
  Si  Si2  1  0.000000  0.000000  0.348249  1
  Si  Si3  1  0.000000  0.000000  0.651751  1
  Te  Te4  1  0.989517  0.654566  0.250666  1
  Te  Te5  1  0.345434  0.334950  0.250666  1
  Te  Te6  1  0.989517  0.334950  0.749334  1
  Te  Te7  1  0.345434  0.010483  0.749334  1
  Te  Te8  1  0.665050  0.010483  0.250666  1
  Te  Te9  1  0.665050  0.654566  0.749334  1
