# generated using pymatgen
data_Y19Sc(Cd3Fe)2
_symmetry_space_group_name_H-M   'P 1'
_cell_length_a   9.54711500
_cell_length_b   9.54711464
_cell_length_c   9.82107100
_cell_angle_alpha   90.00000000
_cell_angle_beta   90.00000000
_cell_angle_gamma   119.99999777
_symmetry_Int_Tables_number   1
_chemical_formula_structural   Y19Sc(Cd3Fe)2
_chemical_formula_sum   'Y19 Sc1 Cd6 Fe2'
_cell_volume   775.23573531
_cell_formula_units_Z   1
loop_
 _symmetry_equiv_pos_site_id
 _symmetry_equiv_pos_as_xyz
  1  'x, y, z'
loop_
 _atom_site_type_symbol
 _atom_site_label
 _atom_site_symmetry_multiplicity
 _atom_site_fract_x
 _atom_site_fract_y
 _atom_site_fract_z
 _atom_site_occupancy
  Y  Y0  1  0.000000  0.000000  0.000000  1
  Y  Y1  1  0.541539  0.458461  0.250447  1
  Y  Y2  1  0.541539  0.083078  0.250447  1
  Y  Y3  1  0.916922  0.458461  0.250447  1
  Y  Y4  1  0.458461  0.541539  0.749553  1
  Y  Y5  1  0.458461  0.916922  0.749553  1
  Y  Y6  1  0.083078  0.541539  0.749553  1
  Y  Y7  1  0.210136  0.789864  0.435853  1
  Y  Y8  1  0.210136  0.420274  0.435853  1
  Y  Y9  1  0.579726  0.789864  0.435853  1
  Y  Y10  1  0.789864  0.210136  0.564147  1
  Y  Y11  1  0.789864  0.579726  0.564147  1
  Y  Y12  1  0.420274  0.210136  0.564147  1
  Y  Y13  1  0.788250  0.211750  0.936993  1
  Y  Y14  1  0.788250  0.576498  0.936993  1
  Y  Y15  1  0.423502  0.211750  0.936993  1
  Y  Y16  1  0.211750  0.788250  0.063007  1
  Y  Y17  1  0.211750  0.423502  0.063007  1
  Y  Y18  1  0.576498  0.788250  0.063007  1
  Sc  Sc19  1  0.000000  0.000000  0.500000  1
  Cd  Cd20  1  0.887644  0.112356  0.255781  1
  Cd  Cd21  1  0.887644  0.775287  0.255781  1
  Cd  Cd22  1  0.224713  0.112356  0.255781  1
  Cd  Cd23  1  0.112356  0.887644  0.744219  1
  Cd  Cd24  1  0.112356  0.224713  0.744219  1
  Cd  Cd25  1  0.775287  0.887644  0.744219  1
  Fe  Fe26  1  0.333333  0.666667  0.249426  1
  Fe  Fe27  1  0.666667  0.333333  0.750574  1
