# generated using pymatgen
data_Cs5Rb15Si3GeP12
_symmetry_space_group_name_H-M   'P 1'
_cell_length_a   5.50171400
_cell_length_b   14.99491526
_cell_length_c   15.80962169
_cell_angle_alpha   90.28159697
_cell_angle_beta   90.00000000
_cell_angle_gamma   90.00000000
_symmetry_Int_Tables_number   1
_chemical_formula_structural   Cs5Rb15Si3GeP12
_chemical_formula_sum   'Cs5 Rb15 Si3 Ge1 P12'
_cell_volume   1304.24223170
_cell_formula_units_Z   1
loop_
 _symmetry_equiv_pos_site_id
 _symmetry_equiv_pos_as_xyz
  1  'x, y, z'
loop_
 _atom_site_type_symbol
 _atom_site_label
 _atom_site_symmetry_multiplicity
 _atom_site_fract_x
 _atom_site_fract_y
 _atom_site_fract_z
 _atom_site_occupancy
  Cs  Cs0  1  0.250000  0.372024  0.018406  1
  Cs  Cs1  1  0.750000  0.626207  0.978817  1
  Cs  Cs2  1  0.250000  0.127313  0.519930  1
  Cs  Cs3  1  0.750000  0.872213  0.480777  1
  Cs  Cs4  1  0.750000  0.732590  0.230019  1
  Rb  Rb5  1  0.250000  0.270378  0.765722  1
  Rb  Rb6  1  0.750000  0.770914  0.734307  1
  Rb  Rb7  1  0.250000  0.228718  0.265967  1
  Rb  Rb8  1  0.750000  0.057031  0.699072  1
  Rb  Rb9  1  0.250000  0.945403  0.300427  1
  Rb  Rb10  1  0.750000  0.439723  0.198432  1
  Rb  Rb11  1  0.250000  0.556494  0.801814  1
  Rb  Rb12  1  0.750000  0.181596  0.915118  1
  Rb  Rb13  1  0.250000  0.820215  0.081089  1
  Rb  Rb14  1  0.750000  0.317077  0.415498  1
  Rb  Rb15  1  0.250000  0.681255  0.588787  1
  Rb  Rb16  1  0.750000  0.929779  0.931595  1
  Rb  Rb17  1  0.250000  0.073086  0.066832  1
  Rb  Rb18  1  0.750000  0.569810  0.435330  1
  Rb  Rb19  1  0.250000  0.428063  0.568506  1
  Si  Si20  1  0.750000  0.084621  0.215850  1
  Si  Si21  1  0.250000  0.918521  0.782800  1
  Si  Si22  1  0.750000  0.417312  0.717693  1
  Ge  Ge23  1  0.250000  0.580207  0.283952  1
  P  P24  1  0.750000  0.206211  0.136682  1
  P  P25  1  0.250000  0.797082  0.862637  1
  P  P26  1  0.750000  0.295897  0.636738  1
  P  P27  1  0.250000  0.705211  0.369849  1
  P  P28  1  0.750000  0.952102  0.154345  1
  P  P29  1  0.250000  0.051856  0.843364  1
  P  P30  1  0.750000  0.550810  0.658667  1
  P  P31  1  0.250000  0.442668  0.345878  1
  P  P32  1  0.750000  0.092453  0.356384  1
  P  P33  1  0.250000  0.908174  0.642686  1
  P  P34  1  0.750000  0.407380  0.857780  1
  P  P35  1  0.250000  0.589609  0.138248  1
