# generated using pymatgen
data_Y15Mg(ScSn4)4
_symmetry_space_group_name_H-M   'P 1'
_cell_length_a   7.77667626
_cell_length_b   8.15239995
_cell_length_c   15.32822737
_cell_angle_alpha   90.13461207
_cell_angle_beta   90.03121387
_cell_angle_gamma   90.03090641
_symmetry_Int_Tables_number   1
_chemical_formula_structural   Y15Mg(ScSn4)4
_chemical_formula_sum   'Y15 Mg1 Sc4 Sn16'
_cell_volume   971.78480636
_cell_formula_units_Z   1
loop_
 _symmetry_equiv_pos_site_id
 _symmetry_equiv_pos_as_xyz
  1  'x, y, z'
loop_
 _atom_site_type_symbol
 _atom_site_label
 _atom_site_symmetry_multiplicity
 _atom_site_fract_x
 _atom_site_fract_y
 _atom_site_fract_z
 _atom_site_occupancy
  Y  Y0  1  0.836492  0.663153  0.628671  1
  Y  Y1  1  0.654864  0.164065  0.372926  1
  Y  Y2  1  0.165041  0.332652  0.124274  1
  Y  Y3  1  0.654211  0.162446  0.125883  1
  Y  Y4  1  0.164537  0.332668  0.372312  1
  Y  Y5  1  0.340450  0.833741  0.629007  1
  Y  Y6  1  0.838241  0.660383  0.874656  1
  Y  Y7  1  0.505684  0.320288  0.905906  1
  Y  Y8  1  0.007556  0.178246  0.596293  1
  Y  Y9  1  0.494496  0.684589  0.407801  1
  Y  Y10  1  0.994483  0.820561  0.092498  1
  Y  Y11  1  0.492708  0.685386  0.090692  1
  Y  Y12  1  0.996012  0.821791  0.407140  1
  Y  Y13  1  0.505141  0.319784  0.595952  1
  Y  Y14  1  0.006456  0.180076  0.904654  1
  Mg  Mg15  1  0.329866  0.993969  0.249391  1
  Sc  Sc16  1  0.338836  0.836011  0.869221  1
  Sc  Sc17  1  0.169253  0.497634  0.751229  1
  Sc  Sc18  1  0.668589  0.998993  0.751427  1
  Sc  Sc19  1  0.835364  0.501081  0.249802  1
  Sn  Sn20  1  0.311980  0.035139  0.032462  1
  Sn  Sn21  1  0.817630  0.464335  0.456754  1
  Sn  Sn22  1  0.685608  0.963288  0.542956  1
  Sn  Sn23  1  0.190789  0.544937  0.955702  1
  Sn  Sn24  1  0.675111  0.961572  0.955153  1
  Sn  Sn25  1  0.182533  0.535175  0.543152  1
  Sn  Sn26  1  0.312839  0.039845  0.462848  1
  Sn  Sn27  1  0.816413  0.463541  0.044288  1
  Sn  Sn28  1  0.524402  0.611046  0.753803  1
  Sn  Sn29  1  0.030836  0.887371  0.753614  1
  Sn  Sn30  1  0.475994  0.407541  0.249311  1
  Sn  Sn31  1  0.967315  0.109920  0.248924  1
  Sn  Sn32  1  0.312807  0.152784  0.751672  1
  Sn  Sn33  1  0.811467  0.342443  0.750545  1
  Sn  Sn34  1  0.699245  0.842103  0.249694  1
  Sn  Sn35  1  0.186755  0.651443  0.249386  1
