# generated using pymatgen
data_Dy3Y3Co17P12Os
_symmetry_space_group_name_H-M   'P 1'
_cell_length_a   3.70241300
_cell_length_b   10.50260604
_cell_length_c   12.21365804
_cell_angle_alpha   90.00967079
_cell_angle_beta   90.00000000
_cell_angle_gamma   90.00000000
_symmetry_Int_Tables_number   1
_chemical_formula_structural   Dy3Y3Co17P12Os
_chemical_formula_sum   'Dy3 Y3 Co17 P12 Os1'
_cell_volume   474.92790460
_cell_formula_units_Z   1
loop_
 _symmetry_equiv_pos_site_id
 _symmetry_equiv_pos_as_xyz
  1  'x, y, z'
loop_
 _atom_site_type_symbol
 _atom_site_label
 _atom_site_symmetry_multiplicity
 _atom_site_fract_x
 _atom_site_fract_y
 _atom_site_fract_z
 _atom_site_occupancy
  Dy  Dy0  1  0.500000  0.817322  0.206951  1
  Dy  Dy1  1  0.500000  0.182697  0.206892  1
  Dy  Dy2  1  0.000000  0.683276  0.794092  1
  Y  Y3  1  0.000000  0.499999  0.524253  1
  Y  Y4  1  0.500000  0.000032  0.478551  1
  Y  Y5  1  0.000000  0.316621  0.794134  1
  Co  Co6  1  0.000000  0.999962  0.840436  1
  Co  Co7  1  0.500000  0.500231  0.703791  1
  Co  Co8  1  0.000000  0.000006  0.295330  1
  Co  Co9  1  0.000000  0.500016  0.988088  1
  Co  Co10  1  0.500000  0.999987  0.014530  1
  Co  Co11  1  0.500000  0.332798  0.991419  1
  Co  Co12  1  0.500000  0.667213  0.991358  1
  Co  Co13  1  0.000000  0.166826  0.005983  1
  Co  Co14  1  0.000000  0.833160  0.005921  1
  Co  Co15  1  0.500000  0.297409  0.429921  1
  Co  Co16  1  0.500000  0.702587  0.429941  1
  Co  Co17  1  0.000000  0.203120  0.568700  1
  Co  Co18  1  0.000000  0.796820  0.568786  1
  Co  Co19  1  0.500000  0.879280  0.709551  1
  Co  Co20  1  0.500000  0.120598  0.709480  1
  Co  Co21  1  0.000000  0.620144  0.290616  1
  Co  Co22  1  0.000000  0.379852  0.290615  1
  P  P23  1  0.500000  0.500166  0.881188  1
  P  P24  1  0.000000  0.000009  0.116954  1
  P  P25  1  0.500000  0.500013  0.350070  1
  P  P26  1  0.000000  0.999976  0.656337  1
  P  P27  1  0.500000  0.310739  0.616192  1
  P  P28  1  0.500000  0.689336  0.616339  1
  P  P29  1  0.000000  0.188548  0.384045  1
  P  P30  1  0.000000  0.811455  0.384058  1
  P  P31  1  0.500000  0.849325  0.892463  1
  P  P32  1  0.500000  0.150473  0.892539  1
  P  P33  1  0.000000  0.655349  0.105923  1
  P  P34  1  0.000000  0.344659  0.105914  1
  Os  Os35  1  0.500000  0.499994  0.158636  1
