# generated using pymatgen
data_Tb2Ho4GaNiOs
_symmetry_space_group_name_H-M   'P 1'
_cell_length_a   8.34222420
_cell_length_b   8.34222391
_cell_length_c   8.34222362
_cell_angle_alpha   113.16203036
_cell_angle_beta   110.20532770
_cell_angle_gamma   105.14612930
_symmetry_Int_Tables_number   1
_chemical_formula_structural   Tb2Ho4GaNiOs
_chemical_formula_sum   'Tb4 Ho8 Ga2 Ni2 Os2'
_cell_volume   444.70094596
_cell_formula_units_Z   2
loop_
 _symmetry_equiv_pos_site_id
 _symmetry_equiv_pos_as_xyz
  1  'x, y, z'
loop_
 _atom_site_type_symbol
 _atom_site_label
 _atom_site_symmetry_multiplicity
 _atom_site_fract_x
 _atom_site_fract_y
 _atom_site_fract_z
 _atom_site_occupancy
  Tb  Tb0  1  0.435392  0.242148  0.193245  1
  Tb  Tb1  1  0.564608  0.757852  0.806755  1
  Tb  Tb2  1  0.048903  0.242148  0.806755  1
  Tb  Tb3  1  0.951097  0.757852  0.193245  1
  Ho  Ho4  1  0.180175  0.278466  0.458640  1
  Ho  Ho5  1  0.819825  0.721534  0.541360  1
  Ho  Ho6  1  0.180175  0.721534  0.901708  1
  Ho  Ho7  1  0.819825  0.278466  0.098292  1
  Ho  Ho8  1  0.330750  0.643217  0.312467  1
  Ho  Ho9  1  0.669250  0.356783  0.687533  1
  Ho  Ho10  1  0.330750  0.018282  0.687533  1
  Ho  Ho11  1  0.669250  0.981718  0.312467  1
  Ga  Ga12  1  0.500000  0.500000  0.000000  1
  Ga  Ga13  1  0.000000  0.000000  0.000000  1
  Ni  Ni14  1  0.116554  0.616554  0.500000  1
  Ni  Ni15  1  0.883446  0.383446  0.500000  1
  Os  Os16  1  0.329996  0.000000  0.329996  1
  Os  Os17  1  0.670004  0.000000  0.670004  1
