# generated using pymatgen
data_Y8ReTcBr8
_symmetry_space_group_name_H-M   'P 1'
_cell_length_a   9.01490350
_cell_length_b   9.01490224
_cell_length_c   6.64212797
_cell_angle_alpha   89.41572909
_cell_angle_beta   89.41572735
_cell_angle_gamma   89.32781544
_symmetry_Int_Tables_number   1
_chemical_formula_structural   Y8ReTcBr8
_chemical_formula_sum   'Y8 Re1 Tc1 Br8'
_cell_volume   539.70297687
_cell_formula_units_Z   1
loop_
 _symmetry_equiv_pos_site_id
 _symmetry_equiv_pos_as_xyz
  1  'x, y, z'
loop_
 _atom_site_type_symbol
 _atom_site_label
 _atom_site_symmetry_multiplicity
 _atom_site_fract_x
 _atom_site_fract_y
 _atom_site_fract_z
 _atom_site_occupancy
  Y  Y0  1  0.750996  0.099090  0.987541  1
  Y  Y1  1  0.099452  0.750526  0.488977  1
  Y  Y2  1  0.097265  0.247988  0.991017  1
  Y  Y3  1  0.248273  0.097519  0.492472  1
  Y  Y4  1  0.902481  0.751727  0.007528  1
  Y  Y5  1  0.900910  0.249004  0.512459  1
  Y  Y6  1  0.249474  0.900548  0.011023  1
  Y  Y7  1  0.752012  0.902735  0.508983  1
  Re  Re8  1  0.005604  0.994396  0.750000  1
  Tc  Tc9  1  0.994226  0.005774  0.250000  1
  Br  Br10  1  0.580252  0.182942  0.591158  1
  Br  Br11  1  0.810506  0.585345  0.406875  1
  Br  Br12  1  0.414655  0.189494  0.093125  1
  Br  Br13  1  0.189670  0.415147  0.593394  1
  Br  Br14  1  0.584853  0.810330  0.906606  1
  Br  Br15  1  0.419360  0.817051  0.409132  1
  Br  Br16  1  0.182949  0.580640  0.090868  1
  Br  Br17  1  0.817058  0.419748  0.908842  1
