# generated using pymatgen
data_Er5NiRhO12
_symmetry_space_group_name_H-M   'P 1'
_cell_length_a   6.75333093
_cell_length_b   6.75333060
_cell_length_c   7.14044065
_cell_angle_alpha   74.50708519
_cell_angle_beta   74.50709321
_cell_angle_gamma   50.86131734
_symmetry_Int_Tables_number   1
_chemical_formula_structural   Er5NiRhO12
_chemical_formula_sum   'Er5 Ni1 Rh1 O12'
_cell_volume   241.28500742
_cell_formula_units_Z   1
loop_
 _symmetry_equiv_pos_site_id
 _symmetry_equiv_pos_as_xyz
  1  'x, y, z'
loop_
 _atom_site_type_symbol
 _atom_site_label
 _atom_site_symmetry_multiplicity
 _atom_site_fract_x
 _atom_site_fract_y
 _atom_site_fract_z
 _atom_site_occupancy
  Er  Er0  1  0.293035  0.312037  0.358364  1
  Er  Er1  1  0.687963  0.706965  0.641636  1
  Er  Er2  1  0.305533  0.311407  0.832582  1
  Er  Er3  1  0.688593  0.694467  0.167418  1
  Er  Er4  1  0.003337  0.996663  0.500000  1
  Ni  Ni5  1  0.254030  0.745970  0.000000  1
  Rh  Rh6  1  0.762346  0.237654  0.000000  1
  O  O7  1  0.903222  0.427637  0.916743  1
  O  O8  1  0.423525  0.902085  0.917825  1
  O  O9  1  0.097915  0.576475  0.082175  1
  O  O10  1  0.572363  0.096778  0.083257  1
  O  O11  1  0.093096  0.599241  0.575231  1
  O  O12  1  0.598623  0.101826  0.573122  1
  O  O13  1  0.898174  0.401377  0.426878  1
  O  O14  1  0.400759  0.906904  0.424769  1
  O  O15  1  0.017825  0.982450  0.821244  1
  O  O16  1  0.017550  0.982175  0.178756  1
  O  O17  1  0.491569  0.509460  0.816900  1
  O  O18  1  0.490540  0.508431  0.183100  1
