# generated using pymatgen
data_LaPr2SiI3
_symmetry_space_group_name_H-M   'P 1'
_cell_length_a   10.97094165
_cell_length_b   10.97094211
_cell_length_c   10.97094139
_cell_angle_alpha   109.44238974
_cell_angle_beta   109.44238972
_cell_angle_gamma   109.52889357
_symmetry_Int_Tables_number   1
_chemical_formula_structural   LaPr2SiI3
_chemical_formula_sum   'La4 Pr8 Si4 I12'
_cell_volume   1016.50501503
_cell_formula_units_Z   4
loop_
 _symmetry_equiv_pos_site_id
 _symmetry_equiv_pos_as_xyz
  1  'x, y, z'
loop_
 _atom_site_type_symbol
 _atom_site_label
 _atom_site_symmetry_multiplicity
 _atom_site_fract_x
 _atom_site_fract_y
 _atom_site_fract_z
 _atom_site_occupancy
  La  La0  1  0.483849  0.233849  0.467698  1
  La  La1  1  0.016151  0.483849  0.750000  1
  La  La2  1  0.266151  0.016151  0.032302  1
  La  La3  1  0.233849  0.266151  0.750000  1
  Pr  Pr4  1  0.464540  0.483825  0.233800  1
  Pr  Pr5  1  0.750025  0.230740  0.266200  1
  Pr  Pr6  1  0.749975  0.016175  0.480715  1
  Pr  Pr7  1  0.230740  0.464540  0.480715  1
  Pr  Pr8  1  0.269260  0.749975  0.233800  1
  Pr  Pr9  1  0.035460  0.269260  0.019285  1
  Pr  Pr10  1  0.016175  0.035460  0.266200  1
  Pr  Pr11  1  0.483825  0.750025  0.019285  1
  Si  Si12  1  0.249796  0.250204  0.250000  1
  Si  Si13  1  0.500204  0.999796  0.250000  1
  Si  Si14  1  0.999796  0.249796  0.499592  1
  Si  Si15  1  0.250204  0.500204  0.000408  1
  I  I16  1  0.253637  0.757525  0.742705  1
  I  I17  1  0.514819  0.510932  0.757295  1
  I  I18  1  0.985181  0.742475  0.996112  1
  I  I19  1  0.742475  0.246363  0.757295  1
  I  I20  1  0.989068  0.985181  0.742705  1
  I  I21  1  0.246363  0.989068  0.503888  1
  I  I22  1  0.757525  0.514819  0.503888  1
  I  I23  1  0.510932  0.253637  0.996112  1
  I  I24  1  0.756421  0.743579  0.250000  1
  I  I25  1  0.743579  0.993579  0.987158  1
  I  I26  1  0.993579  0.506421  0.250000  1
  I  I27  1  0.506421  0.756421  0.512842  1
