# generated using pymatgen
data_Tb4Ho2TcNiSn
_symmetry_space_group_name_H-M   'P 1'
_cell_length_a   8.47731529
_cell_length_b   8.47731593
_cell_length_c   8.47731604
_cell_angle_alpha   113.50131731
_cell_angle_beta   110.57997949
_cell_angle_gamma   104.46067714
_symmetry_Int_Tables_number   1
_chemical_formula_structural   Tb4Ho2TcNiSn
_chemical_formula_sum   'Tb8 Ho4 Tc2 Ni2 Sn2'
_cell_volume   465.98662505
_cell_formula_units_Z   2
loop_
 _symmetry_equiv_pos_site_id
 _symmetry_equiv_pos_as_xyz
  1  'x, y, z'
loop_
 _atom_site_type_symbol
 _atom_site_label
 _atom_site_symmetry_multiplicity
 _atom_site_fract_x
 _atom_site_fract_y
 _atom_site_fract_z
 _atom_site_occupancy
  Tb  Tb0  1  0.441048  0.240412  0.200635  1
  Tb  Tb1  1  0.558952  0.759588  0.799365  1
  Tb  Tb2  1  0.039775  0.240412  0.799365  1
  Tb  Tb3  1  0.960225  0.759588  0.200635  1
  Tb  Tb4  1  0.183366  0.284781  0.468148  1
  Tb  Tb5  1  0.816634  0.715219  0.531852  1
  Tb  Tb6  1  0.183366  0.715219  0.898586  1
  Tb  Tb7  1  0.816634  0.284781  0.101414  1
  Ho  Ho8  1  0.331933  0.648450  0.316516  1
  Ho  Ho9  1  0.668067  0.351550  0.683484  1
  Ho  Ho10  1  0.331933  0.015417  0.683484  1
  Ho  Ho11  1  0.668067  0.984583  0.316516  1
  Tc  Tc12  1  0.326263  0.000000  0.326263  1
  Tc  Tc13  1  0.673737  0.000000  0.673737  1
  Ni  Ni14  1  0.117448  0.617448  0.500000  1
  Ni  Ni15  1  0.882552  0.382552  0.500000  1
  Sn  Sn16  1  0.500000  0.500000  0.000000  1
  Sn  Sn17  1  0.000000  0.000000  0.000000  1
