# generated using pymatgen
data_Dy4Tm(SiHg)2
_symmetry_space_group_name_H-M   'P 1'
_cell_length_a   8.77494036
_cell_length_b   8.77494066
_cell_length_c   7.53102100
_cell_angle_alpha   90.00000000
_cell_angle_beta   90.00000000
_cell_angle_gamma   129.29459402
_symmetry_Int_Tables_number   1
_chemical_formula_structural   Dy4Tm(SiHg)2
_chemical_formula_sum   'Dy8 Tm2 Si4 Hg4'
_cell_volume   448.77333918
_cell_formula_units_Z   2
loop_
 _symmetry_equiv_pos_site_id
 _symmetry_equiv_pos_as_xyz
  1  'x, y, z'
loop_
 _atom_site_type_symbol
 _atom_site_label
 _atom_site_symmetry_multiplicity
 _atom_site_fract_x
 _atom_site_fract_y
 _atom_site_fract_z
 _atom_site_occupancy
  Dy  Dy0  1  0.054066  0.308698  0.324007  1
  Dy  Dy1  1  0.945934  0.691302  0.675993  1
  Dy  Dy2  1  0.445934  0.191302  0.824007  1
  Dy  Dy3  1  0.808698  0.554066  0.175993  1
  Dy  Dy4  1  0.554066  0.808698  0.175993  1
  Dy  Dy5  1  0.191302  0.445934  0.824007  1
  Dy  Dy6  1  0.691302  0.945934  0.675993  1
  Dy  Dy7  1  0.308698  0.054066  0.324007  1
  Tm  Tm8  1  0.000000  0.000000  0.000000  1
  Tm  Tm9  1  0.500000  0.500000  0.500000  1
  Si  Si10  1  0.380333  0.380333  0.122225  1
  Si  Si11  1  0.619667  0.619667  0.877775  1
  Si  Si12  1  0.119667  0.119667  0.622225  1
  Si  Si13  1  0.880333  0.880333  0.377775  1
  Hg  Hg14  1  0.782308  0.217692  0.000000  1
  Hg  Hg15  1  0.217692  0.782308  0.000000  1
  Hg  Hg16  1  0.717692  0.282308  0.500000  1
  Hg  Hg17  1  0.282308  0.717692  0.500000  1
