# generated using pymatgen
data_MgAl11(IrRh)6
_symmetry_space_group_name_H-M   'P 1'
_cell_length_a   4.28724100
_cell_length_b   5.98476900
_cell_length_c   12.85527200
_cell_angle_alpha   90.00000446
_cell_angle_beta   89.99975493
_cell_angle_gamma   89.99997706
_symmetry_Int_Tables_number   1
_chemical_formula_structural   MgAl11(IrRh)6
_chemical_formula_sum   'Mg1 Al11 Ir6 Rh6'
_cell_volume   329.84245912
_cell_formula_units_Z   1
loop_
 _symmetry_equiv_pos_site_id
 _symmetry_equiv_pos_as_xyz
  1  'x, y, z'
loop_
 _atom_site_type_symbol
 _atom_site_label
 _atom_site_symmetry_multiplicity
 _atom_site_fract_x
 _atom_site_fract_y
 _atom_site_fract_z
 _atom_site_occupancy
  Mg  Mg0  1  0.500000  0.249753  0.000001  1
  Al  Al1  1  0.500000  0.750603  0.000000  1
  Al  Al2  1  0.000090  0.250053  0.164588  1
  Al  Al3  1  0.000086  0.750097  0.166703  1
  Al  Al4  1  0.500075  0.250056  0.333316  1
  Al  Al5  1  0.500074  0.749577  0.333747  1
  Al  Al6  1  0.000000  0.249845  0.500000  1
  Al  Al7  1  0.000000  0.750036  0.500000  1
  Al  Al8  1  0.499925  0.250055  0.666683  1
  Al  Al9  1  0.499926  0.749577  0.666253  1
  Al  Al10  1  0.999909  0.250052  0.835412  1
  Al  Al11  1  0.999917  0.750096  0.833297  1
  Ir  Ir12  1  0.000000  0.508627  0.000000  1
  Ir  Ir13  1  0.500078  0.996487  0.170826  1
  Ir  Ir14  1  0.000072  0.499491  0.334182  1
  Ir  Ir15  1  0.500000  0.000002  0.499999  1
  Ir  Ir16  1  0.999928  0.499490  0.665818  1
  Ir  Ir17  1  0.499923  0.996485  0.829175  1
  Rh  Rh18  1  0.000001  0.995358  0.000000  1
  Rh  Rh19  1  0.500080  0.501882  0.170252  1
  Rh  Rh20  1  0.000062  0.000293  0.334441  1
  Rh  Rh21  1  0.500000  0.499912  0.500000  1
  Rh  Rh22  1  0.999938  0.000292  0.665559  1
  Rh  Rh23  1  0.499921  0.501879  0.829749  1
