# generated using pymatgen
data_Ca20Al3Zn8Bi
_symmetry_space_group_name_H-M   'P 1'
_cell_length_a   8.05247600
_cell_length_b   8.05247600
_cell_length_c   15.13583700
_cell_angle_alpha   90.00000000
_cell_angle_beta   90.00000000
_cell_angle_gamma   90.00000000
_symmetry_Int_Tables_number   1
_chemical_formula_structural   Ca20Al3Zn8Bi
_chemical_formula_sum   'Ca20 Al3 Zn8 Bi1'
_cell_volume   981.44353894
_cell_formula_units_Z   1
loop_
 _symmetry_equiv_pos_site_id
 _symmetry_equiv_pos_as_xyz
  1  'x, y, z'
loop_
 _atom_site_type_symbol
 _atom_site_label
 _atom_site_symmetry_multiplicity
 _atom_site_fract_x
 _atom_site_fract_y
 _atom_site_fract_z
 _atom_site_occupancy
  Ca  Ca0  1  0.666721  0.174028  0.103467  1
  Ca  Ca1  1  0.173311  0.671355  0.603765  1
  Ca  Ca2  1  0.333279  0.825972  0.103467  1
  Ca  Ca3  1  0.826689  0.328645  0.603765  1
  Ca  Ca4  1  0.825972  0.666721  0.103467  1
  Ca  Ca5  1  0.328645  0.173311  0.603765  1
  Ca  Ca6  1  0.174028  0.333279  0.103467  1
  Ca  Ca7  1  0.671355  0.826689  0.603765  1
  Ca  Ca8  1  0.825972  0.333279  0.896533  1
  Ca  Ca9  1  0.328645  0.826689  0.396235  1
  Ca  Ca10  1  0.174028  0.666721  0.896533  1
  Ca  Ca11  1  0.671355  0.173311  0.396235  1
  Ca  Ca12  1  0.666721  0.825972  0.896533  1
  Ca  Ca13  1  0.173311  0.328645  0.396235  1
  Ca  Ca14  1  0.333279  0.174028  0.896533  1
  Ca  Ca15  1  0.826689  0.671355  0.396235  1
  Ca  Ca16  1  0.500000  0.500000  0.750611  1
  Ca  Ca17  1  0.000000  0.000000  0.251870  1
  Ca  Ca18  1  0.000000  0.000000  0.748130  1
  Ca  Ca19  1  0.500000  0.500000  0.249389  1
  Al  Al20  1  0.500000  0.500000  0.500000  1
  Al  Al21  1  0.500000  0.500000  0.000000  1
  Al  Al22  1  0.000000  0.000000  0.500000  1
  Zn  Zn23  1  0.615438  0.113633  0.751126  1
  Zn  Zn24  1  0.113633  0.615438  0.248874  1
  Zn  Zn25  1  0.886367  0.384562  0.248874  1
  Zn  Zn26  1  0.384562  0.886367  0.751126  1
  Zn  Zn27  1  0.886367  0.615438  0.751126  1
  Zn  Zn28  1  0.384562  0.113633  0.248874  1
  Zn  Zn29  1  0.113633  0.384562  0.751126  1
  Zn  Zn30  1  0.615438  0.886367  0.248874  1
  Bi  Bi31  1  0.000000  0.000000  0.000000  1
