# generated using pymatgen
data_Dy5Y2Th(ReB6)4
_symmetry_space_group_name_H-M   'P 1'
_cell_length_a   3.71349900
_cell_length_b   9.20849045
_cell_length_c   11.60630402
_cell_angle_alpha   90.03516802
_cell_angle_beta   90.00000000
_cell_angle_gamma   90.00000000
_symmetry_Int_Tables_number   1
_chemical_formula_structural   Dy5Y2Th(ReB6)4
_chemical_formula_sum   'Dy5 Y2 Th1 Re4 B24'
_cell_volume   396.88584845
_cell_formula_units_Z   1
loop_
 _symmetry_equiv_pos_site_id
 _symmetry_equiv_pos_as_xyz
  1  'x, y, z'
loop_
 _atom_site_type_symbol
 _atom_site_label
 _atom_site_symmetry_multiplicity
 _atom_site_fract_x
 _atom_site_fract_y
 _atom_site_fract_z
 _atom_site_occupancy
  Dy  Dy0  1  0.000000  0.176103  0.914051  1
  Dy  Dy1  1  0.000000  0.941547  0.369340  1
  Dy  Dy2  1  0.000000  0.056541  0.631412  1
  Dy  Dy3  1  0.000000  0.443016  0.128392  1
  Dy  Dy4  1  0.000000  0.557801  0.870477  1
  Y  Y5  1  0.000000  0.677943  0.587143  1
  Y  Y6  1  0.000000  0.823129  0.085042  1
  Th  Th7  1  0.000000  0.322258  0.414126  1
  Re  Re8  1  0.000000  0.638521  0.320561  1
  Re  Re9  1  0.000000  0.362159  0.680215  1
  Re  Re10  1  0.000000  0.138050  0.178301  1
  Re  Re11  1  0.000000  0.862030  0.821035  1
  B  B12  1  0.500000  0.555361  0.432066  1
  B  B13  1  0.500000  0.447059  0.569573  1
  B  B14  1  0.500000  0.052992  0.066431  1
  B  B15  1  0.500000  0.946846  0.932754  1
  B  B16  1  0.500000  0.749471  0.417835  1
  B  B17  1  0.500000  0.251544  0.585237  1
  B  B18  1  0.500000  0.248133  0.080443  1
  B  B19  1  0.500000  0.751452  0.918123  1
  B  B20  1  0.500000  0.791350  0.265120  1
  B  B21  1  0.500000  0.208855  0.736100  1
  B  B22  1  0.500000  0.289745  0.232147  1
  B  B23  1  0.500000  0.708841  0.765879  1
  B  B24  1  0.500000  0.631515  0.184723  1
  B  B25  1  0.500000  0.369918  0.815095  1
  B  B26  1  0.500000  0.128990  0.312104  1
  B  B27  1  0.500000  0.869379  0.686388  1
  B  B28  1  0.500000  0.982028  0.210886  1
  B  B29  1  0.500000  0.017249  0.788725  1
  B  B30  1  0.500000  0.485249  0.286367  1
  B  B31  1  0.500000  0.518105  0.713468  1
  B  B32  1  0.500000  0.601293  0.027793  1
  B  B33  1  0.500000  0.399304  0.971394  1
  B  B34  1  0.500000  0.097244  0.472783  1
  B  B35  1  0.500000  0.898982  0.528467  1
