# generated using pymatgen
data_Ti3Nb3Pt2
_symmetry_space_group_name_H-M   'P 1'
_cell_length_a   5.12328112
_cell_length_b   5.12328107
_cell_length_c   5.12328014
_cell_angle_alpha   89.86888240
_cell_angle_beta   89.86888400
_cell_angle_gamma   89.86889597
_symmetry_Int_Tables_number   1
_chemical_formula_structural   Ti3Nb3Pt2
_chemical_formula_sum   'Ti3 Nb3 Pt2'
_cell_volume   134.47484931
_cell_formula_units_Z   1
loop_
 _symmetry_equiv_pos_site_id
 _symmetry_equiv_pos_as_xyz
  1  'x, y, z'
loop_
 _atom_site_type_symbol
 _atom_site_label
 _atom_site_symmetry_multiplicity
 _atom_site_fract_x
 _atom_site_fract_y
 _atom_site_fract_z
 _atom_site_occupancy
  Ti  Ti0  1  0.000000  0.752631  0.247369  1
  Ti  Ti1  1  0.752631  0.247369  0.000000  1
  Ti  Ti2  1  0.247369  0.000000  0.752631  1
  Nb  Nb3  1  0.500000  0.752143  0.247857  1
  Nb  Nb4  1  0.752143  0.247857  0.500000  1
  Nb  Nb5  1  0.247857  0.500000  0.752143  1
  Pt  Pt6  1  0.247615  0.247615  0.247615  1
  Pt  Pt7  1  0.752385  0.752385  0.752385  1
