# generated using pymatgen
data_Li(Pt3O4)4
_symmetry_space_group_name_H-M   'P 1'
_cell_length_a   8.03493627
_cell_length_b   8.03493694
_cell_length_c   8.03493700
_cell_angle_alpha   60.00000385
_cell_angle_beta   60.00000109
_cell_angle_gamma   60.00000587
_symmetry_Int_Tables_number   1
_chemical_formula_structural   Li(Pt3O4)4
_chemical_formula_sum   'Li1 Pt12 O16'
_cell_volume   366.80261419
_cell_formula_units_Z   1
loop_
 _symmetry_equiv_pos_site_id
 _symmetry_equiv_pos_as_xyz
  1  'x, y, z'
loop_
 _atom_site_type_symbol
 _atom_site_label
 _atom_site_symmetry_multiplicity
 _atom_site_fract_x
 _atom_site_fract_y
 _atom_site_fract_z
 _atom_site_occupancy
  Li  Li0  1  0.000000  0.000000  0.000000  1
  Pt  Pt1  1  0.376127  0.874918  0.125082  1
  Pt  Pt2  1  0.623873  0.125082  0.874918  1
  Pt  Pt3  1  0.623873  0.874918  0.376127  1
  Pt  Pt4  1  0.125082  0.874918  0.623873  1
  Pt  Pt5  1  0.623873  0.376127  0.125082  1
  Pt  Pt6  1  0.376127  0.125082  0.623873  1
  Pt  Pt7  1  0.874918  0.376127  0.623873  1
  Pt  Pt8  1  0.125082  0.623873  0.376127  1
  Pt  Pt9  1  0.125082  0.376127  0.874918  1
  Pt  Pt10  1  0.376127  0.623873  0.874918  1
  Pt  Pt11  1  0.874918  0.125082  0.376127  1
  Pt  Pt12  1  0.874918  0.623873  0.125082  1
  O  O13  1  0.648324  0.117225  0.117225  1
  O  O14  1  0.371643  0.885072  0.371643  1
  O  O15  1  0.117225  0.117225  0.648324  1
  O  O16  1  0.882775  0.882775  0.882775  1
  O  O17  1  0.628357  0.628357  0.114928  1
  O  O18  1  0.371643  0.371643  0.371643  1
  O  O19  1  0.628357  0.114928  0.628357  1
  O  O20  1  0.351676  0.882775  0.882775  1
  O  O21  1  0.371643  0.371643  0.885072  1
  O  O22  1  0.114928  0.628357  0.628357  1
  O  O23  1  0.628357  0.628357  0.628357  1
  O  O24  1  0.882775  0.351676  0.882775  1
  O  O25  1  0.117225  0.117225  0.117225  1
  O  O26  1  0.882775  0.882775  0.351676  1
  O  O27  1  0.885072  0.371643  0.371643  1
  O  O28  1  0.117225  0.648324  0.117225  1
