# generated using pymatgen
data_CsPa(PO4)2
_symmetry_space_group_name_H-M   'P 1'
_cell_length_a   5.43414747
_cell_length_b   5.43414762
_cell_length_c   9.13725221
_cell_angle_alpha   87.64232994
_cell_angle_beta   87.64232840
_cell_angle_gamma   61.76320291
_symmetry_Int_Tables_number   1
_chemical_formula_structural   CsPa(PO4)2
_chemical_formula_sum   'Cs1 Pa1 P2 O8'
_cell_volume   237.44049089
_cell_formula_units_Z   1
loop_
 _symmetry_equiv_pos_site_id
 _symmetry_equiv_pos_as_xyz
  1  'x, y, z'
loop_
 _atom_site_type_symbol
 _atom_site_label
 _atom_site_symmetry_multiplicity
 _atom_site_fract_x
 _atom_site_fract_y
 _atom_site_fract_z
 _atom_site_occupancy
  Cs  Cs0  1  0.000000  0.000000  0.000000  1
  Pa  Pa1  1  0.000000  0.000000  0.500000  1
  P  P2  1  0.646605  0.646605  0.704454  1
  P  P3  1  0.353395  0.353395  0.295546  1
  O  O4  1  0.216446  0.667712  0.342588  1
  O  O5  1  0.214042  0.214042  0.401123  1
  O  O6  1  0.322942  0.322942  0.136786  1
  O  O7  1  0.667712  0.216446  0.342588  1
  O  O8  1  0.677058  0.677058  0.863214  1
  O  O9  1  0.785958  0.785958  0.598877  1
  O  O10  1  0.332288  0.783554  0.657412  1
  O  O11  1  0.783554  0.332288  0.657412  1
