# generated using pymatgen
data_Bi4Pb
_symmetry_space_group_name_H-M   'P 1'
_cell_length_a   12.48561768
_cell_length_b   12.48561940
_cell_length_c   12.48561800
_cell_angle_alpha   164.23298864
_cell_angle_beta   115.22068154
_cell_angle_gamma   67.14001587
_symmetry_Int_Tables_number   1
_chemical_formula_structural   Bi4Pb
_chemical_formula_sum   'Bi12 Pb3'
_cell_volume   476.61916114
_cell_formula_units_Z   3
loop_
 _symmetry_equiv_pos_site_id
 _symmetry_equiv_pos_as_xyz
  1  'x, y, z'
loop_
 _atom_site_type_symbol
 _atom_site_label
 _atom_site_symmetry_multiplicity
 _atom_site_fract_x
 _atom_site_fract_y
 _atom_site_fract_z
 _atom_site_occupancy
  Bi  Bi0  1  0.407389  0.407389  0.000000  1
  Bi  Bi1  1  0.594111  0.594111  0.000000  1
  Bi  Bi2  1  0.869552  0.702899  0.166652  1
  Bi  Bi3  1  0.465262  0.298662  0.166600  1
  Bi  Bi4  1  0.927505  0.594232  0.333273  1
  Bi  Bi5  1  0.740745  0.407270  0.333475  1
  Bi  Bi6  1  0.798566  0.298565  0.500000  1
  Bi  Bi7  1  0.202911  0.702911  0.500000  1
  Bi  Bi8  1  0.073794  0.407270  0.666524  1
  Bi  Bi9  1  0.260959  0.594231  0.666726  1
  Bi  Bi10  1  0.132064  0.298662  0.833399  1
  Bi  Bi11  1  0.536248  0.702899  0.833348  1
  Pb  Pb12  1  0.000896  0.000896  0.000000  1
  Pb  Pb13  1  0.333520  0.000500  0.333020  1
  Pb  Pb14  1  0.667481  0.000500  0.666981  1
