# generated using pymatgen
data_NdTiVO5
_symmetry_space_group_name_H-M   'P 1'
_cell_length_a   7.68244800
_cell_length_b   8.80633900
_cell_length_c   5.90479900
_cell_angle_alpha   90.00000000
_cell_angle_beta   90.00000000
_cell_angle_gamma   90.00000000
_symmetry_Int_Tables_number   1
_chemical_formula_structural   NdTiVO5
_chemical_formula_sum   'Nd4 Ti4 V4 O20'
_cell_volume   399.48469719
_cell_formula_units_Z   4
loop_
 _symmetry_equiv_pos_site_id
 _symmetry_equiv_pos_as_xyz
  1  'x, y, z'
loop_
 _atom_site_type_symbol
 _atom_site_label
 _atom_site_symmetry_multiplicity
 _atom_site_fract_x
 _atom_site_fract_y
 _atom_site_fract_z
 _atom_site_occupancy
  Nd  Nd0  1  0.140272  0.170577  0.000000  1
  Nd  Nd1  1  0.640271  0.329423  0.000000  1
  Nd  Nd2  1  0.359728  0.670577  0.000000  1
  Nd  Nd3  1  0.859728  0.829423  0.000000  1
  Ti  Ti4  1  0.882015  0.143211  0.499999  1
  Ti  Ti5  1  0.382015  0.356790  0.499999  1
  Ti  Ti6  1  0.617984  0.643211  0.499999  1
  Ti  Ti7  1  0.117985  0.856790  0.499999  1
  V  V8  1  0.500000  0.000000  0.247902  1
  V  V9  1  0.000000  0.500000  0.247902  1
  V  V10  1  0.500000  0.000000  0.752097  1
  V  V11  1  0.000000  0.500000  0.752097  1
  O  O12  1  0.665505  0.056189  0.000000  1
  O  O13  1  0.165505  0.443811  0.000000  1
  O  O14  1  0.834496  0.556189  0.000000  1
  O  O15  1  0.334496  0.943810  0.000000  1
  O  O16  1  0.396010  0.214935  0.254031  1
  O  O17  1  0.896010  0.285065  0.254031  1
  O  O18  1  0.103989  0.714935  0.254031  1
  O  O19  1  0.603989  0.785065  0.254031  1
  O  O20  1  0.000000  0.000000  0.284927  1
  O  O21  1  0.500000  0.500000  0.284927  1
  O  O22  1  0.662335  0.074397  0.499999  1
  O  O23  1  0.162334  0.425603  0.499999  1
  O  O24  1  0.837666  0.574397  0.499999  1
  O  O25  1  0.337666  0.925603  0.499999  1
  O  O26  1  0.000000  0.000000  0.715072  1
  O  O27  1  0.500000  0.500000  0.715072  1
  O  O28  1  0.396010  0.214935  0.745968  1
  O  O29  1  0.896010  0.285065  0.745968  1
  O  O30  1  0.103989  0.714935  0.745968  1
  O  O31  1  0.603989  0.785065  0.745968  1
