# generated using pymatgen
data_Y13Er3(AlPd)4
_symmetry_space_group_name_H-M   'P 1'
_cell_length_a   9.61275122
_cell_length_b   9.61481883
_cell_length_c   9.61481900
_cell_angle_alpha   60.00000286
_cell_angle_beta   59.99288747
_cell_angle_gamma   59.99288852
_symmetry_Int_Tables_number   1
_chemical_formula_structural   Y13Er3(AlPd)4
_chemical_formula_sum   'Y13 Er3 Al4 Pd4'
_cell_volume   628.30170564
_cell_formula_units_Z   1
loop_
 _symmetry_equiv_pos_site_id
 _symmetry_equiv_pos_as_xyz
  1  'x, y, z'
loop_
 _atom_site_type_symbol
 _atom_site_label
 _atom_site_symmetry_multiplicity
 _atom_site_fract_x
 _atom_site_fract_y
 _atom_site_fract_z
 _atom_site_occupancy
  Y  Y0  1  0.932941  0.355686  0.355686  1
  Y  Y1  1  0.806540  0.193138  0.193138  1
  Y  Y2  1  0.193407  0.806514  0.806514  1
  Y  Y3  1  0.193407  0.806514  0.193565  1
  Y  Y4  1  0.806540  0.193138  0.807184  1
  Y  Y5  1  0.193407  0.193565  0.806514  1
  Y  Y6  1  0.806540  0.807184  0.193138  1
  Y  Y7  1  0.935690  0.564562  0.564562  1
  Y  Y8  1  0.564299  0.935694  0.935694  1
  Y  Y9  1  0.564299  0.935694  0.564313  1
  Y  Y10  1  0.935690  0.564562  0.935186  1
  Y  Y11  1  0.564299  0.564313  0.935694  1
  Y  Y12  1  0.935690  0.935186  0.564562  1
  Er  Er13  1  0.355247  0.355179  0.355179  1
  Er  Er14  1  0.355247  0.355179  0.934395  1
  Er  Er15  1  0.355247  0.934395  0.355179  1
  Al  Al16  1  0.577338  0.577892  0.577892  1
  Al  Al17  1  0.577338  0.577892  0.266880  1
  Al  Al18  1  0.577338  0.266880  0.577892  1
  Al  Al19  1  0.266859  0.577714  0.577714  1
  Pd  Pd20  1  0.146574  0.144705  0.144705  1
  Pd  Pd21  1  0.146574  0.144705  0.564017  1
  Pd  Pd22  1  0.146574  0.564017  0.144705  1
  Pd  Pd23  1  0.562919  0.145694  0.145694  1
