# generated using pymatgen
data_Zr3Re2Si3Rh
_symmetry_space_group_name_H-M   'P 1'
_cell_length_a   6.84698600
_cell_length_b   6.91033021
_cell_length_c   3.56290800
_cell_angle_alpha   90.00000000
_cell_angle_beta   90.00000000
_cell_angle_gamma   119.69723188
_symmetry_Int_Tables_number   1
_chemical_formula_structural   Zr3Re2Si3Rh
_chemical_formula_sum   'Zr3 Re2 Si3 Rh1'
_cell_volume   146.43685658
_cell_formula_units_Z   1
loop_
 _symmetry_equiv_pos_site_id
 _symmetry_equiv_pos_as_xyz
  1  'x, y, z'
loop_
 _atom_site_type_symbol
 _atom_site_label
 _atom_site_symmetry_multiplicity
 _atom_site_fract_x
 _atom_site_fract_y
 _atom_site_fract_z
 _atom_site_occupancy
  Zr  Zr0  1  0.402257  0.000000  0.500000  1
  Zr  Zr1  1  0.007790  0.414961  0.500000  1
  Zr  Zr2  1  0.592829  0.585039  0.500000  1
  Re  Re3  1  0.000865  0.751429  0.000000  1
  Re  Re4  1  0.249436  0.248571  0.000000  1
  Si  Si5  1  0.337950  0.669317  0.000000  1
  Si  Si6  1  0.668634  0.330683  0.000000  1
  Si  Si7  1  0.988357  0.000000  0.500000  1
  Rh  Rh8  1  0.751881  0.000000  0.000000  1
