# generated using pymatgen
data_TbY3(SiAu2)8
_symmetry_space_group_name_H-M   'P 1'
_cell_length_a   4.41812200
_cell_length_b   4.41812200
_cell_length_c   27.03601600
_cell_angle_alpha   90.00000000
_cell_angle_beta   90.00000000
_cell_angle_gamma   90.00000000
_symmetry_Int_Tables_number   1
_chemical_formula_structural   TbY3(SiAu2)8
_chemical_formula_sum   'Tb1 Y3 Si8 Au16'
_cell_volume   527.73767937
_cell_formula_units_Z   1
loop_
 _symmetry_equiv_pos_site_id
 _symmetry_equiv_pos_as_xyz
  1  'x, y, z'
loop_
 _atom_site_type_symbol
 _atom_site_label
 _atom_site_symmetry_multiplicity
 _atom_site_fract_x
 _atom_site_fract_y
 _atom_site_fract_z
 _atom_site_occupancy
  Tb  Tb0  1  0.500000  0.000000  0.250563  1
  Y  Y1  1  0.000000  0.500000  0.749437  1
  Y  Y2  1  0.500000  0.500000  0.000000  1
  Y  Y3  1  0.500000  0.500000  0.500000  1
  Si  Si4  1  0.000000  0.000000  0.956728  1
  Si  Si5  1  0.000000  0.000000  0.456869  1
  Si  Si6  1  0.500000  0.000000  0.792683  1
  Si  Si7  1  0.500000  0.000000  0.706026  1
  Si  Si8  1  0.000000  0.500000  0.207317  1
  Si  Si9  1  0.000000  0.500000  0.293974  1
  Si  Si10  1  0.000000  0.000000  0.043272  1
  Si  Si11  1  0.000000  0.000000  0.543131  1
  Au  Au12  1  0.500000  0.000000  0.086143  1
  Au  Au13  1  0.500000  0.500000  0.663099  1
  Au  Au14  1  0.500000  0.500000  0.836124  1
  Au  Au15  1  0.000000  0.500000  0.085526  1
  Au  Au16  1  0.500000  0.000000  0.914474  1
  Au  Au17  1  0.000000  0.000000  0.664344  1
  Au  Au18  1  0.000000  0.500000  0.414949  1
  Au  Au19  1  0.500000  0.500000  0.336901  1
  Au  Au20  1  0.500000  0.000000  0.414327  1
  Au  Au21  1  0.000000  0.000000  0.335656  1
  Au  Au22  1  0.000000  0.000000  0.165215  1
  Au  Au23  1  0.500000  0.000000  0.585051  1
  Au  Au24  1  0.000000  0.000000  0.834785  1
  Au  Au25  1  0.500000  0.500000  0.163876  1
  Au  Au26  1  0.000000  0.500000  0.585673  1
  Au  Au27  1  0.000000  0.500000  0.913857  1
