# generated using pymatgen
data_TbEr(TcRu)2
_symmetry_space_group_name_H-M   'P 1'
_cell_length_a   5.19406861
_cell_length_b   5.19406841
_cell_length_c   9.12968296
_cell_angle_alpha   89.93562159
_cell_angle_beta   90.06437622
_cell_angle_gamma   117.56394221
_symmetry_Int_Tables_number   1
_chemical_formula_structural   TbEr(TcRu)2
_chemical_formula_sum   'Tb2 Er2 Tc4 Ru4'
_cell_volume   218.34685664
_cell_formula_units_Z   2
loop_
 _symmetry_equiv_pos_site_id
 _symmetry_equiv_pos_as_xyz
  1  'x, y, z'
loop_
 _atom_site_type_symbol
 _atom_site_label
 _atom_site_symmetry_multiplicity
 _atom_site_fract_x
 _atom_site_fract_y
 _atom_site_fract_z
 _atom_site_occupancy
  Tb  Tb0  1  0.670048  0.329952  0.932768  1
  Tb  Tb1  1  0.332769  0.667231  0.063192  1
  Er  Er2  1  0.332393  0.667607  0.436933  1
  Er  Er3  1  0.670654  0.329346  0.566983  1
  Tc  Tc4  1  0.827324  0.172676  0.251941  1
  Tc  Tc5  1  0.829510  0.659595  0.251932  1
  Tc  Tc6  1  0.340405  0.170490  0.251932  1
  Tc  Tc7  1  0.162782  0.837218  0.748003  1
  Ru  Ru8  1  0.007390  0.992610  0.502498  1
  Ru  Ru9  1  0.007274  0.992726  0.997776  1
  Ru  Ru10  1  0.169930  0.350479  0.748021  1
  Ru  Ru11  1  0.649521  0.830070  0.748021  1
