# generated using pymatgen
data_Dy3Tm3Al24Os7Au
_symmetry_space_group_name_H-M   'P 1'
_cell_length_a   8.85146744
_cell_length_b   8.84430332
_cell_length_c   9.54315713
_cell_angle_alpha   89.81138014
_cell_angle_beta   90.16264155
_cell_angle_gamma   120.03773633
_symmetry_Int_Tables_number   1
_chemical_formula_structural   Dy3Tm3Al24Os7Au
_chemical_formula_sum   'Dy3 Tm3 Al24 Os7 Au1'
_cell_volume   646.74574208
_cell_formula_units_Z   1
loop_
 _symmetry_equiv_pos_site_id
 _symmetry_equiv_pos_as_xyz
  1  'x, y, z'
loop_
 _atom_site_type_symbol
 _atom_site_label
 _atom_site_symmetry_multiplicity
 _atom_site_fract_x
 _atom_site_fract_y
 _atom_site_fract_z
 _atom_site_occupancy
  Dy  Dy0  1  0.190528  0.386233  0.251039  1
  Dy  Dy1  1  0.809238  0.613602  0.748960  1
  Dy  Dy2  1  0.613717  0.809444  0.251093  1
  Tm  Tm3  1  0.388794  0.191209  0.748133  1
  Tm  Tm4  1  0.195713  0.803924  0.254385  1
  Tm  Tm5  1  0.803879  0.195939  0.745597  1
  Al  Al6  1  0.328227  0.671559  0.023461  1
  Al  Al7  1  0.671130  0.328425  0.975810  1
  Al  Al8  1  0.665855  0.333602  0.518996  1
  Al  Al9  1  0.333583  0.665983  0.481613  1
  Al  Al10  1  0.162978  0.325617  0.576109  1
  Al  Al11  1  0.837251  0.673937  0.424362  1
  Al  Al12  1  0.674111  0.837282  0.576066  1
  Al  Al13  1  0.848755  0.677455  0.079775  1
  Al  Al14  1  0.325753  0.162596  0.424849  1
  Al  Al15  1  0.151442  0.322287  0.919825  1
  Al  Al16  1  0.163435  0.837212  0.575599  1
  Al  Al17  1  0.322262  0.151140  0.079296  1
  Al  Al18  1  0.836674  0.163293  0.424863  1
  Al  Al19  1  0.677561  0.848820  0.919862  1
  Al  Al20  1  0.836485  0.163452  0.075158  1
  Al  Al21  1  0.163637  0.837154  0.924297  1
  Al  Al22  1  0.560373  0.121601  0.249105  1
  Al  Al23  1  0.439258  0.879055  0.750767  1
  Al  Al24  1  0.878373  0.439482  0.249237  1
  Al  Al25  1  0.121677  0.560521  0.750786  1
  Al  Al26  1  0.563822  0.435984  0.255844  1
  Al  Al27  1  0.435834  0.562986  0.744514  1
  Al  Al28  1  0.000361  0.999557  0.250401  1
  Al  Al29  1  0.001266  0.001222  0.749685  1
  Os  Os30  1  0.499650  0.000407  0.999341  1
  Os  Os31  1  0.999743  0.499840  0.999909  1
  Os  Os32  1  0.499683  0.000230  0.500478  1
  Os  Os33  1  0.999712  0.499821  0.500129  1
  Os  Os34  1  0.499668  0.499303  0.500549  1
  Os  Os35  1  0.999791  0.999924  0.000027  1
  Os  Os36  1  0.999810  0.999894  0.500053  1
  Au  Au37  1  0.499967  0.500009  0.000027  1
