# generated using pymatgen
data_Ho(FeCl4)3
_symmetry_space_group_name_H-M   'P 1'
_cell_length_a   11.07114400
_cell_length_b   11.07114354
_cell_length_c   16.37940000
_cell_angle_alpha   90.00000000
_cell_angle_beta   90.00000000
_cell_angle_gamma   119.99999540
_symmetry_Int_Tables_number   1
_chemical_formula_structural   Ho(FeCl4)3
_chemical_formula_sum   'Ho3 Fe9 Cl36'
_cell_volume   1738.65583299
_cell_formula_units_Z   3
loop_
 _symmetry_equiv_pos_site_id
 _symmetry_equiv_pos_as_xyz
  1  'x, y, z'
loop_
 _atom_site_type_symbol
 _atom_site_label
 _atom_site_symmetry_multiplicity
 _atom_site_fract_x
 _atom_site_fract_y
 _atom_site_fract_z
 _atom_site_occupancy
  Ho  Ho0  1  0.993663  0.496831  0.000000  1
  Ho  Ho1  1  0.503169  0.006337  0.666667  1
  Ho  Ho2  1  0.503169  0.496831  0.333333  1
  Fe  Fe3  1  0.731161  0.268839  0.833333  1
  Fe  Fe4  1  0.132095  0.765006  0.603655  1
  Fe  Fe5  1  0.234994  0.367090  0.936988  1
  Fe  Fe6  1  0.632910  0.867905  0.270321  1
  Fe  Fe7  1  0.731161  0.462321  0.166667  1
  Fe  Fe8  1  0.537679  0.268839  0.500000  1
  Fe  Fe9  1  0.132095  0.367090  0.396345  1
  Fe  Fe10  1  0.632910  0.765006  0.729679  1
  Fe  Fe11  1  0.234994  0.867905  0.063012  1
  Cl  Cl12  1  0.008261  0.838787  0.544265  1
  Cl  Cl13  1  0.830526  0.991739  0.210932  1
  Cl  Cl14  1  0.161213  0.169474  0.877599  1
  Cl  Cl15  1  0.783536  0.587341  0.281178  1
  Cl  Cl16  1  0.412659  0.196195  0.614512  1
  Cl  Cl17  1  0.803805  0.216464  0.947845  1
  Cl  Cl18  1  0.412659  0.216464  0.385488  1
  Cl  Cl19  1  0.803805  0.587341  0.052155  1
  Cl  Cl20  1  0.783536  0.196195  0.718822  1
  Cl  Cl21  1  0.233661  0.348460  0.278486  1
  Cl  Cl22  1  0.651540  0.885201  0.611819  1
  Cl  Cl23  1  0.114799  0.766339  0.945153  1
  Cl  Cl24  1  0.651540  0.766339  0.388181  1
  Cl  Cl25  1  0.114799  0.348460  0.054847  1
  Cl  Cl26  1  0.233661  0.885201  0.721514  1
  Cl  Cl27  1  0.502207  0.654714  0.207380  1
  Cl  Cl28  1  0.345286  0.847495  0.540714  1
  Cl  Cl29  1  0.152505  0.497793  0.874047  1
  Cl  Cl30  1  0.345286  0.497793  0.459286  1
  Cl  Cl31  1  0.152505  0.654714  0.125953  1
  Cl  Cl32  1  0.502207  0.847495  0.792620  1
  Cl  Cl33  1  0.660417  0.496989  0.480260  1
  Cl  Cl34  1  0.503011  0.163428  0.813594  1
  Cl  Cl35  1  0.836572  0.339583  0.146927  1
  Cl  Cl36  1  0.503011  0.339583  0.186406  1
  Cl  Cl37  1  0.836572  0.496989  0.853073  1
  Cl  Cl38  1  0.660417  0.163428  0.519740  1
  Cl  Cl39  1  0.031458  0.488240  0.376988  1
  Cl  Cl40  1  0.511760  0.543218  0.710321  1
  Cl  Cl41  1  0.456782  0.968542  0.043654  1
  Cl  Cl42  1  0.511760  0.968542  0.289679  1
  Cl  Cl43  1  0.456782  0.488240  0.956346  1
  Cl  Cl44  1  0.031458  0.543218  0.623012  1
  Cl  Cl45  1  0.008261  0.169474  0.455735  1
  Cl  Cl46  1  0.830526  0.838787  0.789068  1
  Cl  Cl47  1  0.161213  0.991739  0.122401  1
