# generated using pymatgen
data_Er13Tm7(Bi2Os)4
_symmetry_space_group_name_H-M   'P 1'
_cell_length_a   7.88117845
_cell_length_b   8.99656335
_cell_length_c   12.43013510
_cell_angle_alpha   89.98814283
_cell_angle_beta   90.01191618
_cell_angle_gamma   90.01051347
_symmetry_Int_Tables_number   1
_chemical_formula_structural   Er13Tm7(Bi2Os)4
_chemical_formula_sum   'Er13 Tm7 Bi8 Os4'
_cell_volume   881.34029489
_cell_formula_units_Z   1
loop_
 _symmetry_equiv_pos_site_id
 _symmetry_equiv_pos_as_xyz
  1  'x, y, z'
loop_
 _atom_site_type_symbol
 _atom_site_label
 _atom_site_symmetry_multiplicity
 _atom_site_fract_x
 _atom_site_fract_y
 _atom_site_fract_z
 _atom_site_occupancy
  Er  Er0  1  0.659627  0.749837  0.708339  1
  Er  Er1  1  0.340365  0.250057  0.291640  1
  Er  Er2  1  0.159440  0.249984  0.791919  1
  Er  Er3  1  0.840438  0.750054  0.208265  1
  Er  Er4  1  0.124917  0.750111  0.810912  1
  Er  Er5  1  0.875205  0.249927  0.189228  1
  Er  Er6  1  0.625109  0.250321  0.689245  1
  Er  Er7  1  0.375375  0.749640  0.310512  1
  Er  Er8  1  0.557727  0.749966  0.995307  1
  Er  Er9  1  0.442356  0.250000  0.004711  1
  Er  Er10  1  0.057488  0.250468  0.504625  1
  Er  Er11  1  0.941999  0.749728  0.495337  1
  Er  Er12  1  0.326318  0.958749  0.564958  1
  Tm  Tm13  1  0.827422  0.458891  0.935053  1
  Tm  Tm14  1  0.172580  0.541118  0.065037  1
  Tm  Tm15  1  0.327523  0.541161  0.564941  1
  Tm  Tm16  1  0.172654  0.958877  0.065041  1
  Tm  Tm17  1  0.672564  0.458771  0.434853  1
  Tm  Tm18  1  0.827364  0.041086  0.935115  1
  Tm  Tm19  1  0.672693  0.041122  0.434923  1
  Bi  Bi20  1  0.934129  0.006005  0.672481  1
  Bi  Bi21  1  0.065533  0.994069  0.327790  1
  Bi  Bi22  1  0.434883  0.994248  0.827647  1
  Bi  Bi23  1  0.065313  0.505889  0.327518  1
  Bi  Bi24  1  0.565304  0.005848  0.172354  1
  Bi  Bi25  1  0.934915  0.494254  0.672505  1
  Bi  Bi26  1  0.565493  0.494032  0.172233  1
  Bi  Bi27  1  0.434654  0.505822  0.827653  1
  Os  Os28  1  0.926987  0.750013  0.991722  1
  Os  Os29  1  0.073045  0.249982  0.008408  1
  Os  Os30  1  0.427082  0.250272  0.508255  1
  Os  Os31  1  0.573497  0.749693  0.491474  1
