# generated using pymatgen
data_Ho2Ga3Fe14C3
_symmetry_space_group_name_H-M   'P 1'
_cell_length_a   6.51901636
_cell_length_b   6.51901586
_cell_length_c   6.51901708
_cell_angle_alpha   83.31948494
_cell_angle_beta   83.31948271
_cell_angle_gamma   83.31947989
_symmetry_Int_Tables_number   1
_chemical_formula_structural   Ho2Ga3Fe14C3
_chemical_formula_sum   'Ho2 Ga3 Fe14 C3'
_cell_volume   271.80508068
_cell_formula_units_Z   1
loop_
 _symmetry_equiv_pos_site_id
 _symmetry_equiv_pos_as_xyz
  1  'x, y, z'
loop_
 _atom_site_type_symbol
 _atom_site_label
 _atom_site_symmetry_multiplicity
 _atom_site_fract_x
 _atom_site_fract_y
 _atom_site_fract_z
 _atom_site_occupancy
  Ho  Ho0  1  0.656645  0.656645  0.656645  1
  Ho  Ho1  1  0.343355  0.343355  0.343355  1
  Ga  Ga2  1  0.000000  0.000000  0.500000  1
  Ga  Ga3  1  0.500000  0.000000  0.000000  1
  Ga  Ga4  1  0.000000  0.500000  0.000000  1
  Fe  Fe5  1  0.714381  0.285619  0.000000  1
  Fe  Fe6  1  0.000000  0.714381  0.285619  1
  Fe  Fe7  1  0.285619  0.000000  0.714381  1
  Fe  Fe8  1  0.000000  0.285619  0.714381  1
  Fe  Fe9  1  0.714381  0.000000  0.285619  1
  Fe  Fe10  1  0.285619  0.714381  0.000000  1
  Fe  Fe11  1  0.345621  0.851143  0.345621  1
  Fe  Fe12  1  0.345621  0.345621  0.851143  1
  Fe  Fe13  1  0.851143  0.345621  0.345621  1
  Fe  Fe14  1  0.654379  0.148857  0.654379  1
  Fe  Fe15  1  0.654379  0.654379  0.148857  1
  Fe  Fe16  1  0.148857  0.654379  0.654379  1
  Fe  Fe17  1  0.907547  0.907547  0.907547  1
  Fe  Fe18  1  0.092453  0.092453  0.092453  1
  C  C19  1  0.500000  0.500000  0.000000  1
  C  C20  1  0.000000  0.500000  0.500000  1
  C  C21  1  0.500000  0.000000  0.500000  1
