# generated using pymatgen
data_Tb5Hf3(Co4P3)4
_symmetry_space_group_name_H-M   'P 1'
_cell_length_a   12.28492400
_cell_length_b   12.28492363
_cell_length_c   3.71350200
_cell_angle_alpha   90.00000000
_cell_angle_beta   90.00000000
_cell_angle_gamma   119.99999021
_symmetry_Int_Tables_number   1
_chemical_formula_structural   Tb5Hf3(Co4P3)4
_chemical_formula_sum   'Tb5 Hf3 Co16 P12'
_cell_volume   485.35473619
_cell_formula_units_Z   1
loop_
 _symmetry_equiv_pos_site_id
 _symmetry_equiv_pos_as_xyz
  1  'x, y, z'
loop_
 _atom_site_type_symbol
 _atom_site_label
 _atom_site_symmetry_multiplicity
 _atom_site_fract_x
 _atom_site_fract_y
 _atom_site_fract_z
 _atom_site_occupancy
  Tb  Tb0  1  0.666667  0.333333  0.000000  1
  Tb  Tb1  1  0.333333  0.666667  0.000000  1
  Tb  Tb2  1  0.182612  0.182612  0.500000  1
  Tb  Tb3  1  0.817388  0.000000  0.500000  1
  Tb  Tb4  1  0.000000  0.817388  0.500000  1
  Hf  Hf5  1  0.559107  0.559107  0.000000  1
  Hf  Hf6  1  0.440893  0.000000  0.000000  1
  Hf  Hf7  1  0.000000  0.440893  0.000000  1
  Co  Co8  1  0.821950  0.195915  0.000000  1
  Co  Co9  1  0.804085  0.626035  0.000000  1
  Co  Co10  1  0.373965  0.178050  0.000000  1
  Co  Co11  1  0.195915  0.821950  0.000000  1
  Co  Co12  1  0.626035  0.804085  0.000000  1
  Co  Co13  1  0.178050  0.373965  0.000000  1
  Co  Co14  1  0.644126  0.124219  0.500000  1
  Co  Co15  1  0.875781  0.519907  0.500000  1
  Co  Co16  1  0.480093  0.355874  0.500000  1
  Co  Co17  1  0.124219  0.644126  0.500000  1
  Co  Co18  1  0.519907  0.875781  0.500000  1
  Co  Co19  1  0.355874  0.480093  0.500000  1
  Co  Co20  1  0.720965  0.720965  0.500000  1
  Co  Co21  1  0.279035  0.000000  0.500000  1
  Co  Co22  1  0.000000  0.279035  0.500000  1
  Co  Co23  1  0.000000  0.000000  0.000000  1
  P  P24  1  0.352427  0.352427  0.000000  1
  P  P25  1  0.647573  0.000000  0.000000  1
  P  P26  1  0.000000  0.647573  0.000000  1
  P  P27  1  0.828959  0.307455  0.500000  1
  P  P28  1  0.692545  0.521504  0.500000  1
  P  P29  1  0.478496  0.171041  0.500000  1
  P  P30  1  0.307455  0.828959  0.500000  1
  P  P31  1  0.521504  0.692545  0.500000  1
  P  P32  1  0.171041  0.478496  0.500000  1
  P  P33  1  0.821398  0.821398  0.000000  1
  P  P34  1  0.178602  0.000000  0.000000  1
  P  P35  1  0.000000  0.178602  0.000000  1
