# generated using pymatgen
data_Yb4CrGa3O10
_symmetry_space_group_name_H-M   'P 1'
_cell_length_a   5.33573800
_cell_length_b   5.60545346
_cell_length_c   15.53097300
_cell_angle_alpha   68.93166334
_cell_angle_beta   90.00000000
_cell_angle_gamma   90.00000000
_symmetry_Int_Tables_number   1
_chemical_formula_structural   Yb4CrGa3O10
_chemical_formula_sum   'Yb8 Cr2 Ga6 O20'
_cell_volume   433.46741966
_cell_formula_units_Z   2
loop_
 _symmetry_equiv_pos_site_id
 _symmetry_equiv_pos_as_xyz
  1  'x, y, z'
loop_
 _atom_site_type_symbol
 _atom_site_label
 _atom_site_symmetry_multiplicity
 _atom_site_fract_x
 _atom_site_fract_y
 _atom_site_fract_z
 _atom_site_occupancy
  Yb  Yb0  1  0.011226  0.634578  0.894833  1
  Yb  Yb1  1  0.511226  0.365422  0.605167  1
  Yb  Yb2  1  0.988148  0.076088  0.394853  1
  Yb  Yb3  1  0.488148  0.923912  0.105147  1
  Yb  Yb4  1  0.988774  0.365422  0.105167  1
  Yb  Yb5  1  0.488774  0.634578  0.394833  1
  Yb  Yb6  1  0.011852  0.923912  0.605147  1
  Yb  Yb7  1  0.511852  0.076088  0.894853  1
  Cr  Cr8  1  0.500000  0.000000  0.500000  1
  Cr  Cr9  1  0.000000  0.000000  0.000000  1
  Ga  Ga10  1  0.552002  0.679279  0.749237  1
  Ga  Ga11  1  0.052002  0.320721  0.750763  1
  Ga  Ga12  1  0.447998  0.320721  0.250763  1
  Ga  Ga13  1  0.947998  0.679279  0.249237  1
  Ga  Ga14  1  0.500000  0.500000  0.000000  1
  Ga  Ga15  1  0.000000  0.500000  0.500000  1
  O  O16  1  0.251334  0.730815  0.015460  1
  O  O17  1  0.751334  0.269185  0.484540  1
  O  O18  1  0.751264  0.732099  0.515786  1
  O  O19  1  0.251264  0.267901  0.984214  1
  O  O20  1  0.748666  0.269185  0.984540  1
  O  O21  1  0.248666  0.730815  0.515460  1
  O  O22  1  0.248736  0.267901  0.484214  1
  O  O23  1  0.748736  0.732099  0.015786  1
  O  O24  1  0.908549  0.632302  0.749770  1
  O  O25  1  0.408549  0.367698  0.750230  1
  O  O26  1  0.091451  0.367698  0.250230  1
  O  O27  1  0.591451  0.632302  0.249770  1
  O  O28  1  0.470608  0.719598  0.857593  1
  O  O29  1  0.970608  0.280402  0.642407  1
  O  O30  1  0.529658  0.066380  0.360636  1
  O  O31  1  0.029658  0.933620  0.139364  1
  O  O32  1  0.529392  0.280402  0.142407  1
  O  O33  1  0.029392  0.719598  0.357593  1
  O  O34  1  0.470342  0.933620  0.639364  1
  O  O35  1  0.970342  0.066380  0.860636  1
