# generated using pymatgen
data_Sm3Dy5(CdCo)2
_symmetry_space_group_name_H-M   'P 1'
_cell_length_a   9.58245795
_cell_length_b   9.58245803
_cell_length_c   9.58245800
_cell_angle_alpha   60.00000010
_cell_angle_beta   59.99999982
_cell_angle_gamma   59.99999617
_symmetry_Int_Tables_number   1
_chemical_formula_structural   Sm3Dy5(CdCo)2
_chemical_formula_sum   'Sm6 Dy10 Cd4 Co4'
_cell_volume   622.17959169
_cell_formula_units_Z   2
loop_
 _symmetry_equiv_pos_site_id
 _symmetry_equiv_pos_as_xyz
  1  'x, y, z'
loop_
 _atom_site_type_symbol
 _atom_site_label
 _atom_site_symmetry_multiplicity
 _atom_site_fract_x
 _atom_site_fract_y
 _atom_site_fract_z
 _atom_site_occupancy
  Sm  Sm0  1  0.939655  0.560345  0.560345  1
  Sm  Sm1  1  0.560345  0.939655  0.939655  1
  Sm  Sm2  1  0.560345  0.939655  0.560345  1
  Sm  Sm3  1  0.939655  0.560345  0.939655  1
  Sm  Sm4  1  0.560345  0.560345  0.939655  1
  Sm  Sm5  1  0.939655  0.939655  0.560345  1
  Dy  Dy6  1  0.346019  0.346019  0.346019  1
  Dy  Dy7  1  0.346019  0.346019  0.961945  1
  Dy  Dy8  1  0.346019  0.961945  0.346019  1
  Dy  Dy9  1  0.961945  0.346019  0.346019  1
  Dy  Dy10  1  0.813415  0.186585  0.186585  1
  Dy  Dy11  1  0.186585  0.813415  0.813415  1
  Dy  Dy12  1  0.186585  0.813415  0.186585  1
  Dy  Dy13  1  0.813415  0.186585  0.813415  1
  Dy  Dy14  1  0.186585  0.186585  0.813415  1
  Dy  Dy15  1  0.813415  0.813415  0.186585  1
  Cd  Cd16  1  0.579591  0.579591  0.579591  1
  Cd  Cd17  1  0.579591  0.579591  0.261228  1
  Cd  Cd18  1  0.579591  0.261228  0.579591  1
  Cd  Cd19  1  0.261228  0.579591  0.579591  1
  Co  Co20  1  0.140984  0.140984  0.140984  1
  Co  Co21  1  0.140984  0.140984  0.577049  1
  Co  Co22  1  0.140984  0.577049  0.140984  1
  Co  Co23  1  0.577049  0.140984  0.140984  1
