# generated using pymatgen
data_Sc6CoNiC8
_symmetry_space_group_name_H-M   'P 1'
_cell_length_a   6.58549649
_cell_length_b   6.58549647
_cell_length_c   5.55492452
_cell_angle_alpha   84.34891342
_cell_angle_beta   84.34890611
_cell_angle_gamma   130.08954758
_symmetry_Int_Tables_number   1
_chemical_formula_structural   Sc6CoNiC8
_chemical_formula_sum   'Sc6 Co1 Ni1 C8'
_cell_volume   179.21567143
_cell_formula_units_Z   1
loop_
 _symmetry_equiv_pos_site_id
 _symmetry_equiv_pos_as_xyz
  1  'x, y, z'
loop_
 _atom_site_type_symbol
 _atom_site_label
 _atom_site_symmetry_multiplicity
 _atom_site_fract_x
 _atom_site_fract_y
 _atom_site_fract_z
 _atom_site_occupancy
  Sc  Sc0  1  0.750308  0.750308  0.750375  1
  Sc  Sc1  1  0.313876  0.688591  0.499993  1
  Sc  Sc2  1  0.186083  0.811401  0.000051  1
  Sc  Sc3  1  0.688591  0.313876  0.499993  1
  Sc  Sc4  1  0.249667  0.249667  0.249635  1
  Sc  Sc5  1  0.811401  0.186083  0.000051  1
  Co  Co6  1  0.250610  0.250610  0.749367  1
  Ni  Ni7  1  0.749299  0.749299  0.250644  1
  C  C8  1  0.292190  0.537335  0.915170  1
  C  C9  1  0.537335  0.292190  0.915170  1
  C  C10  1  0.455809  0.706119  0.082110  1
  C  C11  1  0.706119  0.455809  0.082110  1
  C  C12  1  0.207877  0.962840  0.584709  1
  C  C13  1  0.793881  0.044115  0.417955  1
  C  C14  1  0.962840  0.207877  0.584709  1
  C  C15  1  0.044115  0.793881  0.417955  1
