# generated using pymatgen
data_Zr12Zn7GaCuPd3N4
_symmetry_space_group_name_H-M   'P 1'
_cell_length_a   8.61750144
_cell_length_b   8.59354739
_cell_length_c   8.61750100
_cell_angle_alpha   59.90774695
_cell_angle_beta   59.99999784
_cell_angle_gamma   59.90774322
_symmetry_Int_Tables_number   1
_chemical_formula_structural   Zr12Zn7GaCuPd3N4
_chemical_formula_sum   'Zr12 Zn7 Ga1 Cu1 Pd3 N4'
_cell_volume   450.62281323
_cell_formula_units_Z   1
loop_
 _symmetry_equiv_pos_site_id
 _symmetry_equiv_pos_as_xyz
  1  'x, y, z'
loop_
 _atom_site_type_symbol
 _atom_site_label
 _atom_site_symmetry_multiplicity
 _atom_site_fract_x
 _atom_site_fract_y
 _atom_site_fract_z
 _atom_site_occupancy
  Zr  Zr0  1  0.812189  0.189273  0.186348  1
  Zr  Zr1  1  0.187895  0.812078  0.187587  1
  Zr  Zr2  1  0.812440  0.812078  0.187587  1
  Zr  Zr3  1  0.187763  0.811923  0.812552  1
  Zr  Zr4  1  0.812158  0.188789  0.812362  1
  Zr  Zr5  1  0.186691  0.188789  0.812362  1
  Zr  Zr6  1  0.437982  0.061331  0.062705  1
  Zr  Zr7  1  0.062199  0.437790  0.062282  1
  Zr  Zr8  1  0.437729  0.437790  0.062282  1
  Zr  Zr9  1  0.062362  0.437653  0.437624  1
  Zr  Zr10  1  0.438063  0.060779  0.438132  1
  Zr  Zr11  1  0.063026  0.060779  0.438132  1
  Zn  Zn12  1  0.421576  0.413036  0.420238  1
  Zn  Zn13  1  0.745150  0.413036  0.420238  1
  Zn  Zn14  1  0.419019  0.744703  0.417258  1
  Zn  Zn15  1  0.828175  0.835963  0.507686  1
  Zn  Zn16  1  0.828613  0.837222  0.827473  1
  Zn  Zn17  1  0.506693  0.837222  0.827473  1
  Zn  Zn18  1  0.831306  0.507269  0.830119  1
  Ga  Ga19  1  0.420647  0.414213  0.744492  1
  Cu  Cu20  1  0.623522  0.126894  0.626061  1
  Pd  Pd21  1  0.625092  0.625115  0.124701  1
  Pd  Pd22  1  0.623517  0.623722  0.625653  1
  Pd  Pd23  1  0.127109  0.623722  0.625653  1
  N  N24  1  0.125003  0.124981  0.625013  1
  N  N25  1  0.124423  0.124426  0.126065  1
  N  N26  1  0.625086  0.124426  0.126065  1
  N  N27  1  0.124569  0.625003  0.125858  1
