# generated using pymatgen
data_Ti13Al9(FeIr)4
_symmetry_space_group_name_H-M   'P 1'
_cell_length_a   8.63564383
_cell_length_b   8.63564346
_cell_length_c   8.58997965
_cell_angle_alpha   59.97756118
_cell_angle_beta   59.97756431
_cell_angle_gamma   59.53594546
_symmetry_Int_Tables_number   1
_chemical_formula_structural   Ti13Al9(FeIr)4
_chemical_formula_sum   'Ti13 Al9 Fe4 Ir4'
_cell_volume   451.20502289
_cell_formula_units_Z   1
loop_
 _symmetry_equiv_pos_site_id
 _symmetry_equiv_pos_as_xyz
  1  'x, y, z'
loop_
 _atom_site_type_symbol
 _atom_site_label
 _atom_site_symmetry_multiplicity
 _atom_site_fract_x
 _atom_site_fract_y
 _atom_site_fract_z
 _atom_site_occupancy
  Ti  Ti0  1  0.206484  0.206484  0.797867  1
  Ti  Ti1  1  0.796394  0.209013  0.206826  1
  Ti  Ti2  1  0.209013  0.796394  0.206826  1
  Ti  Ti3  1  0.803928  0.803928  0.176505  1
  Ti  Ti4  1  0.176857  0.803297  0.805300  1
  Ti  Ti5  1  0.803297  0.176857  0.805300  1
  Ti  Ti6  1  0.378373  0.378373  0.388051  1
  Ti  Ti7  1  0.386070  0.855975  0.387971  1
  Ti  Ti8  1  0.855975  0.386070  0.387971  1
  Ti  Ti9  1  0.384088  0.384088  0.854984  1
  Ti  Ti10  1  0.850217  0.468370  0.830293  1
  Ti  Ti11  1  0.468370  0.850217  0.830293  1
  Ti  Ti12  1  0.837891  0.837891  0.467609  1
  Al  Al13  1  0.158799  0.158799  0.159168  1
  Al  Al14  1  0.155935  0.524596  0.170902  1
  Al  Al15  1  0.524596  0.155935  0.170902  1
  Al  Al16  1  0.164132  0.164132  0.526178  1
  Al  Al17  1  0.618450  0.618450  0.614874  1
  Al  Al18  1  0.617475  0.148502  0.612269  1
  Al  Al19  1  0.148502  0.617475  0.612269  1
  Al  Al20  1  0.616202  0.616202  0.148321  1
  Al  Al21  1  0.827011  0.827011  0.824498  1
  Fe  Fe22  1  0.999067  0.501799  0.502424  1
  Fe  Fe23  1  0.501799  0.999067  0.502424  1
  Fe  Fe24  1  0.500210  0.500210  0.500334  1
  Fe  Fe25  1  0.003282  0.003282  0.004865  1
  Ir  Ir26  1  0.003775  0.003775  0.499361  1
  Ir  Ir27  1  0.500065  0.003875  0.002675  1
  Ir  Ir28  1  0.003875  0.500065  0.002675  1
  Ir  Ir29  1  0.499870  0.499870  0.000067  1
