# generated using pymatgen
data_Nd3CdIn3CuIr
_symmetry_space_group_name_H-M   'P 1'
_cell_length_a   7.89384400
_cell_length_b   7.89384312
_cell_length_c   4.02692400
_cell_angle_alpha   90.00000000
_cell_angle_beta   90.00000000
_cell_angle_gamma   119.99999530
_symmetry_Int_Tables_number   1
_chemical_formula_structural   Nd3CdIn3CuIr
_chemical_formula_sum   'Nd3 Cd1 In3 Cu1 Ir1'
_cell_volume   217.31070272
_cell_formula_units_Z   1
loop_
 _symmetry_equiv_pos_site_id
 _symmetry_equiv_pos_as_xyz
  1  'x, y, z'
loop_
 _atom_site_type_symbol
 _atom_site_label
 _atom_site_symmetry_multiplicity
 _atom_site_fract_x
 _atom_site_fract_y
 _atom_site_fract_z
 _atom_site_occupancy
  Nd  Nd0  1  0.029175  0.605029  0.500000  1
  Nd  Nd1  1  0.394971  0.424145  0.500000  1
  Nd  Nd2  1  0.575855  0.970825  0.500000  1
  Cd  Cd3  1  0.666667  0.333333  0.000000  1
  In  In4  1  0.755270  0.755592  0.000000  1
  In  In5  1  0.000321  0.244730  0.000000  1
  In  In6  1  0.244408  0.999679  0.000000  1
  Cu  Cu7  1  0.000000  0.000000  0.500000  1
  Ir  Ir8  1  0.333333  0.666667  0.000000  1
