# generated using pymatgen
data_Sc4Fe2B8Ru7W
_symmetry_space_group_name_H-M   'P 1'
_cell_length_a   3.01722600
_cell_length_b   8.44700673
_cell_length_c   9.90327516
_cell_angle_alpha   90.41729561
_cell_angle_beta   90.00000000
_cell_angle_gamma   90.00000000
_symmetry_Int_Tables_number   1
_chemical_formula_structural   Sc4Fe2B8Ru7W
_chemical_formula_sum   'Sc4 Fe2 B8 Ru7 W1'
_cell_volume   252.39340866
_cell_formula_units_Z   1
loop_
 _symmetry_equiv_pos_site_id
 _symmetry_equiv_pos_as_xyz
  1  'x, y, z'
loop_
 _atom_site_type_symbol
 _atom_site_label
 _atom_site_symmetry_multiplicity
 _atom_site_fract_x
 _atom_site_fract_y
 _atom_site_fract_z
 _atom_site_occupancy
  Sc  Sc0  1  0.500000  0.842017  0.176036  1
  Sc  Sc1  1  0.500000  0.160637  0.824169  1
  Sc  Sc2  1  0.500000  0.661318  0.678401  1
  Sc  Sc3  1  0.500000  0.341558  0.320881  1
  Fe  Fe4  1  0.000000  0.002296  0.999716  1
  Fe  Fe5  1  0.000000  0.499814  0.500800  1
  B  B6  1  0.500000  0.967863  0.590466  1
  B  B7  1  0.500000  0.032908  0.408243  1
  B  B8  1  0.500000  0.859818  0.908109  1
  B  B9  1  0.500000  0.138365  0.091992  1
  B  B10  1  0.500000  0.635221  0.407739  1
  B  B11  1  0.500000  0.361310  0.592876  1
  B  B12  1  0.500000  0.464213  0.912093  1
  B  B13  1  0.500000  0.530779  0.090152  1
  Ru  Ru14  1  0.000000  0.331112  0.046084  1
  Ru  Ru15  1  0.000000  0.838069  0.455114  1
  Ru  Ru16  1  0.000000  0.162820  0.542669  1
  Ru  Ru17  1  0.000000  0.408164  0.756282  1
  Ru  Ru18  1  0.000000  0.593425  0.244194  1
  Ru  Ru19  1  0.000000  0.912226  0.741808  1
  Ru  Ru20  1  0.000000  0.092052  0.256525  1
  W  W21  1  0.000000  0.664015  0.955650  1
