# generated using pymatgen
data_Ac6Mg(GeSe7)2
_symmetry_space_group_name_H-M   'P 1'
_cell_length_a   11.10278300
_cell_length_b   11.10278314
_cell_length_c   6.24892000
_cell_angle_alpha   90.00000000
_cell_angle_beta   90.00000000
_cell_angle_gamma   120.00000257
_symmetry_Int_Tables_number   1
_chemical_formula_structural   Ac6Mg(GeSe7)2
_chemical_formula_sum   'Ac6 Mg1 Ge2 Se14'
_cell_volume   667.11283146
_cell_formula_units_Z   1
loop_
 _symmetry_equiv_pos_site_id
 _symmetry_equiv_pos_as_xyz
  1  'x, y, z'
loop_
 _atom_site_type_symbol
 _atom_site_label
 _atom_site_symmetry_multiplicity
 _atom_site_fract_x
 _atom_site_fract_y
 _atom_site_fract_z
 _atom_site_occupancy
  Ac  Ac0  1  0.976877  0.433801  0.752160  1
  Ac  Ac1  1  0.456923  0.023123  0.752160  1
  Ac  Ac2  1  0.566199  0.543077  0.752160  1
  Ac  Ac3  1  0.689556  0.898260  0.246463  1
  Ac  Ac4  1  0.208704  0.310444  0.246463  1
  Ac  Ac5  1  0.101740  0.791296  0.246463  1
  Mg  Mg6  1  0.333333  0.666667  0.513592  1
  Ge  Ge7  1  0.666667  0.333333  0.168151  1
  Ge  Ge8  1  0.000000  0.000000  0.660913  1
  Se  Se9  1  0.666667  0.333333  0.544436  1
  Se  Se10  1  0.000000  0.000000  0.038096  1
  Se  Se11  1  0.087557  0.507058  0.275946  1
  Se  Se12  1  0.419501  0.912443  0.275946  1
  Se  Se13  1  0.492942  0.580499  0.275946  1
  Se  Se14  1  0.579237  0.828598  0.751619  1
  Se  Se15  1  0.249361  0.420763  0.751619  1
  Se  Se16  1  0.171402  0.750639  0.751619  1
  Se  Se17  1  0.814580  0.559584  0.015989  1
  Se  Se18  1  0.745004  0.185420  0.015989  1
  Se  Se19  1  0.440416  0.254996  0.015989  1
  Se  Se20  1  0.852733  0.773291  0.510773  1
  Se  Se21  1  0.920559  0.147267  0.510773  1
  Se  Se22  1  0.226709  0.079441  0.510773  1
