# generated using pymatgen
data_Tb2YLu3MnBi2
_symmetry_space_group_name_H-M   'P 1'
_cell_length_a   8.21897800
_cell_length_b   8.21165014
_cell_length_c   4.28464000
_cell_angle_alpha   90.00000000
_cell_angle_beta   90.00000000
_cell_angle_gamma   120.02952387
_symmetry_Int_Tables_number   1
_chemical_formula_structural   Tb2YLu3MnBi2
_chemical_formula_sum   'Tb2 Y1 Lu3 Mn1 Bi2'
_cell_volume   250.35942479
_cell_formula_units_Z   1
loop_
 _symmetry_equiv_pos_site_id
 _symmetry_equiv_pos_as_xyz
  1  'x, y, z'
loop_
 _atom_site_type_symbol
 _atom_site_label
 _atom_site_symmetry_multiplicity
 _atom_site_fract_x
 _atom_site_fract_y
 _atom_site_fract_z
 _atom_site_occupancy
  Tb  Tb0  1  0.000098  0.611632  0.000000  1
  Tb  Tb1  1  0.388467  0.388368  0.000000  1
  Y  Y2  1  0.611550  0.000000  0.000000  1
  Lu  Lu3  1  0.229540  0.000000  0.500000  1
  Lu  Lu4  1  0.999950  0.229580  0.500000  1
  Lu  Lu5  1  0.770370  0.770420  0.500000  1
  Mn  Mn6  1  0.999914  0.000000  0.000000  1
  Bi  Bi7  1  0.333541  0.666973  0.500000  1
  Bi  Bi8  1  0.666569  0.333027  0.500000  1
