# generated using pymatgen
data_Ti3NbGa2(B2Ru5)2
_symmetry_space_group_name_H-M   'P 1'
_cell_length_a   9.26101335
_cell_length_b   9.26101335
_cell_length_c   2.99192000
_cell_angle_alpha   90.00000000
_cell_angle_beta   90.00000000
_cell_angle_gamma   89.76574390
_symmetry_Int_Tables_number   1
_chemical_formula_structural   Ti3NbGa2(B2Ru5)2
_chemical_formula_sum   'Ti3 Nb1 Ga2 B4 Ru10'
_cell_volume   256.60396788
_cell_formula_units_Z   1
loop_
 _symmetry_equiv_pos_site_id
 _symmetry_equiv_pos_as_xyz
  1  'x, y, z'
loop_
 _atom_site_type_symbol
 _atom_site_label
 _atom_site_symmetry_multiplicity
 _atom_site_fract_x
 _atom_site_fract_y
 _atom_site_fract_z
 _atom_site_occupancy
  Ti  Ti0  1  0.826703  0.674730  0.000000  1
  Ti  Ti1  1  0.174730  0.326703  0.000000  1
  Ti  Ti2  1  0.323616  0.823616  0.000000  1
  Nb  Nb3  1  0.674945  0.174945  0.000000  1
  Ga  Ga4  1  0.499876  0.499361  0.000000  1
  Ga  Ga5  1  0.999361  0.999876  0.000000  1
  B  B6  1  0.625044  0.872925  0.000000  1
  B  B7  1  0.372925  0.125044  0.000000  1
  B  B8  1  0.126031  0.626031  0.000000  1
  B  B9  1  0.876193  0.376193  0.000000  1
  Ru  Ru10  1  0.573105  0.712588  0.500000  1
  Ru  Ru11  1  0.427897  0.285616  0.500000  1
  Ru  Ru12  1  0.071313  0.786277  0.500000  1
  Ru  Ru13  1  0.931377  0.215167  0.500000  1
  Ru  Ru14  1  0.286277  0.571313  0.500000  1
  Ru  Ru15  1  0.715167  0.431377  0.500000  1
  Ru  Ru16  1  0.212588  0.073105  0.500000  1
  Ru  Ru17  1  0.785616  0.927897  0.500000  1
  Ru  Ru18  1  0.496502  0.996502  0.500000  1
  Ru  Ru19  1  0.000735  0.500735  0.500000  1
