# generated using pymatgen
data_Zr10TlIn2Cu2Bi3
_symmetry_space_group_name_H-M   'P 1'
_cell_length_a   8.77782400
_cell_length_b   8.76994002
_cell_length_c   5.95624100
_cell_angle_alpha   90.00000000
_cell_angle_beta   90.00000000
_cell_angle_gamma   120.02974993
_symmetry_Int_Tables_number   1
_chemical_formula_structural   Zr10TlIn2Cu2Bi3
_chemical_formula_sum   'Zr10 Tl1 In2 Cu2 Bi3'
_cell_volume   396.96856250
_cell_formula_units_Z   1
loop_
 _symmetry_equiv_pos_site_id
 _symmetry_equiv_pos_as_xyz
  1  'x, y, z'
loop_
 _atom_site_type_symbol
 _atom_site_label
 _atom_site_symmetry_multiplicity
 _atom_site_fract_x
 _atom_site_fract_y
 _atom_site_fract_z
 _atom_site_occupancy
  Zr  Zr0  1  0.728027  0.000000  0.250000  1
  Zr  Zr1  1  0.996779  0.726540  0.250000  1
  Zr  Zr2  1  0.270239  0.273460  0.250000  1
  Zr  Zr3  1  0.247339  0.000000  0.750000  1
  Zr  Zr4  1  0.001854  0.248910  0.750000  1
  Zr  Zr5  1  0.752944  0.751090  0.750000  1
  Zr  Zr6  1  0.333652  0.665683  0.493583  1
  Zr  Zr7  1  0.667970  0.334317  0.493583  1
  Zr  Zr8  1  0.667970  0.334317  0.006417  1
  Zr  Zr9  1  0.333652  0.665683  0.006417  1
  Tl  Tl10  1  0.376560  0.000000  0.250000  1
  In  In11  1  0.999390  0.378997  0.250000  1
  In  In12  1  0.620393  0.621003  0.250000  1
  Cu  Cu13  1  0.999658  0.000000  0.464934  1
  Cu  Cu14  1  0.999658  0.000000  0.035066  1
  Bi  Bi15  1  0.608882  0.000000  0.750000  1
  Bi  Bi16  1  0.001320  0.607606  0.750000  1
  Bi  Bi17  1  0.393714  0.392394  0.750000  1
