# generated using pymatgen
data_Tm3Co7NiP6Os
_symmetry_space_group_name_H-M   'P 1'
_cell_length_a   3.70380600
_cell_length_b   10.42665000
_cell_length_c   12.16927600
_cell_angle_alpha   90.00000000
_cell_angle_beta   90.00000000
_cell_angle_gamma   90.00000000
_symmetry_Int_Tables_number   1
_chemical_formula_structural   Tm3Co7NiP6Os
_chemical_formula_sum   'Tm6 Co14 Ni2 P12 Os2'
_cell_volume   469.95661542
_cell_formula_units_Z   2
loop_
 _symmetry_equiv_pos_site_id
 _symmetry_equiv_pos_as_xyz
  1  'x, y, z'
loop_
 _atom_site_type_symbol
 _atom_site_label
 _atom_site_symmetry_multiplicity
 _atom_site_fract_x
 _atom_site_fract_y
 _atom_site_fract_z
 _atom_site_occupancy
  Tm  Tm0  1  0.000000  0.500000  0.524954  1
  Tm  Tm1  1  0.500000  0.000000  0.475046  1
  Tm  Tm2  1  0.500000  0.816478  0.207408  1
  Tm  Tm3  1  0.500000  0.183522  0.207408  1
  Tm  Tm4  1  0.000000  0.683522  0.792592  1
  Tm  Tm5  1  0.000000  0.316478  0.792592  1
  Co  Co6  1  0.000000  0.500000  0.987159  1
  Co  Co7  1  0.500000  0.000000  0.012841  1
  Co  Co8  1  0.500000  0.332378  0.988739  1
  Co  Co9  1  0.500000  0.667622  0.988739  1
  Co  Co10  1  0.000000  0.167622  0.011261  1
  Co  Co11  1  0.000000  0.832378  0.011261  1
  Co  Co12  1  0.500000  0.299434  0.431747  1
  Co  Co13  1  0.500000  0.700566  0.431747  1
  Co  Co14  1  0.000000  0.200566  0.568253  1
  Co  Co15  1  0.000000  0.799434  0.568253  1
  Co  Co16  1  0.500000  0.878875  0.708498  1
  Co  Co17  1  0.500000  0.121125  0.708498  1
  Co  Co18  1  0.000000  0.621125  0.291502  1
  Co  Co19  1  0.000000  0.378875  0.291502  1
  Ni  Ni20  1  0.500000  0.500000  0.702680  1
  Ni  Ni21  1  0.000000  0.000000  0.297320  1
  P  P22  1  0.500000  0.500000  0.880043  1
  P  P23  1  0.000000  0.000000  0.119957  1
  P  P24  1  0.500000  0.500000  0.352223  1
  P  P25  1  0.000000  0.000000  0.647777  1
  P  P26  1  0.500000  0.312018  0.616062  1
  P  P27  1  0.500000  0.687982  0.616062  1
  P  P28  1  0.000000  0.187982  0.383938  1
  P  P29  1  0.000000  0.812018  0.383938  1
  P  P30  1  0.500000  0.846160  0.891963  1
  P  P31  1  0.500000  0.153840  0.891963  1
  P  P32  1  0.000000  0.653840  0.108037  1
  P  P33  1  0.000000  0.346160  0.108037  1
  Os  Os34  1  0.500000  0.500000  0.158858  1
  Os  Os35  1  0.000000  0.000000  0.841142  1
