# generated using pymatgen
data_YbU(CoB)8
_symmetry_space_group_name_H-M   'P 1'
_cell_length_a   5.00136400
_cell_length_b   5.00136400
_cell_length_c   6.93603600
_cell_angle_alpha   90.00000000
_cell_angle_beta   90.00000000
_cell_angle_gamma   90.00000000
_symmetry_Int_Tables_number   1
_chemical_formula_structural   YbU(CoB)8
_chemical_formula_sum   'Yb1 U1 Co8 B8'
_cell_volume   173.49552044
_cell_formula_units_Z   1
loop_
 _symmetry_equiv_pos_site_id
 _symmetry_equiv_pos_as_xyz
  1  'x, y, z'
loop_
 _atom_site_type_symbol
 _atom_site_label
 _atom_site_symmetry_multiplicity
 _atom_site_fract_x
 _atom_site_fract_y
 _atom_site_fract_z
 _atom_site_occupancy
  Yb  Yb0  1  0.000000  0.000000  0.000000  1
  U  U1  1  0.500000  0.500000  0.500000  1
  Co  Co2  1  0.500000  0.745479  0.140005  1
  Co  Co3  1  0.748258  0.000000  0.636926  1
  Co  Co4  1  0.251742  0.000000  0.636926  1
  Co  Co5  1  0.000000  0.748258  0.363074  1
  Co  Co6  1  0.000000  0.251742  0.363074  1
  Co  Co7  1  0.500000  0.254521  0.140005  1
  Co  Co8  1  0.745479  0.500000  0.859995  1
  Co  Co9  1  0.254521  0.500000  0.859995  1
  B  B10  1  0.500000  0.825250  0.842551  1
  B  B11  1  0.673198  0.000000  0.343756  1
  B  B12  1  0.326802  0.000000  0.343756  1
  B  B13  1  0.000000  0.673198  0.656244  1
  B  B14  1  0.000000  0.326802  0.656244  1
  B  B15  1  0.500000  0.174750  0.842551  1
  B  B16  1  0.825250  0.500000  0.157449  1
  B  B17  1  0.174750  0.500000  0.157449  1
