# generated using pymatgen
data_TmMo2O7F
_symmetry_space_group_name_H-M   'P 1'
_cell_length_a   6.57260200
_cell_length_b   4.26465322
_cell_length_c   11.53422817
_cell_angle_alpha   89.63354690
_cell_angle_beta   90.00000000
_cell_angle_gamma   90.00000000
_symmetry_Int_Tables_number   1
_chemical_formula_structural   TmMo2O7F
_chemical_formula_sum   'Tm2 Mo4 O14 F2'
_cell_volume   323.29628357
_cell_formula_units_Z   2
loop_
 _symmetry_equiv_pos_site_id
 _symmetry_equiv_pos_as_xyz
  1  'x, y, z'
loop_
 _atom_site_type_symbol
 _atom_site_label
 _atom_site_symmetry_multiplicity
 _atom_site_fract_x
 _atom_site_fract_y
 _atom_site_fract_z
 _atom_site_occupancy
  Tm  Tm0  1  0.796923  0.000000  0.750000  1
  Tm  Tm1  1  0.203077  0.000000  0.250000  1
  Mo  Mo2  1  0.329628  0.905926  0.594059  1
  Mo  Mo3  1  0.329628  0.094074  0.905941  1
  Mo  Mo4  1  0.670372  0.094074  0.405941  1
  Mo  Mo5  1  0.670372  0.905926  0.094059  1
  O  O6  1  0.341180  0.498684  0.596734  1
  O  O7  1  0.341180  0.501316  0.903266  1
  O  O8  1  0.658820  0.501316  0.403266  1
  O  O9  1  0.658820  0.498684  0.096734  1
  O  O10  1  0.072671  0.984511  0.629687  1
  O  O11  1  0.072671  0.015489  0.870313  1
  O  O12  1  0.927329  0.015489  0.370313  1
  O  O13  1  0.927329  0.984511  0.129687  1
  O  O14  1  0.652358  0.000764  0.566998  1
  O  O15  1  0.652358  0.999236  0.933002  1
  O  O16  1  0.347642  0.999236  0.433002  1
  O  O17  1  0.347642  0.000764  0.066998  1
  O  O18  1  0.442999  0.000000  0.750000  1
  O  O19  1  0.557001  0.000000  0.250000  1
  F  F20  1  0.802064  0.500000  0.750000  1
  F  F21  1  0.197936  0.500000  0.250000  1
