# generated using pymatgen
data_PrDy7(Si4Tc3)4
_symmetry_space_group_name_H-M   'P 1'
_cell_length_a   6.78286341
_cell_length_b   6.77887579
_cell_length_c   12.71966400
_cell_angle_alpha   89.86387025
_cell_angle_beta   90.14056896
_cell_angle_gamma   90.20831479
_symmetry_Int_Tables_number   1
_chemical_formula_structural   PrDy7(Si4Tc3)4
_chemical_formula_sum   'Pr1 Dy7 Si16 Tc12'
_cell_volume   584.84528573
_cell_formula_units_Z   1
loop_
 _symmetry_equiv_pos_site_id
 _symmetry_equiv_pos_as_xyz
  1  'x, y, z'
loop_
 _atom_site_type_symbol
 _atom_site_label
 _atom_site_symmetry_multiplicity
 _atom_site_fract_x
 _atom_site_fract_y
 _atom_site_fract_z
 _atom_site_occupancy
  Pr  Pr0  1  0.333552  0.998512  0.469504  1
  Dy  Dy1  1  0.003946  0.662460  0.030398  1
  Dy  Dy2  1  0.995818  0.336616  0.530915  1
  Dy  Dy3  1  0.663017  0.003454  0.969790  1
  Dy  Dy4  1  0.165216  0.495514  0.781181  1
  Dy  Dy5  1  0.837039  0.506700  0.279559  1
  Dy  Dy6  1  0.495599  0.165494  0.218806  1
  Dy  Dy7  1  0.506646  0.837141  0.719434  1
  Si  Si8  1  0.014765  0.725114  0.438410  1
  Si  Si9  1  0.976116  0.277967  0.935455  1
  Si  Si10  1  0.734043  0.017061  0.562713  1
  Si  Si11  1  0.225007  0.480944  0.185974  1
  Si  Si12  1  0.779526  0.521602  0.687654  1
  Si  Si13  1  0.477173  0.220699  0.815253  1
  Si  Si14  1  0.520093  0.774009  0.309715  1
  Si  Si15  1  0.277380  0.977227  0.064135  1
  Si  Si16  1  0.884437  0.804798  0.814428  1
  Si  Si17  1  0.110935  0.197376  0.310130  1
  Si  Si18  1  0.805876  0.886253  0.185597  1
  Si  Si19  1  0.308142  0.608477  0.564499  1
  Si  Si20  1  0.693051  0.384796  0.061943  1
  Si  Si21  1  0.614640  0.311710  0.436787  1
  Si  Si22  1  0.383953  0.693499  0.937288  1
  Si  Si23  1  0.193284  0.113988  0.690257  1
  Tc  Tc24  1  0.312595  0.487289  0.377509  1
  Tc  Tc25  1  0.813418  0.019964  0.369449  1
  Tc  Tc26  1  0.981980  0.182669  0.125629  1
  Tc  Tc27  1  0.020248  0.810238  0.632202  1
  Tc  Tc28  1  0.679881  0.517220  0.877194  1
  Tc  Tc29  1  0.488207  0.317657  0.625813  1
  Tc  Tc30  1  0.520129  0.683468  0.119931  1
  Tc  Tc31  1  0.180395  0.981134  0.874383  1
  Tc  Tc32  1  0.667579  0.663156  0.500533  1
  Tc  Tc33  1  0.837388  0.164908  0.751543  1
  Tc  Tc34  1  0.164258  0.835966  0.246004  1
  Tc  Tc35  1  0.334662  0.334921  0.999980  1
