# generated using pymatgen
data_Y4Re3(TcB4)3
_symmetry_space_group_name_H-M   'P 1'
_cell_length_a   6.21171492
_cell_length_b   6.21917443
_cell_length_c   7.51902115
_cell_angle_alpha   89.39544457
_cell_angle_beta   89.35573719
_cell_angle_gamma   113.77461723
_symmetry_Int_Tables_number   1
_chemical_formula_structural   Y4Re3(TcB4)3
_chemical_formula_sum   'Y4 Re3 Tc3 B12'
_cell_volume   265.76993374
_cell_formula_units_Z   1
loop_
 _symmetry_equiv_pos_site_id
 _symmetry_equiv_pos_as_xyz
  1  'x, y, z'
loop_
 _atom_site_type_symbol
 _atom_site_label
 _atom_site_symmetry_multiplicity
 _atom_site_fract_x
 _atom_site_fract_y
 _atom_site_fract_z
 _atom_site_occupancy
  Y  Y0  1  0.899365  0.554613  0.322122  1
  Y  Y1  1  0.439707  0.100029  0.177438  1
  Y  Y2  1  0.100315  0.443561  0.678078  1
  Y  Y3  1  0.557462  0.899784  0.822693  1
  Re  Re4  1  0.807155  0.990174  0.410259  1
  Re  Re5  1  0.990470  0.805775  0.911011  1
  Re  Re6  1  0.193827  0.009896  0.588967  1
  Tc  Tc7  1  0.411875  0.587926  0.250333  1
  Tc  Tc8  1  0.587670  0.411978  0.750438  1
  Tc  Tc9  1  0.009797  0.195103  0.088083  1
  B  B10  1  0.755824  0.847516  0.130621  1
  B  B11  1  0.152996  0.249489  0.371145  1
  B  B12  1  0.247747  0.152054  0.869062  1
  B  B13  1  0.846872  0.752560  0.630095  1
  B  B14  1  0.414364  0.841314  0.481505  1
  B  B15  1  0.158482  0.585314  0.018581  1
  B  B16  1  0.586405  0.158697  0.517663  1
  B  B17  1  0.840596  0.414533  0.981119  1
  B  B18  1  0.557064  0.649715  0.534697  1
  B  B19  1  0.349777  0.442871  0.965657  1
  B  B20  1  0.443142  0.350419  0.465509  1
  B  B21  1  0.649090  0.556677  0.034927  1
