# generated using pymatgen
data_Ce3Nd(CoB10)2
_symmetry_space_group_name_H-M   'P 1'
_cell_length_a   4.16531100
_cell_length_b   5.59741958
_cell_length_c   11.16835166
_cell_angle_alpha   90.03369579
_cell_angle_beta   90.00000000
_cell_angle_gamma   90.00000000
_symmetry_Int_Tables_number   1
_chemical_formula_structural   Ce3Nd(CoB10)2
_chemical_formula_sum   'Ce3 Nd1 Co2 B20'
_cell_volume   260.38999949
_cell_formula_units_Z   1
loop_
 _symmetry_equiv_pos_site_id
 _symmetry_equiv_pos_as_xyz
  1  'x, y, z'
loop_
 _atom_site_type_symbol
 _atom_site_label
 _atom_site_symmetry_multiplicity
 _atom_site_fract_x
 _atom_site_fract_y
 _atom_site_fract_z
 _atom_site_occupancy
  Ce  Ce0  1  0.500000  0.699052  0.135209  1
  Ce  Ce1  1  0.500000  0.803705  0.633815  1
  Ce  Ce2  1  0.500000  0.197171  0.365201  1
  Nd  Nd3  1  0.500000  0.302946  0.864659  1
  Co  Co4  1  0.000000  0.500361  0.499878  1
  Co  Co5  1  0.000000  0.997851  0.001000  1
  B  B6  1  0.000000  0.126578  0.539909  1
  B  B7  1  0.000000  0.872914  0.459995  1
  B  B8  1  0.000000  0.627142  0.960226  1
  B  B9  1  0.000000  0.372671  0.040764  1
  B  B10  1  0.000000  0.153640  0.696819  1
  B  B11  1  0.000000  0.846112  0.302758  1
  B  B12  1  0.300182  0.200180  0.113851  1
  B  B13  1  0.299827  0.797977  0.887170  1
  B  B14  1  0.699309  0.701083  0.386940  1
  B  B15  1  0.699909  0.298964  0.612486  1
  B  B16  1  0.700173  0.797977  0.887170  1
  B  B17  1  0.699818  0.200180  0.113851  1
  B  B18  1  0.300091  0.298964  0.612486  1
  B  B19  1  0.300691  0.701083  0.386940  1
  B  B20  1  0.000000  0.033599  0.187631  1
  B  B21  1  0.000000  0.966115  0.812996  1
  B  B22  1  0.000000  0.534097  0.312793  1
  B  B23  1  0.000000  0.467278  0.686044  1
  B  B24  1  0.000000  0.346264  0.197528  1
  B  B25  1  0.000000  0.656100  0.801880  1
