# generated using pymatgen
data_RbNb2TcSe6
_symmetry_space_group_name_H-M   'P 1'
_cell_length_a   5.93497800
_cell_length_b   5.93497961
_cell_length_c   18.20053800
_cell_angle_alpha   90.00000000
_cell_angle_beta   90.00000000
_cell_angle_gamma   120.00000218
_symmetry_Int_Tables_number   1
_chemical_formula_structural   RbNb2TcSe6
_chemical_formula_sum   'Rb2 Nb4 Tc2 Se12'
_cell_volume   555.20477495
_cell_formula_units_Z   2
loop_
 _symmetry_equiv_pos_site_id
 _symmetry_equiv_pos_as_xyz
  1  'x, y, z'
loop_
 _atom_site_type_symbol
 _atom_site_label
 _atom_site_symmetry_multiplicity
 _atom_site_fract_x
 _atom_site_fract_y
 _atom_site_fract_z
 _atom_site_occupancy
  Rb  Rb0  1  0.000000  0.000000  0.000000  1
  Rb  Rb1  1  0.000000  0.000000  0.500000  1
  Nb  Nb2  1  0.333333  0.666667  0.250000  1
  Nb  Nb3  1  0.666667  0.333333  0.750000  1
  Nb  Nb4  1  0.666667  0.333333  0.250000  1
  Nb  Nb5  1  0.333333  0.666667  0.750000  1
  Tc  Tc6  1  0.000000  0.000000  0.750000  1
  Tc  Tc7  1  0.000000  0.000000  0.250000  1
  Se  Se8  1  0.326245  0.000000  0.158586  1
  Se  Se9  1  0.000000  0.326245  0.158586  1
  Se  Se10  1  0.673755  0.673755  0.158586  1
  Se  Se11  1  0.326245  0.326245  0.658586  1
  Se  Se12  1  0.673755  0.673755  0.341414  1
  Se  Se13  1  0.673755  0.000000  0.658586  1
  Se  Se14  1  0.000000  0.673755  0.658586  1
  Se  Se15  1  0.000000  0.673755  0.841414  1
  Se  Se16  1  0.326245  0.326245  0.841414  1
  Se  Se17  1  0.000000  0.326245  0.341414  1
  Se  Se18  1  0.326245  0.000000  0.341414  1
  Se  Se19  1  0.673755  0.000000  0.841414  1
