# generated using pymatgen
data_Dy6TaMoO14
_symmetry_space_group_name_H-M   'P 1'
_cell_length_a   6.48476748
_cell_length_b   6.48476773
_cell_length_c   7.46523120
_cell_angle_alpha   89.70328576
_cell_angle_beta   90.29671728
_cell_angle_gamma   108.71743541
_symmetry_Int_Tables_number   1
_chemical_formula_structural   Dy6TaMoO14
_chemical_formula_sum   'Dy6 Ta1 Mo1 O14'
_cell_volume   297.32054795
_cell_formula_units_Z   1
loop_
 _symmetry_equiv_pos_site_id
 _symmetry_equiv_pos_as_xyz
  1  'x, y, z'
loop_
 _atom_site_type_symbol
 _atom_site_label
 _atom_site_symmetry_multiplicity
 _atom_site_fract_x
 _atom_site_fract_y
 _atom_site_fract_z
 _atom_site_occupancy
  Dy  Dy0  1  0.000954  0.534333  0.243205  1
  Dy  Dy1  1  0.463830  0.999522  0.255291  1
  Dy  Dy2  1  0.465542  0.465542  0.000000  1
  Dy  Dy3  1  0.531387  0.531387  0.500000  1
  Dy  Dy4  1  0.999522  0.463830  0.744709  1
  Dy  Dy5  1  0.534333  0.000954  0.756795  1
  Ta  Ta6  1  0.996431  0.996431  0.000000  1
  Mo  Mo7  1  0.001100  0.001100  0.500000  1
  O  O8  1  0.927325  0.070520  0.750495  1
  O  O9  1  0.637683  0.361996  0.749271  1
  O  O10  1  0.311768  0.058920  0.536359  1
  O  O11  1  0.947377  0.689869  0.957700  1
  O  O12  1  0.630724  0.370097  0.249804  1
  O  O13  1  0.917541  0.673160  0.525333  1
  O  O14  1  0.327244  0.082678  0.973019  1
  O  O15  1  0.082678  0.327244  0.026981  1
  O  O16  1  0.673160  0.917541  0.474667  1
  O  O17  1  0.370097  0.630724  0.750196  1
  O  O18  1  0.689869  0.947377  0.042300  1
  O  O19  1  0.058920  0.311768  0.463641  1
  O  O20  1  0.361996  0.637683  0.250729  1
  O  O21  1  0.070520  0.927325  0.249505  1
