# generated using pymatgen
data_Y3Lu7NiAg3
_symmetry_space_group_name_H-M   'P 1'
_cell_length_a   9.40632000
_cell_length_b   9.40632030
_cell_length_c   9.36684900
_cell_angle_alpha   90.00000000
_cell_angle_beta   90.00000000
_cell_angle_gamma   119.99999191
_symmetry_Int_Tables_number   1
_chemical_formula_structural   Y3Lu7NiAg3
_chemical_formula_sum   'Y6 Lu14 Ni2 Ag6'
_cell_volume   717.73429539
_cell_formula_units_Z   2
loop_
 _symmetry_equiv_pos_site_id
 _symmetry_equiv_pos_as_xyz
  1  'x, y, z'
loop_
 _atom_site_type_symbol
 _atom_site_label
 _atom_site_symmetry_multiplicity
 _atom_site_fract_x
 _atom_site_fract_y
 _atom_site_fract_z
 _atom_site_occupancy
  Y  Y0  1  0.542435  0.457565  0.250000  1
  Y  Y1  1  0.542435  0.084869  0.250000  1
  Y  Y2  1  0.915131  0.457565  0.250000  1
  Y  Y3  1  0.457565  0.542435  0.750000  1
  Y  Y4  1  0.457565  0.915131  0.750000  1
  Y  Y5  1  0.084869  0.542435  0.750000  1
  Lu  Lu6  1  0.000000  0.000000  0.500000  1
  Lu  Lu7  1  0.000000  0.000000  0.000000  1
  Lu  Lu8  1  0.209655  0.790345  0.438891  1
  Lu  Lu9  1  0.209655  0.419310  0.438891  1
  Lu  Lu10  1  0.580690  0.790345  0.438891  1
  Lu  Lu11  1  0.790345  0.209655  0.561109  1
  Lu  Lu12  1  0.790345  0.580690  0.561109  1
  Lu  Lu13  1  0.419310  0.209655  0.561109  1
  Lu  Lu14  1  0.790345  0.209655  0.938891  1
  Lu  Lu15  1  0.790345  0.580690  0.938891  1
  Lu  Lu16  1  0.419310  0.209655  0.938891  1
  Lu  Lu17  1  0.209655  0.790345  0.061109  1
  Lu  Lu18  1  0.209655  0.419310  0.061109  1
  Lu  Lu19  1  0.580690  0.790345  0.061109  1
  Ni  Ni20  1  0.333333  0.666667  0.250000  1
  Ni  Ni21  1  0.666667  0.333333  0.750000  1
  Ag  Ag22  1  0.885341  0.114659  0.250000  1
  Ag  Ag23  1  0.885341  0.770680  0.250000  1
  Ag  Ag24  1  0.229320  0.114659  0.250000  1
  Ag  Ag25  1  0.114659  0.885341  0.750000  1
  Ag  Ag26  1  0.114659  0.229320  0.750000  1
  Ag  Ag27  1  0.770680  0.885341  0.750000  1
