# generated using pymatgen
data_Pr20Ga3Si8Pb
_symmetry_space_group_name_H-M   'P 1'
_cell_length_a   7.85263800
_cell_length_b   7.85263800
_cell_length_c   14.67978400
_cell_angle_alpha   90.00000000
_cell_angle_beta   90.00000000
_cell_angle_gamma   90.00000000
_symmetry_Int_Tables_number   1
_chemical_formula_structural   Pr20Ga3Si8Pb
_chemical_formula_sum   'Pr20 Ga3 Si8 Pb1'
_cell_volume   905.21307844
_cell_formula_units_Z   1
loop_
 _symmetry_equiv_pos_site_id
 _symmetry_equiv_pos_as_xyz
  1  'x, y, z'
loop_
 _atom_site_type_symbol
 _atom_site_label
 _atom_site_symmetry_multiplicity
 _atom_site_fract_x
 _atom_site_fract_y
 _atom_site_fract_z
 _atom_site_occupancy
  Pr  Pr0  1  0.809423  0.830986  0.612782  1
  Pr  Pr1  1  0.185848  0.826515  0.107787  1
  Pr  Pr2  1  0.177848  0.819746  0.386552  1
  Pr  Pr3  1  0.000000  0.500000  0.738849  1
  Pr  Pr4  1  0.822152  0.180254  0.386552  1
  Pr  Pr5  1  0.680254  0.677848  0.386552  1
  Pr  Pr6  1  0.669014  0.309423  0.612782  1
  Pr  Pr7  1  0.330986  0.690577  0.612782  1
  Pr  Pr8  1  0.000000  0.500000  0.228401  1
  Pr  Pr9  1  0.673485  0.685848  0.107787  1
  Pr  Pr10  1  0.686830  0.327544  0.892273  1
  Pr  Pr11  1  0.827544  0.813170  0.892273  1
  Pr  Pr12  1  0.319746  0.322152  0.386552  1
  Pr  Pr13  1  0.190577  0.169014  0.612782  1
  Pr  Pr14  1  0.814152  0.173485  0.107787  1
  Pr  Pr15  1  0.313170  0.672456  0.892273  1
  Pr  Pr16  1  0.326515  0.314152  0.107787  1
  Pr  Pr17  1  0.500000  0.000000  0.263854  1
  Pr  Pr18  1  0.172456  0.186830  0.892273  1
  Pr  Pr19  1  0.500000  0.000000  0.777676  1
  Ga  Ga20  1  0.500000  0.000000  0.489192  1
  Ga  Ga21  1  0.500000  0.000000  0.995424  1
  Ga  Ga22  1  0.000000  0.500000  0.005963  1
  Si  Si23  1  0.614162  0.387067  0.247809  1
  Si  Si24  1  0.112868  0.886745  0.751680  1
  Si  Si25  1  0.386745  0.387132  0.751680  1
  Si  Si26  1  0.385838  0.612933  0.247809  1
  Si  Si27  1  0.887067  0.885838  0.247809  1
  Si  Si28  1  0.613255  0.612868  0.751680  1
  Si  Si29  1  0.887132  0.113255  0.751680  1
  Si  Si30  1  0.112933  0.114162  0.247809  1
  Pb  Pb31  1  0.000000  0.500000  0.505111  1
