# generated using pymatgen
data_Gd2ICl5
_symmetry_space_group_name_H-M   'P 1'
_cell_length_a   7.03394505
_cell_length_b   7.27537018
_cell_length_c   7.34342607
_cell_angle_alpha   99.10069874
_cell_angle_beta   99.79891533
_cell_angle_gamma   118.75028309
_symmetry_Int_Tables_number   1
_chemical_formula_structural   Gd2ICl5
_chemical_formula_sum   'Gd2 I1 Cl5'
_cell_volume   311.88105749
_cell_formula_units_Z   1
loop_
 _symmetry_equiv_pos_site_id
 _symmetry_equiv_pos_as_xyz
  1  'x, y, z'
loop_
 _atom_site_type_symbol
 _atom_site_label
 _atom_site_symmetry_multiplicity
 _atom_site_fract_x
 _atom_site_fract_y
 _atom_site_fract_z
 _atom_site_occupancy
  Gd  Gd0  1  0.834230  0.162091  0.994119  1
  Gd  Gd1  1  0.169868  0.832961  0.991819  1
  I  I2  1  0.929792  0.584547  0.264343  1
  Cl  Cl3  1  0.576912  0.941150  0.206190  1
  Cl  Cl4  1  0.200085  0.186731  0.206911  1
  Cl  Cl5  1  0.810870  0.815944  0.772291  1
  Cl  Cl6  1  0.425253  0.044483  0.774470  1
  Cl  Cl7  1  0.052989  0.432094  0.789856  1
