# generated using pymatgen
data_CsRbIn2(GaBr4)4
_symmetry_space_group_name_H-M   'P 1'
_cell_length_a   7.92616900
_cell_length_b   9.51183659
_cell_length_c   13.44526713
_cell_angle_alpha   75.65843203
_cell_angle_beta   90.00000000
_cell_angle_gamma   90.00000000
_symmetry_Int_Tables_number   1
_chemical_formula_structural   CsRbIn2(GaBr4)4
_chemical_formula_sum   'Cs1 Rb1 In2 Ga4 Br16'
_cell_volume   982.08151577
_cell_formula_units_Z   1
loop_
 _symmetry_equiv_pos_site_id
 _symmetry_equiv_pos_as_xyz
  1  'x, y, z'
loop_
 _atom_site_type_symbol
 _atom_site_label
 _atom_site_symmetry_multiplicity
 _atom_site_fract_x
 _atom_site_fract_y
 _atom_site_fract_z
 _atom_site_occupancy
  Cs  Cs0  1  0.152061  0.000000  0.750000  1
  Rb  Rb1  1  0.851199  0.000000  0.250000  1
  In  In2  1  0.417721  0.500000  0.250000  1
  In  In3  1  0.582717  0.500000  0.750000  1
  Ga  Ga4  1  0.711109  0.222880  0.546249  1
  Ga  Ga5  1  0.711109  0.777120  0.953751  1
  Ga  Ga6  1  0.289460  0.777467  0.452707  1
  Ga  Ga7  1  0.289460  0.222533  0.047293  1
  Br  Br8  1  0.089941  0.660032  0.370101  1
  Br  Br9  1  0.089941  0.339968  0.129899  1
  Br  Br10  1  0.908003  0.343237  0.628485  1
  Br  Br11  1  0.908003  0.656763  0.871515  1
  Br  Br12  1  0.437975  0.709044  0.910423  1
  Br  Br13  1  0.437975  0.290956  0.589577  1
  Br  Br14  1  0.563793  0.287455  0.091423  1
  Br  Br15  1  0.563793  0.712545  0.408577  1
  Br  Br16  1  0.744663  0.305683  0.364525  1
  Br  Br17  1  0.744663  0.694317  0.135475  1
  Br  Br18  1  0.256740  0.689814  0.634079  1
  Br  Br19  1  0.256740  0.310186  0.865921  1
  Br  Br20  1  0.243553  0.029423  0.406783  1
  Br  Br21  1  0.243553  0.970577  0.093217  1
  Br  Br22  1  0.752914  0.970453  0.592397  1
  Br  Br23  1  0.752914  0.029547  0.907603  1
