# generated using pymatgen
data_Ho8Er8Zn3InRh4
_symmetry_space_group_name_H-M   'P 1'
_cell_length_a   9.48017402
_cell_length_b   9.47436211
_cell_length_c   9.47666884
_cell_angle_alpha   59.93440203
_cell_angle_beta   59.88833913
_cell_angle_gamma   59.91824180
_symmetry_Int_Tables_number   1
_chemical_formula_structural   Ho8Er8Zn3InRh4
_chemical_formula_sum   'Ho8 Er8 Zn3 In1 Rh4'
_cell_volume   600.69693441
_cell_formula_units_Z   1
loop_
 _symmetry_equiv_pos_site_id
 _symmetry_equiv_pos_as_xyz
  1  'x, y, z'
loop_
 _atom_site_type_symbol
 _atom_site_label
 _atom_site_symmetry_multiplicity
 _atom_site_fract_x
 _atom_site_fract_y
 _atom_site_fract_z
 _atom_site_occupancy
  Ho  Ho0  1  0.190397  0.190551  0.809983  1
  Ho  Ho1  1  0.436241  0.063418  0.063301  1
  Ho  Ho2  1  0.434462  0.059781  0.434210  1
  Ho  Ho3  1  0.063315  0.436301  0.063465  1
  Ho  Ho4  1  0.647172  0.057786  0.647088  1
  Ho  Ho5  1  0.191401  0.809167  0.809685  1
  Ho  Ho6  1  0.063284  0.063564  0.436037  1
  Ho  Ho7  1  0.809974  0.190322  0.190345  1
  Er  Er8  1  0.809464  0.809141  0.191633  1
  Er  Er9  1  0.647024  0.647209  0.057691  1
  Er  Er10  1  0.647713  0.647437  0.647368  1
  Er  Er11  1  0.059517  0.434868  0.434311  1
  Er  Er12  1  0.057465  0.647188  0.646959  1
  Er  Er13  1  0.809162  0.191721  0.809348  1
  Er  Er14  1  0.434409  0.434682  0.059599  1
  Er  Er15  1  0.190597  0.809424  0.190768  1
  Zn  Zn16  1  0.421204  0.743290  0.421047  1
  Zn  Zn17  1  0.421178  0.421187  0.743410  1
  Zn  Zn18  1  0.743422  0.421248  0.421151  1
  In  In19  1  0.422016  0.422567  0.422075  1
  Rh  Rh20  1  0.856168  0.430759  0.856068  1
  Rh  Rh21  1  0.856843  0.855777  0.430326  1
  Rh  Rh22  1  0.430575  0.855819  0.856865  1
  Rh  Rh23  1  0.857000  0.856793  0.857268  1
