# generated using pymatgen
data_Cs4Tb3Lu9Te20
_symmetry_space_group_name_H-M   'P 1'
_cell_length_a   4.37256800
_cell_length_b   13.33374779
_cell_length_c   23.49342665
_cell_angle_alpha   90.14700918
_cell_angle_beta   90.00000000
_cell_angle_gamma   90.00000000
_symmetry_Int_Tables_number   1
_chemical_formula_structural   Cs4Tb3Lu9Te20
_chemical_formula_sum   'Cs4 Tb3 Lu9 Te20'
_cell_volume   1369.72614188
_cell_formula_units_Z   1
loop_
 _symmetry_equiv_pos_site_id
 _symmetry_equiv_pos_as_xyz
  1  'x, y, z'
loop_
 _atom_site_type_symbol
 _atom_site_label
 _atom_site_symmetry_multiplicity
 _atom_site_fract_x
 _atom_site_fract_y
 _atom_site_fract_z
 _atom_site_occupancy
  Cs  Cs0  1  0.250000  0.353495  0.089467  1
  Cs  Cs1  1  0.750000  0.646072  0.911285  1
  Cs  Cs2  1  0.750000  0.854762  0.410778  1
  Cs  Cs3  1  0.250000  0.145834  0.588947  1
  Tb  Tb4  1  0.250000  0.455399  0.698544  1
  Tb  Tb5  1  0.750000  0.544660  0.301412  1
  Tb  Tb6  1  0.750000  0.955517  0.801736  1
  Lu  Lu7  1  0.250000  0.045692  0.197833  1
  Lu  Lu8  1  0.250000  0.796010  0.674201  1
  Lu  Lu9  1  0.750000  0.202889  0.325070  1
  Lu  Lu10  1  0.750000  0.295899  0.826055  1
  Lu  Lu11  1  0.250000  0.705766  0.174427  1
  Lu  Lu12  1  0.250000  0.392971  0.443802  1
  Lu  Lu13  1  0.750000  0.606744  0.556068  1
  Lu  Lu14  1  0.750000  0.893441  0.056592  1
  Lu  Lu15  1  0.250000  0.106811  0.944769  1
  Te  Te16  1  0.250000  0.445916  0.567905  1
  Te  Te17  1  0.750000  0.553662  0.431994  1
  Te  Te18  1  0.750000  0.946152  0.932378  1
  Te  Te19  1  0.250000  0.053702  0.069232  1
  Te  Te20  1  0.250000  0.763670  0.546800  1
  Te  Te21  1  0.750000  0.235492  0.452571  1
  Te  Te22  1  0.750000  0.263888  0.953450  1
  Te  Te23  1  0.250000  0.736404  0.047172  1
  Te  Te24  1  0.250000  0.797887  0.802206  1
  Te  Te25  1  0.750000  0.197837  0.197144  1
  Te  Te26  1  0.750000  0.297741  0.697940  1
  Te  Te27  1  0.250000  0.702370  0.302373  1
  Te  Te28  1  0.250000  0.449129  0.829694  1
  Te  Te29  1  0.750000  0.552353  0.170394  1
  Te  Te30  1  0.750000  0.949136  0.670531  1
  Te  Te31  1  0.250000  0.049072  0.326416  1
  Te  Te32  1  0.250000  0.371921  0.313473  1
  Te  Te33  1  0.750000  0.627645  0.686245  1
  Te  Te34  1  0.750000  0.876481  0.186814  1
  Te  Te35  1  0.250000  0.127577  0.814281  1
