# generated using pymatgen
data_Zr6Sc2Nb2Al12Ir7
_symmetry_space_group_name_H-M   'P 1'
_cell_length_a   8.88019917
_cell_length_b   8.87817897
_cell_length_c   8.87817879
_cell_angle_alpha   60.11830343
_cell_angle_beta   59.99247214
_cell_angle_gamma   59.99247268
_symmetry_Int_Tables_number   1
_chemical_formula_structural   Zr6Sc2Nb2Al12Ir7
_chemical_formula_sum   'Zr6 Sc2 Nb2 Al12 Ir7'
_cell_volume   495.32787448
_cell_formula_units_Z   1
loop_
 _symmetry_equiv_pos_site_id
 _symmetry_equiv_pos_as_xyz
  1  'x, y, z'
loop_
 _atom_site_type_symbol
 _atom_site_label
 _atom_site_symmetry_multiplicity
 _atom_site_fract_x
 _atom_site_fract_y
 _atom_site_fract_z
 _atom_site_occupancy
  Zr  Zr0  1  0.690078  0.688098  0.310946  1
  Zr  Zr1  1  0.310878  0.688098  0.310946  1
  Zr  Zr2  1  0.687760  0.312240  0.312240  1
  Zr  Zr3  1  0.310878  0.310946  0.688098  1
  Zr  Zr4  1  0.690078  0.310946  0.688098  1
  Zr  Zr5  1  0.315394  0.684606  0.684606  1
  Sc  Sc6  1  0.356220  0.880573  0.880573  1
  Sc  Sc7  1  0.882635  0.880573  0.880573  1
  Nb  Nb8  1  0.879615  0.877222  0.363548  1
  Nb  Nb9  1  0.879615  0.363548  0.877222  1
  Al  Al10  1  0.121528  0.120292  0.636651  1
  Al  Al11  1  0.121528  0.636651  0.120292  1
  Al  Al12  1  0.634937  0.121154  0.121154  1
  Al  Al13  1  0.122756  0.121154  0.121154  1
  Al  Al14  1  0.660469  0.664316  0.014744  1
  Al  Al15  1  0.660469  0.014744  0.664316  1
  Al  Al16  1  0.017746  0.661799  0.661799  1
  Al  Al17  1  0.658655  0.661799  0.661799  1
  Al  Al18  1  0.336958  0.337454  0.988630  1
  Al  Al19  1  0.336958  0.988630  0.337454  1
  Al  Al20  1  0.991632  0.336338  0.336338  1
  Al  Al21  1  0.335693  0.336338  0.336338  1
  Ir  Ir22  1  0.991393  0.008607  0.008607  1
  Ir  Ir23  1  0.999025  0.000333  0.494565  1
  Ir  Ir24  1  0.506078  0.000333  0.494565  1
  Ir  Ir25  1  0.997611  0.502389  0.502389  1
  Ir  Ir26  1  0.506078  0.494565  0.000333  1
  Ir  Ir27  1  0.999025  0.494565  0.000333  1
  Ir  Ir28  1  0.498313  0.001687  0.001687  1
