# generated using pymatgen
data_Ba2MgSn2HgSe8
_symmetry_space_group_name_H-M   'P 1'
_cell_length_a   6.71331849
_cell_length_b   6.66490101
_cell_length_c   11.62449900
_cell_angle_alpha   90.00000000
_cell_angle_beta   90.00000000
_cell_angle_gamma   117.56018014
_symmetry_Int_Tables_number   1
_chemical_formula_structural   Ba2MgSn2HgSe8
_chemical_formula_sum   'Ba2 Mg1 Sn2 Hg1 Se8'
_cell_volume   461.10131160
_cell_formula_units_Z   1
loop_
 _symmetry_equiv_pos_site_id
 _symmetry_equiv_pos_as_xyz
  1  'x, y, z'
loop_
 _atom_site_type_symbol
 _atom_site_label
 _atom_site_symmetry_multiplicity
 _atom_site_fract_x
 _atom_site_fract_y
 _atom_site_fract_z
 _atom_site_occupancy
  Ba  Ba0  1  0.951221  0.949055  0.502069  1
  Ba  Ba1  1  0.951221  0.949055  0.997931  1
  Mg  Mg2  1  0.686947  0.357015  0.750000  1
  Sn  Sn3  1  0.244136  0.672793  0.750000  1
  Sn  Sn4  1  0.675776  0.249755  0.250000  1
  Hg  Hg5  1  0.337378  0.675405  0.250000  1
  Se  Se6  1  0.980689  0.459091  0.581320  1
  Se  Se7  1  0.466098  0.996344  0.422746  1
  Se  Se8  1  0.649416  0.740939  0.750000  1
  Se  Se9  1  0.763325  0.661320  0.250000  1
  Se  Se10  1  0.980689  0.459091  0.918680  1
  Se  Se11  1  0.466098  0.996344  0.077254  1
  Se  Se12  1  0.266837  0.070441  0.750000  1
  Se  Se13  1  0.060967  0.244152  0.250000  1
