# generated using pymatgen
data_InBiRh4(PbO7)2
_symmetry_space_group_name_H-M   'P 1'
_cell_length_a   7.33080744
_cell_length_b   7.25055484
_cell_length_c   7.33080779
_cell_angle_alpha   59.13679031
_cell_angle_beta   59.40275829
_cell_angle_gamma   59.13679042
_symmetry_Int_Tables_number   1
_chemical_formula_structural   InBiRh4(PbO7)2
_chemical_formula_sum   'In1 Bi1 Rh4 Pb2 O14'
_cell_volume   270.65881419
_cell_formula_units_Z   1
loop_
 _symmetry_equiv_pos_site_id
 _symmetry_equiv_pos_as_xyz
  1  'x, y, z'
loop_
 _atom_site_type_symbol
 _atom_site_label
 _atom_site_symmetry_multiplicity
 _atom_site_fract_x
 _atom_site_fract_y
 _atom_site_fract_z
 _atom_site_occupancy
  In  In0  1  0.125000  0.625000  0.125000  1
  Bi  Bi1  1  0.125000  0.125000  0.125000  1
  Rh  Rh2  1  0.625000  0.625000  0.625000  1
  Rh  Rh3  1  0.625000  0.625000  0.125000  1
  Rh  Rh4  1  0.125000  0.625000  0.625000  1
  Rh  Rh5  1  0.625000  0.125000  0.625000  1
  Pb  Pb6  1  0.625000  0.125000  0.125000  1
  Pb  Pb7  1  0.125000  0.125000  0.625000  1
  O  O8  1  0.241584  0.264962  0.241584  1
  O  O9  1  0.290499  0.706096  0.290499  1
  O  O10  1  0.958682  0.958976  0.539800  1
  O  O11  1  0.541269  0.959427  0.541269  1
  O  O12  1  0.715675  0.705374  0.288785  1
  O  O13  1  0.961215  0.544626  0.534325  1
  O  O14  1  0.708731  0.290573  0.708731  1
  O  O15  1  0.291318  0.291024  0.710200  1
  O  O16  1  0.710200  0.291024  0.291318  1
  O  O17  1  0.288785  0.705374  0.715675  1
  O  O18  1  0.959501  0.543904  0.959501  1
  O  O19  1  0.534325  0.544626  0.961215  1
  O  O20  1  0.008416  0.985038  0.008416  1
  O  O21  1  0.539800  0.958976  0.958682  1
