# generated using pymatgen
data_Cs4Na2DyAlSb4
_symmetry_space_group_name_H-M   'P 1'
_cell_length_a   10.31082627
_cell_length_b   10.31082636
_cell_length_c   10.31082616
_cell_angle_alpha   136.91156929
_cell_angle_beta   61.21487668
_cell_angle_gamma   138.69668066
_symmetry_Int_Tables_number   1
_chemical_formula_structural   Cs4Na2DyAlSb4
_chemical_formula_sum   'Cs4 Na2 Dy1 Al1 Sb4'
_cell_volume   488.75693855
_cell_formula_units_Z   1
loop_
 _symmetry_equiv_pos_site_id
 _symmetry_equiv_pos_as_xyz
  1  'x, y, z'
loop_
 _atom_site_type_symbol
 _atom_site_label
 _atom_site_symmetry_multiplicity
 _atom_site_fract_x
 _atom_site_fract_y
 _atom_site_fract_z
 _atom_site_occupancy
  Cs  Cs0  1  0.328323  0.770572  0.097322  1
  Cs  Cs1  1  0.171677  0.268999  0.442249  1
  Cs  Cs2  1  0.826750  0.729429  0.557752  1
  Cs  Cs3  1  0.673250  0.231002  0.902679  1
  Na  Na4  1  0.750000  0.250000  0.500000  1
  Na  Na5  1  0.250000  0.750001  0.500001  1
  Dy  Dy6  1  0.250000  0.250000  0.000000  1
  Al  Al7  1  0.750000  0.750000  0.000000  1
  Sb  Sb8  1  0.890966  0.196367  0.123501  1
  Sb  Sb9  1  0.609034  0.732536  0.305402  1
  Sb  Sb10  1  0.427134  0.303633  0.694599  1
  Sb  Sb11  1  0.072866  0.767465  0.876500  1
