# generated using pymatgen
data_DyTh3(CdPt2)2
_symmetry_space_group_name_H-M   'P 1'
_cell_length_a   7.92938914
_cell_length_b   7.92938950
_cell_length_c   3.78043100
_cell_angle_alpha   90.00000000
_cell_angle_beta   90.00000000
_cell_angle_gamma   89.47785103
_symmetry_Int_Tables_number   1
_chemical_formula_structural   DyTh3(CdPt2)2
_chemical_formula_sum   'Dy1 Th3 Cd2 Pt4'
_cell_volume   237.68554161
_cell_formula_units_Z   1
loop_
 _symmetry_equiv_pos_site_id
 _symmetry_equiv_pos_as_xyz
  1  'x, y, z'
loop_
 _atom_site_type_symbol
 _atom_site_label
 _atom_site_symmetry_multiplicity
 _atom_site_fract_x
 _atom_site_fract_y
 _atom_site_fract_z
 _atom_site_occupancy
  Dy  Dy0  1  0.673063  0.173063  0.500000  1
  Th  Th1  1  0.330683  0.830683  0.500000  1
  Th  Th2  1  0.825493  0.670612  0.500000  1
  Th  Th3  1  0.170612  0.325493  0.500000  1
  Cd  Cd4  1  0.993634  0.002430  0.000000  1
  Cd  Cd5  1  0.502430  0.493634  0.000000  1
  Pt  Pt6  1  0.369822  0.128853  0.000000  1
  Pt  Pt7  1  0.873435  0.373435  0.000000  1
  Pt  Pt8  1  0.131975  0.631975  0.000000  1
  Pt  Pt9  1  0.628853  0.869822  0.000000  1
