# generated using pymatgen
data_Tb4Dy8Co4SnRu
_symmetry_space_group_name_H-M   'P 1'
_cell_length_a   8.30212920
_cell_length_b   8.30212830
_cell_length_c   8.30212958
_cell_angle_alpha   106.63937407
_cell_angle_beta   110.59815696
_cell_angle_gamma   111.21334232
_symmetry_Int_Tables_number   1
_chemical_formula_structural   Tb4Dy8Co4SnRu
_chemical_formula_sum   'Tb4 Dy8 Co4 Sn1 Ru1'
_cell_volume   439.68524588
_cell_formula_units_Z   1
loop_
 _symmetry_equiv_pos_site_id
 _symmetry_equiv_pos_as_xyz
  1  'x, y, z'
loop_
 _atom_site_type_symbol
 _atom_site_label
 _atom_site_symmetry_multiplicity
 _atom_site_fract_x
 _atom_site_fract_y
 _atom_site_fract_z
 _atom_site_occupancy
  Tb  Tb0  1  0.473414  0.288290  0.185125  1
  Tb  Tb1  1  0.103165  0.288290  0.814875  1
  Tb  Tb2  1  0.896835  0.711710  0.185125  1
  Tb  Tb3  1  0.526586  0.711710  0.814875  1
  Dy  Dy4  1  0.306275  0.619441  0.313166  1
  Dy  Dy5  1  0.306275  0.993110  0.686834  1
  Dy  Dy6  1  0.693725  0.380559  0.686834  1
  Dy  Dy7  1  0.693725  0.006890  0.313166  1
  Dy  Dy8  1  0.193797  0.213207  0.407003  1
  Dy  Dy9  1  0.806203  0.786793  0.592997  1
  Dy  Dy10  1  0.193797  0.786793  0.980589  1
  Dy  Dy11  1  0.806203  0.213207  0.019411  1
  Co  Co12  1  0.500000  0.611648  0.111648  1
  Co  Co13  1  0.500000  0.388352  0.888352  1
  Co  Co14  1  0.378941  0.000000  0.378941  1
  Co  Co15  1  0.621059  0.000000  0.621059  1
  Sn  Sn16  1  0.000000  0.500000  0.500000  1
  Ru  Ru17  1  0.000000  0.000000  0.000000  1
