# generated using pymatgen
data_Ti6NbTc12Mo5
_symmetry_space_group_name_H-M   'P 1'
_cell_length_a   4.39562700
_cell_length_b   6.25691800
_cell_length_c   13.32208200
_cell_angle_alpha   90.00000000
_cell_angle_beta   89.99987031
_cell_angle_gamma   90.00000000
_symmetry_Int_Tables_number   1
_chemical_formula_structural   Ti6NbTc12Mo5
_chemical_formula_sum   'Ti6 Nb1 Tc12 Mo5'
_cell_volume   366.39825634
_cell_formula_units_Z   1
loop_
 _symmetry_equiv_pos_site_id
 _symmetry_equiv_pos_as_xyz
  1  'x, y, z'
loop_
 _atom_site_type_symbol
 _atom_site_label
 _atom_site_symmetry_multiplicity
 _atom_site_fract_x
 _atom_site_fract_y
 _atom_site_fract_z
 _atom_site_occupancy
  Ti  Ti0  1  0.000000  0.500000  0.000000  1
  Ti  Ti1  1  0.499892  0.000000  0.167431  1
  Ti  Ti2  1  0.999888  0.500000  0.332871  1
  Ti  Ti3  1  0.500000  0.000000  0.500000  1
  Ti  Ti4  1  0.000112  0.500000  0.667129  1
  Ti  Ti5  1  0.500107  0.000000  0.832569  1
  Nb  Nb6  1  0.000000  0.000000  0.000000  1
  Tc  Tc7  1  0.500000  0.253267  0.000000  1
  Tc  Tc8  1  0.500000  0.746733  0.000000  1
  Tc  Tc9  1  0.999890  0.251679  0.168718  1
  Tc  Tc10  1  0.999890  0.748321  0.168718  1
  Tc  Tc11  1  0.499897  0.249630  0.333943  1
  Tc  Tc12  1  0.499897  0.750369  0.333943  1
  Tc  Tc13  1  0.000000  0.250416  0.500000  1
  Tc  Tc14  1  0.000000  0.749584  0.500000  1
  Tc  Tc15  1  0.500104  0.249630  0.666057  1
  Tc  Tc16  1  0.500104  0.750369  0.666057  1
  Tc  Tc17  1  0.000108  0.251679  0.831282  1
  Tc  Tc18  1  0.000108  0.748321  0.831282  1
  Mo  Mo19  1  0.499883  0.500000  0.166539  1
  Mo  Mo20  1  0.999892  0.000000  0.333663  1
  Mo  Mo21  1  0.500000  0.500000  0.500000  1
  Mo  Mo22  1  0.000109  0.000000  0.666337  1
  Mo  Mo23  1  0.500117  0.500000  0.833461  1
