# generated using pymatgen
data_NaPu2N3
_symmetry_space_group_name_H-M   'P 1'
_cell_length_a   6.06968027
_cell_length_b   6.06968113
_cell_length_c   6.06968193
_cell_angle_alpha   146.52492834
_cell_angle_beta   134.63598806
_cell_angle_gamma   57.53895161
_symmetry_Int_Tables_number   1
_chemical_formula_structural   NaPu2N3
_chemical_formula_sum   'Na1 Pu2 N3'
_cell_volume   87.07040178
_cell_formula_units_Z   1
loop_
 _symmetry_equiv_pos_site_id
 _symmetry_equiv_pos_as_xyz
  1  'x, y, z'
loop_
 _atom_site_type_symbol
 _atom_site_label
 _atom_site_symmetry_multiplicity
 _atom_site_fract_x
 _atom_site_fract_y
 _atom_site_fract_z
 _atom_site_occupancy
  Na  Na0  1  0.000000  0.000000  0.000000  1
  Pu  Pu1  1  0.658862  0.658862  0.000000  1
  Pu  Pu2  1  0.341138  0.341138  0.000000  1
  N  N3  1  0.500000  0.000000  0.500000  1
  N  N4  1  0.206450  0.706450  0.500000  1
  N  N5  1  0.793550  0.293550  0.500000  1
