# generated using pymatgen
data_Na4LaP12Ir19
_symmetry_space_group_name_H-M   'P 1'
_cell_length_a   12.65591600
_cell_length_b   12.67195455
_cell_length_c   3.97728500
_cell_angle_alpha   90.00000000
_cell_angle_beta   90.00000000
_cell_angle_gamma   119.95814593
_symmetry_Int_Tables_number   1
_chemical_formula_structural   Na4LaP12Ir19
_chemical_formula_sum   'Na4 La1 P12 Ir19'
_cell_volume   552.63392660
_cell_formula_units_Z   1
loop_
 _symmetry_equiv_pos_site_id
 _symmetry_equiv_pos_as_xyz
  1  'x, y, z'
loop_
 _atom_site_type_symbol
 _atom_site_label
 _atom_site_symmetry_multiplicity
 _atom_site_fract_x
 _atom_site_fract_y
 _atom_site_fract_z
 _atom_site_occupancy
  Na  Na0  1  0.001135  0.817302  0.500000  1
  Na  Na1  1  0.183833  0.182698  0.500000  1
  Na  Na2  1  0.333267  0.667268  0.000000  1
  Na  Na3  1  0.666000  0.332732  0.000000  1
  La  La4  1  0.823008  0.000000  0.500000  1
  P  P5  1  0.008277  0.186595  0.000000  1
  P  P6  1  0.821682  0.813405  0.000000  1
  P  P7  1  0.181069  0.000000  0.000000  1
  P  P8  1  0.511926  0.688698  0.500000  1
  P  P9  1  0.309257  0.823570  0.500000  1
  P  P10  1  0.177133  0.488727  0.500000  1
  P  P11  1  0.485687  0.176430  0.500000  1
  P  P12  1  0.688406  0.511273  0.500000  1
  P  P13  1  0.823228  0.311302  0.500000  1
  P  P14  1  0.000097  0.639512  0.000000  1
  P  P15  1  0.360585  0.360488  0.000000  1
  P  P16  1  0.635804  0.000000  0.000000  1
  Ir  Ir17  1  0.000400  0.293074  0.500000  1
  Ir  Ir18  1  0.707326  0.706926  0.500000  1
  Ir  Ir19  1  0.290854  0.000000  0.500000  1
  Ir  Ir20  1  0.620980  0.801026  0.000000  1
  Ir  Ir21  1  0.196411  0.817429  0.000000  1
  Ir  Ir22  1  0.183921  0.381132  0.000000  1
  Ir  Ir23  1  0.378982  0.182571  0.000000  1
  Ir  Ir24  1  0.802788  0.618868  0.000000  1
  Ir  Ir25  1  0.819953  0.198974  0.000000  1
  Ir  Ir26  1  0.508216  0.870447  0.500000  1
  Ir  Ir27  1  0.127587  0.638262  0.500000  1
  Ir  Ir28  1  0.361436  0.491208  0.500000  1
  Ir  Ir29  1  0.489325  0.361738  0.500000  1
  Ir  Ir30  1  0.870228  0.508792  0.500000  1
  Ir  Ir31  1  0.637769  0.129553  0.500000  1
  Ir  Ir32  1  0.998986  0.000000  0.000000  1
  Ir  Ir33  1  0.997918  0.457406  0.000000  1
  Ir  Ir34  1  0.540512  0.542594  0.000000  1
  Ir  Ir35  1  0.456011  0.000000  0.000000  1
