# generated using pymatgen
data_Y3HoAgRh
_symmetry_space_group_name_H-M   'P 1'
_cell_length_a   9.55523898
_cell_length_b   9.55463731
_cell_length_c   9.55480340
_cell_angle_alpha   60.00252015
_cell_angle_beta   59.99820129
_cell_angle_gamma   59.99932286
_symmetry_Int_Tables_number   1
_chemical_formula_structural   Y3HoAgRh
_chemical_formula_sum   'Y12 Ho4 Ag4 Rh4'
_cell_volume   616.82598521
_cell_formula_units_Z   4
loop_
 _symmetry_equiv_pos_site_id
 _symmetry_equiv_pos_as_xyz
  1  'x, y, z'
loop_
 _atom_site_type_symbol
 _atom_site_label
 _atom_site_symmetry_multiplicity
 _atom_site_fract_x
 _atom_site_fract_y
 _atom_site_fract_z
 _atom_site_occupancy
  Y  Y0  1  0.061814  0.438181  0.438189  1
  Y  Y1  1  0.438187  0.061847  0.061773  1
  Y  Y2  1  0.437871  0.062130  0.437855  1
  Y  Y3  1  0.062168  0.437859  0.062102  1
  Y  Y4  1  0.438013  0.438029  0.061930  1
  Y  Y5  1  0.061980  0.061980  0.438029  1
  Y  Y6  1  0.186485  0.813508  0.813521  1
  Y  Y7  1  0.813523  0.186498  0.186460  1
  Y  Y8  1  0.813774  0.186261  0.813763  1
  Y  Y9  1  0.186188  0.813787  0.186238  1
  Y  Y10  1  0.813627  0.813625  0.186333  1
  Y  Y11  1  0.186410  0.186362  0.813623  1
  Ho  Ho12  1  0.602809  0.602671  0.602752  1
  Ho  Ho13  1  0.602675  0.602779  0.191775  1
  Ho  Ho14  1  0.602802  0.191773  0.602775  1
  Ho  Ho15  1  0.191744  0.602766  0.602682  1
  Ag  Ag16  1  0.831667  0.831685  0.831662  1
  Ag  Ag17  1  0.831654  0.831681  0.504986  1
  Ag  Ag18  1  0.831662  0.505000  0.831657  1
  Ag  Ag19  1  0.504995  0.831665  0.831675  1
  Rh  Rh20  1  0.395036  0.394860  0.395046  1
  Rh  Rh21  1  0.394870  0.395015  0.815154  1
  Rh  Rh22  1  0.394984  0.815045  0.395086  1
  Rh  Rh23  1  0.815064  0.394992  0.394935  1
