# generated using pymatgen
data_Tb17Er(TmPb8)2
_symmetry_space_group_name_H-M   'P 1'
_cell_length_a   8.22287902
_cell_length_b   8.31266912
_cell_length_c   15.71302000
_cell_angle_alpha   90.00000000
_cell_angle_beta   90.00000000
_cell_angle_gamma   90.03383905
_symmetry_Int_Tables_number   1
_chemical_formula_structural   Tb17Er(TmPb8)2
_chemical_formula_sum   'Tb17 Er1 Tm2 Pb16'
_cell_volume   1074.04872084
_cell_formula_units_Z   1
loop_
 _symmetry_equiv_pos_site_id
 _symmetry_equiv_pos_as_xyz
  1  'x, y, z'
loop_
 _atom_site_type_symbol
 _atom_site_label
 _atom_site_symmetry_multiplicity
 _atom_site_fract_x
 _atom_site_fract_y
 _atom_site_fract_z
 _atom_site_occupancy
  Tb  Tb0  1  0.377757  0.840980  0.879562  1
  Tb  Tb1  1  0.876996  0.659552  0.620386  1
  Tb  Tb2  1  0.622708  0.159271  0.379514  1
  Tb  Tb3  1  0.122487  0.340871  0.120652  1
  Tb  Tb4  1  0.622708  0.159271  0.120486  1
  Tb  Tb5  1  0.122487  0.340871  0.379348  1
  Tb  Tb6  1  0.377757  0.840980  0.620438  1
  Tb  Tb7  1  0.876996  0.659552  0.879614  1
  Tb  Tb8  1  0.534644  0.323086  0.899971  1
  Tb  Tb9  1  0.034215  0.176355  0.600074  1
  Tb  Tb10  1  0.465591  0.676616  0.399787  1
  Tb  Tb11  1  0.965552  0.823284  0.100068  1
  Tb  Tb12  1  0.465591  0.676616  0.100213  1
  Tb  Tb13  1  0.965552  0.823284  0.399932  1
  Tb  Tb14  1  0.534644  0.323086  0.600029  1
  Tb  Tb15  1  0.034215  0.176355  0.899926  1
  Tb  Tb16  1  0.208915  0.503565  0.750000  1
  Er  Er17  1  0.290859  0.003594  0.250000  1
  Tm  Tm18  1  0.709273  0.996048  0.750000  1
  Tm  Tm19  1  0.790790  0.496088  0.250000  1
  Pb  Pb20  1  0.280994  0.032927  0.043223  1
  Pb  Pb21  1  0.781039  0.467220  0.456666  1
  Pb  Pb22  1  0.718943  0.967179  0.543167  1
  Pb  Pb23  1  0.219035  0.533069  0.957369  1
  Pb  Pb24  1  0.718943  0.967179  0.956833  1
  Pb  Pb25  1  0.219035  0.533069  0.542631  1
  Pb  Pb26  1  0.280994  0.032927  0.456777  1
  Pb  Pb27  1  0.781039  0.467220  0.043334  1
  Pb  Pb28  1  0.573663  0.626669  0.750000  1
  Pb  Pb29  1  0.072267  0.874709  0.750000  1
  Pb  Pb30  1  0.427563  0.374011  0.250000  1
  Pb  Pb31  1  0.927295  0.126144  0.250000  1
  Pb  Pb32  1  0.346476  0.151801  0.750000  1
  Pb  Pb33  1  0.845655  0.346449  0.750000  1
  Pb  Pb34  1  0.653772  0.846806  0.250000  1
  Pb  Pb35  1  0.153549  0.653297  0.250000  1
