# generated using pymatgen
data_Tm12Fe2Ag2Ru
_symmetry_space_group_name_H-M   'P 1'
_cell_length_a   8.16649552
_cell_length_b   8.16649544
_cell_length_c   8.16649605
_cell_angle_alpha   108.44211025
_cell_angle_beta   108.44210634
_cell_angle_gamma   111.54965902
_symmetry_Int_Tables_number   1
_chemical_formula_structural   Tm12Fe2Ag2Ru
_chemical_formula_sum   'Tm12 Fe2 Ag2 Ru1'
_cell_volume   418.84633051
_cell_formula_units_Z   1
loop_
 _symmetry_equiv_pos_site_id
 _symmetry_equiv_pos_as_xyz
  1  'x, y, z'
loop_
 _atom_site_type_symbol
 _atom_site_label
 _atom_site_symmetry_multiplicity
 _atom_site_fract_x
 _atom_site_fract_y
 _atom_site_fract_z
 _atom_site_occupancy
  Tm  Tm0  1  0.190875  0.433772  0.242898  1
  Tm  Tm1  1  0.809125  0.566228  0.757102  1
  Tm  Tm2  1  0.190875  0.947978  0.757102  1
  Tm  Tm3  1  0.947978  0.190875  0.757102  1
  Tm  Tm4  1  0.809125  0.052022  0.242898  1
  Tm  Tm5  1  0.052022  0.809125  0.242898  1
  Tm  Tm6  1  0.433772  0.190875  0.242898  1
  Tm  Tm7  1  0.566228  0.809125  0.757102  1
  Tm  Tm8  1  0.310758  0.310758  0.621517  1
  Tm  Tm9  1  0.689242  0.689242  0.378483  1
  Tm  Tm10  1  0.689242  0.310758  0.000000  1
  Tm  Tm11  1  0.310758  0.689242  0.000000  1
  Fe  Fe12  1  0.379100  0.379100  0.000000  1
  Fe  Fe13  1  0.620900  0.620900  0.000000  1
  Ag  Ag14  1  0.000000  0.500000  0.500000  1
  Ag  Ag15  1  0.500000  0.000000  0.500000  1
  Ru  Ru16  1  0.000000  0.000000  0.000000  1
