# generated using pymatgen
data_Ca3Yb(Si4Tc3)2
_symmetry_space_group_name_H-M   'P 1'
_cell_length_a   6.76961600
_cell_length_b   6.80733639
_cell_length_c   12.52581400
_cell_angle_alpha   89.64266375
_cell_angle_beta   90.00000000
_cell_angle_gamma   90.00000000
_symmetry_Int_Tables_number   1
_chemical_formula_structural   Ca3Yb(Si4Tc3)2
_chemical_formula_sum   'Ca6 Yb2 Si16 Tc12'
_cell_volume   577.21652872
_cell_formula_units_Z   2
loop_
 _symmetry_equiv_pos_site_id
 _symmetry_equiv_pos_as_xyz
  1  'x, y, z'
loop_
 _atom_site_type_symbol
 _atom_site_label
 _atom_site_symmetry_multiplicity
 _atom_site_fract_x
 _atom_site_fract_y
 _atom_site_fract_z
 _atom_site_occupancy
  Ca  Ca0  1  0.491793  0.339973  0.089929  1
  Ca  Ca1  1  0.991793  0.160027  0.410071  1
  Ca  Ca2  1  0.507972  0.658575  0.589595  1
  Ca  Ca3  1  0.007972  0.841425  0.910405  1
  Ca  Ca4  1  0.508495  0.660633  0.910287  1
  Ca  Ca5  1  0.008495  0.839367  0.589713  1
  Yb  Yb6  1  0.490529  0.341027  0.410000  1
  Yb  Yb7  1  0.990529  0.158973  0.090000  1
  Si  Si8  1  0.651967  0.047566  0.550838  1
  Si  Si9  1  0.151967  0.452434  0.949162  1
  Si  Si10  1  0.347956  0.952415  0.051652  1
  Si  Si11  1  0.847956  0.547585  0.448348  1
  Si  Si12  1  0.348377  0.952139  0.448412  1
  Si  Si13  1  0.848377  0.547861  0.051588  1
  Si  Si14  1  0.651352  0.048988  0.948580  1
  Si  Si15  1  0.151352  0.451012  0.551420  1
  Si  Si16  1  0.529901  0.354630  0.750887  1
  Si  Si17  1  0.029901  0.145370  0.749113  1
  Si  Si18  1  0.470757  0.645347  0.249194  1
  Si  Si19  1  0.970757  0.854653  0.250806  1
  Si  Si20  1  0.812659  0.637708  0.750244  1
  Si  Si21  1  0.312659  0.862292  0.749756  1
  Si  Si22  1  0.187168  0.361350  0.249401  1
  Si  Si23  1  0.687168  0.138650  0.250599  1
  Tc  Tc24  1  0.823662  0.346305  0.626932  1
  Tc  Tc25  1  0.323662  0.153695  0.873068  1
  Tc  Tc26  1  0.173504  0.653557  0.127166  1
  Tc  Tc27  1  0.673504  0.846443  0.372834  1
  Tc  Tc28  1  0.176747  0.651677  0.372768  1
  Tc  Tc29  1  0.676747  0.848323  0.127232  1
  Tc  Tc30  1  0.827330  0.346374  0.873363  1
  Tc  Tc31  1  0.327330  0.153626  0.626637  1
  Tc  Tc32  1  0.671851  0.998955  0.750158  1
  Tc  Tc33  1  0.171851  0.501045  0.749842  1
  Tc  Tc34  1  0.327983  0.001894  0.249936  1
  Tc  Tc35  1  0.827983  0.498106  0.250064  1
