# generated using pymatgen
data_K4PrPuO6
_symmetry_space_group_name_H-M   'P 1'
_cell_length_a   6.33357829
_cell_length_b   6.33358378
_cell_length_c   6.62822500
_cell_angle_alpha   99.28525692
_cell_angle_beta   99.28537503
_cell_angle_gamma   119.91525563
_symmetry_Int_Tables_number   1
_chemical_formula_structural   K4PrPuO6
_chemical_formula_sum   'K4 Pr1 Pu1 O6'
_cell_volume   218.16356212
_cell_formula_units_Z   1
loop_
 _symmetry_equiv_pos_site_id
 _symmetry_equiv_pos_as_xyz
  1  'x, y, z'
loop_
 _atom_site_type_symbol
 _atom_site_label
 _atom_site_symmetry_multiplicity
 _atom_site_fract_x
 _atom_site_fract_y
 _atom_site_fract_z
 _atom_site_occupancy
  K  K0  1  0.499302  0.499313  0.000087  1
  K  K1  1  0.005301  0.992071  0.499492  1
  K  K2  1  0.655416  0.343730  0.500233  1
  K  K3  1  0.341805  0.662591  0.499996  1
  Pr  Pr4  1  0.828964  0.157591  0.000577  1
  Pu  Pu5  1  0.165894  0.830019  0.999917  1
  O  O6  1  0.970282  0.603110  0.191952  1
  O  O7  1  0.548918  0.940802  0.199636  1
  O  O8  1  0.196792  0.164125  0.190285  1
  O  O9  1  0.821552  0.804017  0.802135  1
  O  O10  1  0.066353  0.471043  0.805942  1
  O  O11  1  0.399431  0.031596  0.809757  1
