# generated using pymatgen
data_Hg(OsO3)3
_symmetry_space_group_name_H-M   'P 1'
_cell_length_a   7.38574600
_cell_length_b   7.38574543
_cell_length_c   3.74530000
_cell_angle_alpha   90.00000000
_cell_angle_beta   90.00000000
_cell_angle_gamma   120.00000257
_symmetry_Int_Tables_number   1
_chemical_formula_structural   Hg(OsO3)3
_chemical_formula_sum   'Hg1 Os3 O9'
_cell_volume   176.93181525
_cell_formula_units_Z   1
loop_
 _symmetry_equiv_pos_site_id
 _symmetry_equiv_pos_as_xyz
  1  'x, y, z'
loop_
 _atom_site_type_symbol
 _atom_site_label
 _atom_site_symmetry_multiplicity
 _atom_site_fract_x
 _atom_site_fract_y
 _atom_site_fract_z
 _atom_site_occupancy
  Hg  Hg0  1  0.000000  0.000000  0.531046  1
  Os  Os1  1  0.500000  0.500000  0.516739  1
  Os  Os2  1  0.500000  0.000000  0.516739  1
  Os  Os3  1  0.000000  0.500000  0.516739  1
  O  O4  1  0.593403  0.796702  0.517541  1
  O  O5  1  0.203298  0.796702  0.517541  1
  O  O6  1  0.203298  0.406597  0.517541  1
  O  O7  1  0.796702  0.593403  0.517541  1
  O  O8  1  0.796702  0.203298  0.517541  1
  O  O9  1  0.406597  0.203298  0.517541  1
  O  O10  1  0.500000  0.500000  0.017163  1
  O  O11  1  0.500000  0.000000  0.017163  1
  O  O12  1  0.000000  0.500000  0.017163  1
