# generated using pymatgen
data_Ba5Lu2HfAl2O13
_symmetry_space_group_name_H-M   'P 1'
_cell_length_a   5.96534400
_cell_length_b   5.96534361
_cell_length_c   24.91417000
_cell_angle_alpha   90.00000000
_cell_angle_beta   90.00000000
_cell_angle_gamma   120.00000214
_symmetry_Int_Tables_number   1
_chemical_formula_structural   Ba5Lu2HfAl2O13
_chemical_formula_sum   'Ba10 Lu4 Hf2 Al4 O26'
_cell_volume   767.79981572
_cell_formula_units_Z   2
loop_
 _symmetry_equiv_pos_site_id
 _symmetry_equiv_pos_as_xyz
  1  'x, y, z'
loop_
 _atom_site_type_symbol
 _atom_site_label
 _atom_site_symmetry_multiplicity
 _atom_site_fract_x
 _atom_site_fract_y
 _atom_site_fract_z
 _atom_site_occupancy
  Ba  Ba0  1  0.333333  0.666667  0.542063  1
  Ba  Ba1  1  0.666667  0.333333  0.457937  1
  Ba  Ba2  1  0.666667  0.333333  0.042063  1
  Ba  Ba3  1  0.333333  0.666667  0.957937  1
  Ba  Ba4  1  0.000000  0.000000  0.137833  1
  Ba  Ba5  1  0.000000  0.000000  0.862167  1
  Ba  Ba6  1  0.000000  0.000000  0.637833  1
  Ba  Ba7  1  0.000000  0.000000  0.362167  1
  Ba  Ba8  1  0.333333  0.666667  0.250000  1
  Ba  Ba9  1  0.666667  0.333333  0.750000  1
  Lu  Lu10  1  0.333333  0.666667  0.102713  1
  Lu  Lu11  1  0.666667  0.333333  0.897287  1
  Lu  Lu12  1  0.666667  0.333333  0.602713  1
  Lu  Lu13  1  0.333333  0.666667  0.397287  1
  Hf  Hf14  1  0.000000  0.000000  0.000000  1
  Hf  Hf15  1  0.000000  0.000000  0.500000  1
  Al  Al16  1  0.333333  0.666667  0.680130  1
  Al  Al17  1  0.666667  0.333333  0.319870  1
  Al  Al18  1  0.666667  0.333333  0.180130  1
  Al  Al19  1  0.333333  0.666667  0.819870  1
  O  O20  1  0.503872  0.007745  0.157027  1
  O  O21  1  0.496128  0.992255  0.842973  1
  O  O22  1  0.992255  0.496128  0.157027  1
  O  O23  1  0.496128  0.992255  0.657027  1
  O  O24  1  0.007745  0.503872  0.842973  1
  O  O25  1  0.503872  0.007745  0.342973  1
  O  O26  1  0.503872  0.496128  0.157027  1
  O  O27  1  0.007745  0.503872  0.657027  1
  O  O28  1  0.496128  0.503872  0.842973  1
  O  O29  1  0.992255  0.496128  0.342973  1
  O  O30  1  0.496128  0.503872  0.657027  1
  O  O31  1  0.503872  0.496128  0.342973  1
  O  O32  1  0.162827  0.325655  0.050074  1
  O  O33  1  0.837173  0.674345  0.949926  1
  O  O34  1  0.674345  0.837173  0.050074  1
  O  O35  1  0.837173  0.674345  0.550074  1
  O  O36  1  0.325655  0.162827  0.949926  1
  O  O37  1  0.162827  0.325655  0.449926  1
  O  O38  1  0.162827  0.837173  0.050074  1
  O  O39  1  0.325655  0.162827  0.550074  1
  O  O40  1  0.837173  0.162827  0.949926  1
  O  O41  1  0.674345  0.837173  0.449926  1
  O  O42  1  0.837173  0.162827  0.550074  1
  O  O43  1  0.162827  0.837173  0.449926  1
  O  O44  1  0.333333  0.666667  0.750000  1
  O  O45  1  0.666667  0.333333  0.250000  1
