# generated using pymatgen
data_Tb2BiSbO7
_symmetry_space_group_name_H-M   'P 1'
_cell_length_a   6.56567711
_cell_length_b   6.56567690
_cell_length_c   7.62259100
_cell_angle_alpha   90.00000000
_cell_angle_beta   90.00000000
_cell_angle_gamma   108.71751712
_symmetry_Int_Tables_number   1
_chemical_formula_structural   Tb2BiSbO7
_chemical_formula_sum   'Tb4 Bi2 Sb2 O14'
_cell_volume   311.21683558
_cell_formula_units_Z   2
loop_
 _symmetry_equiv_pos_site_id
 _symmetry_equiv_pos_as_xyz
  1  'x, y, z'
loop_
 _atom_site_type_symbol
 _atom_site_label
 _atom_site_symmetry_multiplicity
 _atom_site_fract_x
 _atom_site_fract_y
 _atom_site_fract_z
 _atom_site_occupancy
  Tb  Tb0  1  0.533316  0.999464  0.750000  1
  Tb  Tb1  1  0.999464  0.533316  0.250000  1
  Tb  Tb2  1  0.466684  0.000536  0.250000  1
  Tb  Tb3  1  0.000536  0.466684  0.750000  1
  Bi  Bi4  1  0.500000  0.500000  0.500000  1
  Bi  Bi5  1  0.500000  0.500000  0.000000  1
  Sb  Sb6  1  0.000000  0.000000  0.500000  1
  Sb  Sb7  1  0.000000  0.000000  0.000000  1
  O  O8  1  0.682476  0.935324  0.470125  1
  O  O9  1  0.935324  0.682476  0.529875  1
  O  O10  1  0.682476  0.935324  0.029875  1
  O  O11  1  0.935324  0.682476  0.970125  1
  O  O12  1  0.317524  0.064676  0.529875  1
  O  O13  1  0.064676  0.317524  0.470125  1
  O  O14  1  0.317524  0.064676  0.970125  1
  O  O15  1  0.064676  0.317524  0.029875  1
  O  O16  1  0.931876  0.068124  0.750000  1
  O  O17  1  0.068124  0.931876  0.250000  1
  O  O18  1  0.362694  0.637306  0.750000  1
  O  O19  1  0.637306  0.362694  0.250000  1
  O  O20  1  0.642154  0.357846  0.750000  1
  O  O21  1  0.357846  0.642154  0.250000  1
