# generated using pymatgen
data_Er3TmRu7W
_symmetry_space_group_name_H-M   'P 1'
_cell_length_a   5.46790900
_cell_length_b   5.17079783
_cell_length_c   8.97993101
_cell_angle_alpha   90.00340953
_cell_angle_beta   90.00104718
_cell_angle_gamma   121.99963629
_symmetry_Int_Tables_number   1
_chemical_formula_structural   Er3TmRu7W
_chemical_formula_sum   'Er3 Tm1 Ru7 W1'
_cell_volume   215.31487840
_cell_formula_units_Z   1
loop_
 _symmetry_equiv_pos_site_id
 _symmetry_equiv_pos_as_xyz
  1  'x, y, z'
loop_
 _atom_site_type_symbol
 _atom_site_label
 _atom_site_symmetry_multiplicity
 _atom_site_fract_x
 _atom_site_fract_y
 _atom_site_fract_z
 _atom_site_occupancy
  Er  Er0  1  0.672166  0.344665  0.562934  1
  Er  Er1  1  0.333562  0.667631  0.431626  1
  Er  Er2  1  0.333595  0.667686  0.068245  1
  Tm  Tm3  1  0.672341  0.345059  0.936857  1
  Ru  Ru4  1  0.008355  0.017143  0.498541  1
  Ru  Ru5  1  0.008275  0.016992  0.001452  1
  Ru  Ru6  1  0.170351  0.819179  0.750282  1
  Ru  Ru7  1  0.649860  0.819368  0.750254  1
  Ru  Ru8  1  0.824712  0.649651  0.249819  1
  Ru  Ru9  1  0.830210  0.165004  0.249887  1
  Ru  Ru10  1  0.336099  0.166106  0.249879  1
  W  W11  1  0.160473  0.321517  0.750223  1
