# generated using pymatgen
data_La3Nd6ErC4I15
_symmetry_space_group_name_H-M   'P 1'
_cell_length_a   9.83086086
_cell_length_b   10.68710970
_cell_length_c   11.82819376
_cell_angle_alpha   93.56809030
_cell_angle_beta   114.17569725
_cell_angle_gamma   109.53432241
_symmetry_Int_Tables_number   1
_chemical_formula_structural   La3Nd6ErC4I15
_chemical_formula_sum   'La3 Nd6 Er1 C4 I15'
_cell_volume   1039.39874420
_cell_formula_units_Z   1
loop_
 _symmetry_equiv_pos_site_id
 _symmetry_equiv_pos_as_xyz
  1  'x, y, z'
loop_
 _atom_site_type_symbol
 _atom_site_label
 _atom_site_symmetry_multiplicity
 _atom_site_fract_x
 _atom_site_fract_y
 _atom_site_fract_z
 _atom_site_occupancy
  La  La0  1  0.706819  0.569152  0.045210  1
  La  La1  1  0.293277  0.432102  0.955414  1
  La  La2  1  0.659582  0.253212  0.832044  1
  Nd  Nd3  1  0.346323  0.746919  0.164736  1
  Nd  Nd4  1  0.774963  0.882610  0.257227  1
  Nd  Nd5  1  0.527008  0.184169  0.100839  1
  Nd  Nd6  1  0.226849  0.116429  0.745341  1
  Nd  Nd7  1  0.402942  0.457885  0.658356  1
  Nd  Nd8  1  0.472956  0.815280  0.900523  1
  Er  Er9  1  0.592091  0.546099  0.333973  1
  C  C10  1  0.483994  0.299816  0.937570  1
  C  C11  1  0.518503  0.699719  0.063348  1
  C  C12  1  0.454424  0.361960  0.834217  1
  C  C13  1  0.546405  0.636777  0.166569  1
  I  I14  1  0.207600  0.906384  0.938230  1
  I  I15  1  0.105122  0.187390  0.472331  1
  I  I16  1  0.156044  0.559341  0.701953  1
  I  I17  1  0.400271  0.964668  0.647209  1
  I  I18  1  0.709058  0.736229  0.817909  1
  I  I19  1  0.300892  0.272861  0.189233  1
  I  I20  1  0.833852  0.443678  0.302900  1
  I  I21  1  0.881606  0.798400  0.523715  1
  I  I22  1  0.367104  0.626875  0.409888  1
  I  I23  1  0.055214  0.836641  0.222648  1
  I  I24  1  0.793367  0.094130  0.065555  1
  I  I25  1  0.639955  0.376573  0.581611  1
  I  I26  1  0.945555  0.161700  0.778266  1
  I  I27  1  0.594099  0.029718  0.350589  1
  I  I28  1  0.004124  0.503281  0.002594  1
