# generated using pymatgen
data_HoTa2(Nb2Cl9)2
_symmetry_space_group_name_H-M   'P 1'
_cell_length_a   10.15617409
_cell_length_b   10.15726687
_cell_length_c   10.15957800
_cell_angle_alpha   55.99622908
_cell_angle_beta   55.99965854
_cell_angle_gamma   55.97809203
_symmetry_Int_Tables_number   1
_chemical_formula_structural   HoTa2(Nb2Cl9)2
_chemical_formula_sum   'Ho1 Ta2 Nb4 Cl18'
_cell_volume   672.25772875
_cell_formula_units_Z   1
loop_
 _symmetry_equiv_pos_site_id
 _symmetry_equiv_pos_as_xyz
  1  'x, y, z'
loop_
 _atom_site_type_symbol
 _atom_site_label
 _atom_site_symmetry_multiplicity
 _atom_site_fract_x
 _atom_site_fract_y
 _atom_site_fract_z
 _atom_site_occupancy
  Ho  Ho0  1  0.999299  0.000260  0.000440  1
  Ta  Ta1  1  0.408301  0.300385  0.649596  1
  Ta  Ta2  1  0.350300  0.592062  0.699309  1
  Nb  Nb3  1  0.700316  0.349925  0.591592  1
  Nb  Nb4  1  0.300322  0.650244  0.407626  1
  Nb  Nb5  1  0.650710  0.407900  0.299374  1
  Nb  Nb6  1  0.592514  0.700306  0.349215  1
  Cl  Cl7  1  0.566403  0.160840  0.444878  1
  Cl  Cl8  1  0.224545  0.371500  0.906751  1
  Cl  Cl9  1  0.909329  0.223003  0.370671  1
  Cl  Cl10  1  0.370459  0.909339  0.223398  1
  Cl  Cl11  1  0.776700  0.629369  0.090849  1
  Cl  Cl12  1  0.092351  0.775549  0.631360  1
  Cl  Cl13  1  0.704955  0.958470  0.159237  1
  Cl  Cl14  1  0.957615  0.158734  0.705862  1
  Cl  Cl15  1  0.161670  0.703419  0.954905  1
  Cl  Cl16  1  0.296103  0.045319  0.838971  1
  Cl  Cl17  1  0.041987  0.840400  0.295034  1
  Cl  Cl18  1  0.840964  0.294510  0.041820  1
  Cl  Cl19  1  0.555091  0.433510  0.839204  1
  Cl  Cl20  1  0.162448  0.439405  0.570280  1
  Cl  Cl21  1  0.441936  0.568433  0.160745  1
  Cl  Cl22  1  0.429792  0.837411  0.560611  1
  Cl  Cl23  1  0.839368  0.558030  0.431598  1
  Cl  Cl24  1  0.626522  0.091680  0.776675  1
