# generated using pymatgen
data_HoTm7Tc(B8Ru)3
_symmetry_space_group_name_H-M   'P 1'
_cell_length_a   3.63003300
_cell_length_b   9.07424173
_cell_length_c   11.45417701
_cell_angle_alpha   89.91413882
_cell_angle_beta   90.00000000
_cell_angle_gamma   90.00000000
_symmetry_Int_Tables_number   1
_chemical_formula_structural   HoTm7Tc(B8Ru)3
_chemical_formula_sum   'Ho1 Tm7 Tc1 B24 Ru3'
_cell_volume   377.29784098
_cell_formula_units_Z   1
loop_
 _symmetry_equiv_pos_site_id
 _symmetry_equiv_pos_as_xyz
  1  'x, y, z'
loop_
 _atom_site_type_symbol
 _atom_site_label
 _atom_site_symmetry_multiplicity
 _atom_site_fract_x
 _atom_site_fract_y
 _atom_site_fract_z
 _atom_site_occupancy
  Ho  Ho0  1  0.000000  0.323887  0.413229  1
  Tm  Tm1  1  0.000000  0.677447  0.583336  1
  Tm  Tm2  1  0.000000  0.819868  0.088131  1
  Tm  Tm3  1  0.000000  0.177645  0.915159  1
  Tm  Tm4  1  0.000000  0.943228  0.372364  1
  Tm  Tm5  1  0.000000  0.056957  0.628349  1
  Tm  Tm6  1  0.000000  0.444343  0.127924  1
  Tm  Tm7  1  0.000000  0.556725  0.871613  1
  Tc  Tc8  1  0.000000  0.638079  0.320793  1
  B  B9  1  0.500000  0.553259  0.433512  1
  B  B10  1  0.500000  0.446652  0.567329  1
  B  B11  1  0.500000  0.053437  0.066600  1
  B  B12  1  0.500000  0.946241  0.933609  1
  B  B13  1  0.500000  0.749023  0.419875  1
  B  B14  1  0.500000  0.251362  0.580663  1
  B  B15  1  0.500000  0.248656  0.079823  1
  B  B16  1  0.500000  0.751161  0.919960  1
  B  B17  1  0.500000  0.792167  0.265571  1
  B  B18  1  0.500000  0.208478  0.734593  1
  B  B19  1  0.500000  0.291289  0.233272  1
  B  B20  1  0.500000  0.708896  0.765536  1
  B  B21  1  0.500000  0.631310  0.184874  1
  B  B22  1  0.500000  0.368485  0.815463  1
  B  B23  1  0.500000  0.131043  0.314581  1
  B  B24  1  0.500000  0.868996  0.684741  1
  B  B25  1  0.500000  0.982207  0.212553  1
  B  B26  1  0.500000  0.017622  0.787797  1
  B  B27  1  0.500000  0.482001  0.287016  1
  B  B28  1  0.500000  0.517590  0.712760  1
  B  B29  1  0.500000  0.606177  0.028727  1
  B  B30  1  0.500000  0.393345  0.970247  1
  B  B31  1  0.500000  0.106095  0.471057  1
  B  B32  1  0.500000  0.894687  0.529733  1
  Ru  Ru33  1  0.000000  0.361773  0.679870  1
  Ru  Ru34  1  0.000000  0.137657  0.178205  1
  Ru  Ru35  1  0.000000  0.862214  0.821135  1
