# generated using pymatgen
data_LaCd2Cu7Ni2
_symmetry_space_group_name_H-M   'P 1'
_cell_length_a   5.03720500
_cell_length_b   5.03720432
_cell_length_c   16.27173300
_cell_angle_alpha   90.00000000
_cell_angle_beta   90.00000000
_cell_angle_gamma   119.99999788
_symmetry_Int_Tables_number   1
_chemical_formula_structural   LaCd2Cu7Ni2
_chemical_formula_sum   'La2 Cd4 Cu14 Ni4'
_cell_volume   357.55564868
_cell_formula_units_Z   2
loop_
 _symmetry_equiv_pos_site_id
 _symmetry_equiv_pos_as_xyz
  1  'x, y, z'
loop_
 _atom_site_type_symbol
 _atom_site_label
 _atom_site_symmetry_multiplicity
 _atom_site_fract_x
 _atom_site_fract_y
 _atom_site_fract_z
 _atom_site_occupancy
  La  La0  1  0.333333  0.666667  0.750000  1
  La  La1  1  0.666667  0.333333  0.250000  1
  Cd  Cd2  1  0.333333  0.666667  0.532403  1
  Cd  Cd3  1  0.666667  0.333333  0.032403  1
  Cd  Cd4  1  0.666667  0.333333  0.467597  1
  Cd  Cd5  1  0.333333  0.666667  0.967597  1
  Cu  Cu6  1  0.000000  0.000000  0.000000  1
  Cu  Cu7  1  0.000000  0.000000  0.500000  1
  Cu  Cu8  1  0.167982  0.335965  0.124100  1
  Cu  Cu9  1  0.832018  0.167982  0.624100  1
  Cu  Cu10  1  0.335965  0.167982  0.624100  1
  Cu  Cu11  1  0.664035  0.832018  0.124100  1
  Cu  Cu12  1  0.167982  0.832018  0.124100  1
  Cu  Cu13  1  0.832018  0.664035  0.875900  1
  Cu  Cu14  1  0.832018  0.167982  0.875900  1
  Cu  Cu15  1  0.832018  0.664035  0.624100  1
  Cu  Cu16  1  0.335965  0.167982  0.875900  1
  Cu  Cu17  1  0.664035  0.832018  0.375900  1
  Cu  Cu18  1  0.167982  0.335965  0.375900  1
  Cu  Cu19  1  0.167982  0.832018  0.375900  1
  Ni  Ni20  1  0.000000  0.000000  0.250000  1
  Ni  Ni21  1  0.000000  0.000000  0.750000  1
  Ni  Ni22  1  0.333333  0.666667  0.250000  1
  Ni  Ni23  1  0.666667  0.333333  0.750000  1
