# generated using pymatgen
data_La3Si6(Pd3Rh)5
_symmetry_space_group_name_H-M   'P 1'
_cell_length_a   8.76206828
_cell_length_b   8.77396130
_cell_length_c   8.78763800
_cell_angle_alpha   59.94842247
_cell_angle_beta   59.90341871
_cell_angle_gamma   59.93114547
_symmetry_Int_Tables_number   1
_chemical_formula_structural   La3Si6(Pd3Rh)5
_chemical_formula_sum   'La3 Si6 Pd15 Rh5'
_cell_volume   476.92071410
_cell_formula_units_Z   1
loop_
 _symmetry_equiv_pos_site_id
 _symmetry_equiv_pos_as_xyz
  1  'x, y, z'
loop_
 _atom_site_type_symbol
 _atom_site_label
 _atom_site_symmetry_multiplicity
 _atom_site_fract_x
 _atom_site_fract_y
 _atom_site_fract_z
 _atom_site_occupancy
  La  La0  1  0.256505  0.247569  0.247963  1
  La  La1  1  0.745229  0.745627  0.754572  1
  La  La2  1  0.000344  0.999099  0.000279  1
  Si  Si3  1  0.722461  0.277407  0.271198  1
  Si  Si4  1  0.279957  0.723335  0.723039  1
  Si  Si5  1  0.279957  0.723335  0.273670  1
  Si  Si6  1  0.722461  0.277407  0.728934  1
  Si  Si7  1  0.274511  0.274519  0.725485  1
  Si  Si8  1  0.719984  0.726611  0.276702  1
  Pd  Pd9  1  0.618709  0.152557  0.614367  1
  Pd  Pd10  1  0.847590  0.382053  0.385177  1
  Pd  Pd11  1  0.150763  0.616960  0.616139  1
  Pd  Pd12  1  0.343051  0.001651  0.000307  1
  Pd  Pd13  1  0.656062  0.000223  0.999089  1
  Pd  Pd14  1  0.000299  0.344674  0.655018  1
  Pd  Pd15  1  0.999611  0.656965  0.343795  1
  Pd  Pd16  1  0.000299  0.344674  0.000010  1
  Pd  Pd17  1  0.656062  0.000223  0.344626  1
  Pd  Pd18  1  0.999611  0.656965  0.999629  1
  Pd  Pd19  1  0.343051  0.001651  0.654991  1
  Pd  Pd20  1  0.999244  0.001138  0.343858  1
  Pd  Pd21  1  0.999244  0.001138  0.655762  1
  Pd  Pd22  1  0.655593  0.345655  0.999376  1
  Pd  Pd23  1  0.343253  0.656239  0.000254  1
  Rh  Rh24  1  0.384020  0.384467  0.387857  1
  Rh  Rh25  1  0.617867  0.613858  0.613916  1
  Rh  Rh26  1  0.384020  0.384467  0.843654  1
  Rh  Rh27  1  0.382376  0.845680  0.385972  1
  Rh  Rh28  1  0.617867  0.613858  0.154360  1
