# generated using pymatgen
data_Ca20Ga8SnPb3
_symmetry_space_group_name_H-M   'P 1'
_cell_length_a   8.16612300
_cell_length_b   8.16612300
_cell_length_c   14.73599100
_cell_angle_alpha   90.00000000
_cell_angle_beta   90.00000000
_cell_angle_gamma   90.00000000
_symmetry_Int_Tables_number   1
_chemical_formula_structural   Ca20Ga8SnPb3
_chemical_formula_sum   'Ca20 Ga8 Sn1 Pb3'
_cell_volume   982.67788348
_cell_formula_units_Z   1
loop_
 _symmetry_equiv_pos_site_id
 _symmetry_equiv_pos_as_xyz
  1  'x, y, z'
loop_
 _atom_site_type_symbol
 _atom_site_label
 _atom_site_symmetry_multiplicity
 _atom_site_fract_x
 _atom_site_fract_y
 _atom_site_fract_z
 _atom_site_occupancy
  Ca  Ca0  1  0.679990  0.176038  0.112114  1
  Ca  Ca1  1  0.179119  0.677741  0.614440  1
  Ca  Ca2  1  0.320010  0.823962  0.112114  1
  Ca  Ca3  1  0.820881  0.322259  0.614440  1
  Ca  Ca4  1  0.823962  0.679990  0.112114  1
  Ca  Ca5  1  0.322259  0.179119  0.614440  1
  Ca  Ca6  1  0.176038  0.320010  0.112114  1
  Ca  Ca7  1  0.677741  0.820881  0.614440  1
  Ca  Ca8  1  0.823962  0.320010  0.887886  1
  Ca  Ca9  1  0.322259  0.820881  0.385560  1
  Ca  Ca10  1  0.176038  0.679990  0.887886  1
  Ca  Ca11  1  0.677741  0.179119  0.385560  1
  Ca  Ca12  1  0.679990  0.823962  0.887886  1
  Ca  Ca13  1  0.179119  0.322259  0.385560  1
  Ca  Ca14  1  0.320010  0.176038  0.887886  1
  Ca  Ca15  1  0.820881  0.677741  0.385560  1
  Ca  Ca16  1  0.500000  0.500000  0.753819  1
  Ca  Ca17  1  0.000000  0.000000  0.249088  1
  Ca  Ca18  1  0.000000  0.000000  0.750912  1
  Ca  Ca19  1  0.500000  0.500000  0.246181  1
  Ga  Ga20  1  0.611151  0.111983  0.751213  1
  Ga  Ga21  1  0.111983  0.611151  0.248787  1
  Ga  Ga22  1  0.888017  0.388849  0.248787  1
  Ga  Ga23  1  0.388849  0.888017  0.751213  1
  Ga  Ga24  1  0.888017  0.611151  0.751213  1
  Ga  Ga25  1  0.388849  0.111983  0.248787  1
  Ga  Ga26  1  0.111983  0.388849  0.751213  1
  Ga  Ga27  1  0.611151  0.888017  0.248787  1
  Sn  Sn28  1  0.000000  0.000000  0.000000  1
  Pb  Pb29  1  0.500000  0.500000  0.500000  1
  Pb  Pb30  1  0.500000  0.500000  0.000000  1
  Pb  Pb31  1  0.000000  0.000000  0.500000  1
