# generated using pymatgen
data_Zn22AgIr2Pd
_symmetry_space_group_name_H-M   'P 1'
_cell_length_a   7.95716443
_cell_length_b   7.93223244
_cell_length_c   7.96396600
_cell_angle_alpha   109.48169032
_cell_angle_beta   109.60819929
_cell_angle_gamma   109.22540639
_symmetry_Int_Tables_number   1
_chemical_formula_structural   Zn22AgIr2Pd
_chemical_formula_sum   'Zn22 Ag1 Ir2 Pd1'
_cell_volume   387.42139368
_cell_formula_units_Z   1
loop_
 _symmetry_equiv_pos_site_id
 _symmetry_equiv_pos_as_xyz
  1  'x, y, z'
loop_
 _atom_site_type_symbol
 _atom_site_label
 _atom_site_symmetry_multiplicity
 _atom_site_fract_x
 _atom_site_fract_y
 _atom_site_fract_z
 _atom_site_occupancy
  Zn  Zn0  1  0.717622  0.371294  0.715357  1
  Zn  Zn1  1  0.621802  0.355232  0.349620  1
  Zn  Zn2  1  0.349662  0.353536  0.616829  1
  Zn  Zn3  1  0.647867  0.274256  0.000049  1
  Zn  Zn4  1  0.218593  0.213837  0.220224  1
  Zn  Zn5  1  0.998353  0.993574  0.779798  1
  Zn  Zn6  1  0.781978  0.991991  0.999976  1
  Zn  Zn7  1  0.996504  0.783182  0.999972  1
  Zn  Zn8  1  0.356343  0.354750  0.999969  1
  Zn  Zn9  1  0.001736  0.635037  0.652669  1
  Zn  Zn10  1  0.988586  0.350946  0.350857  1
  Zn  Zn11  1  0.349085  0.982393  0.347368  1
  Zn  Zn12  1  0.637732  0.000077  0.649148  1
  Zn  Zn13  1  0.645525  0.637909  0.999987  1
  Zn  Zn14  1  0.355542  0.624292  0.353282  1
  Zn  Zn15  1  0.272169  0.005620  0.650407  1
  Zn  Zn16  1  0.652926  0.005443  0.274127  1
  Zn  Zn17  1  0.285319  0.654639  0.000040  1
  Zn  Zn18  1  0.732854  0.736724  0.383153  1
  Zn  Zn19  1  0.378756  0.731312  0.725871  1
  Zn  Zn20  1  0.002266  0.655953  0.284614  1
  Zn  Zn21  1  0.002263  0.271009  0.646703  1
  Ag  Ag22  1  0.001625  0.356033  0.000001  1
  Ir  Ir23  1  0.002036  0.002606  0.346576  1
  Ir  Ir24  1  0.655439  0.656025  0.653383  1
  Pd  Pd25  1  0.347418  0.002329  0.000019  1
