# generated using pymatgen
data_Hf4Tc24Sb
_symmetry_space_group_name_H-M   'P 1'
_cell_length_a   8.40553618
_cell_length_b   8.40553538
_cell_length_c   8.40553500
_cell_angle_alpha   109.47121249
_cell_angle_beta   109.47121057
_cell_angle_gamma   109.47123262
_symmetry_Int_Tables_number   1
_chemical_formula_structural   Hf4Tc24Sb
_chemical_formula_sum   'Hf4 Tc24 Sb1'
_cell_volume   457.16640192
_cell_formula_units_Z   1
loop_
 _symmetry_equiv_pos_site_id
 _symmetry_equiv_pos_as_xyz
  1  'x, y, z'
loop_
 _atom_site_type_symbol
 _atom_site_label
 _atom_site_symmetry_multiplicity
 _atom_site_fract_x
 _atom_site_fract_y
 _atom_site_fract_z
 _atom_site_occupancy
  Hf  Hf0  1  0.625690  0.000000  0.000000  1
  Hf  Hf1  1  0.000000  0.625690  0.000000  1
  Hf  Hf2  1  0.000000  0.000000  0.625690  1
  Hf  Hf3  1  0.374310  0.374310  0.374310  1
  Tc  Tc4  1  0.389894  0.673212  0.000000  1
  Tc  Tc5  1  0.716684  0.326788  0.326788  1
  Tc  Tc6  1  0.389894  0.000000  0.673212  1
  Tc  Tc7  1  0.673212  0.389894  0.000000  1
  Tc  Tc8  1  0.000000  0.389894  0.673212  1
  Tc  Tc9  1  0.326788  0.716684  0.326788  1
  Tc  Tc10  1  0.326788  0.326788  0.716684  1
  Tc  Tc11  1  0.000000  0.673212  0.389894  1
  Tc  Tc12  1  0.673212  0.000000  0.389894  1
  Tc  Tc13  1  0.610106  0.610106  0.283316  1
  Tc  Tc14  1  0.283316  0.610106  0.610106  1
  Tc  Tc15  1  0.610106  0.283316  0.610106  1
  Tc  Tc16  1  0.374564  0.194871  0.000000  1
  Tc  Tc17  1  0.179694  0.805129  0.805129  1
  Tc  Tc18  1  0.374564  0.000000  0.194871  1
  Tc  Tc19  1  0.194871  0.374564  0.000000  1
  Tc  Tc20  1  0.000000  0.374564  0.194871  1
  Tc  Tc21  1  0.805129  0.179694  0.805129  1
  Tc  Tc22  1  0.805129  0.805129  0.179694  1
  Tc  Tc23  1  0.000000  0.194871  0.374564  1
  Tc  Tc24  1  0.194871  0.000000  0.374564  1
  Tc  Tc25  1  0.625436  0.625436  0.820306  1
  Tc  Tc26  1  0.820306  0.625436  0.625436  1
  Tc  Tc27  1  0.625436  0.820306  0.625436  1
  Sb  Sb28  1  0.000000  0.000000  0.000000  1
