# generated using pymatgen
data_Gd6Zn4Pd11Pt2
_symmetry_space_group_name_H-M   'P 1'
_cell_length_a   8.28630170
_cell_length_b   8.28630205
_cell_length_c   8.26794800
_cell_angle_alpha   109.45672439
_cell_angle_beta   109.45673990
_cell_angle_gamma   109.58991403
_symmetry_Int_Tables_number   1
_chemical_formula_structural   Gd6Zn4Pd11Pt2
_chemical_formula_sum   'Gd6 Zn4 Pd11 Pt2'
_cell_volume   436.53087663
_cell_formula_units_Z   1
loop_
 _symmetry_equiv_pos_site_id
 _symmetry_equiv_pos_as_xyz
  1  'x, y, z'
loop_
 _atom_site_type_symbol
 _atom_site_label
 _atom_site_symmetry_multiplicity
 _atom_site_fract_x
 _atom_site_fract_y
 _atom_site_fract_z
 _atom_site_occupancy
  Gd  Gd0  1  0.699701  0.699717  0.999477  1
  Gd  Gd1  1  0.299273  0.000876  0.300132  1
  Gd  Gd2  1  0.000972  0.299185  0.300104  1
  Gd  Gd3  1  0.299661  0.299689  0.999407  1
  Gd  Gd4  1  0.700647  0.000175  0.700736  1
  Gd  Gd5  1  0.000114  0.700673  0.700716  1
  Zn  Zn6  1  0.999833  0.999831  0.499878  1
  Zn  Zn7  1  0.000020  0.500021  0.000051  1
  Zn  Zn8  1  0.500018  0.000021  0.000050  1
  Zn  Zn9  1  0.500039  0.500038  0.499877  1
  Pd  Pd10  1  0.666200  0.999988  0.333502  1
  Pd  Pd11  1  0.999976  0.666199  0.333488  1
  Pd  Pd12  1  0.666725  0.333400  0.000135  1
  Pd  Pd13  1  0.333507  0.667295  0.333494  1
  Pd  Pd14  1  0.999553  0.333757  0.666508  1
  Pd  Pd15  1  0.333394  0.666735  0.000146  1
  Pd  Pd16  1  0.333765  0.999573  0.666511  1
  Pd  Pd17  1  0.667287  0.333508  0.333490  1
  Pd  Pd18  1  0.666724  0.666720  0.333456  1
  Pd  Pd19  1  0.666938  0.332734  0.666506  1
  Pd  Pd20  1  0.332738  0.666946  0.666504  1
  Pt  Pt21  1  0.333156  0.333157  0.666317  1
  Pt  Pt22  1  0.999757  0.999758  0.999517  1
