# generated using pymatgen
data_SmTlBi4(SbO7)2
_symmetry_space_group_name_H-M   'P 1'
_cell_length_a   6.55974291
_cell_length_b   6.71123107
_cell_length_c   7.71930600
_cell_angle_alpha   106.77609099
_cell_angle_beta   89.56172698
_cell_angle_gamma   98.77698069
_symmetry_Int_Tables_number   1
_chemical_formula_structural   SmTlBi4(SbO7)2
_chemical_formula_sum   'Sm1 Tl1 Bi4 Sb2 O14'
_cell_volume   321.32291139
_cell_formula_units_Z   1
loop_
 _symmetry_equiv_pos_site_id
 _symmetry_equiv_pos_as_xyz
  1  'x, y, z'
loop_
 _atom_site_type_symbol
 _atom_site_label
 _atom_site_symmetry_multiplicity
 _atom_site_fract_x
 _atom_site_fract_y
 _atom_site_fract_z
 _atom_site_occupancy
  Sm  Sm0  1  0.453537  0.003794  0.248733  1
  Tl  Tl1  1  0.535466  0.000705  0.750120  1
  Bi  Bi2  1  0.253672  0.516021  0.882228  1
  Bi  Bi3  1  0.742942  0.478616  0.120714  1
  Bi  Bi4  1  0.740116  0.474412  0.611866  1
  Bi  Bi5  1  0.268583  0.537417  0.392803  1
  Sb  Sb6  1  0.996984  0.999797  0.499885  1
  Sb  Sb7  1  0.997391  0.998569  0.997649  1
  O  O8  1  0.453483  0.645315  0.174275  1
  O  O9  1  0.545937  0.341990  0.817859  1
  O  O10  1  0.287565  0.944648  0.956907  1
  O  O11  1  0.711071  0.054279  0.047570  1
  O  O12  1  0.281052  0.917772  0.505409  1
  O  O13  1  0.718141  0.081904  0.487386  1
  O  O14  1  0.536925  0.361384  0.356285  1
  O  O15  1  0.472165  0.658230  0.656772  1
  O  O16  1  0.917375  0.684184  0.956315  1
  O  O17  1  0.082702  0.312292  0.043453  1
  O  O18  1  0.103214  0.308164  0.613364  1
  O  O19  1  0.899312  0.690021  0.384721  1
  O  O20  1  0.910435  0.940080  0.733733  1
  O  O21  1  0.091932  0.050405  0.261952  1
