# generated using pymatgen
data_Ac10Yb9MgSn16
_symmetry_space_group_name_H-M   'P 1'
_cell_length_a   8.24911989
_cell_length_b   8.75346836
_cell_length_c   16.61716800
_cell_angle_alpha   89.97887114
_cell_angle_beta   90.03879165
_cell_angle_gamma   90.08985778
_symmetry_Int_Tables_number   1
_chemical_formula_structural   Ac10Yb9MgSn16
_chemical_formula_sum   'Ac10 Yb9 Mg1 Sn16'
_cell_volume   1199.89744712
_cell_formula_units_Z   1
loop_
 _symmetry_equiv_pos_site_id
 _symmetry_equiv_pos_as_xyz
  1  'x, y, z'
loop_
 _atom_site_type_symbol
 _atom_site_label
 _atom_site_symmetry_multiplicity
 _atom_site_fract_x
 _atom_site_fract_y
 _atom_site_fract_z
 _atom_site_occupancy
  Ac  Ac0  1  0.502891  0.817443  0.908719  1
  Ac  Ac1  1  0.002829  0.681986  0.591462  1
  Ac  Ac2  1  0.495542  0.180375  0.400073  1
  Ac  Ac3  1  0.998083  0.314141  0.099124  1
  Ac  Ac4  1  0.492456  0.180876  0.101337  1
  Ac  Ac5  1  0.995015  0.314563  0.399506  1
  Ac  Ac6  1  0.503957  0.814945  0.592522  1
  Ac  Ac7  1  0.003640  0.684297  0.907843  1
  Ac  Ac8  1  0.666107  0.326168  0.878463  1
  Ac  Ac9  1  0.166326  0.174779  0.621926  1
  Yb  Yb10  1  0.335375  0.673799  0.372411  1
  Yb  Yb11  1  0.839758  0.831308  0.128911  1
  Yb  Yb12  1  0.328928  0.674416  0.127071  1
  Yb  Yb13  1  0.833089  0.830427  0.371453  1
  Yb  Yb14  1  0.666543  0.330263  0.621136  1
  Yb  Yb15  1  0.166136  0.171018  0.878527  1
  Yb  Yb16  1  0.334671  0.503163  0.751130  1
  Yb  Yb17  1  0.834657  0.996732  0.748863  1
  Yb  Yb18  1  0.666698  0.504292  0.250545  1
  Mg  Mg19  1  0.171533  0.995561  0.249557  1
  Sn  Sn20  1  0.170013  0.960163  0.041158  1
  Sn  Sn21  1  0.669645  0.539408  0.457925  1
  Sn  Sn22  1  0.825071  0.035557  0.534659  1
  Sn  Sn23  1  0.325702  0.464499  0.965033  1
  Sn  Sn24  1  0.838962  0.032562  0.965757  1
  Sn  Sn25  1  0.339146  0.467725  0.534268  1
  Sn  Sn26  1  0.165545  0.956919  0.454744  1
  Sn  Sn27  1  0.665096  0.542089  0.045853  1
  Sn  Sn28  1  0.708457  0.637028  0.749283  1
  Sn  Sn29  1  0.208270  0.862925  0.750708  1
  Sn  Sn30  1  0.290788  0.369154  0.250507  1
  Sn  Sn31  1  0.792845  0.129187  0.249499  1
  Sn  Sn32  1  0.465220  0.102249  0.752160  1
  Sn  Sn33  1  0.964953  0.397475  0.747722  1
  Sn  Sn34  1  0.530490  0.890200  0.249192  1
  Sn  Sn35  1  0.035566  0.612309  0.250956  1
