# generated using pymatgen
data_La2V3Co9P7
_symmetry_space_group_name_H-M   'P 1'
_cell_length_a   9.16482600
_cell_length_b   9.16482675
_cell_length_c   3.69768800
_cell_angle_alpha   90.00000000
_cell_angle_beta   90.00000000
_cell_angle_gamma   119.99999730
_symmetry_Int_Tables_number   1
_chemical_formula_structural   La2V3Co9P7
_chemical_formula_sum   'La2 V3 Co9 P7'
_cell_volume   268.97343596
_cell_formula_units_Z   1
loop_
 _symmetry_equiv_pos_site_id
 _symmetry_equiv_pos_as_xyz
  1  'x, y, z'
loop_
 _atom_site_type_symbol
 _atom_site_label
 _atom_site_symmetry_multiplicity
 _atom_site_fract_x
 _atom_site_fract_y
 _atom_site_fract_z
 _atom_site_occupancy
  La  La0  1  0.333333  0.666667  0.000000  1
  La  La1  1  0.666667  0.333333  0.500000  1
  V  V2  1  0.215183  0.113747  0.500000  1
  V  V3  1  0.886253  0.101437  0.500000  1
  V  V4  1  0.898563  0.784817  0.500000  1
  Co  Co5  1  0.429749  0.370429  0.000000  1
  Co  Co6  1  0.629571  0.059320  0.000000  1
  Co  Co7  1  0.940680  0.570251  0.000000  1
  Co  Co8  1  0.153154  0.879040  0.000000  1
  Co  Co9  1  0.120960  0.274114  0.000000  1
  Co  Co10  1  0.725886  0.846846  0.000000  1
  Co  Co11  1  0.382735  0.951150  0.500000  1
  Co  Co12  1  0.048850  0.431586  0.500000  1
  Co  Co13  1  0.568414  0.617265  0.500000  1
  P  P14  1  0.404263  0.104059  0.000000  1
  P  P15  1  0.895941  0.300204  0.000000  1
  P  P16  1  0.699796  0.595737  0.000000  1
  P  P17  1  0.106102  0.707657  0.500000  1
  P  P18  1  0.292343  0.398446  0.500000  1
  P  P19  1  0.601554  0.893898  0.500000  1
  P  P20  1  0.000000  0.000000  0.000000  1
