# generated using pymatgen
data_PrCo2(PRu)3
_symmetry_space_group_name_H-M   'P 1'
_cell_length_a   3.82272500
_cell_length_b   10.71762900
_cell_length_c   12.25182700
_cell_angle_alpha   90.00000000
_cell_angle_beta   90.00000000
_cell_angle_gamma   90.00000000
_symmetry_Int_Tables_number   1
_chemical_formula_structural   PrCo2(PRu)3
_chemical_formula_sum   'Pr4 Co8 P12 Ru12'
_cell_volume   501.96407010
_cell_formula_units_Z   4
loop_
 _symmetry_equiv_pos_site_id
 _symmetry_equiv_pos_as_xyz
  1  'x, y, z'
loop_
 _atom_site_type_symbol
 _atom_site_label
 _atom_site_symmetry_multiplicity
 _atom_site_fract_x
 _atom_site_fract_y
 _atom_site_fract_z
 _atom_site_occupancy
  Pr  Pr0  1  0.250000  0.584353  0.706726  1
  Pr  Pr1  1  0.250000  0.915647  0.206726  1
  Pr  Pr2  1  0.750000  0.415647  0.293274  1
  Pr  Pr3  1  0.750000  0.084353  0.793274  1
  Co  Co4  1  0.250000  0.886758  0.693830  1
  Co  Co5  1  0.250000  0.613242  0.193830  1
  Co  Co6  1  0.750000  0.113242  0.306170  1
  Co  Co7  1  0.750000  0.386758  0.806170  1
  Co  Co8  1  0.250000  0.463249  0.935806  1
  Co  Co9  1  0.250000  0.036751  0.435806  1
  Co  Co10  1  0.750000  0.536751  0.064194  1
  Co  Co11  1  0.750000  0.963249  0.564194  1
  P  P12  1  0.250000  0.425251  0.109959  1
  P  P13  1  0.250000  0.074749  0.609959  1
  P  P14  1  0.750000  0.574749  0.890041  1
  P  P15  1  0.750000  0.925251  0.390041  1
  P  P16  1  0.250000  0.275387  0.871358  1
  P  P17  1  0.250000  0.224613  0.371358  1
  P  P18  1  0.750000  0.724613  0.128642  1
  P  P19  1  0.750000  0.775387  0.628642  1
  P  P20  1  0.250000  0.604894  0.389317  1
  P  P21  1  0.250000  0.895106  0.889317  1
  P  P22  1  0.750000  0.395106  0.610683  1
  P  P23  1  0.750000  0.104894  0.110683  1
  Ru  Ru24  1  0.250000  0.705207  0.985904  1
  Ru  Ru25  1  0.250000  0.794793  0.485904  1
  Ru  Ru26  1  0.750000  0.294793  0.014096  1
  Ru  Ru27  1  0.750000  0.205207  0.514096  1
  Ru  Ru28  1  0.250000  0.404356  0.487580  1
  Ru  Ru29  1  0.250000  0.095644  0.987580  1
  Ru  Ru30  1  0.750000  0.595644  0.512420  1
  Ru  Ru31  1  0.750000  0.904356  0.012420  1
  Ru  Ru32  1  0.250000  0.222528  0.179256  1
  Ru  Ru33  1  0.250000  0.277472  0.679256  1
  Ru  Ru34  1  0.750000  0.777472  0.820744  1
  Ru  Ru35  1  0.750000  0.722528  0.320744  1
