# generated using pymatgen
data_LaHo2Ga6(Ni2Pd)3
_symmetry_space_group_name_H-M   'P 1'
_cell_length_a   4.18083000
_cell_length_b   8.96943420
_cell_length_c   8.98403881
_cell_angle_alpha   119.94624040
_cell_angle_beta   90.00000000
_cell_angle_gamma   90.00000000
_symmetry_Int_Tables_number   1
_chemical_formula_structural   LaHo2Ga6(Ni2Pd)3
_chemical_formula_sum   'La1 Ho2 Ga6 Ni6 Pd3'
_cell_volume   291.92065060
_cell_formula_units_Z   1
loop_
 _symmetry_equiv_pos_site_id
 _symmetry_equiv_pos_as_xyz
  1  'x, y, z'
loop_
 _atom_site_type_symbol
 _atom_site_label
 _atom_site_symmetry_multiplicity
 _atom_site_fract_x
 _atom_site_fract_y
 _atom_site_fract_z
 _atom_site_occupancy
  La  La0  1  0.000000  0.999178  0.000000  1
  Ho  Ho1  1  0.500000  0.332939  0.666395  1
  Ho  Ho2  1  0.500000  0.666545  0.333605  1
  Ga  Ga3  1  0.000000  0.538078  0.000000  1
  Ga  Ga4  1  0.000000  0.462681  0.461985  1
  Ga  Ga5  1  0.000000  0.000697  0.538015  1
  Ga  Ga6  1  0.500000  0.290866  0.000000  1
  Ga  Ga7  1  0.500000  0.709311  0.709288  1
  Ga  Ga8  1  0.500000  0.000022  0.290712  1
  Ni  Ni9  1  0.000000  0.166583  0.393119  1
  Ni  Ni10  1  0.000000  0.226939  0.833421  1
  Ni  Ni11  1  0.000000  0.604301  0.771059  1
  Ni  Ni12  1  0.000000  0.773465  0.606881  1
  Ni  Ni13  1  0.000000  0.393519  0.166579  1
  Ni  Ni14  1  0.000000  0.833242  0.228941  1
  Pd  Pd15  1  0.500000  0.712805  0.000000  1
  Pd  Pd16  1  0.500000  0.288425  0.288123  1
  Pd  Pd17  1  0.500000  0.000302  0.711877  1
