# generated using pymatgen
data_Sc8UMn8Si12Ge
_symmetry_space_group_name_H-M   'P 1'
_cell_length_a   5.14803721
_cell_length_b   9.72237683
_cell_length_c   9.72237826
_cell_angle_alpha   85.57699343
_cell_angle_beta   74.64778242
_cell_angle_gamma   74.64778799
_symmetry_Int_Tables_number   1
_chemical_formula_structural   Sc8UMn8Si12Ge
_chemical_formula_sum   'Sc8 U1 Mn8 Si12 Ge1'
_cell_volume   452.49468388
_cell_formula_units_Z   1
loop_
 _symmetry_equiv_pos_site_id
 _symmetry_equiv_pos_as_xyz
  1  'x, y, z'
loop_
 _atom_site_type_symbol
 _atom_site_label
 _atom_site_symmetry_multiplicity
 _atom_site_fract_x
 _atom_site_fract_y
 _atom_site_fract_z
 _atom_site_occupancy
  Sc  Sc0  1  0.186248  0.813752  0.813752  1
  Sc  Sc1  1  0.817915  0.182085  0.182085  1
  Sc  Sc2  1  0.998493  0.196563  0.806453  1
  Sc  Sc3  1  0.998493  0.806453  0.196563  1
  Sc  Sc4  1  0.359483  0.002450  0.278584  1
  Sc  Sc5  1  0.639488  0.998286  0.722738  1
  Sc  Sc6  1  0.639488  0.722738  0.998286  1
  Sc  Sc7  1  0.359483  0.278584  0.002450  1
  U  U8  1  0.411510  0.588490  0.588490  1
  Mn  Mn9  1  0.390894  0.505799  0.205572  1
  Mn  Mn10  1  0.600987  0.498520  0.796698  1
  Mn  Mn11  1  0.103793  0.498520  0.796698  1
  Mn  Mn12  1  0.600987  0.796698  0.498520  1
  Mn  Mn13  1  0.897736  0.505799  0.205572  1
  Mn  Mn14  1  0.390894  0.205572  0.505799  1
  Mn  Mn15  1  0.897736  0.205572  0.505799  1
  Mn  Mn16  1  0.103793  0.796698  0.498520  1
  Si  Si17  1  0.995843  0.412270  0.596043  1
  Si  Si18  1  0.995843  0.596043  0.412270  1
  Si  Si19  1  0.254844  0.999450  0.999450  1
  Si  Si20  1  0.746255  0.999450  0.999450  1
  Si  Si21  1  0.204899  0.295101  0.295101  1
  Si  Si22  1  0.793324  0.706676  0.706676  1
  Si  Si23  1  0.499783  0.711412  0.289022  1
  Si  Si24  1  0.499783  0.289022  0.711412  1
  Si  Si25  1  0.207696  0.000786  0.583823  1
  Si  Si26  1  0.788010  0.004206  0.419774  1
  Si  Si27  1  0.788010  0.419774  0.004206  1
  Si  Si28  1  0.207696  0.583823  0.000786  1
  Ge  Ge29  1  0.620591  0.379409  0.379409  1
