# generated using pymatgen
data_Ho2MnRe3
_symmetry_space_group_name_H-M   'P 1'
_cell_length_a   5.31084262
_cell_length_b   5.31084202
_cell_length_c   8.97201700
_cell_angle_alpha   90.00000000
_cell_angle_beta   90.00000000
_cell_angle_gamma   120.10046122
_symmetry_Int_Tables_number   1
_chemical_formula_structural   Ho2MnRe3
_chemical_formula_sum   'Ho4 Mn2 Re6'
_cell_volume   218.93086896
_cell_formula_units_Z   2
loop_
 _symmetry_equiv_pos_site_id
 _symmetry_equiv_pos_as_xyz
  1  'x, y, z'
loop_
 _atom_site_type_symbol
 _atom_site_label
 _atom_site_symmetry_multiplicity
 _atom_site_fract_x
 _atom_site_fract_y
 _atom_site_fract_z
 _atom_site_occupancy
  Ho  Ho0  1  0.666565  0.333435  0.562869  1
  Ho  Ho1  1  0.333435  0.666565  0.437131  1
  Ho  Ho2  1  0.333435  0.666565  0.062869  1
  Ho  Ho3  1  0.666565  0.333435  0.937131  1
  Mn  Mn4  1  0.000000  0.000000  0.500000  1
  Mn  Mn5  1  0.000000  0.000000  0.000000  1
  Re  Re6  1  0.168129  0.336223  0.750000  1
  Re  Re7  1  0.168097  0.831903  0.750000  1
  Re  Re8  1  0.663777  0.831871  0.750000  1
  Re  Re9  1  0.831871  0.663777  0.250000  1
  Re  Re10  1  0.831903  0.168097  0.250000  1
  Re  Re11  1  0.336223  0.168129  0.250000  1
