# generated using pymatgen
data_Sc10MnAg3
_symmetry_space_group_name_H-M   'P 1'
_cell_length_a   8.73869200
_cell_length_b   8.73869213
_cell_length_c   9.10046600
_cell_angle_alpha   90.00000000
_cell_angle_beta   90.00000000
_cell_angle_gamma   119.99999192
_symmetry_Int_Tables_number   1
_chemical_formula_structural   Sc10MnAg3
_chemical_formula_sum   'Sc20 Mn2 Ag6'
_cell_volume   601.84848342
_cell_formula_units_Z   2
loop_
 _symmetry_equiv_pos_site_id
 _symmetry_equiv_pos_as_xyz
  1  'x, y, z'
loop_
 _atom_site_type_symbol
 _atom_site_label
 _atom_site_symmetry_multiplicity
 _atom_site_fract_x
 _atom_site_fract_y
 _atom_site_fract_z
 _atom_site_occupancy
  Sc  Sc0  1  0.000000  0.000000  0.500000  1
  Sc  Sc1  1  0.000000  0.000000  0.000000  1
  Sc  Sc2  1  0.539208  0.460792  0.250000  1
  Sc  Sc3  1  0.539208  0.078415  0.250000  1
  Sc  Sc4  1  0.921585  0.460792  0.250000  1
  Sc  Sc5  1  0.460792  0.539208  0.750000  1
  Sc  Sc6  1  0.460792  0.921585  0.750000  1
  Sc  Sc7  1  0.078415  0.539208  0.750000  1
  Sc  Sc8  1  0.211428  0.788572  0.440150  1
  Sc  Sc9  1  0.211428  0.422858  0.440150  1
  Sc  Sc10  1  0.577142  0.788572  0.440150  1
  Sc  Sc11  1  0.788572  0.211428  0.559850  1
  Sc  Sc12  1  0.788572  0.577142  0.559850  1
  Sc  Sc13  1  0.422858  0.211428  0.559850  1
  Sc  Sc14  1  0.788572  0.211428  0.940150  1
  Sc  Sc15  1  0.788572  0.577142  0.940150  1
  Sc  Sc16  1  0.422858  0.211428  0.940150  1
  Sc  Sc17  1  0.211428  0.788572  0.059850  1
  Sc  Sc18  1  0.211428  0.422858  0.059850  1
  Sc  Sc19  1  0.577142  0.788572  0.059850  1
  Mn  Mn20  1  0.333333  0.666667  0.250000  1
  Mn  Mn21  1  0.666667  0.333333  0.750000  1
  Ag  Ag22  1  0.884463  0.115537  0.250000  1
  Ag  Ag23  1  0.884463  0.768927  0.250000  1
  Ag  Ag24  1  0.231073  0.115537  0.250000  1
  Ag  Ag25  1  0.115537  0.884463  0.750000  1
  Ag  Ag26  1  0.115537  0.231073  0.750000  1
  Ag  Ag27  1  0.768927  0.884463  0.750000  1
