# generated using pymatgen
data_Y4Al11Ga7Ir6
_symmetry_space_group_name_H-M   'P 1'
_cell_length_a   7.53845925
_cell_length_b   7.53587508
_cell_length_c   9.57950666
_cell_angle_alpha   90.04531935
_cell_angle_beta   89.93363591
_cell_angle_gamma   119.66829098
_symmetry_Int_Tables_number   1
_chemical_formula_structural   Y4Al11Ga7Ir6
_chemical_formula_sum   'Y4 Al11 Ga7 Ir6'
_cell_volume   472.85905318
_cell_formula_units_Z   1
loop_
 _symmetry_equiv_pos_site_id
 _symmetry_equiv_pos_as_xyz
  1  'x, y, z'
loop_
 _atom_site_type_symbol
 _atom_site_label
 _atom_site_symmetry_multiplicity
 _atom_site_fract_x
 _atom_site_fract_y
 _atom_site_fract_z
 _atom_site_occupancy
  Y  Y0  1  0.996397  0.667054  0.248751  1
  Y  Y1  1  0.003537  0.330850  0.753220  1
  Y  Y2  1  0.671635  0.998948  0.248723  1
  Y  Y3  1  0.330440  0.003642  0.749996  1
  Al  Al4  1  0.998676  0.666807  0.926345  1
  Al  Al5  1  0.998803  0.665677  0.572417  1
  Al  Al6  1  0.334261  0.000869  0.427533  1
  Al  Al7  1  0.001866  0.334273  0.429354  1
  Al  Al8  1  0.665885  0.998795  0.572373  1
  Al  Al9  1  0.664443  0.997007  0.926240  1
  Al  Al10  1  0.334287  0.001540  0.072416  1
  Al  Al11  1  0.334069  0.333817  0.554935  1
  Al  Al12  1  0.666580  0.666485  0.445461  1
  Al  Al13  1  0.666153  0.666047  0.054352  1
  Al  Al14  1  0.333186  0.333878  0.946279  1
  Ga  Ga15  1  0.129113  0.126492  0.249951  1
  Ga  Ga16  1  0.871398  0.872295  0.749329  1
  Ga  Ga17  1  0.999080  0.334540  0.078708  1
  Ga  Ga18  1  0.342403  0.549453  0.249996  1
  Ga  Ga19  1  0.660845  0.452896  0.749161  1
  Ga  Ga20  1  0.546142  0.339450  0.249471  1
  Ga  Ga21  1  0.452181  0.659574  0.749460  1
  Ir  Ir22  1  0.668686  0.327967  0.998444  1
  Ir  Ir23  1  0.330027  0.673610  0.999341  1
  Ir  Ir24  1  0.328255  0.671481  0.499761  1
  Ir  Ir25  1  0.671758  0.328233  0.499069  1
  Ir  Ir26  1  0.999815  0.998054  0.999376  1
  Ir  Ir27  1  0.000079  0.000268  0.499538  1
