# generated using pymatgen
data_La3Yb(GeIr2)2
_symmetry_space_group_name_H-M   'P 1'
_cell_length_a   5.72587339
_cell_length_b   5.72543106
_cell_length_c   7.93570726
_cell_angle_alpha   100.82902447
_cell_angle_beta   101.11892710
_cell_angle_gamma   59.37100626
_symmetry_Int_Tables_number   1
_chemical_formula_structural   La3Yb(GeIr2)2
_chemical_formula_sum   'La3 Yb1 Ge2 Ir4'
_cell_volume   218.41784369
_cell_formula_units_Z   1
loop_
 _symmetry_equiv_pos_site_id
 _symmetry_equiv_pos_as_xyz
  1  'x, y, z'
loop_
 _atom_site_type_symbol
 _atom_site_label
 _atom_site_symmetry_multiplicity
 _atom_site_fract_x
 _atom_site_fract_y
 _atom_site_fract_z
 _atom_site_occupancy
  La  La0  1  0.290511  0.002075  0.136179  1
  La  La1  1  0.004503  0.706193  0.356467  1
  La  La2  1  0.999081  0.296302  0.657326  1
  Yb  Yb3  1  0.705469  0.998470  0.849114  1
  Ge  Ge4  1  0.633542  0.366090  0.248307  1
  Ge  Ge5  1  0.371943  0.624901  0.750876  1
  Ir  Ir6  1  0.762098  0.505198  0.999914  1
  Ir  Ir7  1  0.495566  0.232768  0.501986  1
  Ir  Ir8  1  0.503641  0.763630  0.496070  1
  Ir  Ir9  1  0.233645  0.504372  0.003762  1
