# generated using pymatgen
data_KEuBeF6
_symmetry_space_group_name_H-M   'P 1'
_cell_length_a   5.99289500
_cell_length_b   6.49419626
_cell_length_c   7.25204981
_cell_angle_alpha   66.94990671
_cell_angle_beta   90.00000000
_cell_angle_gamma   90.00000000
_symmetry_Int_Tables_number   1
_chemical_formula_structural   KEuBeF6
_chemical_formula_sum   'K2 Eu2 Be2 F12'
_cell_volume   259.70934092
_cell_formula_units_Z   2
loop_
 _symmetry_equiv_pos_site_id
 _symmetry_equiv_pos_as_xyz
  1  'x, y, z'
loop_
 _atom_site_type_symbol
 _atom_site_label
 _atom_site_symmetry_multiplicity
 _atom_site_fract_x
 _atom_site_fract_y
 _atom_site_fract_z
 _atom_site_occupancy
  K  K0  1  0.250000  0.070585  0.795839  1
  K  K1  1  0.750000  0.929415  0.204161  1
  Eu  Eu2  1  0.250000  0.387724  0.183150  1
  Eu  Eu3  1  0.750000  0.612276  0.816850  1
  Be  Be4  1  0.250000  0.768903  0.463969  1
  Be  Be5  1  0.750000  0.231097  0.536031  1
  F  F6  1  0.460455  0.769925  0.591309  1
  F  F7  1  0.539545  0.230075  0.408691  1
  F  F8  1  0.960455  0.230075  0.408691  1
  F  F9  1  0.039545  0.769925  0.591309  1
  F  F10  1  0.250000  0.558136  0.413367  1
  F  F11  1  0.750000  0.441864  0.586633  1
  F  F12  1  0.499702  0.683561  0.033561  1
  F  F13  1  0.500298  0.316439  0.966439  1
  F  F14  1  0.999702  0.316439  0.966439  1
  F  F15  1  0.000298  0.683561  0.033561  1
  F  F16  1  0.250000  0.983983  0.264337  1
  F  F17  1  0.750000  0.016017  0.735663  1
