# generated using pymatgen
data_Ca6Zn13Au3N
_symmetry_space_group_name_H-M   'P 1'
_cell_length_a   8.16830076
_cell_length_b   8.14057820
_cell_length_c   8.14057900
_cell_angle_alpha   109.40213660
_cell_angle_beta   109.54022614
_cell_angle_gamma   109.54021896
_symmetry_Int_Tables_number   1
_chemical_formula_structural   Ca6Zn13Au3N
_chemical_formula_sum   'Ca6 Zn13 Au3 N1'
_cell_volume   416.34159528
_cell_formula_units_Z   1
loop_
 _symmetry_equiv_pos_site_id
 _symmetry_equiv_pos_as_xyz
  1  'x, y, z'
loop_
 _atom_site_type_symbol
 _atom_site_label
 _atom_site_symmetry_multiplicity
 _atom_site_fract_x
 _atom_site_fract_y
 _atom_site_fract_z
 _atom_site_occupancy
  Ca  Ca0  1  0.002764  0.257034  0.257034  1
  Ca  Ca1  1  0.254269  0.000000  0.257034  1
  Ca  Ca2  1  0.745731  0.000000  0.742966  1
  Ca  Ca3  1  0.745731  0.742966  0.000000  1
  Ca  Ca4  1  0.254269  0.257034  0.000000  1
  Ca  Ca5  1  0.997236  0.742966  0.742966  1
  Zn  Zn6  1  0.500000  0.000000  0.000000  1
  Zn  Zn7  1  0.685133  0.338891  0.338891  1
  Zn  Zn8  1  0.346244  0.000000  0.661109  1
  Zn  Zn9  1  0.346091  0.692182  0.346091  1
  Zn  Zn10  1  0.346091  0.346091  0.692182  1
  Zn  Zn11  1  0.346244  0.661109  0.000000  1
  Zn  Zn12  1  0.000000  0.346091  0.653909  1
  Zn  Zn13  1  0.000000  0.653909  0.346091  1
  Zn  Zn14  1  0.653909  0.653909  0.307818  1
  Zn  Zn15  1  0.653756  0.000000  0.338891  1
  Zn  Zn16  1  0.653756  0.338891  0.000000  1
  Zn  Zn17  1  0.653909  0.307818  0.653909  1
  Zn  Zn18  1  0.314867  0.661109  0.661109  1
  Au  Au19  1  0.500000  0.500000  0.500000  1
  Au  Au20  1  0.000000  0.500000  0.000000  1
  Au  Au21  1  0.000000  0.000000  0.500000  1
  N  N22  1  0.000000  0.000000  0.000000  1
