# generated using pymatgen
data_Pr2DyY3CoI10
_symmetry_space_group_name_H-M   'P 1'
_cell_length_a   7.81427971
_cell_length_b   9.83388074
_cell_length_c   9.83164833
_cell_angle_alpha   106.82696913
_cell_angle_beta   96.02858113
_cell_angle_gamma   105.18936240
_symmetry_Int_Tables_number   1
_chemical_formula_structural   Pr2DyY3CoI10
_chemical_formula_sum   'Pr2 Dy1 Y3 Co1 I10'
_cell_volume   684.38903771
_cell_formula_units_Z   1
loop_
 _symmetry_equiv_pos_site_id
 _symmetry_equiv_pos_as_xyz
  1  'x, y, z'
loop_
 _atom_site_type_symbol
 _atom_site_label
 _atom_site_symmetry_multiplicity
 _atom_site_fract_x
 _atom_site_fract_y
 _atom_site_fract_z
 _atom_site_occupancy
  Pr  Pr0  1  0.885939  0.957561  0.231393  1
  Pr  Pr1  1  0.113954  0.042216  0.768517  1
  Dy  Dy2  1  0.029674  0.719516  0.915746  1
  Y  Y3  1  0.970233  0.281528  0.084345  1
  Y  Y4  1  0.657849  0.877667  0.838977  1
  Y  Y5  1  0.342103  0.122169  0.161000  1
  Co  Co6  1  0.999944  0.999630  0.999887  1
  I  I7  1  0.653434  0.554131  0.731955  1
  I  I8  1  0.347117  0.445940  0.268288  1
  I  I9  1  0.734588  0.911766  0.544326  1
  I  I10  1  0.265381  0.088296  0.455680  1
  I  I11  1  0.082516  0.377429  0.824215  1
  I  I12  1  0.917537  0.622404  0.175659  1
  I  I13  1  0.447569  0.816882  0.089473  1
  I  I14  1  0.552215  0.183049  0.910370  1
  I  I15  1  0.228530  0.739840  0.660336  1
  I  I16  1  0.771418  0.259976  0.339832  1
