# generated using pymatgen
data_Hf7Ti(Rh2C)2
_symmetry_space_group_name_H-M   'P 1'
_cell_length_a   8.65091821
_cell_length_b   8.68542904
_cell_length_c   8.68542803
_cell_angle_alpha   60.25315409
_cell_angle_beta   60.13135511
_cell_angle_gamma   60.13134901
_symmetry_Int_Tables_number   1
_chemical_formula_structural   Hf7Ti(Rh2C)2
_chemical_formula_sum   'Hf14 Ti2 Rh8 C4'
_cell_volume   463.25105599
_cell_formula_units_Z   2
loop_
 _symmetry_equiv_pos_site_id
 _symmetry_equiv_pos_as_xyz
  1  'x, y, z'
loop_
 _atom_site_type_symbol
 _atom_site_label
 _atom_site_symmetry_multiplicity
 _atom_site_fract_x
 _atom_site_fract_y
 _atom_site_fract_z
 _atom_site_occupancy
  Hf  Hf0  1  0.125000  0.625000  0.625000  1
  Hf  Hf1  1  0.625000  0.625000  0.625000  1
  Hf  Hf2  1  0.813967  0.814328  0.183844  1
  Hf  Hf3  1  0.187861  0.183844  0.814328  1
  Hf  Hf4  1  0.813967  0.183844  0.814328  1
  Hf  Hf5  1  0.187861  0.814328  0.183844  1
  Hf  Hf6  1  0.183400  0.816600  0.816600  1
  Hf  Hf7  1  0.812171  0.187829  0.187829  1
  Hf  Hf8  1  0.436033  0.435672  0.066156  1
  Hf  Hf9  1  0.062139  0.066156  0.435672  1
  Hf  Hf10  1  0.436033  0.066156  0.435672  1
  Hf  Hf11  1  0.062139  0.435672  0.066156  1
  Hf  Hf12  1  0.066600  0.433400  0.433400  1
  Hf  Hf13  1  0.437829  0.062171  0.062171  1
  Ti  Ti14  1  0.625000  0.125000  0.625000  1
  Ti  Ti15  1  0.625000  0.625000  0.125000  1
  Rh  Rh16  1  0.754123  0.412115  0.412115  1
  Rh  Rh17  1  0.417751  0.757748  0.406748  1
  Rh  Rh18  1  0.417751  0.406748  0.757748  1
  Rh  Rh19  1  0.421645  0.412115  0.412115  1
  Rh  Rh20  1  0.495877  0.837885  0.837885  1
  Rh  Rh21  1  0.832249  0.492252  0.843252  1
  Rh  Rh22  1  0.832249  0.843252  0.492252  1
  Rh  Rh23  1  0.828355  0.837885  0.837885  1
  C  C24  1  0.625000  0.125000  0.125000  1
  C  C25  1  0.125000  0.625000  0.125000  1
  C  C26  1  0.125000  0.125000  0.625000  1
  C  C27  1  0.125000  0.125000  0.125000  1
