# generated using pymatgen
data_LaYSc(Si3Pd10)2
_symmetry_space_group_name_H-M   'P 1'
_cell_length_a   8.71925893
_cell_length_b   8.71925936
_cell_length_c   8.71926000
_cell_angle_alpha   60.00000515
_cell_angle_beta   60.00000352
_cell_angle_gamma   60.00000617
_symmetry_Int_Tables_number   1
_chemical_formula_structural   LaYSc(Si3Pd10)2
_chemical_formula_sum   'La1 Y1 Sc1 Si6 Pd20'
_cell_volume   468.73118644
_cell_formula_units_Z   1
loop_
 _symmetry_equiv_pos_site_id
 _symmetry_equiv_pos_as_xyz
  1  'x, y, z'
loop_
 _atom_site_type_symbol
 _atom_site_label
 _atom_site_symmetry_multiplicity
 _atom_site_fract_x
 _atom_site_fract_y
 _atom_site_fract_z
 _atom_site_occupancy
  La  La0  1  0.250000  0.250000  0.250000  1
  Y  Y1  1  0.750000  0.750000  0.750000  1
  Sc  Sc2  1  0.000000  0.000000  0.000000  1
  Si  Si3  1  0.733773  0.266227  0.266227  1
  Si  Si4  1  0.266227  0.733773  0.733773  1
  Si  Si5  1  0.266227  0.733773  0.266227  1
  Si  Si6  1  0.733773  0.266227  0.733773  1
  Si  Si7  1  0.266227  0.266227  0.733773  1
  Si  Si8  1  0.733773  0.733773  0.266227  1
  Pd  Pd9  1  0.344556  0.998871  0.998871  1
  Pd  Pd10  1  0.657702  0.998871  0.998871  1
  Pd  Pd11  1  0.998871  0.344556  0.657702  1
  Pd  Pd12  1  0.998871  0.657702  0.344556  1
  Pd  Pd13  1  0.998871  0.344556  0.998871  1
  Pd  Pd14  1  0.657702  0.998871  0.344556  1
  Pd  Pd15  1  0.998871  0.657702  0.998871  1
  Pd  Pd16  1  0.344556  0.998871  0.657702  1
  Pd  Pd17  1  0.998871  0.998871  0.344556  1
  Pd  Pd18  1  0.998871  0.998871  0.657702  1
  Pd  Pd19  1  0.657702  0.344556  0.998871  1
  Pd  Pd20  1  0.344556  0.657702  0.998871  1
  Pd  Pd21  1  0.385595  0.385595  0.385595  1
  Pd  Pd22  1  0.616538  0.616538  0.616538  1
  Pd  Pd23  1  0.385595  0.385595  0.843215  1
  Pd  Pd24  1  0.385595  0.843215  0.385595  1
  Pd  Pd25  1  0.616538  0.616538  0.150386  1
  Pd  Pd26  1  0.616538  0.150386  0.616538  1
  Pd  Pd27  1  0.843215  0.385595  0.385595  1
  Pd  Pd28  1  0.150386  0.616538  0.616538  1
