# generated using pymatgen
data_Ca3Ho(Sc3Sn4)2
_symmetry_space_group_name_H-M   'P 1'
_cell_length_a   7.69391217
_cell_length_b   8.05063869
_cell_length_c   15.07441097
_cell_angle_alpha   89.86886755
_cell_angle_beta   89.84816830
_cell_angle_gamma   90.29360877
_symmetry_Int_Tables_number   1
_chemical_formula_structural   Ca3Ho(Sc3Sn4)2
_chemical_formula_sum   'Ca6 Ho2 Sc12 Sn16'
_cell_volume   933.70467564
_cell_formula_units_Z   2
loop_
 _symmetry_equiv_pos_site_id
 _symmetry_equiv_pos_as_xyz
  1  'x, y, z'
loop_
 _atom_site_type_symbol
 _atom_site_label
 _atom_site_symmetry_multiplicity
 _atom_site_fract_x
 _atom_site_fract_y
 _atom_site_fract_z
 _atom_site_occupancy
  Ca  Ca0  1  0.993842  0.176543  0.093316  1
  Ca  Ca1  1  0.006158  0.823457  0.906684  1
  Ca  Ca2  1  0.506552  0.676708  0.907316  1
  Ca  Ca3  1  0.006242  0.822024  0.591596  1
  Ca  Ca4  1  0.493448  0.323292  0.092684  1
  Ca  Ca5  1  0.993758  0.177976  0.408404  1
  Ho  Ho6  1  0.497327  0.321002  0.405884  1
  Ho  Ho7  1  0.502673  0.678998  0.594116  1
  Sc  Sc8  1  0.165391  0.498805  0.750061  1
  Sc  Sc9  1  0.834609  0.501195  0.249939  1
  Sc  Sc10  1  0.334334  0.998743  0.250407  1
  Sc  Sc11  1  0.665666  0.001257  0.749593  1
  Sc  Sc12  1  0.332405  0.159982  0.626611  1
  Sc  Sc13  1  0.667595  0.840018  0.373389  1
  Sc  Sc14  1  0.167473  0.658857  0.373694  1
  Sc  Sc15  1  0.669110  0.840943  0.128117  1
  Sc  Sc16  1  0.832527  0.341143  0.626306  1
  Sc  Sc17  1  0.330890  0.159057  0.871883  1
  Sc  Sc18  1  0.832334  0.339775  0.872562  1
  Sc  Sc19  1  0.167666  0.660225  0.127438  1
  Sn  Sn20  1  0.026074  0.129780  0.748844  1
  Sn  Sn21  1  0.973926  0.870220  0.251156  1
  Sn  Sn22  1  0.473990  0.624823  0.251342  1
  Sn  Sn23  1  0.526010  0.375177  0.748658  1
  Sn  Sn24  1  0.309541  0.852595  0.747990  1
  Sn  Sn25  1  0.690459  0.147405  0.252010  1
  Sn  Sn26  1  0.196423  0.355446  0.252956  1
  Sn  Sn27  1  0.803577  0.644554  0.747044  1
  Sn  Sn28  1  0.180847  0.456477  0.542622  1
  Sn  Sn29  1  0.819153  0.543523  0.457378  1
  Sn  Sn30  1  0.331104  0.958491  0.457355  1
  Sn  Sn31  1  0.830262  0.543292  0.043961  1
  Sn  Sn32  1  0.668896  0.041509  0.542645  1
  Sn  Sn33  1  0.169738  0.456708  0.956039  1
  Sn  Sn34  1  0.669153  0.042786  0.955856  1
  Sn  Sn35  1  0.330847  0.957214  0.044144  1
