# generated using pymatgen
data_Rb6Na4TaTiP6
_symmetry_space_group_name_H-M   'P 1'
_cell_length_a   10.54246399
_cell_length_b   10.54246350
_cell_length_c   15.53075200
_cell_angle_alpha   90.00000000
_cell_angle_beta   90.00000000
_cell_angle_gamma   142.43559610
_symmetry_Int_Tables_number   1
_chemical_formula_structural   Rb6Na4TaTiP6
_chemical_formula_sum   'Rb12 Na8 Ta2 Ti2 P12'
_cell_volume   1052.34781757
_cell_formula_units_Z   2
loop_
 _symmetry_equiv_pos_site_id
 _symmetry_equiv_pos_as_xyz
  1  'x, y, z'
loop_
 _atom_site_type_symbol
 _atom_site_label
 _atom_site_symmetry_multiplicity
 _atom_site_fract_x
 _atom_site_fract_y
 _atom_site_fract_z
 _atom_site_occupancy
  Rb  Rb0  1  0.943805  0.607434  0.823977  1
  Rb  Rb1  1  0.556195  0.892566  0.323977  1
  Rb  Rb2  1  0.392566  0.056195  0.176023  1
  Rb  Rb3  1  0.058498  0.392915  0.174450  1
  Rb  Rb4  1  0.892915  0.558498  0.325550  1
  Rb  Rb5  1  0.441502  0.107085  0.674450  1
  Rb  Rb6  1  0.607085  0.941502  0.825550  1
  Rb  Rb7  1  0.275468  0.273712  0.315449  1
  Rb  Rb8  1  0.773712  0.775468  0.184551  1
  Rb  Rb9  1  0.224532  0.226288  0.815449  1
  Rb  Rb10  1  0.726288  0.724532  0.684551  1
  Rb  Rb11  1  0.107434  0.443805  0.676023  1
  Na  Na12  1  0.920241  0.079759  0.000000  1
  Na  Na13  1  0.579759  0.420241  0.500000  1
  Na  Na14  1  0.079279  0.920721  0.000000  1
  Na  Na15  1  0.420721  0.579279  0.500000  1
  Na  Na16  1  0.755937  0.244063  0.000000  1
  Na  Na17  1  0.744063  0.255937  0.500000  1
  Na  Na18  1  0.245785  0.754215  0.000000  1
  Na  Na19  1  0.254215  0.745785  0.500000  1
  Ta  Ta20  1  0.582242  0.417758  0.000000  1
  Ta  Ta21  1  0.917758  0.082242  0.500000  1
  Ti  Ti22  1  0.415325  0.584675  0.000000  1
  Ti  Ti23  1  0.084675  0.915325  0.500000  1
  P  P24  1  0.856912  0.552327  0.092107  1
  P  P25  1  0.447673  0.143088  0.907893  1
  P  P26  1  0.643088  0.947673  0.592107  1
  P  P27  1  0.946401  0.639132  0.593199  1
  P  P28  1  0.139132  0.446401  0.906801  1
  P  P29  1  0.553599  0.860868  0.093199  1
  P  P30  1  0.360868  0.053599  0.406801  1
  P  P31  1  0.191784  0.195340  0.584219  1
  P  P32  1  0.695340  0.691784  0.915781  1
  P  P33  1  0.308216  0.304660  0.084219  1
  P  P34  1  0.052327  0.356912  0.407893  1
  P  P35  1  0.804660  0.808216  0.415781  1
