# generated using pymatgen
data_CeDy4ZnRu4
_symmetry_space_group_name_H-M   'P 1'
_cell_length_a   3.43657700
_cell_length_b   3.43657700
_cell_length_c   17.40115500
_cell_angle_alpha   90.00000000
_cell_angle_beta   90.00000000
_cell_angle_gamma   90.00000000
_symmetry_Int_Tables_number   1
_chemical_formula_structural   CeDy4ZnRu4
_chemical_formula_sum   'Ce1 Dy4 Zn1 Ru4'
_cell_volume   205.50871032
_cell_formula_units_Z   1
loop_
 _symmetry_equiv_pos_site_id
 _symmetry_equiv_pos_as_xyz
  1  'x, y, z'
loop_
 _atom_site_type_symbol
 _atom_site_label
 _atom_site_symmetry_multiplicity
 _atom_site_fract_x
 _atom_site_fract_y
 _atom_site_fract_z
 _atom_site_occupancy
  Ce  Ce0  1  0.000000  0.000000  0.000000  1
  Dy  Dy1  1  0.000000  0.000000  0.198885  1
  Dy  Dy2  1  0.000000  0.000000  0.389139  1
  Dy  Dy3  1  0.000000  0.000000  0.610861  1
  Dy  Dy4  1  0.000000  0.000000  0.801115  1
  Zn  Zn5  1  0.500000  0.500000  0.500000  1
  Ru  Ru6  1  0.500000  0.500000  0.091178  1
  Ru  Ru7  1  0.500000  0.500000  0.298043  1
  Ru  Ru8  1  0.500000  0.500000  0.701957  1
  Ru  Ru9  1  0.500000  0.500000  0.908822  1
