# generated using pymatgen
data_Nd2Dy4Al24Os5Pt3
_symmetry_space_group_name_H-M   'P 1'
_cell_length_a   8.86573426
_cell_length_b   8.87694345
_cell_length_c   9.56454393
_cell_angle_alpha   89.95023488
_cell_angle_beta   89.74111615
_cell_angle_gamma   119.70830268
_symmetry_Int_Tables_number   1
_chemical_formula_structural   Nd2Dy4Al24Os5Pt3
_chemical_formula_sum   'Nd2 Dy4 Al24 Os5 Pt3'
_cell_volume   653.78491381
_cell_formula_units_Z   1
loop_
 _symmetry_equiv_pos_site_id
 _symmetry_equiv_pos_as_xyz
  1  'x, y, z'
loop_
 _atom_site_type_symbol
 _atom_site_label
 _atom_site_symmetry_multiplicity
 _atom_site_fract_x
 _atom_site_fract_y
 _atom_site_fract_z
 _atom_site_occupancy
  Nd  Nd0  1  0.187087  0.379667  0.250399  1
  Nd  Nd1  1  0.812913  0.620333  0.749601  1
  Dy  Dy2  1  0.614747  0.814821  0.251860  1
  Dy  Dy3  1  0.385253  0.185179  0.748140  1
  Dy  Dy4  1  0.194490  0.810638  0.250895  1
  Dy  Dy5  1  0.805510  0.189362  0.749105  1
  Al  Al6  1  0.336424  0.672288  0.027669  1
  Al  Al7  1  0.663576  0.327712  0.972331  1
  Al  Al8  1  0.669003  0.330387  0.525169  1
  Al  Al9  1  0.330997  0.669613  0.474831  1
  Al  Al10  1  0.158194  0.324757  0.576466  1
  Al  Al11  1  0.841806  0.675243  0.423534  1
  Al  Al12  1  0.674072  0.841702  0.574761  1
  Al  Al13  1  0.837410  0.677040  0.078996  1
  Al  Al14  1  0.325928  0.158298  0.425239  1
  Al  Al15  1  0.162590  0.322960  0.921004  1
  Al  Al16  1  0.165318  0.836363  0.574366  1
  Al  Al17  1  0.325856  0.158030  0.074764  1
  Al  Al18  1  0.834682  0.163637  0.425634  1
  Al  Al19  1  0.674144  0.841970  0.925236  1
  Al  Al20  1  0.831249  0.158398  0.075590  1
  Al  Al21  1  0.168751  0.841602  0.924410  1
  Al  Al22  1  0.560236  0.123721  0.249339  1
  Al  Al23  1  0.439764  0.876279  0.750661  1
  Al  Al24  1  0.873174  0.439068  0.253040  1
  Al  Al25  1  0.126826  0.560932  0.746960  1
  Al  Al26  1  0.564570  0.437868  0.249258  1
  Al  Al27  1  0.435430  0.562132  0.750742  1
  Al  Al28  1  0.997057  0.998987  0.250220  1
  Al  Al29  1  0.002943  0.001013  0.749780  1
  Os  Os30  1  0.500000  0.000000  0.000000  1
  Os  Os31  1  0.500000  0.000000  0.500000  1
  Os  Os32  1  0.000000  0.500000  0.500000  1
  Os  Os33  1  0.000000  0.000000  0.000000  1
  Os  Os34  1  0.000000  0.000000  0.500000  1
  Pt  Pt35  1  0.000000  0.500000  0.000000  1
  Pt  Pt36  1  0.500000  0.500000  0.000000  1
  Pt  Pt37  1  0.500000  0.500000  0.500000  1
