# generated using pymatgen
data_Y8P14Ir15Rh
_symmetry_space_group_name_H-M   'P 1'
_cell_length_a   3.95160500
_cell_length_b   12.70273329
_cell_length_c   13.11642467
_cell_angle_alpha   80.78649479
_cell_angle_beta   90.00000000
_cell_angle_gamma   90.00000000
_symmetry_Int_Tables_number   1
_chemical_formula_structural   Y8P14Ir15Rh
_chemical_formula_sum   'Y8 P14 Ir15 Rh1'
_cell_volume   649.90022910
_cell_formula_units_Z   1
loop_
 _symmetry_equiv_pos_site_id
 _symmetry_equiv_pos_as_xyz
  1  'x, y, z'
loop_
 _atom_site_type_symbol
 _atom_site_label
 _atom_site_symmetry_multiplicity
 _atom_site_fract_x
 _atom_site_fract_y
 _atom_site_fract_z
 _atom_site_occupancy
  Y  Y0  1  0.250000  0.103212  0.789716  1
  Y  Y1  1  0.750000  0.896944  0.210586  1
  Y  Y2  1  0.250000  0.278710  0.101844  1
  Y  Y3  1  0.750000  0.721467  0.897984  1
  Y  Y4  1  0.250000  0.520721  0.293983  1
  Y  Y5  1  0.750000  0.479133  0.706030  1
  Y  Y6  1  0.250000  0.209007  0.438010  1
  Y  Y7  1  0.750000  0.790692  0.562320  1
  P  P8  1  0.250000  0.051366  0.100442  1
  P  P9  1  0.750000  0.948575  0.899220  1
  P  P10  1  0.250000  0.312024  0.689085  1
  P  P11  1  0.750000  0.687837  0.311029  1
  P  P12  1  0.250000  0.608041  0.566880  1
  P  P13  1  0.750000  0.392054  0.433207  1
  P  P14  1  0.250000  0.843605  0.717737  1
  P  P15  1  0.750000  0.156675  0.282177  1
  P  P16  1  0.750000  0.258032  0.919848  1
  P  P17  1  0.250000  0.741952  0.079983  1
  P  P18  1  0.750000  0.092445  0.587850  1
  P  P19  1  0.250000  0.907269  0.411732  1
  P  P20  1  0.750000  0.472450  0.129287  1
  P  P21  1  0.250000  0.527476  0.870747  1
  Ir  Ir22  1  0.750000  0.010318  0.424742  1
  Ir  Ir23  1  0.250000  0.662598  0.731228  1
  Ir  Ir24  1  0.750000  0.337321  0.268928  1
  Ir  Ir25  1  0.250000  0.554704  0.045110  1
  Ir  Ir26  1  0.750000  0.445310  0.955043  1
  Ir  Ir27  1  0.250000  0.060104  0.273015  1
  Ir  Ir28  1  0.750000  0.940621  0.726596  1
  Ir  Ir29  1  0.250000  0.421614  0.523562  1
  Ir  Ir30  1  0.750000  0.578149  0.476485  1
  Ir  Ir31  1  0.250000  0.914917  0.997501  1
  Ir  Ir32  1  0.750000  0.085060  0.002259  1
  Ir  Ir33  1  0.250000  0.729561  0.395104  1
  Ir  Ir34  1  0.750000  0.270336  0.604758  1
  Ir  Ir35  1  0.250000  0.341805  0.858008  1
  Ir  Ir36  1  0.750000  0.658274  0.142073  1
  Rh  Rh37  1  0.250000  0.989622  0.575890  1
