# generated using pymatgen
data_Tb3Y16LuSn16
_symmetry_space_group_name_H-M   'P 1'
_cell_length_a   8.04246549
_cell_length_b   8.18096286
_cell_length_c   15.49407917
_cell_angle_alpha   90.00355187
_cell_angle_beta   90.01664076
_cell_angle_gamma   89.95584331
_symmetry_Int_Tables_number   1
_chemical_formula_structural   Tb3Y16LuSn16
_chemical_formula_sum   'Tb3 Y16 Lu1 Sn16'
_cell_volume   1019.43431875
_cell_formula_units_Z   1
loop_
 _symmetry_equiv_pos_site_id
 _symmetry_equiv_pos_as_xyz
  1  'x, y, z'
loop_
 _atom_site_type_symbol
 _atom_site_label
 _atom_site_symmetry_multiplicity
 _atom_site_fract_x
 _atom_site_fract_y
 _atom_site_fract_z
 _atom_site_occupancy
  Tb  Tb0  1  0.979819  0.820377  0.402458  1
  Tb  Tb1  1  0.519857  0.320850  0.597646  1
  Tb  Tb2  1  0.020547  0.179986  0.902333  1
  Y  Y3  1  0.366951  0.836044  0.877705  1
  Y  Y4  1  0.867898  0.663254  0.622261  1
  Y  Y5  1  0.632691  0.163713  0.377959  1
  Y  Y6  1  0.132697  0.336505  0.121538  1
  Y  Y7  1  0.632702  0.163568  0.122093  1
  Y  Y8  1  0.132813  0.336573  0.378375  1
  Y  Y9  1  0.366836  0.836199  0.622353  1
  Y  Y10  1  0.867798  0.663107  0.877672  1
  Y  Y11  1  0.520305  0.321101  0.902179  1
  Y  Y12  1  0.020870  0.179810  0.597854  1
  Y  Y13  1  0.479560  0.679260  0.402640  1
  Y  Y14  1  0.979448  0.820540  0.097670  1
  Y  Y15  1  0.479563  0.679340  0.097274  1
  Y  Y16  1  0.698530  0.997850  0.749906  1
  Y  Y17  1  0.801321  0.497555  0.250021  1
  Y  Y18  1  0.301345  0.002393  0.249864  1
  Lu  Lu19  1  0.198976  0.502924  0.750090  1
  Sn  Sn20  1  0.293022  0.035129  0.041664  1
  Sn  Sn21  1  0.792834  0.464302  0.458370  1
  Sn  Sn22  1  0.707098  0.964459  0.541881  1
  Sn  Sn23  1  0.207487  0.535121  0.957217  1
  Sn  Sn24  1  0.707128  0.964280  0.958218  1
  Sn  Sn25  1  0.207181  0.535331  0.542667  1
  Sn  Sn26  1  0.292988  0.035495  0.458504  1
  Sn  Sn27  1  0.792681  0.464183  0.041521  1
  Sn  Sn28  1  0.563480  0.617975  0.749907  1
  Sn  Sn29  1  0.065517  0.880279  0.750098  1
  Sn  Sn30  1  0.434592  0.381203  0.249988  1
  Sn  Sn31  1  0.935108  0.119153  0.250128  1
  Sn  Sn32  1  0.328401  0.148807  0.750087  1
  Sn  Sn33  1  0.830196  0.353912  0.749924  1
  Sn  Sn34  1  0.670622  0.853246  0.249999  1
  Sn  Sn35  1  0.171141  0.646180  0.249939  1
