# generated using pymatgen
data_Rb3NaLiTiBi3
_symmetry_space_group_name_H-M   'P 1'
_cell_length_a   11.64098476
_cell_length_b   11.64098524
_cell_length_c   16.80613200
_cell_angle_alpha   90.00000000
_cell_angle_beta   90.00000000
_cell_angle_gamma   143.90274519
_symmetry_Int_Tables_number   1
_chemical_formula_structural   Rb3NaLiTiBi3
_chemical_formula_sum   'Rb12 Na4 Li4 Ti4 Bi12'
_cell_volume   1341.77206668
_cell_formula_units_Z   4
loop_
 _symmetry_equiv_pos_site_id
 _symmetry_equiv_pos_as_xyz
  1  'x, y, z'
loop_
 _atom_site_type_symbol
 _atom_site_label
 _atom_site_symmetry_multiplicity
 _atom_site_fract_x
 _atom_site_fract_y
 _atom_site_fract_z
 _atom_site_occupancy
  Rb  Rb0  1  0.939458  0.605652  0.828826  1
  Rb  Rb1  1  0.560542  0.894348  0.328826  1
  Rb  Rb2  1  0.394348  0.060542  0.171174  1
  Rb  Rb3  1  0.060542  0.394348  0.171174  1
  Rb  Rb4  1  0.894348  0.560542  0.328826  1
  Rb  Rb5  1  0.439458  0.105652  0.671174  1
  Rb  Rb6  1  0.605652  0.939458  0.828826  1
  Rb  Rb7  1  0.280994  0.280994  0.321785  1
  Rb  Rb8  1  0.780994  0.780994  0.178215  1
  Rb  Rb9  1  0.219006  0.219006  0.821785  1
  Rb  Rb10  1  0.719006  0.719006  0.678215  1
  Rb  Rb11  1  0.105652  0.439458  0.671174  1
  Na  Na12  1  0.753438  0.246562  0.000000  1
  Na  Na13  1  0.746562  0.253438  0.500000  1
  Na  Na14  1  0.246562  0.753438  0.000000  1
  Na  Na15  1  0.253438  0.746562  0.500000  1
  Li  Li16  1  0.921329  0.078671  0.000000  1
  Li  Li17  1  0.578671  0.421329  0.500000  1
  Li  Li18  1  0.078671  0.921329  0.000000  1
  Li  Li19  1  0.421329  0.578671  0.500000  1
  Ti  Ti20  1  0.583668  0.416332  0.000000  1
  Ti  Ti21  1  0.916332  0.083668  0.500000  1
  Ti  Ti22  1  0.416332  0.583668  0.000000  1
  Ti  Ti23  1  0.083668  0.916332  0.500000  1
  Bi  Bi24  1  0.880644  0.574083  0.096482  1
  Bi  Bi25  1  0.425917  0.119356  0.903518  1
  Bi  Bi26  1  0.619356  0.925917  0.596482  1
  Bi  Bi27  1  0.925917  0.619356  0.596482  1
  Bi  Bi28  1  0.119356  0.425917  0.903518  1
  Bi  Bi29  1  0.574083  0.880644  0.096482  1
  Bi  Bi30  1  0.380644  0.074083  0.403518  1
  Bi  Bi31  1  0.220886  0.220886  0.586120  1
  Bi  Bi32  1  0.720886  0.720886  0.913880  1
  Bi  Bi33  1  0.279114  0.279114  0.086120  1
  Bi  Bi34  1  0.074083  0.380644  0.403518  1
  Bi  Bi35  1  0.779114  0.779114  0.413880  1
