# generated using pymatgen
data_Sm8Er12Sn9Pb7
_symmetry_space_group_name_H-M   'P 1'
_cell_length_a   8.11286808
_cell_length_b   8.25770525
_cell_length_c   15.59287332
_cell_angle_alpha   90.02315188
_cell_angle_beta   89.99681829
_cell_angle_gamma   90.01616294
_symmetry_Int_Tables_number   1
_chemical_formula_structural   Sm8Er12Sn9Pb7
_chemical_formula_sum   'Sm8 Er12 Sn9 Pb7'
_cell_volume   1044.62373399
_cell_formula_units_Z   1
loop_
 _symmetry_equiv_pos_site_id
 _symmetry_equiv_pos_as_xyz
  1  'x, y, z'
loop_
 _atom_site_type_symbol
 _atom_site_label
 _atom_site_symmetry_multiplicity
 _atom_site_fract_x
 _atom_site_fract_y
 _atom_site_fract_z
 _atom_site_occupancy
  Sm  Sm0  1  0.520822  0.322063  0.901514  1
  Sm  Sm1  1  0.019656  0.178757  0.599320  1
  Sm  Sm2  1  0.480482  0.678752  0.400664  1
  Sm  Sm3  1  0.979661  0.819669  0.099061  1
  Sm  Sm4  1  0.482275  0.677308  0.098954  1
  Sm  Sm5  1  0.980369  0.821183  0.400664  1
  Sm  Sm6  1  0.519590  0.321188  0.599270  1
  Sm  Sm7  1  0.018771  0.179624  0.901108  1
  Er  Er8  1  0.365174  0.836731  0.875672  1
  Er  Er9  1  0.865303  0.663196  0.624353  1
  Er  Er10  1  0.634648  0.163212  0.375689  1
  Er  Er11  1  0.132996  0.337118  0.123959  1
  Er  Er12  1  0.635678  0.165214  0.123661  1
  Er  Er13  1  0.134547  0.336787  0.375675  1
  Er  Er14  1  0.365385  0.836881  0.624377  1
  Er  Er15  1  0.864891  0.662055  0.876484  1
  Er  Er16  1  0.197163  0.503414  0.750091  1
  Er  Er17  1  0.697205  0.996511  0.750020  1
  Er  Er18  1  0.802644  0.496434  0.248814  1
  Er  Er19  1  0.302839  0.003567  0.249909  1
  Sn  Sn20  1  0.796784  0.461037  0.041954  1
  Sn  Sn21  1  0.562998  0.622992  0.750011  1
  Sn  Sn22  1  0.062922  0.876827  0.750065  1
  Sn  Sn23  1  0.436653  0.377005  0.250124  1
  Sn  Sn24  1  0.936998  0.122695  0.250009  1
  Sn  Sn25  1  0.328049  0.145476  0.750061  1
  Sn  Sn26  1  0.827980  0.354704  0.749960  1
  Sn  Sn27  1  0.672069  0.854964  0.249973  1
  Sn  Sn28  1  0.172299  0.645300  0.249931  1
  Pb  Pb29  1  0.296036  0.039358  0.041378  1
  Pb  Pb30  1  0.796138  0.460458  0.458593  1
  Pb  Pb31  1  0.703985  0.960453  0.541330  1
  Pb  Pb32  1  0.203279  0.539556  0.958768  1
  Pb  Pb33  1  0.703903  0.960549  0.958627  1
  Pb  Pb34  1  0.203914  0.539510  0.541300  1
  Pb  Pb35  1  0.295896  0.039452  0.458657  1
