# generated using pymatgen
data_YPa3(IrRh)2
_symmetry_space_group_name_H-M   'P 1'
_cell_length_a   3.77570900
_cell_length_b   4.17347000
_cell_length_c   10.89787200
_cell_angle_alpha   90.00000000
_cell_angle_beta   90.00000000
_cell_angle_gamma   90.00000000
_symmetry_Int_Tables_number   1
_chemical_formula_structural   YPa3(IrRh)2
_chemical_formula_sum   'Y1 Pa3 Ir2 Rh2'
_cell_volume   171.72657720
_cell_formula_units_Z   1
loop_
 _symmetry_equiv_pos_site_id
 _symmetry_equiv_pos_as_xyz
  1  'x, y, z'
loop_
 _atom_site_type_symbol
 _atom_site_label
 _atom_site_symmetry_multiplicity
 _atom_site_fract_x
 _atom_site_fract_y
 _atom_site_fract_z
 _atom_site_occupancy
  Y  Y0  1  0.500000  0.750000  0.360456  1
  Pa  Pa1  1  0.000000  0.750000  0.865471  1
  Pa  Pa2  1  0.000000  0.250000  0.146818  1
  Pa  Pa3  1  0.500000  0.250000  0.629415  1
  Ir  Ir4  1  0.500000  0.750000  0.091354  1
  Ir  Ir5  1  0.000000  0.750000  0.603518  1
  Rh  Rh6  1  0.000000  0.250000  0.405738  1
  Rh  Rh7  1  0.500000  0.250000  0.897231  1
