# generated using pymatgen
data_Ti6SiGeN2
_symmetry_space_group_name_H-M   'P 1'
_cell_length_a   5.47879299
_cell_length_b   5.47879262
_cell_length_c   8.12014900
_cell_angle_alpha   90.00000000
_cell_angle_beta   90.00000000
_cell_angle_gamma   146.84027861
_symmetry_Int_Tables_number   1
_chemical_formula_structural   Ti6SiGeN2
_chemical_formula_sum   'Ti6 Si1 Ge1 N2'
_cell_volume   133.32178139
_cell_formula_units_Z   1
loop_
 _symmetry_equiv_pos_site_id
 _symmetry_equiv_pos_as_xyz
  1  'x, y, z'
loop_
 _atom_site_type_symbol
 _atom_site_label
 _atom_site_symmetry_multiplicity
 _atom_site_fract_x
 _atom_site_fract_y
 _atom_site_fract_z
 _atom_site_occupancy
  Ti  Ti0  1  0.629348  0.370652  0.548511  1
  Ti  Ti1  1  0.371859  0.628141  0.042379  1
  Ti  Ti2  1  0.371859  0.628141  0.457621  1
  Ti  Ti3  1  0.629348  0.370652  0.951489  1
  Ti  Ti4  1  0.950898  0.049102  0.750000  1
  Ti  Ti5  1  0.045597  0.954403  0.250000  1
  Si  Si6  1  0.254234  0.745766  0.750000  1
  Ge  Ge7  1  0.746093  0.253907  0.250000  1
  N  N8  1  0.000382  0.999618  0.500485  1
  N  N9  1  0.000382  0.999618  0.999515  1
