# generated using pymatgen
data_TbY2Zn3Si2Pd
_symmetry_space_group_name_H-M   'P 1'
_cell_length_a   6.88046500
_cell_length_b   6.88568403
_cell_length_c   4.28108200
_cell_angle_alpha   90.00000000
_cell_angle_beta   90.00000000
_cell_angle_gamma   119.97491585
_symmetry_Int_Tables_number   1
_chemical_formula_structural   TbY2Zn3Si2Pd
_chemical_formula_sum   'Tb1 Y2 Zn3 Si2 Pd1'
_cell_volume   175.69474691
_cell_formula_units_Z   1
loop_
 _symmetry_equiv_pos_site_id
 _symmetry_equiv_pos_as_xyz
  1  'x, y, z'
loop_
 _atom_site_type_symbol
 _atom_site_label
 _atom_site_symmetry_multiplicity
 _atom_site_fract_x
 _atom_site_fract_y
 _atom_site_fract_z
 _atom_site_occupancy
  Tb  Tb0  1  0.413989  0.000000  0.000000  1
  Y  Y1  1  0.000004  0.414244  0.000000  1
  Y  Y2  1  0.585761  0.585756  0.000000  1
  Zn  Zn3  1  0.999917  0.757273  0.500000  1
  Zn  Zn4  1  0.242644  0.242727  0.500000  1
  Zn  Zn5  1  0.757431  0.000000  0.500000  1
  Si  Si6  1  0.333291  0.666622  0.500000  1
  Si  Si7  1  0.666669  0.333378  0.500000  1
  Pd  Pd8  1  0.000294  0.000000  0.000000  1
