# generated using pymatgen
data_CeTh(BeGe)2
_symmetry_space_group_name_H-M   'P 1'
_cell_length_a   3.97230400
_cell_length_b   3.97230435
_cell_length_c   8.54979900
_cell_angle_alpha   90.00000000
_cell_angle_beta   90.00000000
_cell_angle_gamma   120.00001376
_symmetry_Int_Tables_number   1
_chemical_formula_structural   CeTh(BeGe)2
_chemical_formula_sum   'Ce1 Th1 Be2 Ge2'
_cell_volume   116.83459828
_cell_formula_units_Z   1
loop_
 _symmetry_equiv_pos_site_id
 _symmetry_equiv_pos_as_xyz
  1  'x, y, z'
loop_
 _atom_site_type_symbol
 _atom_site_label
 _atom_site_symmetry_multiplicity
 _atom_site_fract_x
 _atom_site_fract_y
 _atom_site_fract_z
 _atom_site_occupancy
  Ce  Ce0  1  0.000000  0.000000  0.000000  1
  Th  Th1  1  0.000000  0.000000  0.500000  1
  Be  Be2  1  0.666667  0.333333  0.249584  1
  Be  Be3  1  0.333333  0.666667  0.750416  1
  Ge  Ge4  1  0.333333  0.666667  0.244952  1
  Ge  Ge5  1  0.666667  0.333333  0.755048  1
