# generated using pymatgen
data_Nd3SiPt5
_symmetry_space_group_name_H-M   'P 1'
_cell_length_a   8.41434361
_cell_length_b   8.41434262
_cell_length_c   8.41434286
_cell_angle_alpha   127.30246454
_cell_angle_beta   126.36477504
_cell_angle_gamma   78.52463807
_symmetry_Int_Tables_number   1
_chemical_formula_structural   Nd3SiPt5
_chemical_formula_sum   'Nd6 Si2 Pt10'
_cell_volume   369.44430443
_cell_formula_units_Z   2
loop_
 _symmetry_equiv_pos_site_id
 _symmetry_equiv_pos_as_xyz
  1  'x, y, z'
loop_
 _atom_site_type_symbol
 _atom_site_label
 _atom_site_symmetry_multiplicity
 _atom_site_fract_x
 _atom_site_fract_y
 _atom_site_fract_z
 _atom_site_occupancy
  Nd  Nd0  1  0.827160  0.549900  0.277260  1
  Nd  Nd1  1  0.614060  0.250000  0.364060  1
  Nd  Nd2  1  0.172840  0.450100  0.722740  1
  Nd  Nd3  1  0.385940  0.750000  0.635940  1
  Nd  Nd4  1  0.227360  0.950100  0.277260  1
  Nd  Nd5  1  0.772640  0.049900  0.722740  1
  Si  Si6  1  0.215906  0.250000  0.965906  1
  Si  Si7  1  0.784094  0.750000  0.034094  1
  Pt  Pt8  1  0.170703  0.906304  0.862315  1
  Pt  Pt9  1  0.829297  0.093696  0.137685  1
  Pt  Pt10  1  0.456011  0.191612  0.862315  1
  Pt  Pt11  1  0.543989  0.406304  0.735601  1
  Pt  Pt12  1  0.829297  0.691612  0.735601  1
  Pt  Pt13  1  0.456011  0.593696  0.264399  1
  Pt  Pt14  1  0.543989  0.808388  0.137685  1
  Pt  Pt15  1  0.170703  0.308388  0.264399  1
  Pt  Pt16  1  0.000000  0.000000  0.500000  1
  Pt  Pt17  1  0.000000  0.500000  0.000000  1
