# generated using pymatgen
data_Li4TmTh3Si8
_symmetry_space_group_name_H-M   'P 1'
_cell_length_a   3.84257600
_cell_length_b   7.78084704
_cell_length_c   10.35739457
_cell_angle_alpha   89.97812708
_cell_angle_beta   90.00000000
_cell_angle_gamma   90.00000000
_symmetry_Int_Tables_number   1
_chemical_formula_structural   Li4TmTh3Si8
_chemical_formula_sum   'Li4 Tm1 Th3 Si8'
_cell_volume   309.67049850
_cell_formula_units_Z   1
loop_
 _symmetry_equiv_pos_site_id
 _symmetry_equiv_pos_as_xyz
  1  'x, y, z'
loop_
 _atom_site_type_symbol
 _atom_site_label
 _atom_site_symmetry_multiplicity
 _atom_site_fract_x
 _atom_site_fract_y
 _atom_site_fract_z
 _atom_site_occupancy
  Li  Li0  1  0.250000  0.988731  0.397412  1
  Li  Li1  1  0.750000  0.011228  0.599145  1
  Li  Li2  1  0.250000  0.487943  0.107142  1
  Li  Li3  1  0.750000  0.510743  0.896649  1
  Tm  Tm4  1  0.750000  0.369289  0.363011  1
  Th  Th5  1  0.250000  0.139921  0.861886  1
  Th  Th6  1  0.750000  0.863820  0.138494  1
  Th  Th7  1  0.250000  0.633246  0.638480  1
  Si  Si8  1  0.750000  0.267344  0.071169  1
  Si  Si9  1  0.250000  0.735469  0.931383  1
  Si  Si10  1  0.750000  0.756916  0.432250  1
  Si  Si11  1  0.250000  0.238829  0.561171  1
  Si  Si12  1  0.750000  0.840472  0.816804  1
  Si  Si13  1  0.250000  0.164334  0.187277  1
  Si  Si14  1  0.750000  0.335256  0.681819  1
  Si  Si15  1  0.250000  0.656458  0.315908  1
