# generated using pymatgen
data_Nd12Ni(SnI4)3
_symmetry_space_group_name_H-M   'P 1'
_cell_length_a   10.97132123
_cell_length_b   11.04513696
_cell_length_c   10.97132107
_cell_angle_alpha   109.60757256
_cell_angle_beta   109.33453100
_cell_angle_gamma   109.60757099
_symmetry_Int_Tables_number   1
_chemical_formula_structural   Nd12Ni(SnI4)3
_chemical_formula_sum   'Nd12 Ni1 Sn3 I12'
_cell_volume   1021.72369021
_cell_formula_units_Z   1
loop_
 _symmetry_equiv_pos_site_id
 _symmetry_equiv_pos_as_xyz
  1  'x, y, z'
loop_
 _atom_site_type_symbol
 _atom_site_label
 _atom_site_symmetry_multiplicity
 _atom_site_fract_x
 _atom_site_fract_y
 _atom_site_fract_z
 _atom_site_occupancy
  Nd  Nd0  1  0.774086  0.242832  0.278270  1
  Nd  Nd1  1  0.491643  0.750000  0.008357  1
  Nd  Nd2  1  0.016715  0.258357  0.008357  1
  Nd  Nd3  1  0.258529  0.008529  0.017060  1
  Nd  Nd4  1  0.221730  0.257168  0.725914  1
  Nd  Nd5  1  0.258529  0.750000  0.241471  1
  Nd  Nd6  1  0.221730  0.464561  0.495816  1
  Nd  Nd7  1  0.482940  0.491471  0.241471  1
  Nd  Nd8  1  0.774086  0.031254  0.495816  1
  Nd  Nd9  1  0.491643  0.241643  0.483285  1
  Nd  Nd10  1  0.004184  0.035439  0.278270  1
  Nd  Nd11  1  0.004184  0.468746  0.725914  1
  Ni  Ni12  1  0.000000  0.250000  0.500000  1
  Sn  Sn13  1  0.249857  0.499857  0.999713  1
  Sn  Sn14  1  0.500287  0.000143  0.250143  1
  Sn  Sn15  1  0.249857  0.250000  0.250143  1
  I  I16  1  0.756603  0.741632  0.249382  1
  I  I17  1  0.505509  0.250000  0.994491  1
  I  I18  1  0.250618  0.992250  0.507221  1
  I  I19  1  0.515554  0.507777  0.757777  1
  I  I20  1  0.505509  0.755509  0.511017  1
  I  I21  1  0.756603  0.514971  0.507221  1
  I  I22  1  0.742223  0.250000  0.757777  1
  I  I23  1  0.250618  0.758368  0.743397  1
  I  I24  1  0.988983  0.744491  0.994491  1
  I  I25  1  0.992779  0.507750  0.249382  1
  I  I26  1  0.992779  0.985029  0.743397  1
  I  I27  1  0.742223  0.992223  0.984446  1
