# generated using pymatgen
data_KLiCuF6
_symmetry_space_group_name_H-M   'P 1'
_cell_length_a   10.10802300
_cell_length_b   5.71423478
_cell_length_c   8.49218276
_cell_angle_alpha   89.10323703
_cell_angle_beta   90.00000000
_cell_angle_gamma   90.00000000
_symmetry_Int_Tables_number   1
_chemical_formula_structural   KLiCuF6
_chemical_formula_sum   'K4 Li4 Cu4 F24'
_cell_volume   490.44514257
_cell_formula_units_Z   4
loop_
 _symmetry_equiv_pos_site_id
 _symmetry_equiv_pos_as_xyz
  1  'x, y, z'
loop_
 _atom_site_type_symbol
 _atom_site_label
 _atom_site_symmetry_multiplicity
 _atom_site_fract_x
 _atom_site_fract_y
 _atom_site_fract_z
 _atom_site_occupancy
  K  K0  1  0.795975  0.314633  0.002328  1
  K  K1  1  0.704025  0.314633  0.502328  1
  K  K2  1  0.204025  0.685367  0.997672  1
  K  K3  1  0.295975  0.685367  0.497672  1
  Li  Li4  1  0.430470  0.217639  0.813231  1
  Li  Li5  1  0.930470  0.782361  0.686769  1
  Li  Li6  1  0.569530  0.782361  0.186769  1
  Li  Li7  1  0.069530  0.217639  0.313231  1
  Cu  Cu8  1  0.582715  0.772702  0.763603  1
  Cu  Cu9  1  0.917285  0.772702  0.263603  1
  Cu  Cu10  1  0.417285  0.227298  0.236397  1
  Cu  Cu11  1  0.082715  0.227298  0.736397  1
  F  F12  1  0.014882  0.518359  0.797505  1
  F  F13  1  0.869614  0.075897  0.315925  1
  F  F14  1  0.369614  0.924103  0.184075  1
  F  F15  1  0.130386  0.924103  0.684075  1
  F  F16  1  0.630386  0.075897  0.815925  1
  F  F17  1  0.596228  0.111275  0.220998  1
  F  F18  1  0.096228  0.888725  0.279002  1
  F  F19  1  0.403772  0.888725  0.779002  1
  F  F20  1  0.514882  0.481641  0.702495  1
  F  F21  1  0.240671  0.349918  0.253065  1
  F  F22  1  0.485118  0.518359  0.297505  1
  F  F23  1  0.985118  0.481641  0.202495  1
  F  F24  1  0.759329  0.650082  0.746935  1
  F  F25  1  0.259329  0.349918  0.753065  1
  F  F26  1  0.589755  0.854224  0.560567  1
  F  F27  1  0.740671  0.650082  0.246935  1
  F  F28  1  0.917556  0.682368  0.467024  1
  F  F29  1  0.089755  0.145776  0.939433  1
  F  F30  1  0.410245  0.145776  0.439433  1
  F  F31  1  0.910245  0.854224  0.060567  1
  F  F32  1  0.582444  0.682368  0.967024  1
  F  F33  1  0.082444  0.317632  0.532976  1
  F  F34  1  0.417556  0.317632  0.032976  1
  F  F35  1  0.903772  0.111275  0.720998  1
