# generated using pymatgen
data_Tb5Hf5(Si5Ir2)4
_symmetry_space_group_name_H-M   'P 1'
_cell_length_a   12.49985900
_cell_length_b   12.49985900
_cell_length_c   4.16929600
_cell_angle_alpha   90.00000000
_cell_angle_beta   90.00000000
_cell_angle_gamma   90.00000000
_symmetry_Int_Tables_number   1
_chemical_formula_structural   Tb5Hf5(Si5Ir2)4
_chemical_formula_sum   'Tb5 Hf5 Si20 Ir8'
_cell_volume   651.43780331
_cell_formula_units_Z   1
loop_
 _symmetry_equiv_pos_site_id
 _symmetry_equiv_pos_as_xyz
  1  'x, y, z'
loop_
 _atom_site_type_symbol
 _atom_site_label
 _atom_site_symmetry_multiplicity
 _atom_site_fract_x
 _atom_site_fract_y
 _atom_site_fract_z
 _atom_site_occupancy
  Tb  Tb0  1  0.000000  0.000000  0.000000  1
  Tb  Tb1  1  0.884105  0.384734  0.500000  1
  Tb  Tb2  1  0.115895  0.615266  0.500000  1
  Tb  Tb3  1  0.384734  0.115895  0.500000  1
  Tb  Tb4  1  0.615266  0.884105  0.500000  1
  Hf  Hf5  1  0.500000  0.500000  0.000000  1
  Hf  Hf6  1  0.673655  0.175153  0.500000  1
  Hf  Hf7  1  0.326345  0.824847  0.500000  1
  Hf  Hf8  1  0.175153  0.326345  0.500000  1
  Hf  Hf9  1  0.824847  0.673655  0.500000  1
  Si  Si10  1  0.565894  0.068002  0.000000  1
  Si  Si11  1  0.434106  0.931998  0.000000  1
  Si  Si12  1  0.068002  0.434106  0.000000  1
  Si  Si13  1  0.931998  0.565894  0.000000  1
  Si  Si14  1  0.665480  0.701363  0.000000  1
  Si  Si15  1  0.334520  0.298637  0.000000  1
  Si  Si16  1  0.163901  0.800611  0.000000  1
  Si  Si17  1  0.836099  0.199389  0.000000  1
  Si  Si18  1  0.298637  0.665480  0.000000  1
  Si  Si19  1  0.701363  0.334520  0.000000  1
  Si  Si20  1  0.199389  0.163901  0.000000  1
  Si  Si21  1  0.800611  0.836099  0.000000  1
  Si  Si22  1  0.650962  0.508049  0.500000  1
  Si  Si23  1  0.349038  0.491951  0.500000  1
  Si  Si24  1  0.157068  0.992675  0.500000  1
  Si  Si25  1  0.842932  0.007325  0.500000  1
  Si  Si26  1  0.491951  0.650962  0.500000  1
  Si  Si27  1  0.508049  0.349038  0.500000  1
  Si  Si28  1  0.007325  0.157068  0.500000  1
  Si  Si29  1  0.992675  0.842932  0.500000  1
  Ir  Ir30  1  0.741539  0.522007  0.000000  1
  Ir  Ir31  1  0.258461  0.477993  0.000000  1
  Ir  Ir32  1  0.246538  0.977510  0.000000  1
  Ir  Ir33  1  0.753462  0.022490  0.000000  1
  Ir  Ir34  1  0.477993  0.741539  0.000000  1
  Ir  Ir35  1  0.522007  0.258461  0.000000  1
  Ir  Ir36  1  0.022490  0.246538  0.000000  1
  Ir  Ir37  1  0.977510  0.753462  0.000000  1
