# generated using pymatgen
data_Dy3Y16SnIr12
_symmetry_space_group_name_H-M   'P 1'
_cell_length_a   10.91164400
_cell_length_b   10.91164400
_cell_length_c   6.34812300
_cell_angle_alpha   90.00000000
_cell_angle_beta   90.00000000
_cell_angle_gamma   90.00000000
_symmetry_Int_Tables_number   1
_chemical_formula_structural   Dy3Y16SnIr12
_chemical_formula_sum   'Dy3 Y16 Sn1 Ir12'
_cell_volume   755.83275679
_cell_formula_units_Z   1
loop_
 _symmetry_equiv_pos_site_id
 _symmetry_equiv_pos_as_xyz
  1  'x, y, z'
loop_
 _atom_site_type_symbol
 _atom_site_label
 _atom_site_symmetry_multiplicity
 _atom_site_fract_x
 _atom_site_fract_y
 _atom_site_fract_z
 _atom_site_occupancy
  Dy  Dy0  1  0.000000  0.000000  0.000000  1
  Dy  Dy1  1  0.500000  0.500000  0.000000  1
  Dy  Dy2  1  0.500000  0.500000  0.500000  1
  Y  Y3  1  0.284175  0.084800  0.380174  1
  Y  Y4  1  0.291738  0.910799  0.882904  1
  Y  Y5  1  0.708262  0.089201  0.882904  1
  Y  Y6  1  0.715825  0.915200  0.380174  1
  Y  Y7  1  0.589210  0.791314  0.882163  1
  Y  Y8  1  0.588233  0.208304  0.378799  1
  Y  Y9  1  0.411767  0.791696  0.378799  1
  Y  Y10  1  0.410790  0.208686  0.882163  1
  Y  Y11  1  0.208304  0.411767  0.621201  1
  Y  Y12  1  0.208686  0.589210  0.117837  1
  Y  Y13  1  0.791314  0.410790  0.117837  1
  Y  Y14  1  0.791696  0.588233  0.621201  1
  Y  Y15  1  0.910799  0.708262  0.117096  1
  Y  Y16  1  0.915200  0.284175  0.619826  1
  Y  Y17  1  0.084800  0.715825  0.619826  1
  Y  Y18  1  0.089201  0.291738  0.117096  1
  Sn  Sn19  1  0.000000  0.000000  0.500000  1
  Ir  Ir20  1  0.848700  0.154693  0.248112  1
  Ir  Ir21  1  0.845307  0.848700  0.751888  1
  Ir  Ir22  1  0.154693  0.151300  0.751888  1
  Ir  Ir23  1  0.151300  0.845307  0.248112  1
  Ir  Ir24  1  0.654119  0.347732  0.746177  1
  Ir  Ir25  1  0.652268  0.654119  0.253823  1
  Ir  Ir26  1  0.347732  0.345881  0.253823  1
  Ir  Ir27  1  0.345881  0.652268  0.746177  1
  Ir  Ir28  1  0.500000  0.000000  0.127362  1
  Ir  Ir29  1  0.500000  0.000000  0.621541  1
  Ir  Ir30  1  0.000000  0.500000  0.872638  1
  Ir  Ir31  1  0.000000  0.500000  0.378459  1
