# generated using pymatgen
data_LiScMn12P7
_symmetry_space_group_name_H-M   'P 1'
_cell_length_a   9.34344500
_cell_length_b   9.34344548
_cell_length_c   3.42578400
_cell_angle_alpha   90.00000000
_cell_angle_beta   90.00000000
_cell_angle_gamma   120.00000182
_symmetry_Int_Tables_number   1
_chemical_formula_structural   LiScMn12P7
_chemical_formula_sum   'Li1 Sc1 Mn12 P7'
_cell_volume   259.00293761
_cell_formula_units_Z   1
loop_
 _symmetry_equiv_pos_site_id
 _symmetry_equiv_pos_as_xyz
  1  'x, y, z'
loop_
 _atom_site_type_symbol
 _atom_site_label
 _atom_site_symmetry_multiplicity
 _atom_site_fract_x
 _atom_site_fract_y
 _atom_site_fract_z
 _atom_site_occupancy
  Li  Li0  1  0.666667  0.333333  0.500000  1
  Sc  Sc1  1  0.000000  0.000000  0.000000  1
  Mn  Mn2  1  0.386351  0.287718  0.000000  1
  Mn  Mn3  1  0.901367  0.613649  0.000000  1
  Mn  Mn4  1  0.712282  0.098633  0.000000  1
  Mn  Mn5  1  0.609919  0.782319  0.000000  1
  Mn  Mn6  1  0.172401  0.390081  0.000000  1
  Mn  Mn7  1  0.217681  0.827599  0.000000  1
  Mn  Mn8  1  0.768475  0.716584  0.500000  1
  Mn  Mn9  1  0.948109  0.231525  0.500000  1
  Mn  Mn10  1  0.283416  0.051891  0.500000  1
  Mn  Mn11  1  0.434199  0.535158  0.500000  1
  Mn  Mn12  1  0.100960  0.565801  0.500000  1
  Mn  Mn13  1  0.464842  0.899040  0.500000  1
  P  P14  1  0.623283  0.535162  0.000000  1
  P  P15  1  0.911879  0.376717  0.000000  1
  P  P16  1  0.464838  0.088121  0.000000  1
  P  P17  1  0.751537  0.956875  0.500000  1
  P  P18  1  0.205338  0.248463  0.500000  1
  P  P19  1  0.043125  0.794662  0.500000  1
  P  P20  1  0.333333  0.666667  0.000000  1
