# generated using pymatgen
data_Dy5ZrTaO12
_symmetry_space_group_name_H-M   'P 1'
_cell_length_a   6.45606421
_cell_length_b   6.43980564
_cell_length_c   6.46444600
_cell_angle_alpha   99.40804929
_cell_angle_beta   98.62990102
_cell_angle_gamma   98.73936251
_symmetry_Int_Tables_number   1
_chemical_formula_structural   Dy5ZrTaO12
_chemical_formula_sum   'Dy5 Zr1 Ta1 O12'
_cell_volume   257.82132627
_cell_formula_units_Z   1
loop_
 _symmetry_equiv_pos_site_id
 _symmetry_equiv_pos_as_xyz
  1  'x, y, z'
loop_
 _atom_site_type_symbol
 _atom_site_label
 _atom_site_symmetry_multiplicity
 _atom_site_fract_x
 _atom_site_fract_y
 _atom_site_fract_z
 _atom_site_occupancy
  Dy  Dy0  1  0.391634  0.690461  0.856660  1
  Dy  Dy1  1  0.861070  0.386120  0.693169  1
  Dy  Dy2  1  0.314974  0.144454  0.607712  1
  Dy  Dy3  1  0.612437  0.309985  0.139419  1
  Dy  Dy4  1  0.138764  0.611887  0.306774  1
  Zr  Zr5  1  0.681333  0.854959  0.387264  1
  Ta  Ta6  1  0.000483  0.996757  0.000148  1
  O  O7  1  0.441125  0.601854  0.183065  1
  O  O8  1  0.175896  0.432566  0.582189  1
  O  O9  1  0.597677  0.168490  0.428627  1
  O  O10  1  0.566678  0.411623  0.820795  1
  O  O11  1  0.816725  0.584335  0.415709  1
  O  O12  1  0.429973  0.822988  0.563932  1
  O  O13  1  0.901033  0.021647  0.693785  1
  O  O14  1  0.956205  0.303767  0.071860  1
  O  O15  1  0.298303  0.080114  0.954757  1
  O  O16  1  0.075645  0.959914  0.305078  1
  O  O17  1  0.044105  0.694967  0.926329  1
  O  O18  1  0.695941  0.923110  0.062726  1
