# generated using pymatgen
data_Pr4GeAsS2
_symmetry_space_group_name_H-M   'P 1'
_cell_length_a   7.33154048
_cell_length_b   7.33154088
_cell_length_c   7.33154070
_cell_angle_alpha   132.06413802
_cell_angle_beta   132.06414316
_cell_angle_gamma   70.12774569
_symmetry_Int_Tables_number   1
_chemical_formula_structural   Pr4GeAsS2
_chemical_formula_sum   'Pr4 Ge1 As1 S2'
_cell_volume   212.91421416
_cell_formula_units_Z   1
loop_
 _symmetry_equiv_pos_site_id
 _symmetry_equiv_pos_as_xyz
  1  'x, y, z'
loop_
 _atom_site_type_symbol
 _atom_site_label
 _atom_site_symmetry_multiplicity
 _atom_site_fract_x
 _atom_site_fract_y
 _atom_site_fract_z
 _atom_site_occupancy
  Pr  Pr0  1  0.748937  0.748937  0.000000  1
  Pr  Pr1  1  0.251064  0.251064  0.000000  1
  Pr  Pr2  1  0.999083  0.499083  0.500000  1
  Pr  Pr3  1  0.500917  0.000917  0.500000  1
  Ge  Ge4  1  0.000000  0.000000  0.000000  1
  As  As5  1  0.250000  0.750000  0.500000  1
  S  S6  1  0.500000  0.500000  0.000000  1
  S  S7  1  0.750000  0.250000  0.500000  1
