# generated using pymatgen
data_DyCo2(Sn3Ru)2
_symmetry_space_group_name_H-M   'P 1'
_cell_length_a   6.87570881
_cell_length_b   6.87570924
_cell_length_c   6.74345499
_cell_angle_alpha   119.92933726
_cell_angle_beta   119.92934859
_cell_angle_gamma   91.22224433
_symmetry_Int_Tables_number   1
_chemical_formula_structural   DyCo2(Sn3Ru)2
_chemical_formula_sum   'Dy1 Co2 Sn6 Ru2'
_cell_volume   223.40072830
_cell_formula_units_Z   1
loop_
 _symmetry_equiv_pos_site_id
 _symmetry_equiv_pos_as_xyz
  1  'x, y, z'
loop_
 _atom_site_type_symbol
 _atom_site_label
 _atom_site_symmetry_multiplicity
 _atom_site_fract_x
 _atom_site_fract_y
 _atom_site_fract_z
 _atom_site_occupancy
  Dy  Dy0  1  0.008399  0.008399  0.000000  1
  Co  Co1  1  0.392372  0.754550  0.000000  1
  Co  Co2  1  0.754550  0.392372  0.000000  1
  Sn  Sn3  1  0.473799  0.108384  0.000000  1
  Sn  Sn4  1  0.108384  0.473799  0.000000  1
  Sn  Sn5  1  0.872485  0.872485  0.333367  1
  Sn  Sn6  1  0.539118  0.539118  0.666633  1
  Sn  Sn7  1  0.001391  0.501391  0.500000  1
  Sn  Sn8  1  0.501391  0.001391  0.500000  1
  Ru  Ru9  1  0.258494  0.258494  0.668877  1
  Ru  Ru10  1  0.589617  0.589617  0.331123  1
