# generated using pymatgen
data_LiCaAcSi3
_symmetry_space_group_name_H-M   'P 1'
_cell_length_a   11.28292400
_cell_length_b   10.79192800
_cell_length_c   4.49880100
_cell_angle_alpha   90.00000531
_cell_angle_beta   90.00002289
_cell_angle_gamma   90.00002077
_symmetry_Int_Tables_number   1
_chemical_formula_structural   LiCaAcSi3
_chemical_formula_sum   'Li4 Ca4 Ac4 Si12'
_cell_volume   547.79426983
_cell_formula_units_Z   4
loop_
 _symmetry_equiv_pos_site_id
 _symmetry_equiv_pos_as_xyz
  1  'x, y, z'
loop_
 _atom_site_type_symbol
 _atom_site_label
 _atom_site_symmetry_multiplicity
 _atom_site_fract_x
 _atom_site_fract_y
 _atom_site_fract_z
 _atom_site_occupancy
  Li  Li0  1  0.280624  0.861003  0.499999  1
  Li  Li1  1  0.719375  0.138997  0.499999  1
  Li  Li2  1  0.780624  0.638997  0.999999  1
  Li  Li3  1  0.219375  0.361003  0.000000  1
  Ca  Ca4  1  0.352099  0.551000  0.500000  1
  Ca  Ca5  1  0.647902  0.449000  0.499999  1
  Ca  Ca6  1  0.852099  0.949000  0.000000  1
  Ca  Ca7  1  0.147901  0.051001  0.000001  1
  Ac  Ac8  1  0.574856  0.821767  0.500000  1
  Ac  Ac9  1  0.425145  0.178232  0.499999  1
  Ac  Ac10  1  0.074855  0.678233  0.000001  1
  Ac  Ac11  1  0.925145  0.321768  0.999999  1
  Si  Si12  1  0.900377  0.538285  0.499999  1
  Si  Si13  1  0.099623  0.461715  0.499999  1
  Si  Si14  1  0.400377  0.961715  0.000000  1
  Si  Si15  1  0.599623  0.038285  0.000000  1
  Si  Si16  1  0.133627  0.241237  0.499999  1
  Si  Si17  1  0.866373  0.758764  0.499999  1
  Si  Si18  1  0.633628  0.258763  0.000000  1
  Si  Si19  1  0.366372  0.741236  0.000000  1
  Si  Si20  1  0.039862  0.894779  0.499999  1
  Si  Si21  1  0.960138  0.105222  0.499999  1
  Si  Si22  1  0.539861  0.605221  0.999999  1
  Si  Si23  1  0.460139  0.394778  0.999999  1
