# generated using pymatgen
data_Li3Zn5GeIr3
_symmetry_space_group_name_H-M   'P 1'
_cell_length_a   4.25024100
_cell_length_b   6.09783200
_cell_length_c   12.90362600
_cell_angle_alpha   90.00000000
_cell_angle_beta   90.00245669
_cell_angle_gamma   90.00000000
_symmetry_Int_Tables_number   1
_chemical_formula_structural   Li3Zn5GeIr3
_chemical_formula_sum   'Li6 Zn10 Ge2 Ir6'
_cell_volume   334.42657276
_cell_formula_units_Z   2
loop_
 _symmetry_equiv_pos_site_id
 _symmetry_equiv_pos_as_xyz
  1  'x, y, z'
loop_
 _atom_site_type_symbol
 _atom_site_label
 _atom_site_symmetry_multiplicity
 _atom_site_fract_x
 _atom_site_fract_y
 _atom_site_fract_z
 _atom_site_occupancy
  Li  Li0  1  0.000000  0.499999  0.000000  1
  Li  Li1  1  0.500003  0.000000  0.170624  1
  Li  Li2  1  0.999968  0.499999  0.335410  1
  Li  Li3  1  0.500001  0.000000  0.500000  1
  Li  Li4  1  0.000031  0.499999  0.664590  1
  Li  Li5  1  0.499999  0.000000  0.829376  1
  Zn  Zn6  1  0.999973  0.249698  0.172340  1
  Zn  Zn7  1  0.999973  0.750302  0.172340  1
  Zn  Zn8  1  0.499963  0.257259  0.331863  1
  Zn  Zn9  1  0.499963  0.742741  0.331863  1
  Zn  Zn10  1  0.000000  0.250495  0.500000  1
  Zn  Zn11  1  0.000000  0.749504  0.500000  1
  Zn  Zn12  1  0.500036  0.257259  0.668137  1
  Zn  Zn13  1  0.500036  0.742741  0.668137  1
  Zn  Zn14  1  0.000026  0.249698  0.827660  1
  Zn  Zn15  1  0.000026  0.750302  0.827660  1
  Ge  Ge16  1  0.500001  0.242541  0.000000  1
  Ge  Ge17  1  0.500001  0.757459  0.000000  1
  Ir  Ir18  1  0.000000  0.000000  0.000000  1
  Ir  Ir19  1  0.500008  0.499999  0.153929  1
  Ir  Ir20  1  0.999993  0.000000  0.335001  1
  Ir  Ir21  1  0.500001  0.499999  0.500000  1
  Ir  Ir22  1  0.000007  0.000000  0.664998  1
  Ir  Ir23  1  0.499994  0.499999  0.846071  1
