# generated using pymatgen
data_TbDy4ThRh18
_symmetry_space_group_name_H-M   'P 1'
_cell_length_a   5.26912600
_cell_length_b   5.26912776
_cell_length_c   17.59977900
_cell_angle_alpha   90.00000000
_cell_angle_beta   90.00000000
_cell_angle_gamma   119.99998897
_symmetry_Int_Tables_number   1
_chemical_formula_structural   TbDy4ThRh18
_chemical_formula_sum   'Tb1 Dy4 Th1 Rh18'
_cell_volume   423.17032696
_cell_formula_units_Z   1
loop_
 _symmetry_equiv_pos_site_id
 _symmetry_equiv_pos_as_xyz
  1  'x, y, z'
loop_
 _atom_site_type_symbol
 _atom_site_label
 _atom_site_symmetry_multiplicity
 _atom_site_fract_x
 _atom_site_fract_y
 _atom_site_fract_z
 _atom_site_occupancy
  Tb  Tb0  1  0.333333  0.666667  0.749993  1
  Dy  Dy1  1  0.333333  0.666667  0.957352  1
  Dy  Dy2  1  0.666667  0.333333  0.039775  1
  Dy  Dy3  1  0.666667  0.333333  0.460258  1
  Dy  Dy4  1  0.333333  0.666667  0.542712  1
  Th  Th5  1  0.666667  0.333333  0.249909  1
  Rh  Rh6  1  0.167330  0.832670  0.375277  1
  Rh  Rh7  1  0.167330  0.334662  0.375277  1
  Rh  Rh8  1  0.665338  0.832670  0.375277  1
  Rh  Rh9  1  0.832738  0.167262  0.625875  1
  Rh  Rh10  1  0.832738  0.665477  0.625875  1
  Rh  Rh11  1  0.334523  0.167262  0.625875  1
  Rh  Rh12  1  0.832711  0.167289  0.874127  1
  Rh  Rh13  1  0.832711  0.665422  0.874127  1
  Rh  Rh14  1  0.334578  0.167289  0.874127  1
  Rh  Rh15  1  0.167332  0.832668  0.124716  1
  Rh  Rh16  1  0.167332  0.334665  0.124716  1
  Rh  Rh17  1  0.665335  0.832668  0.124716  1
  Rh  Rh18  1  0.333333  0.666667  0.250013  1
  Rh  Rh19  1  0.666667  0.333333  0.749992  1
  Rh  Rh20  1  0.000000  0.000000  0.250028  1
  Rh  Rh21  1  0.000000  0.000000  0.749992  1
  Rh  Rh22  1  0.000000  0.000000  0.500414  1
  Rh  Rh23  1  0.000000  0.000000  0.999575  1
