# generated using pymatgen
data_Sc8Ir4Ru3Rh
_symmetry_space_group_name_H-M   'P 1'
_cell_length_a   6.36872000
_cell_length_b   4.58417000
_cell_length_c   9.18471900
_cell_angle_alpha   90.00016859
_cell_angle_beta   90.00100909
_cell_angle_gamma   89.99996951
_symmetry_Int_Tables_number   1
_chemical_formula_structural   Sc8Ir4Ru3Rh
_chemical_formula_sum   'Sc8 Ir4 Ru3 Rh1'
_cell_volume   268.15058217
_cell_formula_units_Z   1
loop_
 _symmetry_equiv_pos_site_id
 _symmetry_equiv_pos_as_xyz
  1  'x, y, z'
loop_
 _atom_site_type_symbol
 _atom_site_label
 _atom_site_symmetry_multiplicity
 _atom_site_fract_x
 _atom_site_fract_y
 _atom_site_fract_z
 _atom_site_occupancy
  Sc  Sc0  1  0.997596  0.750001  0.125000  1
  Sc  Sc1  1  0.502136  0.750002  0.125012  1
  Sc  Sc2  1  0.998592  0.249999  0.376617  1
  Sc  Sc3  1  0.501138  0.249997  0.376635  1
  Sc  Sc4  1  0.500186  0.749999  0.624993  1
  Sc  Sc5  1  0.000081  0.749999  0.625007  1
  Sc  Sc6  1  0.501407  0.250000  0.873360  1
  Sc  Sc7  1  0.998857  0.250005  0.873373  1
  Ir  Ir8  1  0.749895  0.249998  0.124995  1
  Ir  Ir9  1  0.249901  0.750001  0.374806  1
  Ir  Ir10  1  0.750100  0.250001  0.624992  1
  Ir  Ir11  1  0.250098  0.750000  0.875219  1
  Ru  Ru12  1  0.749914  0.749999  0.374377  1
  Ru  Ru13  1  0.250090  0.249998  0.624978  1
  Ru  Ru14  1  0.750082  0.750000  0.875646  1
  Rh  Rh15  1  0.249930  0.250000  0.124987  1
