# generated using pymatgen
data_Rb(ZrTe2)2
_symmetry_space_group_name_H-M   'P 1'
_cell_length_a   6.99088800
_cell_length_b   8.12554700
_cell_length_c   18.51460900
_cell_angle_alpha   90.00000000
_cell_angle_beta   90.00000000
_cell_angle_gamma   90.00000000
_symmetry_Int_Tables_number   1
_chemical_formula_structural   Rb(ZrTe2)2
_chemical_formula_sum   'Rb4 Zr8 Te16'
_cell_volume   1051.71845795
_cell_formula_units_Z   4
loop_
 _symmetry_equiv_pos_site_id
 _symmetry_equiv_pos_as_xyz
  1  'x, y, z'
loop_
 _atom_site_type_symbol
 _atom_site_label
 _atom_site_symmetry_multiplicity
 _atom_site_fract_x
 _atom_site_fract_y
 _atom_site_fract_z
 _atom_site_occupancy
  Rb  Rb0  1  0.343276  0.000000  0.000000  1
  Rb  Rb1  1  0.656724  0.500000  0.500000  1
  Rb  Rb2  1  0.024760  0.000000  0.500000  1
  Rb  Rb3  1  0.975240  0.500000  0.000000  1
  Zr  Zr4  1  0.002615  0.000000  0.250053  1
  Zr  Zr5  1  0.002615  0.000000  0.749947  1
  Zr  Zr6  1  0.997385  0.500000  0.249947  1
  Zr  Zr7  1  0.997385  0.500000  0.750053  1
  Zr  Zr8  1  0.500000  0.250000  0.250000  1
  Zr  Zr9  1  0.500000  0.750000  0.750000  1
  Zr  Zr10  1  0.500000  0.750000  0.250000  1
  Zr  Zr11  1  0.500000  0.250000  0.750000  1
  Te  Te12  1  0.834424  0.248963  0.346485  1
  Te  Te13  1  0.834424  0.751037  0.653515  1
  Te  Te14  1  0.165576  0.748963  0.153515  1
  Te  Te15  1  0.165576  0.251037  0.846485  1
  Te  Te16  1  0.165576  0.251037  0.153515  1
  Te  Te17  1  0.165576  0.748963  0.846485  1
  Te  Te18  1  0.834424  0.751037  0.346485  1
  Te  Te19  1  0.834424  0.248963  0.653515  1
  Te  Te20  1  0.669854  0.000000  0.154197  1
  Te  Te21  1  0.669854  0.000000  0.845803  1
  Te  Te22  1  0.330146  0.500000  0.345803  1
  Te  Te23  1  0.330146  0.500000  0.654197  1
  Te  Te24  1  0.338182  0.000000  0.345566  1
  Te  Te25  1  0.338182  0.000000  0.654434  1
  Te  Te26  1  0.661818  0.500000  0.154434  1
  Te  Te27  1  0.661818  0.500000  0.845566  1
