# generated using pymatgen
data_ThMnF36
_symmetry_space_group_name_H-M   'P 1'
_cell_length_a   6.13272553
_cell_length_b   10.72966395
_cell_length_c   11.04641994
_cell_angle_alpha   91.64998038
_cell_angle_beta   100.37438372
_cell_angle_gamma   75.48840230
_symmetry_Int_Tables_number   1
_chemical_formula_structural   ThMnF36
_chemical_formula_sum   'Th1 Mn1 F36'
_cell_volume   692.08222346
_cell_formula_units_Z   1
loop_
 _symmetry_equiv_pos_site_id
 _symmetry_equiv_pos_as_xyz
  1  'x, y, z'
loop_
 _atom_site_type_symbol
 _atom_site_label
 _atom_site_symmetry_multiplicity
 _atom_site_fract_x
 _atom_site_fract_y
 _atom_site_fract_z
 _atom_site_occupancy
  Th  Th0  1  0.750640  0.832906  0.878688  1
  Mn  Mn1  1  0.234330  0.184684  0.137988  1
  F  F2  1  0.348709  0.372175  0.897629  1
  F  F3  1  0.627229  0.624185  0.123278  1
  F  F4  1  0.326703  0.282357  0.591370  1
  F  F5  1  0.672905  0.751325  0.424117  1
  F  F6  1  0.858642  0.225534  0.800259  1
  F  F7  1  0.159689  0.766382  0.197171  1
  F  F8  1  0.674943  0.839349  0.057544  1
  F  F9  1  0.283541  0.149856  0.984160  1
  F  F10  1  0.785614  0.609184  0.864851  1
  F  F11  1  0.286858  0.347015  0.117857  1
  F  F12  1  0.431117  0.463306  0.839801  1
  F  F13  1  0.584742  0.502358  0.145212  1
  F  F14  1  0.723750  0.703909  0.704278  1
  F  F15  1  0.223255  0.255000  0.290642  1
  F  F16  1  0.742358  0.973384  0.548956  1
  F  F17  1  0.244749  0.009407  0.464979  1
  F  F18  1  0.292495  0.179789  0.659321  1
  F  F19  1  0.682484  0.816941  0.315364  1
  F  F20  1  0.810384  0.088217  0.587146  1
  F  F21  1  0.161210  0.910350  0.397911  1
  F  F22  1  0.819558  0.010656  0.848495  1
  F  F23  1  0.204218  0.031161  0.173816  1
  F  F24  1  0.887991  0.352689  0.790069  1
  F  F25  1  0.114773  0.642299  0.198305  1
  F  F26  1  0.156618  0.752291  0.913872  1
  F  F27  1  0.925160  0.253065  0.085105  1
  F  F28  1  0.389855  0.944916  0.756207  1
  F  F29  1  0.564528  0.103672  0.199001  1
  F  F30  1  0.122415  0.748540  0.581781  1
  F  F31  1  0.893720  0.247229  0.416583  1
  F  F32  1  0.195911  0.632191  0.653549  1
  F  F33  1  0.778454  0.365258  0.353282  1
  F  F34  1  0.277942  0.848865  0.833866  1
  F  F35  1  0.735235  0.172473  0.146584  1
  F  F36  1  0.538126  0.450748  0.552584  1
  F  F37  1  0.489149  0.556333  0.468380  1
