# generated using pymatgen
data_Yb2Ce(BPt2)3
_symmetry_space_group_name_H-M   'P 1'
_cell_length_a   5.47932269
_cell_length_b   5.42402883
_cell_length_c   7.63842000
_cell_angle_alpha   90.00000000
_cell_angle_beta   90.00000000
_cell_angle_gamma   119.66673717
_symmetry_Int_Tables_number   1
_chemical_formula_structural   Yb2Ce(BPt2)3
_chemical_formula_sum   'Yb2 Ce1 B3 Pt6'
_cell_volume   197.25667002
_cell_formula_units_Z   1
loop_
 _symmetry_equiv_pos_site_id
 _symmetry_equiv_pos_as_xyz
  1  'x, y, z'
loop_
 _atom_site_type_symbol
 _atom_site_label
 _atom_site_symmetry_multiplicity
 _atom_site_fract_x
 _atom_site_fract_y
 _atom_site_fract_z
 _atom_site_occupancy
  Yb  Yb0  1  0.500000  0.500000  0.826759  1
  Yb  Yb1  1  0.500000  0.000000  0.506574  1
  Ce  Ce2  1  0.000000  0.500000  0.166667  1
  B  B3  1  0.500000  0.500000  0.341151  1
  B  B4  1  0.500000  0.000000  0.992182  1
  B  B5  1  0.000000  0.500000  0.666667  1
  Pt  Pt6  1  0.143309  0.850946  0.833475  1
  Pt  Pt7  1  0.143309  0.292362  0.499858  1
  Pt  Pt8  1  0.694347  0.847173  0.166667  1
  Pt  Pt9  1  0.856691  0.149054  0.833475  1
  Pt  Pt10  1  0.856691  0.707638  0.499858  1
  Pt  Pt11  1  0.305653  0.152827  0.166667  1
