# generated using pymatgen
data_Pr3MgCd2Ge2Pt
_symmetry_space_group_name_H-M   'P 1'
_cell_length_a   7.39525500
_cell_length_b   7.47091232
_cell_length_c   4.50262300
_cell_angle_alpha   90.00000000
_cell_angle_beta   90.00000000
_cell_angle_gamma   119.66557028
_symmetry_Int_Tables_number   1
_chemical_formula_structural   Pr3MgCd2Ge2Pt
_chemical_formula_sum   'Pr3 Mg1 Cd2 Ge2 Pt1'
_cell_volume   216.16068729
_cell_formula_units_Z   1
loop_
 _symmetry_equiv_pos_site_id
 _symmetry_equiv_pos_as_xyz
  1  'x, y, z'
loop_
 _atom_site_type_symbol
 _atom_site_label
 _atom_site_symmetry_multiplicity
 _atom_site_fract_x
 _atom_site_fract_y
 _atom_site_fract_z
 _atom_site_occupancy
  Pr  Pr0  1  0.408376  0.409421  0.000000  1
  Pr  Pr1  1  0.595242  0.000000  0.000000  1
  Pr  Pr2  1  0.998956  0.590579  0.000000  1
  Mg  Mg3  1  0.231391  0.000000  0.500000  1
  Cd  Cd4  1  0.001001  0.242827  0.500000  1
  Cd  Cd5  1  0.758174  0.757173  0.500000  1
  Ge  Ge6  1  0.660855  0.328279  0.500000  1
  Ge  Ge7  1  0.332575  0.671721  0.500000  1
  Pt  Pt8  1  0.013429  0.000000  0.000000  1
