# generated using pymatgen
data_Ac3Sb3Pd2
_symmetry_space_group_name_H-M   'P 1'
_cell_length_a   4.72995500
_cell_length_b   4.72995459
_cell_length_c   25.14789000
_cell_angle_alpha   90.00000000
_cell_angle_beta   90.00000000
_cell_angle_gamma   119.99999590
_symmetry_Int_Tables_number   1
_chemical_formula_structural   Ac3Sb3Pd2
_chemical_formula_sum   'Ac6 Sb6 Pd4'
_cell_volume   487.24364296
_cell_formula_units_Z   2
loop_
 _symmetry_equiv_pos_site_id
 _symmetry_equiv_pos_as_xyz
  1  'x, y, z'
loop_
 _atom_site_type_symbol
 _atom_site_label
 _atom_site_symmetry_multiplicity
 _atom_site_fract_x
 _atom_site_fract_y
 _atom_site_fract_z
 _atom_site_occupancy
  Ac  Ac0  1  0.666667  0.333333  0.921039  1
  Ac  Ac1  1  0.333333  0.666667  0.078961  1
  Ac  Ac2  1  0.333333  0.666667  0.421039  1
  Ac  Ac3  1  0.666667  0.333333  0.578961  1
  Ac  Ac4  1  0.333333  0.666667  0.250000  1
  Ac  Ac5  1  0.666667  0.333333  0.750000  1
  Sb  Sb6  1  0.333333  0.666667  0.662036  1
  Sb  Sb7  1  0.000000  0.000000  0.500000  1
  Sb  Sb8  1  0.666667  0.333333  0.337964  1
  Sb  Sb9  1  0.333333  0.666667  0.837964  1
  Sb  Sb10  1  0.666667  0.333333  0.162036  1
  Sb  Sb11  1  0.000000  0.000000  0.000000  1
  Pd  Pd12  1  0.000000  0.000000  0.832691  1
  Pd  Pd13  1  0.000000  0.000000  0.167309  1
  Pd  Pd14  1  0.000000  0.000000  0.332691  1
  Pd  Pd15  1  0.000000  0.000000  0.667309  1
