# generated using pymatgen
data_YbY(B4Os)2
_symmetry_space_group_name_H-M   'P 1'
_cell_length_a   3.55602500
_cell_length_b   5.97168697
_cell_length_c   11.54213278
_cell_angle_alpha   89.88547157
_cell_angle_beta   90.00000000
_cell_angle_gamma   90.00000000
_symmetry_Int_Tables_number   1
_chemical_formula_structural   YbY(B4Os)2
_chemical_formula_sum   'Yb2 Y2 B16 Os4'
_cell_volume   245.10210365
_cell_formula_units_Z   2
loop_
 _symmetry_equiv_pos_site_id
 _symmetry_equiv_pos_as_xyz
  1  'x, y, z'
loop_
 _atom_site_type_symbol
 _atom_site_label
 _atom_site_symmetry_multiplicity
 _atom_site_fract_x
 _atom_site_fract_y
 _atom_site_fract_z
 _atom_site_occupancy
  Yb  Yb0  1  0.000000  0.628609  0.851170  1
  Yb  Yb1  1  0.000000  0.371391  0.148830  1
  Y  Y2  1  0.000000  0.128597  0.650969  1
  Y  Y3  1  0.000000  0.871403  0.349031  1
  B  B4  1  0.500000  0.475083  0.692284  1
  B  B5  1  0.500000  0.524917  0.307716  1
  B  B6  1  0.500000  0.974837  0.809448  1
  B  B7  1  0.500000  0.025163  0.190552  1
  B  B8  1  0.500000  0.288854  0.815988  1
  B  B9  1  0.500000  0.711146  0.184012  1
  B  B10  1  0.500000  0.786641  0.686396  1
  B  B11  1  0.500000  0.213359  0.313604  1
  B  B12  1  0.500000  0.363843  0.969610  1
  B  B13  1  0.500000  0.636157  0.030390  1
  B  B14  1  0.500000  0.863019  0.530498  1
  B  B15  1  0.500000  0.136981  0.469502  1
  B  B16  1  0.500000  0.388208  0.547383  1
  B  B17  1  0.500000  0.611792  0.452617  1
  B  B18  1  0.500000  0.885948  0.953407  1
  B  B19  1  0.500000  0.114052  0.046593  1
  Os  Os20  1  0.000000  0.137111  0.909535  1
  Os  Os21  1  0.000000  0.862889  0.090465  1
  Os  Os22  1  0.000000  0.640804  0.591814  1
  Os  Os23  1  0.000000  0.359196  0.408186  1
