# generated using pymatgen
data_Er5Zn(InRh2)6
_symmetry_space_group_name_H-M   'P 1'
_cell_length_a   4.68225400
_cell_length_b   6.52159100
_cell_length_c   13.89242377
_cell_angle_alpha   90.00000000
_cell_angle_beta   90.02741409
_cell_angle_gamma   90.00000000
_symmetry_Int_Tables_number   1
_chemical_formula_structural   Er5Zn(InRh2)6
_chemical_formula_sum   'Er5 Zn1 In6 Rh12'
_cell_volume   424.21546884
_cell_formula_units_Z   1
loop_
 _symmetry_equiv_pos_site_id
 _symmetry_equiv_pos_as_xyz
  1  'x, y, z'
loop_
 _atom_site_type_symbol
 _atom_site_label
 _atom_site_symmetry_multiplicity
 _atom_site_fract_x
 _atom_site_fract_y
 _atom_site_fract_z
 _atom_site_occupancy
  Er  Er0  1  0.999993  0.000000  0.995036  1
  Er  Er1  1  0.500313  0.499999  0.164596  1
  Er  Er2  1  0.999573  0.000000  0.333296  1
  Er  Er3  1  0.499916  0.499999  0.502096  1
  Er  Er4  1  0.000172  0.000000  0.671653  1
  Zn  Zn5  1  0.500005  0.499999  0.833291  1
  In  In6  1  0.999914  0.499999  0.999314  1
  In  In7  1  0.500548  0.000000  0.159572  1
  In  In8  1  0.999817  0.499999  0.333303  1
  In  In9  1  0.499515  0.000000  0.506729  1
  In  In10  1  0.000245  0.499999  0.667559  1
  In  In11  1  0.499750  0.000000  0.833363  1
  Rh  Rh12  1  0.499972  0.261302  0.990776  1
  Rh  Rh13  1  0.499972  0.738698  0.990776  1
  Rh  Rh14  1  0.000413  0.248983  0.165477  1
  Rh  Rh15  1  0.000413  0.751015  0.165477  1
  Rh  Rh16  1  0.499522  0.249751  0.333354  1
  Rh  Rh17  1  0.499522  0.750249  0.333354  1
  Rh  Rh18  1  0.999859  0.249084  0.501186  1
  Rh  Rh19  1  0.999859  0.750914  0.501186  1
  Rh  Rh20  1  0.500013  0.260822  0.675937  1
  Rh  Rh21  1  0.500013  0.739178  0.675937  1
  Rh  Rh22  1  0.000341  0.265531  0.833366  1
  Rh  Rh23  1  0.000341  0.734467  0.833366  1
