# generated using pymatgen
data_Er4Ga3Co3SiNi
_symmetry_space_group_name_H-M   'P 1'
_cell_length_a   4.32565600
_cell_length_b   6.91721974
_cell_length_c   6.92121209
_cell_angle_alpha   90.27124795
_cell_angle_beta   90.00000000
_cell_angle_gamma   90.00000000
_symmetry_Int_Tables_number   1
_chemical_formula_structural   Er4Ga3Co3SiNi
_chemical_formula_sum   'Er4 Ga3 Co3 Si1 Ni1'
_cell_volume   207.09081725
_cell_formula_units_Z   1
loop_
 _symmetry_equiv_pos_site_id
 _symmetry_equiv_pos_as_xyz
  1  'x, y, z'
loop_
 _atom_site_type_symbol
 _atom_site_label
 _atom_site_symmetry_multiplicity
 _atom_site_fract_x
 _atom_site_fract_y
 _atom_site_fract_z
 _atom_site_occupancy
  Er  Er0  1  0.750000  0.516784  0.807577  1
  Er  Er1  1  0.750000  0.022991  0.693216  1
  Er  Er2  1  0.250000  0.477185  0.195088  1
  Er  Er3  1  0.250000  0.987049  0.305367  1
  Ga  Ga4  1  0.750000  0.198547  0.104012  1
  Ga  Ga5  1  0.750000  0.696308  0.388945  1
  Ga  Ga6  1  0.250000  0.805427  0.898848  1
  Co  Co7  1  0.750000  0.341355  0.446010  1
  Co  Co8  1  0.750000  0.844463  0.065823  1
  Co  Co9  1  0.250000  0.164821  0.923526  1
  Si  Si10  1  0.250000  0.301706  0.606490  1
  Ni  Ni11  1  0.250000  0.643365  0.565096  1
