# generated using pymatgen
data_NdSm2(ZnPt)4
_symmetry_space_group_name_H-M   'P 1'
_cell_length_a   8.34689966
_cell_length_b   8.34689926
_cell_length_c   8.34689953
_cell_angle_alpha   151.55627757
_cell_angle_beta   126.55655128
_cell_angle_gamma   61.64707918
_symmetry_Int_Tables_number   1
_chemical_formula_structural   NdSm2(ZnPt)4
_chemical_formula_sum   'Nd1 Sm2 Zn4 Pt4'
_cell_volume   220.67290394
_cell_formula_units_Z   1
loop_
 _symmetry_equiv_pos_site_id
 _symmetry_equiv_pos_as_xyz
  1  'x, y, z'
loop_
 _atom_site_type_symbol
 _atom_site_label
 _atom_site_symmetry_multiplicity
 _atom_site_fract_x
 _atom_site_fract_y
 _atom_site_fract_z
 _atom_site_occupancy
  Nd  Nd0  1  0.500000  0.000000  0.500000  1
  Sm  Sm1  1  0.874017  0.874017  0.000000  1
  Sm  Sm2  1  0.125983  0.125983  0.000000  1
  Zn  Zn3  1  0.478273  0.673753  0.804520  1
  Zn  Zn4  1  0.869232  0.673753  0.195480  1
  Zn  Zn5  1  0.130768  0.326247  0.804520  1
  Zn  Zn6  1  0.521727  0.326247  0.195480  1
  Pt  Pt7  1  0.279310  0.779310  0.500000  1
  Pt  Pt8  1  0.720690  0.220690  0.500000  1
  Pt  Pt9  1  0.805409  0.500000  0.305409  1
  Pt  Pt10  1  0.194591  0.500000  0.694591  1
