# generated using pymatgen
data_Nb2FeCoP2
_symmetry_space_group_name_H-M   'P 1'
_cell_length_a   3.59757100
_cell_length_b   6.16016171
_cell_length_c   6.98651927
_cell_angle_alpha   90.22339570
_cell_angle_beta   90.00000000
_cell_angle_gamma   90.00000000
_symmetry_Int_Tables_number   1
_chemical_formula_structural   Nb2FeCoP2
_chemical_formula_sum   'Nb4 Fe2 Co2 P4'
_cell_volume   154.83140220
_cell_formula_units_Z   2
loop_
 _symmetry_equiv_pos_site_id
 _symmetry_equiv_pos_as_xyz
  1  'x, y, z'
loop_
 _atom_site_type_symbol
 _atom_site_label
 _atom_site_symmetry_multiplicity
 _atom_site_fract_x
 _atom_site_fract_y
 _atom_site_fract_z
 _atom_site_occupancy
  Nb  Nb0  1  0.250000  0.524114  0.171983  1
  Nb  Nb1  1  0.750000  0.475886  0.828017  1
  Nb  Nb2  1  0.750000  0.977359  0.676566  1
  Nb  Nb3  1  0.250000  0.022641  0.323434  1
  Fe  Fe4  1  0.750000  0.859227  0.061564  1
  Fe  Fe5  1  0.250000  0.140773  0.938436  1
  Co  Co6  1  0.250000  0.644099  0.562123  1
  Co  Co7  1  0.750000  0.355901  0.437877  1
  P  P8  1  0.250000  0.778410  0.882980  1
  P  P9  1  0.750000  0.221590  0.117020  1
  P  P10  1  0.750000  0.723625  0.378251  1
  P  P11  1  0.250000  0.276375  0.621749  1
