# generated using pymatgen
data_NdSc5Cr2(Co4P3)4
_symmetry_space_group_name_H-M   'P 1'
_cell_length_a   3.62585200
_cell_length_b   10.40912300
_cell_length_c   12.02348800
_cell_angle_alpha   90.00000000
_cell_angle_beta   90.00000000
_cell_angle_gamma   90.00000000
_symmetry_Int_Tables_number   1
_chemical_formula_structural   NdSc5Cr2(Co4P3)4
_chemical_formula_sum   'Nd1 Sc5 Cr2 Co16 P12'
_cell_volume   453.78975605
_cell_formula_units_Z   1
loop_
 _symmetry_equiv_pos_site_id
 _symmetry_equiv_pos_as_xyz
  1  'x, y, z'
loop_
 _atom_site_type_symbol
 _atom_site_label
 _atom_site_symmetry_multiplicity
 _atom_site_fract_x
 _atom_site_fract_y
 _atom_site_fract_z
 _atom_site_occupancy
  Nd  Nd0  1  0.500000  0.000000  0.474962  1
  Sc  Sc1  1  0.000000  0.500000  0.523846  1
  Sc  Sc2  1  0.500000  0.817035  0.201899  1
  Sc  Sc3  1  0.500000  0.182965  0.201899  1
  Sc  Sc4  1  0.000000  0.680768  0.796333  1
  Sc  Sc5  1  0.000000  0.319232  0.796333  1
  Cr  Cr6  1  0.500000  0.500000  0.157327  1
  Cr  Cr7  1  0.000000  0.000000  0.846590  1
  Co  Co8  1  0.500000  0.500000  0.701944  1
  Co  Co9  1  0.000000  0.000000  0.294135  1
  Co  Co10  1  0.000000  0.500000  0.986362  1
  Co  Co11  1  0.500000  0.000000  0.013046  1
  Co  Co12  1  0.500000  0.333108  0.991521  1
  Co  Co13  1  0.500000  0.666892  0.991521  1
  Co  Co14  1  0.000000  0.168183  0.008538  1
  Co  Co15  1  0.000000  0.831817  0.008538  1
  Co  Co16  1  0.500000  0.301264  0.430757  1
  Co  Co17  1  0.500000  0.698736  0.430757  1
  Co  Co18  1  0.000000  0.209362  0.570035  1
  Co  Co19  1  0.000000  0.790638  0.570035  1
  Co  Co20  1  0.500000  0.875961  0.710419  1
  Co  Co21  1  0.500000  0.124039  0.710419  1
  Co  Co22  1  0.000000  0.621036  0.290747  1
  Co  Co23  1  0.000000  0.378964  0.290747  1
  P  P24  1  0.500000  0.500000  0.878445  1
  P  P25  1  0.000000  0.000000  0.119517  1
  P  P26  1  0.500000  0.500000  0.348420  1
  P  P27  1  0.000000  0.000000  0.659971  1
  P  P28  1  0.500000  0.316190  0.618211  1
  P  P29  1  0.500000  0.683810  0.618211  1
  P  P30  1  0.000000  0.191349  0.378646  1
  P  P31  1  0.000000  0.808651  0.378646  1
  P  P32  1  0.500000  0.844561  0.890666  1
  P  P33  1  0.500000  0.155439  0.890666  1
  P  P34  1  0.000000  0.653638  0.109946  1
  P  P35  1  0.000000  0.346362  0.109946  1
