# generated using pymatgen
data_Dy11Y6Er3(Cd3Ru)2
_symmetry_space_group_name_H-M   'P 1'
_cell_length_a   9.59941007
_cell_length_b   9.60090557
_cell_length_c   9.83515205
_cell_angle_alpha   89.99999987
_cell_angle_beta   89.99021839
_cell_angle_gamma   120.00515829
_symmetry_Int_Tables_number   1
_chemical_formula_structural   Dy11Y6Er3(Cd3Ru)2
_chemical_formula_sum   'Dy11 Y6 Er3 Cd6 Ru2'
_cell_volume   784.95700251
_cell_formula_units_Z   1
loop_
 _symmetry_equiv_pos_site_id
 _symmetry_equiv_pos_as_xyz
  1  'x, y, z'
loop_
 _atom_site_type_symbol
 _atom_site_label
 _atom_site_symmetry_multiplicity
 _atom_site_fract_x
 _atom_site_fract_y
 _atom_site_fract_z
 _atom_site_occupancy
  Dy  Dy0  1  0.209661  0.790425  0.440061  1
  Dy  Dy1  1  0.209661  0.419238  0.440061  1
  Dy  Dy2  1  0.580635  0.790319  0.439878  1
  Dy  Dy3  1  0.790388  0.209593  0.559939  1
  Dy  Dy4  1  0.790388  0.580793  0.559939  1
  Dy  Dy5  1  0.419201  0.209600  0.559898  1
  Dy  Dy6  1  0.790310  0.209434  0.940143  1
  Dy  Dy7  1  0.790310  0.580874  0.940143  1
  Dy  Dy8  1  0.419194  0.209596  0.940092  1
  Dy  Dy9  1  0.209884  0.790365  0.059960  1
  Dy  Dy10  1  0.209884  0.419521  0.059960  1
  Y  Y11  1  0.541000  0.459185  0.249894  1
  Y  Y12  1  0.541000  0.081816  0.249894  1
  Y  Y13  1  0.917911  0.458956  0.250002  1
  Y  Y14  1  0.459058  0.541181  0.750147  1
  Y  Y15  1  0.459058  0.917876  0.750147  1
  Y  Y16  1  0.082059  0.541029  0.750036  1
  Er  Er17  1  0.000002  0.000001  0.500036  1
  Er  Er18  1  0.999775  0.999888  0.000032  1
  Er  Er19  1  0.580637  0.790320  0.059928  1
  Cd  Cd20  1  0.885678  0.114249  0.249854  1
  Cd  Cd21  1  0.885678  0.771430  0.249854  1
  Cd  Cd22  1  0.228561  0.114281  0.249924  1
  Cd  Cd23  1  0.114289  0.885681  0.750115  1
  Cd  Cd24  1  0.114289  0.228607  0.750115  1
  Cd  Cd25  1  0.771283  0.885641  0.750172  1
  Ru  Ru26  1  0.333548  0.666775  0.249809  1
  Ru  Ru27  1  0.666655  0.333327  0.749968  1
