# generated using pymatgen
data_LaTb2Y3(SiPd5)2
_symmetry_space_group_name_H-M   'P 1'
_cell_length_a   8.30473837
_cell_length_b   8.30070348
_cell_length_c   8.30070427
_cell_angle_alpha   127.58573861
_cell_angle_beta   125.90963086
_cell_angle_gamma   78.65910898
_symmetry_Int_Tables_number   1
_chemical_formula_structural   LaTb2Y3(SiPd5)2
_chemical_formula_sum   'La1 Tb2 Y3 Si2 Pd10'
_cell_volume   355.50702635
_cell_formula_units_Z   1
loop_
 _symmetry_equiv_pos_site_id
 _symmetry_equiv_pos_as_xyz
  1  'x, y, z'
loop_
 _atom_site_type_symbol
 _atom_site_label
 _atom_site_symmetry_multiplicity
 _atom_site_fract_x
 _atom_site_fract_y
 _atom_site_fract_z
 _atom_site_occupancy
  La  La0  1  0.618478  0.749931  0.868547  1
  Tb  Tb1  1  0.388910  0.249929  0.138981  1
  Tb  Tb2  1  0.775138  0.548664  0.226472  1
  Y  Y3  1  0.825532  0.050624  0.774908  1
  Y  Y4  1  0.224021  0.449317  0.774704  1
  Y  Y5  1  0.177522  0.951321  0.226201  1
  Si  Si6  1  0.211744  0.750121  0.461622  1
  Si  Si7  1  0.781866  0.249969  0.531896  1
  Pd  Pd8  1  0.834706  0.598524  0.640720  1
  Pd  Pd9  1  0.542472  0.306251  0.641081  1
  Pd  Pd10  1  0.452798  0.099080  0.764674  1
  Pd  Pd11  1  0.834706  0.193986  0.236183  1
  Pd  Pd12  1  0.165520  0.400944  0.353664  1
  Pd  Pd13  1  0.452798  0.688124  0.353718  1
  Pd  Pd14  1  0.542472  0.901391  0.236222  1
  Pd  Pd15  1  0.165520  0.811855  0.764575  1
  Pd  Pd16  1  0.002898  0.005848  0.508777  1
  Pd  Pd17  1  0.002898  0.494121  0.997051  1
