# generated using pymatgen
data_Hf3Zr17Si15Sn
_symmetry_space_group_name_H-M   'P 1'
_cell_length_a   7.20537062
_cell_length_b   7.17994280
_cell_length_c   13.07921874
_cell_angle_alpha   89.97197952
_cell_angle_beta   89.82443246
_cell_angle_gamma   90.22892471
_symmetry_Int_Tables_number   1
_chemical_formula_structural   Hf3Zr17Si15Sn
_chemical_formula_sum   'Hf3 Zr17 Si15 Sn1'
_cell_volume   676.63358746
_cell_formula_units_Z   1
loop_
 _symmetry_equiv_pos_site_id
 _symmetry_equiv_pos_as_xyz
  1  'x, y, z'
loop_
 _atom_site_type_symbol
 _atom_site_label
 _atom_site_symmetry_multiplicity
 _atom_site_fract_x
 _atom_site_fract_y
 _atom_site_fract_z
 _atom_site_occupancy
  Hf  Hf0  1  0.352637  0.498161  0.871441  1
  Hf  Hf1  1  0.013956  0.842015  0.124937  1
  Hf  Hf2  1  0.998384  0.146813  0.623322  1
  Zr  Zr3  1  0.676633  0.324680  0.749266  1
  Zr  Zr4  1  0.324978  0.675668  0.250680  1
  Zr  Zr5  1  0.823754  0.824488  0.500689  1
  Zr  Zr6  1  0.181062  0.174018  0.998062  1
  Zr  Zr7  1  0.498208  0.150533  0.535149  1
  Zr  Zr8  1  0.494892  0.842277  0.031585  1
  Zr  Zr9  1  0.647180  0.999780  0.290551  1
  Zr  Zr10  1  0.347610  0.995171  0.783011  1
  Zr  Zr11  1  0.849910  0.510483  0.961836  1
  Zr  Zr12  1  0.151028  0.498466  0.465660  1
  Zr  Zr13  1  0.001874  0.650427  0.714828  1
  Zr  Zr14  1  0.010104  0.357473  0.221657  1
  Zr  Zr15  1  0.489685  0.362332  0.125492  1
  Zr  Zr16  1  0.500515  0.645231  0.626671  1
  Zr  Zr17  1  0.854167  0.999674  0.872762  1
  Zr  Zr18  1  0.147217  0.999432  0.377894  1
  Zr  Zr19  1  0.646986  0.502473  0.374215  1
  Si  Si20  1  0.204969  0.856178  0.574119  1
  Si  Si21  1  0.642063  0.705425  0.821813  1
  Si  Si22  1  0.357228  0.294561  0.323720  1
  Si  Si23  1  0.855466  0.205940  0.428549  1
  Si  Si24  1  0.144196  0.793521  0.925787  1
  Si  Si25  1  0.707275  0.648129  0.177261  1
  Si  Si26  1  0.293565  0.353373  0.676862  1
  Si  Si27  1  0.543267  0.198859  0.931920  1
  Si  Si28  1  0.447255  0.799062  0.438769  1
  Si  Si29  1  0.698801  0.950646  0.685955  1
  Si  Si30  1  0.301465  0.051449  0.187268  1
  Si  Si31  1  0.801284  0.448509  0.562879  1
  Si  Si32  1  0.198267  0.549047  0.059773  1
  Si  Si33  1  0.948377  0.702895  0.313685  1
  Si  Si34  1  0.050310  0.300893  0.812171  1
  Sn  Sn35  1  0.795433  0.141919  0.079761  1
