# generated using pymatgen
data_Tb6Ho2GaPd24
_symmetry_space_group_name_H-M   'P 1'
_cell_length_a   8.36279700
_cell_length_b   8.36299001
_cell_length_c   8.36299001
_cell_angle_alpha   89.99457392
_cell_angle_beta   90.00000000
_cell_angle_gamma   90.00000000
_symmetry_Int_Tables_number   1
_chemical_formula_structural   Tb6Ho2GaPd24
_chemical_formula_sum   'Tb6 Ho2 Ga1 Pd24'
_cell_volume   584.89069030
_cell_formula_units_Z   1
loop_
 _symmetry_equiv_pos_site_id
 _symmetry_equiv_pos_as_xyz
  1  'x, y, z'
loop_
 _atom_site_type_symbol
 _atom_site_label
 _atom_site_symmetry_multiplicity
 _atom_site_fract_x
 _atom_site_fract_y
 _atom_site_fract_z
 _atom_site_occupancy
  Tb  Tb0  1  0.748229  0.251758  0.251758  1
  Tb  Tb1  1  0.748229  0.748242  0.748242  1
  Tb  Tb2  1  0.748255  0.748262  0.251738  1
  Tb  Tb3  1  0.748255  0.251738  0.748262  1
  Tb  Tb4  1  0.251748  0.748253  0.748253  1
  Tb  Tb5  1  0.251748  0.251747  0.251747  1
  Ho  Ho6  1  0.251847  0.251791  0.748209  1
  Ho  Ho7  1  0.251847  0.748209  0.251791  1
  Ga  Ga8  1  0.000088  0.000000  0.000000  1
  Pd  Pd9  1  0.499687  0.499714  0.747034  1
  Pd  Pd10  1  0.499687  0.252966  0.500286  1
  Pd  Pd11  1  0.252941  0.500000  0.500000  1
  Pd  Pd12  1  0.499687  0.500286  0.252966  1
  Pd  Pd13  1  0.499687  0.747034  0.499714  1
  Pd  Pd14  1  0.747028  0.500000  0.500000  1
  Pd  Pd15  1  0.000255  0.000268  0.708137  1
  Pd  Pd16  1  0.000255  0.291863  0.999732  1
  Pd  Pd17  1  0.291820  0.000000  0.000000  1
  Pd  Pd18  1  0.000255  0.999732  0.291863  1
  Pd  Pd19  1  0.000255  0.708137  0.000268  1
  Pd  Pd20  1  0.708110  0.000000  0.000000  1
  Pd  Pd21  1  0.000291  0.499734  0.739707  1
  Pd  Pd22  1  0.499715  0.260287  0.999715  1
  Pd  Pd23  1  0.260298  0.000000  0.500000  1
  Pd  Pd24  1  0.000291  0.260293  0.500266  1
  Pd  Pd25  1  0.499715  0.000285  0.739713  1
  Pd  Pd26  1  0.260298  0.500000  0.000000  1
  Pd  Pd27  1  0.000291  0.500266  0.260293  1
  Pd  Pd28  1  0.499715  0.739713  0.000285  1
  Pd  Pd29  1  0.000291  0.739707  0.499734  1
  Pd  Pd30  1  0.499715  0.999715  0.260287  1
  Pd  Pd31  1  0.739734  0.000000  0.500000  1
  Pd  Pd32  1  0.739734  0.500000  0.000000  1
