# generated using pymatgen
data_Ba3Gd2ReO9
_symmetry_space_group_name_H-M   'P 1'
_cell_length_a   6.11240100
_cell_length_b   6.11239991
_cell_length_c   14.84587200
_cell_angle_alpha   90.00000000
_cell_angle_beta   90.00000000
_cell_angle_gamma   120.00001130
_symmetry_Int_Tables_number   1
_chemical_formula_structural   Ba3Gd2ReO9
_chemical_formula_sum   'Ba6 Gd4 Re2 O18'
_cell_volume   480.35232044
_cell_formula_units_Z   2
loop_
 _symmetry_equiv_pos_site_id
 _symmetry_equiv_pos_as_xyz
  1  'x, y, z'
loop_
 _atom_site_type_symbol
 _atom_site_label
 _atom_site_symmetry_multiplicity
 _atom_site_fract_x
 _atom_site_fract_y
 _atom_site_fract_z
 _atom_site_occupancy
  Ba  Ba0  1  0.333333  0.666667  0.089982  1
  Ba  Ba1  1  0.666667  0.333333  0.910018  1
  Ba  Ba2  1  0.333333  0.666667  0.589982  1
  Ba  Ba3  1  0.666667  0.333333  0.410018  1
  Ba  Ba4  1  0.000000  0.000000  0.250000  1
  Ba  Ba5  1  0.000000  0.000000  0.750000  1
  Gd  Gd6  1  0.333333  0.666667  0.835534  1
  Gd  Gd7  1  0.666667  0.333333  0.164466  1
  Gd  Gd8  1  0.333333  0.666667  0.335534  1
  Gd  Gd9  1  0.666667  0.333333  0.664466  1
  Re  Re10  1  0.000000  0.000000  0.000000  1
  Re  Re11  1  0.000000  0.000000  0.500000  1
  O  O12  1  0.890078  0.699381  0.573728  1
  O  O13  1  0.000000  0.558367  0.250000  1
  O  O14  1  0.190697  0.300619  0.926272  1
  O  O15  1  0.890078  0.190697  0.073728  1
  O  O16  1  0.809303  0.109922  0.573728  1
  O  O17  1  0.809303  0.699381  0.073728  1
  O  O18  1  0.699381  0.809303  0.426272  1
  O  O19  1  0.441633  0.000000  0.750000  1
  O  O20  1  0.558367  0.558367  0.750000  1
  O  O21  1  0.300619  0.190697  0.573728  1
  O  O22  1  0.109922  0.300619  0.426272  1
  O  O23  1  0.190697  0.890078  0.426272  1
  O  O24  1  0.300619  0.109922  0.073728  1
  O  O25  1  0.558367  0.000000  0.250000  1
  O  O26  1  0.441633  0.441633  0.250000  1
  O  O27  1  0.000000  0.441633  0.750000  1
  O  O28  1  0.109922  0.809303  0.926272  1
  O  O29  1  0.699381  0.890078  0.926272  1
