# generated using pymatgen
data_LiY6(ThPd12)2
_symmetry_space_group_name_H-M   'P 1'
_cell_length_a   8.39843905
_cell_length_b   8.39843910
_cell_length_c   8.39843900
_cell_angle_alpha   89.94371689
_cell_angle_beta   90.05628311
_cell_angle_gamma   90.05627697
_symmetry_Int_Tables_number   1
_chemical_formula_structural   LiY6(ThPd12)2
_chemical_formula_sum   'Li1 Y6 Th2 Pd24'
_cell_volume   592.37278252
_cell_formula_units_Z   1
loop_
 _symmetry_equiv_pos_site_id
 _symmetry_equiv_pos_as_xyz
  1  'x, y, z'
loop_
 _atom_site_type_symbol
 _atom_site_label
 _atom_site_symmetry_multiplicity
 _atom_site_fract_x
 _atom_site_fract_y
 _atom_site_fract_z
 _atom_site_occupancy
  Li  Li0  1  0.000000  0.000000  0.000000  1
  Y  Y1  1  0.249775  0.249892  0.249892  1
  Y  Y2  1  0.750225  0.750108  0.750108  1
  Y  Y3  1  0.750108  0.750225  0.249892  1
  Y  Y4  1  0.750108  0.249892  0.750225  1
  Y  Y5  1  0.249892  0.249775  0.750108  1
  Y  Y6  1  0.249892  0.750108  0.249775  1
  Th  Th7  1  0.251558  0.748442  0.748442  1
  Th  Th8  1  0.748442  0.251558  0.251558  1
  Pd  Pd9  1  0.257542  0.499429  0.000452  1
  Pd  Pd10  1  0.742458  0.500571  0.999548  1
  Pd  Pd11  1  0.000452  0.257542  0.500571  1
  Pd  Pd12  1  0.499429  0.257542  0.999548  1
  Pd  Pd13  1  0.999548  0.742458  0.499429  1
  Pd  Pd14  1  0.500571  0.742458  0.000452  1
  Pd  Pd15  1  0.499429  0.999548  0.257542  1
  Pd  Pd16  1  0.257542  0.000452  0.499429  1
  Pd  Pd17  1  0.500571  0.000452  0.742458  1
  Pd  Pd18  1  0.742458  0.999548  0.500571  1
  Pd  Pd19  1  0.000452  0.500571  0.257542  1
  Pd  Pd20  1  0.999548  0.499429  0.742458  1
  Pd  Pd21  1  0.252418  0.498634  0.498634  1
  Pd  Pd22  1  0.747582  0.501366  0.501366  1
  Pd  Pd23  1  0.498634  0.252418  0.501366  1
  Pd  Pd24  1  0.501366  0.747582  0.498634  1
  Pd  Pd25  1  0.498634  0.501366  0.252418  1
  Pd  Pd26  1  0.501366  0.498634  0.747582  1
  Pd  Pd27  1  0.281762  0.000362  0.000362  1
  Pd  Pd28  1  0.718238  0.999638  0.999638  1
  Pd  Pd29  1  0.000362  0.281762  0.999638  1
  Pd  Pd30  1  0.999638  0.718238  0.000362  1
  Pd  Pd31  1  0.000362  0.999638  0.281762  1
  Pd  Pd32  1  0.999638  0.000362  0.718238  1
