# generated using pymatgen
data_Er12Ru3Rh
_symmetry_space_group_name_H-M   'P 1'
_cell_length_a   6.28038620
_cell_length_b   7.25230324
_cell_length_c   9.10282200
_cell_angle_alpha   90.00000000
_cell_angle_beta   90.00000000
_cell_angle_gamma   89.97081571
_symmetry_Int_Tables_number   1
_chemical_formula_structural   Er12Ru3Rh
_chemical_formula_sum   'Er12 Ru3 Rh1'
_cell_volume   414.60859377
_cell_formula_units_Z   1
loop_
 _symmetry_equiv_pos_site_id
 _symmetry_equiv_pos_as_xyz
  1  'x, y, z'
loop_
 _atom_site_type_symbol
 _atom_site_label
 _atom_site_symmetry_multiplicity
 _atom_site_fract_x
 _atom_site_fract_y
 _atom_site_fract_z
 _atom_site_occupancy
  Er  Er0  1  0.332380  0.675360  0.062781  1
  Er  Er1  1  0.170434  0.179169  0.437535  1
  Er  Er2  1  0.670017  0.323026  0.564453  1
  Er  Er3  1  0.827557  0.822659  0.933522  1
  Er  Er4  1  0.670017  0.323026  0.935547  1
  Er  Er5  1  0.827557  0.822659  0.566478  1
  Er  Er6  1  0.332380  0.675360  0.437219  1
  Er  Er7  1  0.170434  0.179169  0.062465  1
  Er  Er8  1  0.866694  0.537719  0.250000  1
  Er  Er9  1  0.632158  0.040002  0.250000  1
  Er  Er10  1  0.132842  0.460470  0.750000  1
  Er  Er11  1  0.366636  0.961092  0.750000  1
  Ru  Ru12  1  0.458769  0.384556  0.250000  1
  Ru  Ru13  1  0.961633  0.114855  0.750000  1
  Ru  Ru14  1  0.537818  0.616106  0.750000  1
  Rh  Rh15  1  0.042671  0.884772  0.250000  1
