# generated using pymatgen
data_Tb19Ce(Si2Ir)4
_symmetry_space_group_name_H-M   'P 1'
_cell_length_a   7.63180975
_cell_length_b   8.75125300
_cell_length_c   11.94410882
_cell_angle_alpha   90.00000000
_cell_angle_beta   90.37600671
_cell_angle_gamma   90.00000000
_symmetry_Int_Tables_number   1
_chemical_formula_structural   Tb19Ce(Si2Ir)4
_chemical_formula_sum   'Tb19 Ce1 Si8 Ir4'
_cell_volume   797.70474389
_cell_formula_units_Z   1
loop_
 _symmetry_equiv_pos_site_id
 _symmetry_equiv_pos_as_xyz
  1  'x, y, z'
loop_
 _atom_site_type_symbol
 _atom_site_label
 _atom_site_symmetry_multiplicity
 _atom_site_fract_x
 _atom_site_fract_y
 _atom_site_fract_z
 _atom_site_occupancy
  Tb  Tb0  1  0.329120  0.250000  0.280964  1
  Tb  Tb1  1  0.169105  0.250000  0.781755  1
  Tb  Tb2  1  0.831184  0.750000  0.218516  1
  Tb  Tb3  1  0.148843  0.750000  0.799102  1
  Tb  Tb4  1  0.854305  0.250000  0.202619  1
  Tb  Tb5  1  0.646204  0.250000  0.701548  1
  Tb  Tb6  1  0.353991  0.750000  0.300984  1
  Tb  Tb7  1  0.537451  0.750000  0.998501  1
  Tb  Tb8  1  0.463159  0.250000  0.002320  1
  Tb  Tb9  1  0.038205  0.250000  0.500772  1
  Tb  Tb10  1  0.967336  0.750000  0.496974  1
  Tb  Tb11  1  0.817529  0.466465  0.921079  1
  Tb  Tb12  1  0.182423  0.533787  0.079055  1
  Tb  Tb13  1  0.314445  0.531506  0.578495  1
  Tb  Tb14  1  0.182423  0.966213  0.079055  1
  Tb  Tb15  1  0.682281  0.464560  0.420540  1
  Tb  Tb16  1  0.817529  0.033535  0.921079  1
  Tb  Tb17  1  0.682281  0.035440  0.420540  1
  Tb  Tb18  1  0.314445  0.968494  0.578495  1
  Ce  Ce19  1  0.668909  0.750000  0.712971  1
  Si  Si20  1  0.939675  0.004586  0.670266  1
  Si  Si21  1  0.060449  0.995527  0.330514  1
  Si  Si22  1  0.440437  0.995612  0.829177  1
  Si  Si23  1  0.060449  0.504473  0.330514  1
  Si  Si24  1  0.559043  0.003638  0.170498  1
  Si  Si25  1  0.939675  0.495414  0.670266  1
  Si  Si26  1  0.559043  0.496362  0.170498  1
  Si  Si27  1  0.440437  0.504388  0.829177  1
  Ir  Ir28  1  0.931013  0.750000  0.990205  1
  Ir  Ir29  1  0.068964  0.250000  0.010303  1
  Ir  Ir30  1  0.431829  0.250000  0.508765  1
  Ir  Ir31  1  0.567818  0.750000  0.494453  1
