# generated using pymatgen
data_Ho5(CoO6)2
_symmetry_space_group_name_H-M   'P 1'
_cell_length_a   6.72100311
_cell_length_b   6.72100325
_cell_length_c   7.15310001
_cell_angle_alpha   74.56579766
_cell_angle_beta   74.56579962
_cell_angle_gamma   50.52297973
_symmetry_Int_Tables_number   1
_chemical_formula_structural   Ho5(CoO6)2
_chemical_formula_sum   'Ho5 Co2 O12'
_cell_volume   238.36549682
_cell_formula_units_Z   1
loop_
 _symmetry_equiv_pos_site_id
 _symmetry_equiv_pos_as_xyz
  1  'x, y, z'
loop_
 _atom_site_type_symbol
 _atom_site_label
 _atom_site_symmetry_multiplicity
 _atom_site_fract_x
 _atom_site_fract_y
 _atom_site_fract_z
 _atom_site_occupancy
  Ho  Ho0  1  0.305377  0.305377  0.356057  1
  Ho  Ho1  1  0.694623  0.694623  0.643943  1
  Ho  Ho2  1  0.308113  0.308113  0.834780  1
  Ho  Ho3  1  0.691887  0.691887  0.165220  1
  Ho  Ho4  1  0.000000  0.000000  0.500000  1
  Co  Co5  1  0.755564  0.244436  0.000000  1
  Co  Co6  1  0.244436  0.755564  0.000000  1
  O  O7  1  0.901155  0.418295  0.920205  1
  O  O8  1  0.418295  0.901155  0.920205  1
  O  O9  1  0.098845  0.581705  0.079795  1
  O  O10  1  0.581705  0.098845  0.079795  1
  O  O11  1  0.097341  0.598375  0.575424  1
  O  O12  1  0.598375  0.097341  0.575424  1
  O  O13  1  0.902659  0.401625  0.424576  1
  O  O14  1  0.401625  0.902659  0.424576  1
  O  O15  1  0.999566  0.999566  0.828264  1
  O  O16  1  0.000434  0.000434  0.171736  1
  O  O17  1  0.500035  0.500035  0.824166  1
  O  O18  1  0.499965  0.499965  0.175834  1
