# generated using pymatgen
data_YbPr3(InRh)4
_symmetry_space_group_name_H-M   'P 1'
_cell_length_a   4.36148000
_cell_length_b   7.31222923
_cell_length_c   8.59385058
_cell_angle_alpha   89.35930283
_cell_angle_beta   90.00000000
_cell_angle_gamma   90.00000000
_symmetry_Int_Tables_number   1
_chemical_formula_structural   YbPr3(InRh)4
_chemical_formula_sum   'Yb1 Pr3 In4 Rh4'
_cell_volume   274.05916357
_cell_formula_units_Z   1
loop_
 _symmetry_equiv_pos_site_id
 _symmetry_equiv_pos_as_xyz
  1  'x, y, z'
loop_
 _atom_site_type_symbol
 _atom_site_label
 _atom_site_symmetry_multiplicity
 _atom_site_fract_x
 _atom_site_fract_y
 _atom_site_fract_z
 _atom_site_occupancy
  Yb  Yb0  1  0.750000  0.465197  0.680594  1
  Pr  Pr1  1  0.250000  0.037178  0.179254  1
  Pr  Pr2  1  0.750000  0.961678  0.819499  1
  Pr  Pr3  1  0.250000  0.535200  0.322589  1
  In  In4  1  0.750000  0.359674  0.059372  1
  In  In5  1  0.250000  0.637894  0.933785  1
  In  In6  1  0.750000  0.856623  0.439657  1
  In  In7  1  0.250000  0.149776  0.566160  1
  Rh  Rh8  1  0.250000  0.754893  0.623359  1
  Rh  Rh9  1  0.750000  0.241646  0.373261  1
  Rh  Rh10  1  0.250000  0.255299  0.875934  1
  Rh  Rh11  1  0.750000  0.744942  0.126535  1
