# generated using pymatgen
data_Cr2FeAgO8
_symmetry_space_group_name_H-M   'P 1'
_cell_length_a   5.17982807
_cell_length_b   5.17977366
_cell_length_c   14.38621923
_cell_angle_alpha   87.07414309
_cell_angle_beta   87.07136223
_cell_angle_gamma   65.34218837
_symmetry_Int_Tables_number   1
_chemical_formula_structural   Cr2FeAgO8
_chemical_formula_sum   'Cr4 Fe2 Ag2 O16'
_cell_volume   350.14499232
_cell_formula_units_Z   2
loop_
 _symmetry_equiv_pos_site_id
 _symmetry_equiv_pos_as_xyz
  1  'x, y, z'
loop_
 _atom_site_type_symbol
 _atom_site_label
 _atom_site_symmetry_multiplicity
 _atom_site_fract_x
 _atom_site_fract_y
 _atom_site_fract_z
 _atom_site_occupancy
  Cr  Cr0  1  0.652822  0.652782  0.140728  1
  Cr  Cr1  1  0.347216  0.347248  0.359472  1
  Cr  Cr2  1  0.652760  0.652752  0.640532  1
  Cr  Cr3  1  0.347208  0.347243  0.859254  1
  Fe  Fe4  1  0.999999  0.000022  0.749907  1
  Fe  Fe5  1  0.999980  0.999990  0.250096  1
  Ag  Ag6  1  0.000031  0.999965  0.000004  1
  Ag  Ag7  1  0.000023  0.999971  0.500013  1
  O  O8  1  0.251737  0.251771  0.460486  1
  O  O9  1  0.251645  0.251660  0.960247  1
  O  O10  1  0.748341  0.748286  0.039715  1
  O  O11  1  0.748219  0.748198  0.539522  1
  O  O12  1  0.224261  0.224270  0.275853  1
  O  O13  1  0.224317  0.224326  0.775595  1
  O  O14  1  0.775750  0.775713  0.224372  1
  O  O15  1  0.775715  0.775721  0.724139  1
  O  O16  1  0.792174  0.291712  0.149581  1
  O  O17  1  0.792156  0.291765  0.649352  1
  O  O18  1  0.291762  0.792138  0.149590  1
  O  O19  1  0.291774  0.792147  0.649356  1
  O  O20  1  0.207810  0.708290  0.350647  1
  O  O21  1  0.207803  0.708290  0.850453  1
  O  O22  1  0.708255  0.207863  0.350642  1
  O  O23  1  0.708246  0.207879  0.850446  1
