# generated using pymatgen
data_La3Hg3Pd2Pt
_symmetry_space_group_name_H-M   'P 1'
_cell_length_a   7.94847800
_cell_length_b   7.94847811
_cell_length_c   4.00833700
_cell_angle_alpha   90.00000000
_cell_angle_beta   90.00000000
_cell_angle_gamma   119.99999953
_symmetry_Int_Tables_number   1
_chemical_formula_structural   La3Hg3Pd2Pt
_chemical_formula_sum   'La3 Hg3 Pd2 Pt1'
_cell_volume   219.31221469
_cell_formula_units_Z   1
loop_
 _symmetry_equiv_pos_site_id
 _symmetry_equiv_pos_as_xyz
  1  'x, y, z'
loop_
 _atom_site_type_symbol
 _atom_site_label
 _atom_site_symmetry_multiplicity
 _atom_site_fract_x
 _atom_site_fract_y
 _atom_site_fract_z
 _atom_site_occupancy
  La  La0  1  0.406612  0.399740  0.500000  1
  La  La1  1  0.600260  0.006872  0.500000  1
  La  La2  1  0.993128  0.593388  0.500000  1
  Hg  Hg3  1  0.738041  0.744368  0.000000  1
  Hg  Hg4  1  0.255632  0.993673  0.000000  1
  Hg  Hg5  1  0.006327  0.261959  0.000000  1
  Pd  Pd6  1  0.333333  0.666667  0.000000  1
  Pd  Pd7  1  0.000000  0.000000  0.500000  1
  Pt  Pt8  1  0.666667  0.333333  0.000000  1
