# generated using pymatgen
data_YPu4W2C7
_symmetry_space_group_name_H-M   'P 1'
_cell_length_a   8.52485946
_cell_length_b   8.52485807
_cell_length_c   3.41694500
_cell_angle_alpha   90.00000000
_cell_angle_beta   90.00000000
_cell_angle_gamma   124.80217830
_symmetry_Int_Tables_number   1
_chemical_formula_structural   YPu4W2C7
_chemical_formula_sum   'Y1 Pu4 W2 C7'
_cell_volume   203.90270004
_cell_formula_units_Z   1
loop_
 _symmetry_equiv_pos_site_id
 _symmetry_equiv_pos_as_xyz
  1  'x, y, z'
loop_
 _atom_site_type_symbol
 _atom_site_label
 _atom_site_symmetry_multiplicity
 _atom_site_fract_x
 _atom_site_fract_y
 _atom_site_fract_z
 _atom_site_occupancy
  Y  Y0  1  0.500000  0.500000  0.000000  1
  Pu  Pu1  1  0.059956  0.319437  0.500000  1
  Pu  Pu2  1  0.940044  0.680563  0.500000  1
  Pu  Pu3  1  0.680563  0.940044  0.500000  1
  Pu  Pu4  1  0.319437  0.059956  0.500000  1
  W  W5  1  0.711188  0.288812  0.000000  1
  W  W6  1  0.288812  0.711188  0.000000  1
  C  C7  1  0.625413  0.374587  0.500000  1
  C  C8  1  0.374587  0.625413  0.500000  1
  C  C9  1  0.000000  0.000000  0.000000  1
  C  C10  1  0.172532  0.172532  0.000000  1
  C  C11  1  0.827468  0.827468  0.000000  1
  C  C12  1  0.000000  0.500000  0.000000  1
  C  C13  1  0.500000  0.000000  0.000000  1
