# generated using pymatgen
data_Rb4NaCuAs2
_symmetry_space_group_name_H-M   'P 1'
_cell_length_a   6.79076194
_cell_length_b   6.79076021
_cell_length_c   6.29818534
_cell_angle_alpha   87.08412446
_cell_angle_beta   87.08412743
_cell_angle_gamma   103.18089037
_symmetry_Int_Tables_number   1
_chemical_formula_structural   Rb4NaCuAs2
_chemical_formula_sum   'Rb4 Na1 Cu1 As2'
_cell_volume   281.83618271
_cell_formula_units_Z   1
loop_
 _symmetry_equiv_pos_site_id
 _symmetry_equiv_pos_as_xyz
  1  'x, y, z'
loop_
 _atom_site_type_symbol
 _atom_site_label
 _atom_site_symmetry_multiplicity
 _atom_site_fract_x
 _atom_site_fract_y
 _atom_site_fract_z
 _atom_site_occupancy
  Rb  Rb0  1  0.969432  0.310442  0.756821  1
  Rb  Rb1  1  0.030568  0.689558  0.243179  1
  Rb  Rb2  1  0.689558  0.030568  0.243179  1
  Rb  Rb3  1  0.310442  0.969432  0.756821  1
  Na  Na4  1  0.500000  0.500000  0.500000  1
  Cu  Cu5  1  0.500000  0.500000  0.000000  1
  As  As6  1  0.743953  0.743953  0.785794  1
  As  As7  1  0.256047  0.256047  0.214206  1
