# generated using pymatgen
data_LaPaZn5Sn
_symmetry_space_group_name_H-M   'P 1'
_cell_length_a   8.53258625
_cell_length_b   8.53258573
_cell_length_c   8.99249800
_cell_angle_alpha   90.00000000
_cell_angle_beta   90.00000000
_cell_angle_gamma   149.41133232
_symmetry_Int_Tables_number   1
_chemical_formula_structural   LaPaZn5Sn
_chemical_formula_sum   'La2 Pa2 Zn10 Sn2'
_cell_volume   333.15745664
_cell_formula_units_Z   2
loop_
 _symmetry_equiv_pos_site_id
 _symmetry_equiv_pos_as_xyz
  1  'x, y, z'
loop_
 _atom_site_type_symbol
 _atom_site_label
 _atom_site_symmetry_multiplicity
 _atom_site_fract_x
 _atom_site_fract_y
 _atom_site_fract_z
 _atom_site_occupancy
  La  La0  1  0.000000  0.000000  0.500000  1
  La  La1  1  0.000000  0.000000  0.000000  1
  Pa  Pa2  1  0.208769  0.791231  0.250000  1
  Pa  Pa3  1  0.791231  0.208769  0.750000  1
  Zn  Zn4  1  0.811858  0.188142  0.393664  1
  Zn  Zn5  1  0.188142  0.811858  0.606336  1
  Zn  Zn6  1  0.811858  0.188142  0.106336  1
  Zn  Zn7  1  0.188142  0.811858  0.893664  1
  Zn  Zn8  1  0.659444  0.340556  0.481776  1
  Zn  Zn9  1  0.340556  0.659444  0.518224  1
  Zn  Zn10  1  0.659444  0.340556  0.018224  1
  Zn  Zn11  1  0.340556  0.659444  0.981776  1
  Zn  Zn12  1  0.395425  0.604575  0.250000  1
  Zn  Zn13  1  0.604575  0.395425  0.750000  1
  Sn  Sn14  1  0.559765  0.440235  0.250000  1
  Sn  Sn15  1  0.440235  0.559765  0.750000  1
