# generated using pymatgen
data_CsTm(CuSb)2
_symmetry_space_group_name_H-M   'P 1'
_cell_length_a   4.46990300
_cell_length_b   4.46990451
_cell_length_c   9.80591800
_cell_angle_alpha   90.00000000
_cell_angle_beta   90.00000000
_cell_angle_gamma   119.99999626
_symmetry_Int_Tables_number   1
_chemical_formula_structural   CsTm(CuSb)2
_chemical_formula_sum   'Cs1 Tm1 Cu2 Sb2'
_cell_volume   169.67398076
_cell_formula_units_Z   1
loop_
 _symmetry_equiv_pos_site_id
 _symmetry_equiv_pos_as_xyz
  1  'x, y, z'
loop_
 _atom_site_type_symbol
 _atom_site_label
 _atom_site_symmetry_multiplicity
 _atom_site_fract_x
 _atom_site_fract_y
 _atom_site_fract_z
 _atom_site_occupancy
  Cs  Cs0  1  0.000000  0.000000  0.500000  1
  Tm  Tm1  1  0.000000  0.000000  0.000000  1
  Cu  Cu2  1  0.333333  0.666667  0.845744  1
  Cu  Cu3  1  0.666667  0.333333  0.154256  1
  Sb  Sb4  1  0.333333  0.666667  0.195796  1
  Sb  Sb5  1  0.666667  0.333333  0.804204  1
