# generated using pymatgen
data_Er4HgPbAu4
_symmetry_space_group_name_H-M   'P 1'
_cell_length_a   8.06611800
_cell_length_b   8.06611800
_cell_length_c   3.62379100
_cell_angle_alpha   90.00000000
_cell_angle_beta   90.00000000
_cell_angle_gamma   90.00000000
_symmetry_Int_Tables_number   1
_chemical_formula_structural   Er4HgPbAu4
_chemical_formula_sum   'Er4 Hg1 Pb1 Au4'
_cell_volume   235.77203074
_cell_formula_units_Z   1
loop_
 _symmetry_equiv_pos_site_id
 _symmetry_equiv_pos_as_xyz
  1  'x, y, z'
loop_
 _atom_site_type_symbol
 _atom_site_label
 _atom_site_symmetry_multiplicity
 _atom_site_fract_x
 _atom_site_fract_y
 _atom_site_fract_z
 _atom_site_occupancy
  Er  Er0  1  0.675786  0.162455  0.500000  1
  Er  Er1  1  0.162455  0.324214  0.500000  1
  Er  Er2  1  0.837545  0.675786  0.500000  1
  Er  Er3  1  0.324214  0.837545  0.500000  1
  Hg  Hg4  1  0.000000  0.000000  0.000000  1
  Pb  Pb5  1  0.500000  0.500000  0.000000  1
  Au  Au6  1  0.371139  0.125515  0.000000  1
  Au  Au7  1  0.125515  0.628861  0.000000  1
  Au  Au8  1  0.628861  0.874485  0.000000  1
  Au  Au9  1  0.874485  0.371139  0.000000  1
