# generated using pymatgen
data_Zr2Ti3Si4
_symmetry_space_group_name_H-M   'P 1'
_cell_length_a   6.85863900
_cell_length_b   6.85863900
_cell_length_c   12.56257800
_cell_angle_alpha   90.00000000
_cell_angle_beta   90.00000000
_cell_angle_gamma   90.00000000
_symmetry_Int_Tables_number   1
_chemical_formula_structural   Zr2Ti3Si4
_chemical_formula_sum   'Zr8 Ti12 Si16'
_cell_volume   590.95533890
_cell_formula_units_Z   4
loop_
 _symmetry_equiv_pos_site_id
 _symmetry_equiv_pos_as_xyz
  1  'x, y, z'
loop_
 _atom_site_type_symbol
 _atom_site_label
 _atom_site_symmetry_multiplicity
 _atom_site_fract_x
 _atom_site_fract_y
 _atom_site_fract_z
 _atom_site_occupancy
  Zr  Zr0  1  0.000200  0.654042  0.032804  1
  Zr  Zr1  1  0.999800  0.345958  0.532804  1
  Zr  Zr2  1  0.654042  0.000200  0.967196  1
  Zr  Zr3  1  0.154042  0.499800  0.782804  1
  Zr  Zr4  1  0.845958  0.500200  0.282804  1
  Zr  Zr5  1  0.499800  0.154042  0.217196  1
  Zr  Zr6  1  0.500200  0.845958  0.717196  1
  Zr  Zr7  1  0.345958  0.999800  0.467196  1
  Ti  Ti8  1  0.347684  0.503720  0.376843  1
  Ti  Ti9  1  0.847684  0.996280  0.373157  1
  Ti  Ti10  1  0.003720  0.152316  0.126843  1
  Ti  Ti11  1  0.996280  0.847684  0.626843  1
  Ti  Ti12  1  0.652316  0.496280  0.876843  1
  Ti  Ti13  1  0.503720  0.347684  0.623157  1
  Ti  Ti14  1  0.496280  0.652316  0.123157  1
  Ti  Ti15  1  0.152316  0.003720  0.873157  1
  Ti  Ti16  1  0.672120  0.672120  0.500000  1
  Ti  Ti17  1  0.827880  0.172120  0.750000  1
  Ti  Ti18  1  0.172120  0.827880  0.250000  1
  Ti  Ti19  1  0.327880  0.327880  0.000000  1
  Si  Si20  1  0.047147  0.708266  0.436158  1
  Si  Si21  1  0.952853  0.291734  0.936158  1
  Si  Si22  1  0.708266  0.047147  0.563842  1
  Si  Si23  1  0.208266  0.452853  0.186158  1
  Si  Si24  1  0.791734  0.547147  0.686158  1
  Si  Si25  1  0.452853  0.208266  0.813842  1
  Si  Si26  1  0.547147  0.791734  0.313842  1
  Si  Si27  1  0.291734  0.952853  0.063842  1
  Si  Si28  1  0.863891  0.795329  0.822377  1
  Si  Si29  1  0.136109  0.204671  0.322377  1
  Si  Si30  1  0.795329  0.863891  0.177623  1
  Si  Si31  1  0.295329  0.636109  0.572377  1
  Si  Si32  1  0.704671  0.363891  0.072377  1
  Si  Si33  1  0.636109  0.295329  0.427623  1
  Si  Si34  1  0.363891  0.704671  0.927623  1
  Si  Si35  1  0.204671  0.136109  0.677623  1
