# generated using pymatgen
data_Tm2Lu8CuSiPb6
_symmetry_space_group_name_H-M   'P 1'
_cell_length_a   9.06289629
_cell_length_b   9.05376746
_cell_length_c   6.55881321
_cell_angle_alpha   89.98543818
_cell_angle_beta   90.02910062
_cell_angle_gamma   120.03336693
_symmetry_Int_Tables_number   1
_chemical_formula_structural   Tm2Lu8CuSiPb6
_chemical_formula_sum   'Tm2 Lu8 Cu1 Si1 Pb6'
_cell_volume   465.91432616
_cell_formula_units_Z   1
loop_
 _symmetry_equiv_pos_site_id
 _symmetry_equiv_pos_as_xyz
  1  'x, y, z'
loop_
 _atom_site_type_symbol
 _atom_site_label
 _atom_site_symmetry_multiplicity
 _atom_site_fract_x
 _atom_site_fract_y
 _atom_site_fract_z
 _atom_site_occupancy
  Tm  Tm0  1  0.250644  0.000000  0.740842  1
  Tm  Tm1  1  0.749356  0.000000  0.259158  1
  Lu  Lu2  1  0.000177  0.249954  0.739753  1
  Lu  Lu3  1  0.999823  0.750046  0.260247  1
  Lu  Lu4  1  0.750223  0.750046  0.739753  1
  Lu  Lu5  1  0.249777  0.249954  0.260247  1
  Lu  Lu6  1  0.333340  0.666680  0.500000  1
  Lu  Lu7  1  0.666660  0.333320  0.500000  1
  Lu  Lu8  1  0.666752  0.333503  0.000000  1
  Lu  Lu9  1  0.333248  0.666497  0.000000  1
  Cu  Cu10  1  0.000000  0.000000  0.000000  1
  Si  Si11  1  0.000000  0.000000  0.500000  1
  Pb  Pb12  1  0.607227  0.000000  0.750339  1
  Pb  Pb13  1  0.392773  0.000000  0.249661  1
  Pb  Pb14  1  0.999117  0.605787  0.749507  1
  Pb  Pb15  1  0.000883  0.394213  0.250493  1
  Pb  Pb16  1  0.393330  0.394213  0.749507  1
  Pb  Pb17  1  0.606670  0.605787  0.250493  1
