# generated using pymatgen
data_NdHoSi3(AsRh3)4
_symmetry_space_group_name_H-M   'P 1'
_cell_length_a   9.91644200
_cell_length_b   9.91644277
_cell_length_c   3.90776700
_cell_angle_alpha   90.00000000
_cell_angle_beta   90.00000000
_cell_angle_gamma   120.00000410
_symmetry_Int_Tables_number   1
_chemical_formula_structural   NdHoSi3(AsRh3)4
_chemical_formula_sum   'Nd1 Ho1 Si3 As4 Rh12'
_cell_volume   332.79060771
_cell_formula_units_Z   1
loop_
 _symmetry_equiv_pos_site_id
 _symmetry_equiv_pos_as_xyz
  1  'x, y, z'
loop_
 _atom_site_type_symbol
 _atom_site_label
 _atom_site_symmetry_multiplicity
 _atom_site_fract_x
 _atom_site_fract_y
 _atom_site_fract_z
 _atom_site_occupancy
  Nd  Nd0  1  0.333333  0.666667  0.244731  1
  Ho  Ho1  1  0.666667  0.333333  0.743983  1
  Si  Si2  1  0.403867  0.112709  0.242879  1
  Si  Si3  1  0.708841  0.596133  0.242879  1
  Si  Si4  1  0.887291  0.291159  0.242879  1
  As  As5  1  0.000000  0.000000  0.626406  1
  As  As6  1  0.597953  0.884855  0.745629  1
  As  As7  1  0.286901  0.402047  0.745629  1
  As  As8  1  0.115145  0.713099  0.745629  1
  Rh  Rh9  1  0.450305  0.378594  0.242388  1
  Rh  Rh10  1  0.928289  0.549695  0.242388  1
  Rh  Rh11  1  0.621406  0.071711  0.242388  1
  Rh  Rh12  1  0.560302  0.614458  0.744808  1
  Rh  Rh13  1  0.054156  0.439698  0.744808  1
  Rh  Rh14  1  0.385542  0.945844  0.744808  1
  Rh  Rh15  1  0.146536  0.888127  0.244874  1
  Rh  Rh16  1  0.741591  0.853464  0.244874  1
  Rh  Rh17  1  0.111873  0.258409  0.244874  1
  Rh  Rh18  1  0.848825  0.125152  0.741049  1
  Rh  Rh19  1  0.276327  0.151175  0.741049  1
  Rh  Rh20  1  0.874848  0.723673  0.741049  1
