# generated using pymatgen
data_RbTcP2Pd
_symmetry_space_group_name_H-M   'P 1'
_cell_length_a   7.51682424
_cell_length_b   7.51682469
_cell_length_c   7.51682408
_cell_angle_alpha   148.93746027
_cell_angle_beta   148.93745168
_cell_angle_gamma   44.50337513
_symmetry_Int_Tables_number   1
_chemical_formula_structural   RbTcP2Pd
_chemical_formula_sum   'Rb1 Tc1 P2 Pd1'
_cell_volume   112.73497979
_cell_formula_units_Z   1
loop_
 _symmetry_equiv_pos_site_id
 _symmetry_equiv_pos_as_xyz
  1  'x, y, z'
loop_
 _atom_site_type_symbol
 _atom_site_label
 _atom_site_symmetry_multiplicity
 _atom_site_fract_x
 _atom_site_fract_y
 _atom_site_fract_z
 _atom_site_occupancy
  Rb  Rb0  1  0.000000  0.000000  0.000000  1
  Tc  Tc1  1  0.750000  0.250000  0.500000  1
  P  P2  1  0.341227  0.341227  0.000000  1
  P  P3  1  0.658773  0.658773  0.000000  1
  Pd  Pd4  1  0.250000  0.750000  0.500000  1
