# generated using pymatgen
data_Tb9Er3(Si3Ir)4
_symmetry_space_group_name_H-M   'P 1'
_cell_length_a   4.23332400
_cell_length_b   10.63860769
_cell_length_c   12.29185200
_cell_angle_alpha   89.85796420
_cell_angle_beta   90.00000000
_cell_angle_gamma   90.00000000
_symmetry_Int_Tables_number   1
_chemical_formula_structural   Tb9Er3(Si3Ir)4
_chemical_formula_sum   'Tb9 Er3 Si12 Ir4'
_cell_volume   553.58242126
_cell_formula_units_Z   1
loop_
 _symmetry_equiv_pos_site_id
 _symmetry_equiv_pos_as_xyz
  1  'x, y, z'
loop_
 _atom_site_type_symbol
 _atom_site_label
 _atom_site_symmetry_multiplicity
 _atom_site_fract_x
 _atom_site_fract_y
 _atom_site_fract_z
 _atom_site_occupancy
  Tb  Tb0  1  0.250000  0.882149  0.020429  1
  Tb  Tb1  1  0.250000  0.618876  0.519214  1
  Tb  Tb2  1  0.750000  0.119887  0.980109  1
  Tb  Tb3  1  0.750000  0.380137  0.479727  1
  Tb  Tb4  1  0.250000  0.919066  0.601952  1
  Tb  Tb5  1  0.250000  0.581500  0.102885  1
  Tb  Tb6  1  0.750000  0.080913  0.397877  1
  Tb  Tb7  1  0.750000  0.418487  0.897892  1
  Tb  Tb8  1  0.250000  0.658582  0.801086  1
  Er  Er9  1  0.250000  0.840488  0.299618  1
  Er  Er10  1  0.750000  0.339241  0.200114  1
  Er  Er11  1  0.750000  0.160272  0.700367  1
  Si  Si12  1  0.250000  0.010714  0.819199  1
  Si  Si13  1  0.250000  0.488877  0.319738  1
  Si  Si14  1  0.750000  0.989964  0.180641  1
  Si  Si15  1  0.750000  0.508939  0.679417  1
  Si  Si16  1  0.250000  0.245824  0.840970  1
  Si  Si17  1  0.250000  0.254015  0.341304  1
  Si  Si18  1  0.750000  0.755292  0.159443  1
  Si  Si19  1  0.750000  0.745670  0.658079  1
  Si  Si20  1  0.250000  0.201019  0.545509  1
  Si  Si21  1  0.250000  0.298757  0.046047  1
  Si  Si22  1  0.750000  0.797897  0.453813  1
  Si  Si23  1  0.750000  0.703802  0.956488  1
  Ir  Ir24  1  0.250000  0.388071  0.681419  1
  Ir  Ir25  1  0.250000  0.110495  0.183353  1
  Ir  Ir26  1  0.750000  0.610274  0.316927  1
  Ir  Ir27  1  0.750000  0.890796  0.816384  1
