# generated using pymatgen
data_Tb2FeCo8P6Os
_symmetry_space_group_name_H-M   'P 1'
_cell_length_a   3.70682900
_cell_length_b   10.36263300
_cell_length_c   11.81293500
_cell_angle_alpha   90.00000000
_cell_angle_beta   90.00000000
_cell_angle_gamma   90.00000000
_symmetry_Int_Tables_number   1
_chemical_formula_structural   Tb2FeCo8P6Os
_chemical_formula_sum   'Tb4 Fe2 Co16 P12 Os2'
_cell_volume   453.76446634
_cell_formula_units_Z   2
loop_
 _symmetry_equiv_pos_site_id
 _symmetry_equiv_pos_as_xyz
  1  'x, y, z'
loop_
 _atom_site_type_symbol
 _atom_site_label
 _atom_site_symmetry_multiplicity
 _atom_site_fract_x
 _atom_site_fract_y
 _atom_site_fract_z
 _atom_site_occupancy
  Tb  Tb0  1  0.250000  0.581235  0.701839  1
  Tb  Tb1  1  0.250000  0.918765  0.201839  1
  Tb  Tb2  1  0.750000  0.413571  0.295452  1
  Tb  Tb3  1  0.750000  0.086429  0.795452  1
  Fe  Fe4  1  0.750000  0.289574  0.012758  1
  Fe  Fe5  1  0.750000  0.210426  0.512758  1
  Co  Co6  1  0.250000  0.405230  0.486789  1
  Co  Co7  1  0.250000  0.094770  0.986789  1
  Co  Co8  1  0.750000  0.592680  0.509793  1
  Co  Co9  1  0.750000  0.907320  0.009793  1
  Co  Co10  1  0.250000  0.220050  0.176582  1
  Co  Co11  1  0.250000  0.279950  0.676582  1
  Co  Co12  1  0.750000  0.777893  0.822855  1
  Co  Co13  1  0.750000  0.722107  0.322855  1
  Co  Co14  1  0.250000  0.887036  0.701385  1
  Co  Co15  1  0.250000  0.612964  0.201385  1
  Co  Co16  1  0.750000  0.115831  0.301813  1
  Co  Co17  1  0.750000  0.384169  0.801813  1
  Co  Co18  1  0.250000  0.465752  0.934049  1
  Co  Co19  1  0.250000  0.034248  0.434049  1
  Co  Co20  1  0.750000  0.534173  0.068072  1
  Co  Co21  1  0.750000  0.965827  0.568072  1
  P  P22  1  0.250000  0.416415  0.112672  1
  P  P23  1  0.250000  0.083585  0.612672  1
  P  P24  1  0.750000  0.578969  0.886635  1
  P  P25  1  0.750000  0.921031  0.386635  1
  P  P26  1  0.250000  0.271773  0.867658  1
  P  P27  1  0.250000  0.228227  0.367658  1
  P  P28  1  0.750000  0.729481  0.132877  1
  P  P29  1  0.750000  0.770519  0.632877  1
  P  P30  1  0.250000  0.594473  0.390556  1
  P  P31  1  0.250000  0.905527  0.890556  1
  P  P32  1  0.750000  0.396215  0.607760  1
  P  P33  1  0.750000  0.103785  0.107760  1
  Os  Os34  1  0.250000  0.713489  0.990455  1
  Os  Os35  1  0.250000  0.786511  0.490455  1
