# generated using pymatgen
data_Sc5Ta(GaCo2)6
_symmetry_space_group_name_H-M   'P 1'
_cell_length_a   4.21994200
_cell_length_b   5.95508800
_cell_length_c   12.68211000
_cell_angle_alpha   90.00000000
_cell_angle_beta   90.00016293
_cell_angle_gamma   90.00000000
_symmetry_Int_Tables_number   1
_chemical_formula_structural   Sc5Ta(GaCo2)6
_chemical_formula_sum   'Sc5 Ta1 Ga6 Co12'
_cell_volume   318.70302180
_cell_formula_units_Z   1
loop_
 _symmetry_equiv_pos_site_id
 _symmetry_equiv_pos_as_xyz
  1  'x, y, z'
loop_
 _atom_site_type_symbol
 _atom_site_label
 _atom_site_symmetry_multiplicity
 _atom_site_fract_x
 _atom_site_fract_y
 _atom_site_fract_z
 _atom_site_occupancy
  Sc  Sc0  1  0.999998  0.500000  0.000533  1
  Sc  Sc1  1  0.500217  0.000000  0.167107  1
  Sc  Sc2  1  0.000199  0.500000  0.333391  1
  Sc  Sc3  1  0.500001  0.000000  0.499538  1
  Sc  Sc4  1  0.999800  0.500000  0.666052  1
  Ta  Ta5  1  0.499794  0.000000  0.833350  1
  Ga  Ga6  1  0.000004  0.000000  0.001818  1
  Ga  Ga7  1  0.500191  0.500000  0.166722  1
  Ga  Ga8  1  0.000206  0.000000  0.333375  1
  Ga  Ga9  1  0.499997  0.500000  0.499934  1
  Ga  Ga10  1  0.999811  0.000000  0.664781  1
  Ga  Ga11  1  0.499791  0.500000  0.833364  1
  Co  Co12  1  0.499992  0.245847  0.995526  1
  Co  Co13  1  0.499992  0.754153  0.995526  1
  Co  Co14  1  0.000222  0.250312  0.166095  1
  Co  Co15  1  0.000222  0.749688  0.166095  1
  Co  Co16  1  0.500213  0.249895  0.333336  1
  Co  Co17  1  0.500213  0.750106  0.333336  1
  Co  Co18  1  0.000000  0.250243  0.500576  1
  Co  Co19  1  0.000000  0.749757  0.500576  1
  Co  Co20  1  0.499788  0.245774  0.671166  1
  Co  Co21  1  0.499788  0.754227  0.671166  1
  Co  Co22  1  0.999783  0.239972  0.833321  1
  Co  Co23  1  0.999783  0.760028  0.833321  1
