# generated using pymatgen
data_TaNb(Si4Pt3)2
_symmetry_space_group_name_H-M   'P 1'
_cell_length_a   3.59800600
_cell_length_b   5.56123800
_cell_length_c   24.79229600
_cell_angle_alpha   90.00000000
_cell_angle_beta   90.00000000
_cell_angle_gamma   90.00000000
_symmetry_Int_Tables_number   1
_chemical_formula_structural   TaNb(Si4Pt3)2
_chemical_formula_sum   'Ta2 Nb2 Si16 Pt12'
_cell_volume   496.07816658
_cell_formula_units_Z   2
loop_
 _symmetry_equiv_pos_site_id
 _symmetry_equiv_pos_as_xyz
  1  'x, y, z'
loop_
 _atom_site_type_symbol
 _atom_site_label
 _atom_site_symmetry_multiplicity
 _atom_site_fract_x
 _atom_site_fract_y
 _atom_site_fract_z
 _atom_site_occupancy
  Ta  Ta0  1  0.250000  0.502707  0.710922  1
  Ta  Ta1  1  0.750000  0.997293  0.210922  1
  Nb  Nb2  1  0.250000  0.003572  0.788851  1
  Nb  Nb3  1  0.750000  0.496428  0.288851  1
  Si  Si4  1  0.250000  0.179978  0.520244  1
  Si  Si5  1  0.750000  0.320022  0.020244  1
  Si  Si6  1  0.250000  0.679926  0.979809  1
  Si  Si7  1  0.750000  0.820074  0.479809  1
  Si  Si8  1  0.750000  0.315271  0.644920  1
  Si  Si9  1  0.250000  0.184729  0.144920  1
  Si  Si10  1  0.750000  0.813343  0.854803  1
  Si  Si11  1  0.250000  0.686657  0.354803  1
  Si  Si12  1  0.250000  0.656123  0.608600  1
  Si  Si13  1  0.750000  0.843877  0.108600  1
  Si  Si14  1  0.250000  0.157483  0.891492  1
  Si  Si15  1  0.750000  0.342517  0.391492  1
  Si  Si16  1  0.750000  0.839493  0.723721  1
  Si  Si17  1  0.250000  0.660507  0.223721  1
  Si  Si18  1  0.750000  0.337331  0.776666  1
  Si  Si19  1  0.250000  0.162669  0.276666  1
  Pt  Pt20  1  0.750000  0.002917  0.572677  1
  Pt  Pt21  1  0.250000  0.497083  0.072677  1
  Pt  Pt22  1  0.750000  0.502874  0.927427  1
  Pt  Pt23  1  0.250000  0.997126  0.427427  1
  Pt  Pt24  1  0.250000  0.004562  0.667271  1
  Pt  Pt25  1  0.750000  0.495438  0.167271  1
  Pt  Pt26  1  0.250000  0.505018  0.832632  1
  Pt  Pt27  1  0.750000  0.994982  0.332632  1
  Pt  Pt28  1  0.750000  0.504920  0.547679  1
  Pt  Pt29  1  0.250000  0.995080  0.047679  1
  Pt  Pt30  1  0.750000  0.004993  0.952287  1
  Pt  Pt31  1  0.250000  0.495007  0.452287  1
