# generated using pymatgen
data_Ho16Cd4IrPd3
_symmetry_space_group_name_H-M   'P 1'
_cell_length_a   9.66276540
_cell_length_b   9.63471629
_cell_length_c   9.63471600
_cell_angle_alpha   60.00000098
_cell_angle_beta   60.09597859
_cell_angle_gamma   60.09598020
_symmetry_Int_Tables_number   1
_chemical_formula_structural   Ho16Cd4IrPd3
_chemical_formula_sum   'Ho16 Cd4 Ir1 Pd3'
_cell_volume   635.17414426
_cell_formula_units_Z   1
loop_
 _symmetry_equiv_pos_site_id
 _symmetry_equiv_pos_as_xyz
  1  'x, y, z'
loop_
 _atom_site_type_symbol
 _atom_site_label
 _atom_site_symmetry_multiplicity
 _atom_site_fract_x
 _atom_site_fract_y
 _atom_site_fract_z
 _atom_site_occupancy
  Ho  Ho0  1  0.604979  0.599038  0.599038  1
  Ho  Ho1  1  0.604979  0.599038  0.196947  1
  Ho  Ho2  1  0.604979  0.196947  0.599038  1
  Ho  Ho3  1  0.192622  0.602460  0.602460  1
  Ho  Ho4  1  0.056971  0.438701  0.438701  1
  Ho  Ho5  1  0.439743  0.060541  0.060541  1
  Ho  Ho6  1  0.439743  0.060541  0.439175  1
  Ho  Ho7  1  0.056971  0.438701  0.065626  1
  Ho  Ho8  1  0.439743  0.439175  0.060541  1
  Ho  Ho9  1  0.056971  0.065626  0.438701  1
  Ho  Ho10  1  0.183158  0.816679  0.816679  1
  Ho  Ho11  1  0.817317  0.184714  0.184714  1
  Ho  Ho12  1  0.817317  0.184714  0.813254  1
  Ho  Ho13  1  0.183158  0.816679  0.183485  1
  Ho  Ho14  1  0.817317  0.813254  0.184714  1
  Ho  Ho15  1  0.183158  0.183485  0.816679  1
  Cd  Cd16  1  0.832002  0.831533  0.831533  1
  Cd  Cd17  1  0.832002  0.831533  0.504930  1
  Cd  Cd18  1  0.832002  0.504930  0.831533  1
  Cd  Cd19  1  0.505296  0.831568  0.831568  1
  Ir  Ir20  1  0.821453  0.392849  0.392849  1
  Pd  Pd21  1  0.392706  0.393312  0.393312  1
  Pd  Pd22  1  0.392706  0.393312  0.820671  1
  Pd  Pd23  1  0.392706  0.820671  0.393312  1
