# generated using pymatgen
data_YbGaHgPd3
_symmetry_space_group_name_H-M   'P 1'
_cell_length_a   5.17264141
_cell_length_b   5.17264186
_cell_length_c   5.17264119
_cell_angle_alpha   65.26067196
_cell_angle_beta   65.26068544
_cell_angle_gamma   65.26067524
_symmetry_Int_Tables_number   1
_chemical_formula_structural   YbGaHgPd3
_chemical_formula_sum   'Yb1 Ga1 Hg1 Pd3'
_cell_volume   109.08029081
_cell_formula_units_Z   1
loop_
 _symmetry_equiv_pos_site_id
 _symmetry_equiv_pos_as_xyz
  1  'x, y, z'
loop_
 _atom_site_type_symbol
 _atom_site_label
 _atom_site_symmetry_multiplicity
 _atom_site_fract_x
 _atom_site_fract_y
 _atom_site_fract_z
 _atom_site_occupancy
  Yb  Yb0  1  0.874911  0.874911  0.874911  1
  Ga  Ga1  1  0.499843  0.499843  0.499843  1
  Hg  Hg2  1  0.126325  0.126325  0.126325  1
  Pd  Pd3  1  0.499205  0.000510  0.499205  1
  Pd  Pd4  1  0.000510  0.499205  0.499205  1
  Pd  Pd5  1  0.499205  0.499205  0.000510  1
