# generated using pymatgen
data_YU7VS17
_symmetry_space_group_name_H-M   'P 1'
_cell_length_a   7.80359207
_cell_length_b   7.81171671
_cell_length_c   10.35055700
_cell_angle_alpha   80.76970250
_cell_angle_beta   80.64638527
_cell_angle_gamma   64.72050775
_symmetry_Int_Tables_number   1
_chemical_formula_structural   YU7VS17
_chemical_formula_sum   'Y1 U7 V1 S17'
_cell_volume   560.01871652
_cell_formula_units_Z   1
loop_
 _symmetry_equiv_pos_site_id
 _symmetry_equiv_pos_as_xyz
  1  'x, y, z'
loop_
 _atom_site_type_symbol
 _atom_site_label
 _atom_site_symmetry_multiplicity
 _atom_site_fract_x
 _atom_site_fract_y
 _atom_site_fract_z
 _atom_site_occupancy
  Y  Y0  1  0.810971  0.307048  0.296973  1
  U  U1  1  0.296970  0.820981  0.296688  1
  U  U2  1  0.182151  0.700531  0.701736  1
  U  U3  1  0.700852  0.180578  0.704299  1
  U  U4  1  0.203145  0.204686  0.542306  1
  U  U5  1  0.796867  0.794429  0.456483  1
  U  U6  1  0.683918  0.677755  0.982489  1
  U  U7  1  0.317259  0.319888  0.017363  1
  V  V8  1  0.001558  0.998285  0.999237  1
  S  S9  1  0.823108  0.431493  0.538343  1
  S  S10  1  0.433654  0.820321  0.535010  1
  S  S11  1  0.180430  0.566223  0.464709  1
  S  S12  1  0.569826  0.175126  0.469603  1
  S  S13  1  0.943146  0.322471  0.025598  1
  S  S14  1  0.324170  0.944897  0.027631  1
  S  S15  1  0.055648  0.677528  0.970419  1
  S  S16  1  0.677173  0.058547  0.970596  1
  S  S17  1  0.215019  0.207990  0.278464  1
  S  S18  1  0.787706  0.787509  0.723127  1
  S  S19  1  0.062693  0.058906  0.771818  1
  S  S20  1  0.942214  0.937356  0.228006  1
  S  S21  1  0.302982  0.303029  0.754926  1
  S  S22  1  0.692149  0.704316  0.243459  1
  S  S23  1  0.520713  0.522843  0.830097  1
  S  S24  1  0.472927  0.484410  0.164930  1
  S  S25  1  0.002750  0.992860  0.505688  1
