# generated using pymatgen
data_La3Dy10Y3(CdNi)4
_symmetry_space_group_name_H-M   'P 1'
_cell_length_a   9.63461109
_cell_length_b   9.66067576
_cell_length_c   9.64075620
_cell_angle_alpha   59.92399799
_cell_angle_beta   59.95072863
_cell_angle_gamma   59.92492789
_symmetry_Int_Tables_number   1
_chemical_formula_structural   La3Dy10Y3(CdNi)4
_chemical_formula_sum   'La3 Dy10 Y3 Cd4 Ni4'
_cell_volume   633.54780646
_cell_formula_units_Z   1
loop_
 _symmetry_equiv_pos_site_id
 _symmetry_equiv_pos_as_xyz
  1  'x, y, z'
loop_
 _atom_site_type_symbol
 _atom_site_label
 _atom_site_symmetry_multiplicity
 _atom_site_fract_x
 _atom_site_fract_y
 _atom_site_fract_z
 _atom_site_occupancy
  La  La0  1  0.595835  0.600835  0.600835  1
  La  La1  1  0.595857  0.600950  0.202148  1
  La  La2  1  0.596182  0.202676  0.600329  1
  Dy  Dy3  1  0.195969  0.601115  0.602023  1
  Dy  Dy4  1  0.064207  0.437189  0.437005  1
  Dy  Dy5  1  0.437404  0.063261  0.064146  1
  Dy  Dy6  1  0.437724  0.063074  0.436010  1
  Dy  Dy7  1  0.064741  0.436660  0.061895  1
  Dy  Dy8  1  0.437582  0.435036  0.064095  1
  Dy  Dy9  1  0.064178  0.061474  0.437095  1
  Dy  Dy10  1  0.186344  0.815647  0.814543  1
  Dy  Dy11  1  0.814643  0.184247  0.185202  1
  Dy  Dy12  1  0.815562  0.184245  0.815876  1
  Y  Y13  1  0.185361  0.815057  0.184400  1
  Y  Y14  1  0.815062  0.816302  0.184652  1
  Y  Y15  1  0.185782  0.183007  0.815050  1
  Cd  Cd16  1  0.836750  0.829875  0.829322  1
  Cd  Cd17  1  0.836709  0.830148  0.502968  1
  Cd  Cd18  1  0.836772  0.503944  0.829333  1
  Cd  Cd19  1  0.504092  0.832078  0.831568  1
  Ni  Ni20  1  0.388822  0.393392  0.392146  1
  Ni  Ni21  1  0.388540  0.392926  0.826059  1
  Ni  Ni22  1  0.388759  0.825861  0.392103  1
  Ni  Ni23  1  0.827124  0.390997  0.391198  1
