# generated using pymatgen
data_Ta5Nb7Al8(PdC)4
_symmetry_space_group_name_H-M   'P 1'
_cell_length_a   8.37726860
_cell_length_b   8.37658709
_cell_length_c   8.38054904
_cell_angle_alpha   59.99285265
_cell_angle_beta   59.98322627
_cell_angle_gamma   59.94644602
_symmetry_Int_Tables_number   1
_chemical_formula_structural   Ta5Nb7Al8(PdC)4
_chemical_formula_sum   'Ta5 Nb7 Al8 Pd4 C4'
_cell_volume   415.59705442
_cell_formula_units_Z   1
loop_
 _symmetry_equiv_pos_site_id
 _symmetry_equiv_pos_as_xyz
  1  'x, y, z'
loop_
 _atom_site_type_symbol
 _atom_site_label
 _atom_site_symmetry_multiplicity
 _atom_site_fract_x
 _atom_site_fract_y
 _atom_site_fract_z
 _atom_site_occupancy
  Ta  Ta0  1  0.932038  0.567982  0.568521  1
  Ta  Ta1  1  0.568802  0.931743  0.931796  1
  Ta  Ta2  1  0.932147  0.931814  0.568447  1
  Ta  Ta3  1  0.681884  0.318369  0.681425  1
  Ta  Ta4  1  0.931598  0.568690  0.931323  1
  Nb  Nb5  1  0.567784  0.932504  0.567403  1
  Nb  Nb6  1  0.317704  0.682148  0.682575  1
  Nb  Nb7  1  0.683002  0.317583  0.317745  1
  Nb  Nb8  1  0.317156  0.683052  0.317164  1
  Nb  Nb9  1  0.683252  0.682446  0.317268  1
  Nb  Nb10  1  0.317319  0.317167  0.683187  1
  Nb  Nb11  1  0.567374  0.566496  0.933203  1
  Al  Al12  1  0.916607  0.915478  0.916017  1
  Al  Al13  1  0.997525  0.334302  0.333593  1
  Al  Al14  1  0.334478  0.997003  0.334762  1
  Al  Al15  1  0.333696  0.334668  0.997487  1
  Al  Al16  1  0.915721  0.252339  0.916516  1
  Al  Al17  1  0.915359  0.916400  0.252409  1
  Al  Al18  1  0.252864  0.915547  0.915289  1
  Al  Al19  1  0.334838  0.333839  0.334339  1
  Pd  Pd20  1  0.125336  0.125138  0.125188  1
  Pd  Pd21  1  0.625777  0.124698  0.121671  1
  Pd  Pd22  1  0.123095  0.624840  0.126154  1
  Pd  Pd23  1  0.120854  0.126983  0.625333  1
  C  C24  1  0.627458  0.623026  0.625277  1
  C  C25  1  0.122446  0.625881  0.626094  1
  C  C26  1  0.627100  0.123638  0.626821  1
  C  C27  1  0.626788  0.626229  0.122994  1
