# generated using pymatgen
data_CdReCl6
_symmetry_space_group_name_H-M   'P 1'
_cell_length_a   6.58269800
_cell_length_b   6.58269740
_cell_length_c   13.03398600
_cell_angle_alpha   90.00000000
_cell_angle_beta   90.00000000
_cell_angle_gamma   120.00000302
_symmetry_Int_Tables_number   1
_chemical_formula_structural   CdReCl6
_chemical_formula_sum   'Cd2 Re2 Cl12'
_cell_volume   489.12030383
_cell_formula_units_Z   2
loop_
 _symmetry_equiv_pos_site_id
 _symmetry_equiv_pos_as_xyz
  1  'x, y, z'
loop_
 _atom_site_type_symbol
 _atom_site_label
 _atom_site_symmetry_multiplicity
 _atom_site_fract_x
 _atom_site_fract_y
 _atom_site_fract_z
 _atom_site_occupancy
  Cd  Cd0  1  0.000000  0.000000  0.250000  1
  Cd  Cd1  1  0.000000  0.000000  0.750000  1
  Re  Re2  1  0.333333  0.666667  0.250000  1
  Re  Re3  1  0.666667  0.333333  0.750000  1
  Cl  Cl4  1  0.632399  0.956389  0.143958  1
  Cl  Cl5  1  0.043611  0.676011  0.143958  1
  Cl  Cl6  1  0.323989  0.367601  0.143958  1
  Cl  Cl7  1  0.043611  0.367601  0.356042  1
  Cl  Cl8  1  0.367601  0.323989  0.643958  1
  Cl  Cl9  1  0.676011  0.043611  0.643958  1
  Cl  Cl10  1  0.956389  0.632399  0.643958  1
  Cl  Cl11  1  0.676011  0.632399  0.856042  1
  Cl  Cl12  1  0.956389  0.323989  0.856042  1
  Cl  Cl13  1  0.367601  0.043611  0.856042  1
  Cl  Cl14  1  0.632399  0.676011  0.356042  1
  Cl  Cl15  1  0.323989  0.956389  0.356042  1
