# generated using pymatgen
data_Sm2YPtRh8
_symmetry_space_group_name_H-M   'P 1'
_cell_length_a   5.31561800
_cell_length_b   5.31561867
_cell_length_c   17.65239800
_cell_angle_alpha   90.00000000
_cell_angle_beta   90.00000000
_cell_angle_gamma   119.99999582
_symmetry_Int_Tables_number   1
_chemical_formula_structural   Sm2YPtRh8
_chemical_formula_sum   'Sm4 Y2 Pt2 Rh16'
_cell_volume   431.95841835
_cell_formula_units_Z   2
loop_
 _symmetry_equiv_pos_site_id
 _symmetry_equiv_pos_as_xyz
  1  'x, y, z'
loop_
 _atom_site_type_symbol
 _atom_site_label
 _atom_site_symmetry_multiplicity
 _atom_site_fract_x
 _atom_site_fract_y
 _atom_site_fract_z
 _atom_site_occupancy
  Sm  Sm0  1  0.333333  0.666667  0.956524  1
  Sm  Sm1  1  0.666667  0.333333  0.043476  1
  Sm  Sm2  1  0.333333  0.666667  0.749463  1
  Sm  Sm3  1  0.666667  0.333333  0.250537  1
  Y  Y4  1  0.666667  0.333333  0.456973  1
  Y  Y5  1  0.333333  0.666667  0.543027  1
  Pt  Pt6  1  0.000000  0.000000  0.500000  1
  Pt  Pt7  1  0.000000  0.000000  0.000000  1
  Rh  Rh8  1  0.167772  0.832228  0.373857  1
  Rh  Rh9  1  0.167772  0.335545  0.373857  1
  Rh  Rh10  1  0.664455  0.832228  0.373857  1
  Rh  Rh11  1  0.832228  0.167772  0.626143  1
  Rh  Rh12  1  0.832228  0.664455  0.626143  1
  Rh  Rh13  1  0.335545  0.167772  0.626143  1
  Rh  Rh14  1  0.832530  0.167470  0.872495  1
  Rh  Rh15  1  0.832530  0.665059  0.872495  1
  Rh  Rh16  1  0.334941  0.167470  0.872495  1
  Rh  Rh17  1  0.167470  0.832530  0.127505  1
  Rh  Rh18  1  0.167470  0.334941  0.127505  1
  Rh  Rh19  1  0.665059  0.832530  0.127505  1
  Rh  Rh20  1  0.333333  0.666667  0.250640  1
  Rh  Rh21  1  0.666667  0.333333  0.749360  1
  Rh  Rh22  1  0.000000  0.000000  0.250887  1
  Rh  Rh23  1  0.000000  0.000000  0.749113  1
