# generated using pymatgen
data_Ho3Mg2InGa2Au
_symmetry_space_group_name_H-M   'P 1'
_cell_length_a   7.27506000
_cell_length_b   7.25364405
_cell_length_c   4.42973900
_cell_angle_alpha   90.00000000
_cell_angle_beta   90.00000000
_cell_angle_gamma   120.09772324
_symmetry_Int_Tables_number   1
_chemical_formula_structural   Ho3Mg2InGa2Au
_chemical_formula_sum   'Ho3 Mg2 In1 Ga2 Au1'
_cell_volume   202.24280790
_cell_formula_units_Z   1
loop_
 _symmetry_equiv_pos_site_id
 _symmetry_equiv_pos_as_xyz
  1  'x, y, z'
loop_
 _atom_site_type_symbol
 _atom_site_label
 _atom_site_symmetry_multiplicity
 _atom_site_fract_x
 _atom_site_fract_y
 _atom_site_fract_z
 _atom_site_occupancy
  Ho  Ho0  1  0.580078  0.000000  0.000000  1
  Ho  Ho1  1  0.999646  0.580708  0.000000  1
  Ho  Ho2  1  0.418938  0.419292  0.000000  1
  Mg  Mg3  1  0.999715  0.243064  0.500000  1
  Mg  Mg4  1  0.756652  0.756936  0.500000  1
  In  In5  1  0.248976  0.000000  0.500000  1
  Ga  Ga6  1  0.334133  0.664501  0.500000  1
  Ga  Ga7  1  0.669633  0.335499  0.500000  1
  Au  Au8  1  0.992230  0.000000  0.000000  1
