# generated using pymatgen
data_LuCo3Si2
_symmetry_space_group_name_H-M   'P 1'
_cell_length_a   6.21591760
_cell_length_b   6.21591719
_cell_length_c   6.21591761
_cell_angle_alpha   130.53317093
_cell_angle_beta   112.76501197
_cell_angle_gamma   87.88870884
_symmetry_Int_Tables_number   1
_chemical_formula_structural   LuCo3Si2
_chemical_formula_sum   'Lu2 Co6 Si4'
_cell_volume   160.22753558
_cell_formula_units_Z   2
loop_
 _symmetry_equiv_pos_site_id
 _symmetry_equiv_pos_as_xyz
  1  'x, y, z'
loop_
 _atom_site_type_symbol
 _atom_site_label
 _atom_site_symmetry_multiplicity
 _atom_site_fract_x
 _atom_site_fract_y
 _atom_site_fract_z
 _atom_site_occupancy
  Lu  Lu0  1  0.250000  0.533009  0.283009  1
  Lu  Lu1  1  0.750000  0.466991  0.716991  1
  Co  Co2  1  0.000000  0.000000  0.500000  1
  Co  Co3  1  0.500000  0.000000  0.000000  1
  Co  Co4  1  0.723103  0.000000  0.723103  1
  Co  Co5  1  0.223103  0.500000  0.723103  1
  Co  Co6  1  0.276897  0.000000  0.276897  1
  Co  Co7  1  0.776897  0.500000  0.276897  1
  Si  Si8  1  0.081196  0.875417  0.794221  1
  Si  Si9  1  0.918804  0.124583  0.205779  1
  Si  Si10  1  0.581196  0.786975  0.205779  1
  Si  Si11  1  0.418804  0.213025  0.794221  1
