# generated using pymatgen
data_Y11Lu9Pt16
_symmetry_space_group_name_H-M   'P 1'
_cell_length_a   7.45363203
_cell_length_b   7.53067237
_cell_length_c   14.62910600
_cell_angle_alpha   89.98577244
_cell_angle_beta   90.00519639
_cell_angle_gamma   89.98915943
_symmetry_Int_Tables_number   1
_chemical_formula_structural   Y11Lu9Pt16
_chemical_formula_sum   'Y11 Lu9 Pt16'
_cell_volume   821.14426864
_cell_formula_units_Z   1
loop_
 _symmetry_equiv_pos_site_id
 _symmetry_equiv_pos_as_xyz
  1  'x, y, z'
loop_
 _atom_site_type_symbol
 _atom_site_label
 _atom_site_symmetry_multiplicity
 _atom_site_fract_x
 _atom_site_fract_y
 _atom_site_fract_z
 _atom_site_occupancy
  Y  Y0  1  0.845246  0.332375  0.121712  1
  Y  Y1  1  0.156095  0.668212  0.620162  1
  Y  Y2  1  0.654609  0.832309  0.878892  1
  Y  Y3  1  0.000244  0.822994  0.405020  1
  Y  Y4  1  0.498200  0.679303  0.096666  1
  Y  Y5  1  0.500916  0.320518  0.592870  1
  Y  Y6  1  0.001865  0.179341  0.904640  1
  Y  Y7  1  0.000274  0.177022  0.592967  1
  Y  Y8  1  0.500339  0.322945  0.907200  1
  Y  Y9  1  0.499809  0.677347  0.406863  1
  Y  Y10  1  0.999055  0.821941  0.093775  1
  Lu  Lu11  1  0.344929  0.166795  0.377571  1
  Lu  Lu12  1  0.680944  0.990474  0.250900  1
  Lu  Lu13  1  0.181504  0.509470  0.251473  1
  Lu  Lu14  1  0.818649  0.489899  0.749425  1
  Lu  Lu15  1  0.318622  0.010694  0.749270  1
  Lu  Lu16  1  0.656088  0.832501  0.622677  1
  Lu  Lu17  1  0.156909  0.668713  0.876362  1
  Lu  Lu18  1  0.843693  0.331817  0.377257  1
  Lu  Lu19  1  0.342770  0.168070  0.123718  1
  Pt  Pt20  1  0.815440  0.641526  0.251793  1
  Pt  Pt21  1  0.316658  0.858872  0.251646  1
  Pt  Pt22  1  0.681884  0.143181  0.748630  1
  Pt  Pt23  1  0.183353  0.357506  0.750036  1
  Pt  Pt24  1  0.544914  0.380899  0.252088  1
  Pt  Pt25  1  0.048372  0.117261  0.251952  1
  Pt  Pt26  1  0.953949  0.885305  0.749228  1
  Pt  Pt27  1  0.454295  0.615206  0.749317  1
  Pt  Pt28  1  0.813654  0.534280  0.540301  1
  Pt  Pt29  1  0.312312  0.966840  0.959472  1
  Pt  Pt30  1  0.683487  0.034446  0.457921  1
  Pt  Pt31  1  0.187818  0.467009  0.040952  1
  Pt  Pt32  1  0.179557  0.462890  0.454778  1
  Pt  Pt33  1  0.674659  0.030632  0.046069  1
  Pt  Pt34  1  0.323308  0.970341  0.541780  1
  Pt  Pt35  1  0.825582  0.531068  0.954620  1
