# generated using pymatgen
data_ScTa3(NbN2)6
_symmetry_space_group_name_H-M   'P 1'
_cell_length_a   5.26604200
_cell_length_b   5.26604274
_cell_length_c   10.42554500
_cell_angle_alpha   90.00000000
_cell_angle_beta   90.00000000
_cell_angle_gamma   119.99999537
_symmetry_Int_Tables_number   1
_chemical_formula_structural   ScTa3(NbN2)6
_chemical_formula_sum   'Sc1 Ta3 Nb6 N12'
_cell_volume   250.37912478
_cell_formula_units_Z   1
loop_
 _symmetry_equiv_pos_site_id
 _symmetry_equiv_pos_as_xyz
  1  'x, y, z'
loop_
 _atom_site_type_symbol
 _atom_site_label
 _atom_site_symmetry_multiplicity
 _atom_site_fract_x
 _atom_site_fract_y
 _atom_site_fract_z
 _atom_site_occupancy
  Sc  Sc0  1  0.666667  0.333333  0.000000  1
  Ta  Ta1  1  0.333333  0.666667  0.000000  1
  Ta  Ta2  1  0.333333  0.666667  0.500000  1
  Ta  Ta3  1  0.666667  0.333333  0.500000  1
  Nb  Nb4  1  0.677225  0.675810  0.748551  1
  Nb  Nb5  1  0.324190  0.001415  0.748551  1
  Nb  Nb6  1  0.998585  0.322775  0.748551  1
  Nb  Nb7  1  0.324190  0.322775  0.251449  1
  Nb  Nb8  1  0.677225  0.001415  0.251449  1
  Nb  Nb9  1  0.998585  0.675810  0.251449  1
  N  N10  1  0.658243  0.658362  0.381992  1
  N  N11  1  0.341638  0.999882  0.381992  1
  N  N12  1  0.000118  0.341757  0.381992  1
  N  N13  1  0.341638  0.341757  0.618008  1
  N  N14  1  0.658243  0.999882  0.618008  1
  N  N15  1  0.000118  0.658362  0.618008  1
  N  N16  1  0.341483  0.349886  0.875949  1
  N  N17  1  0.650114  0.991597  0.875949  1
  N  N18  1  0.008403  0.658517  0.875949  1
  N  N19  1  0.650114  0.658517  0.124051  1
  N  N20  1  0.341483  0.991597  0.124051  1
  N  N21  1  0.008403  0.349886  0.124051  1
