# generated using pymatgen
data_TeOsBr9
_symmetry_space_group_name_H-M   'P 1'
_cell_length_a   12.07282200
_cell_length_b   7.05774999
_cell_length_c   10.31828867
_cell_angle_alpha   76.38594777
_cell_angle_beta   90.00000000
_cell_angle_gamma   90.00000000
_symmetry_Int_Tables_number   1
_chemical_formula_structural   TeOsBr9
_chemical_formula_sum   'Te2 Os2 Br18'
_cell_volume   854.48766611
_cell_formula_units_Z   2
loop_
 _symmetry_equiv_pos_site_id
 _symmetry_equiv_pos_as_xyz
  1  'x, y, z'
loop_
 _atom_site_type_symbol
 _atom_site_label
 _atom_site_symmetry_multiplicity
 _atom_site_fract_x
 _atom_site_fract_y
 _atom_site_fract_z
 _atom_site_occupancy
  Te  Te0  1  0.250000  0.756935  0.467830  1
  Te  Te1  1  0.750000  0.243065  0.532170  1
  Os  Os2  1  0.250000  0.645693  0.849683  1
  Os  Os3  1  0.750000  0.354307  0.150317  1
  Br  Br4  1  0.605372  0.454343  0.302910  1
  Br  Br5  1  0.105372  0.545657  0.697090  1
  Br  Br6  1  0.394628  0.545657  0.697090  1
  Br  Br7  1  0.894628  0.454343  0.302910  1
  Br  Br8  1  0.750000  0.683276  0.011281  1
  Br  Br9  1  0.250000  0.316724  0.988719  1
  Br  Br10  1  0.750000  0.522016  0.651424  1
  Br  Br11  1  0.250000  0.477984  0.348576  1
  Br  Br12  1  0.750000  0.020106  0.313658  1
  Br  Br13  1  0.250000  0.979894  0.686342  1
  Br  Br14  1  0.897325  0.245658  0.025203  1
  Br  Br15  1  0.397325  0.754342  0.974797  1
  Br  Br16  1  0.102675  0.754342  0.974797  1
  Br  Br17  1  0.602675  0.245658  0.025203  1
  Br  Br18  1  0.908103  0.048726  0.665568  1
  Br  Br19  1  0.408103  0.951274  0.334432  1
  Br  Br20  1  0.091897  0.951274  0.334432  1
  Br  Br21  1  0.591897  0.048726  0.665568  1
