# generated using pymatgen
data_Nb3GaB4(Ru5W)2
_symmetry_space_group_name_H-M   'P 1'
_cell_length_a   9.42788723
_cell_length_b   9.43162922
_cell_length_c   2.96087600
_cell_angle_alpha   90.00000000
_cell_angle_beta   90.00000000
_cell_angle_gamma   89.97491800
_symmetry_Int_Tables_number   1
_chemical_formula_structural   Nb3GaB4(Ru5W)2
_chemical_formula_sum   'Nb3 Ga1 B4 Ru10 W2'
_cell_volume   263.28206561
_cell_formula_units_Z   1
loop_
 _symmetry_equiv_pos_site_id
 _symmetry_equiv_pos_as_xyz
  1  'x, y, z'
loop_
 _atom_site_type_symbol
 _atom_site_label
 _atom_site_symmetry_multiplicity
 _atom_site_fract_x
 _atom_site_fract_y
 _atom_site_fract_z
 _atom_site_occupancy
  Nb  Nb0  1  0.179710  0.324912  0.000000  1
  Nb  Nb1  1  0.324051  0.820618  0.000000  1
  Nb  Nb2  1  0.675116  0.180948  0.000000  1
  Ga  Ga3  1  0.498072  0.498943  0.000000  1
  B  B4  1  0.615316  0.870712  0.000000  1
  B  B5  1  0.384792  0.128558  0.000000  1
  B  B6  1  0.129531  0.615693  0.000000  1
  B  B7  1  0.870582  0.383768  0.000000  1
  Ru  Ru8  1  0.501325  0.998862  0.500000  1
  Ru  Ru9  1  0.996908  0.503142  0.500000  1
  Ru  Ru10  1  0.575802  0.713283  0.500000  1
  Ru  Ru11  1  0.430892  0.283679  0.500000  1
  Ru  Ru12  1  0.065841  0.779556  0.500000  1
  Ru  Ru13  1  0.928492  0.220344  0.500000  1
  Ru  Ru14  1  0.283675  0.570629  0.500000  1
  Ru  Ru15  1  0.716581  0.435922  0.500000  1
  Ru  Ru16  1  0.220004  0.069607  0.500000  1
  Ru  Ru17  1  0.782941  0.924021  0.500000  1
  W  W18  1  0.819864  0.675342  0.000000  1
  W  W19  1  0.000505  0.001463  0.000000  1
