# generated using pymatgen
data_Lu4Al4Ni3Rh
_symmetry_space_group_name_H-M   'P 1'
_cell_length_a   4.19934500
_cell_length_b   6.57997090
_cell_length_c   7.64150980
_cell_angle_alpha   90.10303042
_cell_angle_beta   90.00000000
_cell_angle_gamma   90.00000000
_symmetry_Int_Tables_number   1
_chemical_formula_structural   Lu4Al4Ni3Rh
_chemical_formula_sum   'Lu4 Al4 Ni3 Rh1'
_cell_volume   211.14655575
_cell_formula_units_Z   1
loop_
 _symmetry_equiv_pos_site_id
 _symmetry_equiv_pos_as_xyz
  1  'x, y, z'
loop_
 _atom_site_type_symbol
 _atom_site_label
 _atom_site_symmetry_multiplicity
 _atom_site_fract_x
 _atom_site_fract_y
 _atom_site_fract_z
 _atom_site_occupancy
  Lu  Lu0  1  0.250000  0.967257  0.320954  1
  Lu  Lu1  1  0.750000  0.534861  0.826947  1
  Lu  Lu2  1  0.250000  0.464051  0.176744  1
  Lu  Lu3  1  0.750000  0.038895  0.676208  1
  Al  Al4  1  0.750000  0.633445  0.435981  1
  Al  Al5  1  0.750000  0.137864  0.058637  1
  Al  Al6  1  0.250000  0.358423  0.558178  1
  Al  Al7  1  0.250000  0.862667  0.946749  1
  Ni  Ni8  1  0.750000  0.767079  0.126104  1
  Ni  Ni9  1  0.750000  0.266267  0.373223  1
  Ni  Ni10  1  0.250000  0.229901  0.876220  1
  Rh  Rh11  1  0.250000  0.739292  0.624054  1
