# generated using pymatgen
data_La2TbTh(Sn5Rh3)2
_symmetry_space_group_name_H-M   'P 1'
_cell_length_a   13.65145549
_cell_length_b   13.65145589
_cell_length_c   7.31698207
_cell_angle_alpha   90.10270756
_cell_angle_beta   89.89729295
_cell_angle_gamma   160.90535798
_symmetry_Int_Tables_number   1
_chemical_formula_structural   La2TbTh(Sn5Rh3)2
_chemical_formula_sum   'La2 Tb1 Th1 Sn10 Rh6'
_cell_volume   446.07609678
_cell_formula_units_Z   1
loop_
 _symmetry_equiv_pos_site_id
 _symmetry_equiv_pos_as_xyz
  1  'x, y, z'
loop_
 _atom_site_type_symbol
 _atom_site_label
 _atom_site_symmetry_multiplicity
 _atom_site_fract_x
 _atom_site_fract_y
 _atom_site_fract_z
 _atom_site_occupancy
  La  La0  1  0.172010  0.827990  0.755491  1
  La  La1  1  0.827668  0.172332  0.255589  1
  Tb  Tb2  1  0.525293  0.474707  0.236447  1
  Th  Th3  1  0.475474  0.524526  0.733396  1
  Sn  Sn4  1  0.878282  0.121718  0.731353  1
  Sn  Sn5  1  0.120047  0.879953  0.234760  1
  Sn  Sn6  1  0.704427  0.295573  0.053800  1
  Sn  Sn7  1  0.294814  0.705186  0.553056  1
  Sn  Sn8  1  0.595862  0.404138  0.609916  1
  Sn  Sn9  1  0.404957  0.595043  0.114529  1
  Sn  Sn10  1  0.953138  0.046862  0.389409  1
  Sn  Sn11  1  0.049099  0.950901  0.903053  1
  Sn  Sn12  1  0.289289  0.710711  0.975175  1
  Sn  Sn13  1  0.709989  0.290011  0.475202  1
  Rh  Rh14  1  0.049259  0.950741  0.518615  1
  Rh  Rh15  1  0.949758  0.050242  0.009857  1
  Rh  Rh16  1  0.777007  0.222993  0.765177  1
  Rh  Rh17  1  0.222224  0.777776  0.265274  1
  Rh  Rh18  1  0.396125  0.603875  0.490105  1
  Rh  Rh19  1  0.605275  0.394725  0.985793  1
