# generated using pymatgen
data_Yb3Ga2Si(SnO6)2
_symmetry_space_group_name_H-M   'P 1'
_cell_length_a   10.83831263
_cell_length_b   10.83830649
_cell_length_c   10.83831155
_cell_angle_alpha   109.03143115
_cell_angle_beta   109.03145127
_cell_angle_gamma   110.35443034
_symmetry_Int_Tables_number   1
_chemical_formula_structural   Yb3Ga2Si(SnO6)2
_chemical_formula_sum   'Yb12 Ga8 Si4 Sn8 O48'
_cell_volume   979.90770100
_cell_formula_units_Z   4
loop_
 _symmetry_equiv_pos_site_id
 _symmetry_equiv_pos_as_xyz
  1  'x, y, z'
loop_
 _atom_site_type_symbol
 _atom_site_label
 _atom_site_symmetry_multiplicity
 _atom_site_fract_x
 _atom_site_fract_y
 _atom_site_fract_z
 _atom_site_occupancy
  Yb  Yb0  1  0.750000  0.750000  0.000000  1
  Yb  Yb1  1  0.875000  0.249456  0.874456  1
  Yb  Yb2  1  0.499456  0.125000  0.874456  1
  Yb  Yb3  1  0.250000  0.250000  0.000000  1
  Yb  Yb4  1  0.875000  0.749456  0.374456  1
  Yb  Yb5  1  0.250544  0.625000  0.125544  1
  Yb  Yb6  1  0.999456  0.125000  0.374456  1
  Yb  Yb7  1  0.000000  0.500000  0.500000  1
  Yb  Yb8  1  0.375000  0.000544  0.125544  1
  Yb  Yb9  1  0.750544  0.625000  0.625544  1
  Yb  Yb10  1  0.375000  0.500544  0.625544  1
  Yb  Yb11  1  0.500000  0.000000  0.500000  1
  Ga  Ga12  1  0.000700  0.625000  0.875700  1
  Ga  Ga13  1  0.375000  0.750700  0.875700  1
  Ga  Ga14  1  0.875000  0.499300  0.124300  1
  Ga  Ga15  1  0.749300  0.125000  0.124300  1
  Ga  Ga16  1  0.500700  0.625000  0.375700  1
  Ga  Ga17  1  0.375000  0.250700  0.375700  1
  Ga  Ga18  1  0.875000  0.999300  0.624300  1
  Ga  Ga19  1  0.249300  0.125000  0.624300  1
  Si  Si20  1  0.000000  0.000000  0.000000  1
  Si  Si21  1  0.500000  0.500000  0.000000  1
  Si  Si22  1  0.250000  0.750000  0.500000  1
  Si  Si23  1  0.750000  0.250000  0.500000  1
  Sn  Sn24  1  0.125000  0.375000  0.750000  1
  Sn  Sn25  1  0.625000  0.875000  0.250000  1
  Sn  Sn26  1  0.125000  0.875000  0.750000  1
  Sn  Sn27  1  0.625000  0.375000  0.250000  1
  Sn  Sn28  1  0.125000  0.375000  0.250000  1
  Sn  Sn29  1  0.125000  0.875000  0.250000  1
  Sn  Sn30  1  0.625000  0.875000  0.750000  1
  Sn  Sn31  1  0.625000  0.375000  0.750000  1
  O  O32  1  0.825365  0.868485  0.860479  1
  O  O33  1  0.030890  0.194659  0.780861  1
  O  O34  1  0.045896  0.473614  0.876741  1
  O  O35  1  0.805341  0.586202  0.836231  1
  O  O36  1  0.530890  0.750029  0.836231  1
  O  O37  1  0.535114  0.491994  0.860479  1
  O  O38  1  0.723614  0.346872  0.927719  1
  O  O39  1  0.913798  0.694659  0.163769  1
  O  O40  1  0.026387  0.454105  0.123259  1
  O  O41  1  0.035114  0.174635  0.043120  1
  O  O42  1  0.419153  0.795895  0.072281  1
  O  O43  1  0.249971  0.086202  0.780861  1
  O  O44  1  0.704104  0.080846  0.927718  1
  O  O45  1  0.325365  0.464886  0.956880  1
  O  O46  1  0.631515  0.674635  0.139521  1
  O  O47  1  0.508005  0.368485  0.043120  1
  O  O48  1  0.153128  0.776386  0.072281  1
  O  O49  1  0.330846  0.903128  0.876741  1
  O  O50  1  0.008006  0.964886  0.139521  1
  O  O51  1  0.836202  0.499971  0.280861  1
  O  O52  1  0.944659  0.280890  0.280861  1
  O  O53  1  0.596872  0.169154  0.123259  1
  O  O54  1  0.500029  0.780890  0.336231  1
  O  O55  1  0.131515  0.991994  0.956880  1
  O  O56  1  0.118485  0.758006  0.543120  1
  O  O57  1  0.749971  0.969110  0.163769  1
  O  O58  1  0.653128  0.580846  0.376741  1
  O  O59  1  0.305341  0.469110  0.219139  1
  O  O60  1  0.413798  0.250029  0.219139  1
  O  O61  1  0.241994  0.785114  0.360479  1
  O  O62  1  0.919154  0.846872  0.623259  1
  O  O63  1  0.096872  0.973614  0.427719  1
  O  O64  1  0.741995  0.381515  0.456880  1
  O  O65  1  0.618485  0.075365  0.360479  1
  O  O66  1  0.924635  0.285114  0.543120  1
  O  O67  1  0.545896  0.669154  0.572282  1
  O  O68  1  0.000029  0.663798  0.719139  1
  O  O69  1  0.830847  0.954105  0.427719  1
  O  O70  1  0.223613  0.295895  0.376741  1
  O  O71  1  0.214886  0.575365  0.456880  1
  O  O72  1  0.336202  0.055341  0.336231  1
  O  O73  1  0.526386  0.403128  0.572281  1
  O  O74  1  0.714886  0.258006  0.639521  1
  O  O75  1  0.719110  0.999971  0.663769  1
  O  O76  1  0.444659  0.163798  0.663769  1
  O  O77  1  0.204104  0.276386  0.623259  1
  O  O78  1  0.219110  0.555341  0.719139  1
  O  O79  1  0.424635  0.881515  0.639521  1
