# generated using pymatgen
data_EuAlGa2Ag
_symmetry_space_group_name_H-M   'P 1'
_cell_length_a   6.35268947
_cell_length_b   6.35268981
_cell_length_c   6.35269035
_cell_angle_alpha   140.32476236
_cell_angle_beta   140.32476855
_cell_angle_gamma   57.36052337
_symmetry_Int_Tables_number   1
_chemical_formula_structural   EuAlGa2Ag
_chemical_formula_sum   'Eu1 Al1 Ga2 Ag1'
_cell_volume   103.60883378
_cell_formula_units_Z   1
loop_
 _symmetry_equiv_pos_site_id
 _symmetry_equiv_pos_as_xyz
  1  'x, y, z'
loop_
 _atom_site_type_symbol
 _atom_site_label
 _atom_site_symmetry_multiplicity
 _atom_site_fract_x
 _atom_site_fract_y
 _atom_site_fract_z
 _atom_site_occupancy
  Eu  Eu0  1  0.000000  0.000000  0.000000  1
  Al  Al1  1  0.250000  0.750000  0.500000  1
  Ga  Ga2  1  0.611527  0.611527  0.000000  1
  Ga  Ga3  1  0.388473  0.388473  0.000000  1
  Ag  Ag4  1  0.750000  0.250000  0.500000  1
