# generated using pymatgen
data_Ho4CrFeC4
_symmetry_space_group_name_H-M   'P 1'
_cell_length_a   5.01820700
_cell_length_b   6.33972007
_cell_length_c   9.66264243
_cell_angle_alpha   89.73434319
_cell_angle_beta   90.00000000
_cell_angle_gamma   90.00000000
_symmetry_Int_Tables_number   1
_chemical_formula_structural   Ho4CrFeC4
_chemical_formula_sum   'Ho8 Cr2 Fe2 C8'
_cell_volume   307.40426912
_cell_formula_units_Z   2
loop_
 _symmetry_equiv_pos_site_id
 _symmetry_equiv_pos_as_xyz
  1  'x, y, z'
loop_
 _atom_site_type_symbol
 _atom_site_label
 _atom_site_symmetry_multiplicity
 _atom_site_fract_x
 _atom_site_fract_y
 _atom_site_fract_z
 _atom_site_occupancy
  Ho  Ho0  1  0.250000  0.680544  0.555382  1
  Ho  Ho1  1  0.750000  0.319456  0.444618  1
  Ho  Ho2  1  0.750000  0.817952  0.055942  1
  Ho  Ho3  1  0.250000  0.182048  0.944058  1
  Ho  Ho4  1  0.250000  0.528344  0.215373  1
  Ho  Ho5  1  0.750000  0.471656  0.784627  1
  Ho  Ho6  1  0.750000  0.976127  0.713905  1
  Ho  Ho7  1  0.250000  0.023873  0.286095  1
  Cr  Cr8  1  0.250000  0.726602  0.858095  1
  Cr  Cr9  1  0.750000  0.273398  0.141905  1
  Fe  Fe10  1  0.750000  0.771914  0.358058  1
  Fe  Fe11  1  0.250000  0.228086  0.641942  1
  C  C12  1  0.250000  0.460548  0.759653  1
  C  C13  1  0.750000  0.539452  0.240347  1
  C  C14  1  0.750000  0.036541  0.260753  1
  C  C15  1  0.250000  0.963459  0.739247  1
  C  C16  1  0.250000  0.810414  0.039360  1
  C  C17  1  0.750000  0.189586  0.960640  1
  C  C18  1  0.750000  0.689314  0.535532  1
  C  C19  1  0.250000  0.310686  0.464468  1
