# generated using pymatgen
data_Tb5Y2Co6AgSn22
_symmetry_space_group_name_H-M   'P 1'
_cell_length_a   9.68939346
_cell_length_b   9.68689238
_cell_length_c   9.99482348
_cell_angle_alpha   89.99999698
_cell_angle_beta   90.03077966
_cell_angle_gamma   119.99145876
_symmetry_Int_Tables_number   1
_chemical_formula_structural   Tb5Y2Co6AgSn22
_chemical_formula_sum   'Tb5 Y2 Co6 Ag1 Sn22'
_cell_volume   812.50139503
_cell_formula_units_Z   1
loop_
 _symmetry_equiv_pos_site_id
 _symmetry_equiv_pos_as_xyz
  1  'x, y, z'
loop_
 _atom_site_type_symbol
 _atom_site_label
 _atom_site_symmetry_multiplicity
 _atom_site_fract_x
 _atom_site_fract_y
 _atom_site_fract_z
 _atom_site_occupancy
  Tb  Tb0  1  0.000000  0.000000  0.999971  1
  Tb  Tb1  1  0.043706  0.521853  0.306695  1
  Tb  Tb2  1  0.478188  0.956322  0.306826  1
  Tb  Tb3  1  0.478188  0.521865  0.306826  1
  Tb  Tb4  1  0.956274  0.478137  0.693306  1
  Y  Y5  1  0.521845  0.043765  0.693113  1
  Y  Y6  1  0.521845  0.478081  0.693113  1
  Co  Co7  1  0.167785  0.831952  0.803893  1
  Co  Co8  1  0.664220  0.832110  0.803923  1
  Co  Co9  1  0.167785  0.335833  0.803893  1
  Co  Co10  1  0.832111  0.168020  0.196102  1
  Co  Co11  1  0.335885  0.167943  0.196079  1
  Co  Co12  1  0.832111  0.664091  0.196102  1
  Ag  Ag13  1  0.000002  0.000001  0.500001  1
  Sn  Sn14  1  0.114021  0.886098  0.276011  1
  Sn  Sn15  1  0.772033  0.886017  0.276041  1
  Sn  Sn16  1  0.114021  0.227923  0.276011  1
  Sn  Sn17  1  0.885947  0.113894  0.724001  1
  Sn  Sn18  1  0.228023  0.114012  0.724000  1
  Sn  Sn19  1  0.885947  0.772053  0.724001  1
  Sn  Sn20  1  0.346071  0.000002  0.999993  1
  Sn  Sn21  1  0.653899  0.653970  0.000020  1
  Sn  Sn22  1  0.000021  0.346146  0.000000  1
  Sn  Sn23  1  0.346071  0.346069  0.999993  1
  Sn  Sn24  1  0.000021  0.653874  0.000000  1
  Sn  Sn25  1  0.653899  0.999929  0.000020  1
  Sn  Sn26  1  0.783216  0.566603  0.452231  1
  Sn  Sn27  1  0.783216  0.216611  0.452231  1
  Sn  Sn28  1  0.433332  0.216665  0.452298  1
  Sn  Sn29  1  0.216895  0.433446  0.547830  1
  Sn  Sn30  1  0.216895  0.783450  0.547830  1
  Sn  Sn31  1  0.566608  0.783305  0.547807  1
  Sn  Sn32  1  0.666713  0.333356  0.183284  1
  Sn  Sn33  1  0.333264  0.666632  0.816659  1
  Sn  Sn34  1  0.666553  0.333276  0.883244  1
  Sn  Sn35  1  0.333391  0.666696  0.116650  1
