# generated using pymatgen
data_Lu3In3PtAu
_symmetry_space_group_name_H-M   'P 1'
_cell_length_a   7.69053300
_cell_length_b   7.69053280
_cell_length_c   3.59480200
_cell_angle_alpha   90.00000000
_cell_angle_beta   90.00000000
_cell_angle_gamma   119.99999658
_symmetry_Int_Tables_number   1
_chemical_formula_structural   Lu3In3PtAu
_chemical_formula_sum   'Lu3 In3 Pt1 Au1'
_cell_volume   184.12742936
_cell_formula_units_Z   1
loop_
 _symmetry_equiv_pos_site_id
 _symmetry_equiv_pos_as_xyz
  1  'x, y, z'
loop_
 _atom_site_type_symbol
 _atom_site_label
 _atom_site_symmetry_multiplicity
 _atom_site_fract_x
 _atom_site_fract_y
 _atom_site_fract_z
 _atom_site_occupancy
  Lu  Lu0  1  0.573916  0.988245  0.500000  1
  Lu  Lu1  1  0.414330  0.426084  0.500000  1
  Lu  Lu2  1  0.011755  0.585671  0.500000  1
  In  In3  1  0.229376  0.998824  0.000000  1
  In  In4  1  0.001176  0.230552  0.000000  1
  In  In5  1  0.769449  0.770624  0.000000  1
  Pt  Pt6  1  0.333334  0.666667  0.000000  1
  Au  Au7  1  0.666666  0.333333  0.000000  1
