# generated using pymatgen
data_Zr3GaSiAsRu3
_symmetry_space_group_name_H-M   'P 1'
_cell_length_a   6.82670600
_cell_length_b   6.82670702
_cell_length_c   3.69577300
_cell_angle_alpha   90.00000000
_cell_angle_beta   90.00000000
_cell_angle_gamma   119.99999505
_symmetry_Int_Tables_number   1
_chemical_formula_structural   Zr3GaSiAsRu3
_chemical_formula_sum   'Zr3 Ga1 Si1 As1 Ru3'
_cell_volume   149.16207164
_cell_formula_units_Z   1
loop_
 _symmetry_equiv_pos_site_id
 _symmetry_equiv_pos_as_xyz
  1  'x, y, z'
loop_
 _atom_site_type_symbol
 _atom_site_label
 _atom_site_symmetry_multiplicity
 _atom_site_fract_x
 _atom_site_fract_y
 _atom_site_fract_z
 _atom_site_occupancy
  Zr  Zr0  1  0.408080  0.407327  0.500000  1
  Zr  Zr1  1  0.592673  0.000753  0.500000  1
  Zr  Zr2  1  0.999247  0.591920  0.500000  1
  Ga  Ga3  1  0.666667  0.333333  0.000000  1
  Si  Si4  1  0.000000  0.000000  0.500000  1
  As  As5  1  0.333333  0.666667  0.000000  1
  Ru  Ru6  1  0.006102  0.243067  0.000000  1
  Ru  Ru7  1  0.236964  0.993898  0.000000  1
  Ru  Ru8  1  0.756933  0.763036  0.000000  1
