# generated using pymatgen
data_HfZr5Al16Pd5Rh2
_symmetry_space_group_name_H-M   'P 1'
_cell_length_a   8.77361629
_cell_length_b   8.75543192
_cell_length_c   8.76848298
_cell_angle_alpha   60.08864026
_cell_angle_beta   60.11302211
_cell_angle_gamma   60.02907111
_symmetry_Int_Tables_number   1
_chemical_formula_structural   HfZr5Al16Pd5Rh2
_chemical_formula_sum   'Hf1 Zr5 Al16 Pd5 Rh2'
_cell_volume   477.11323899
_cell_formula_units_Z   1
loop_
 _symmetry_equiv_pos_site_id
 _symmetry_equiv_pos_as_xyz
  1  'x, y, z'
loop_
 _atom_site_type_symbol
 _atom_site_label
 _atom_site_symmetry_multiplicity
 _atom_site_fract_x
 _atom_site_fract_y
 _atom_site_fract_z
 _atom_site_occupancy
  Hf  Hf0  1  0.684948  0.683207  0.315057  1
  Zr  Zr1  1  0.686232  0.315677  0.313758  1
  Zr  Zr2  1  0.314495  0.685363  0.685498  1
  Zr  Zr3  1  0.312978  0.687809  0.312148  1
  Zr  Zr4  1  0.311815  0.313261  0.688180  1
  Zr  Zr5  1  0.687863  0.312936  0.687032  1
  Al  Al6  1  0.334306  0.334994  0.334168  1
  Al  Al7  1  0.332600  0.336091  0.995294  1
  Al  Al8  1  0.994607  0.336604  0.332752  1
  Al  Al9  1  0.334933  0.995710  0.334303  1
  Al  Al10  1  0.665696  0.664945  0.665064  1
  Al  Al11  1  0.667246  0.663963  0.005396  1
  Al  Al12  1  0.665832  0.003470  0.665692  1
  Al  Al13  1  0.004702  0.663988  0.667401  1
  Al  Al14  1  0.116539  0.124771  0.116513  1
  Al  Al15  1  0.118346  0.119026  0.643621  1
  Al  Al16  1  0.643913  0.118517  0.118422  1
  Al  Al17  1  0.116039  0.642495  0.116629  1
  Al  Al18  1  0.883372  0.875164  0.883958  1
  Al  Al19  1  0.881576  0.880852  0.356087  1
  Al  Al20  1  0.883487  0.357823  0.883459  1
  Al  Al21  1  0.356378  0.880993  0.881653  1
  Pd  Pd22  1  0.500781  0.999841  0.000126  1
  Pd  Pd23  1  0.999877  0.500748  0.499215  1
  Pd  Pd24  1  0.000302  0.000307  0.499653  1
  Pd  Pd25  1  0.500810  0.999786  0.499189  1
  Pd  Pd26  1  0.500348  0.500262  0.999694  1
  Rh  Rh27  1  0.000355  0.000424  0.999663  1
  Rh  Rh28  1  0.999620  0.500968  0.000373  1
