# generated using pymatgen
data_TaSi2B4W9
_symmetry_space_group_name_H-M   'P 1'
_cell_length_a   7.03260222
_cell_length_b   7.05110456
_cell_length_c   7.04564519
_cell_angle_alpha   128.60319090
_cell_angle_beta   128.53078252
_cell_angle_gamma   75.66863777
_symmetry_Int_Tables_number   1
_chemical_formula_structural   TaSi2B4W9
_chemical_formula_sum   'Ta1 Si2 B4 W9'
_cell_volume   207.81673391
_cell_formula_units_Z   1
loop_
 _symmetry_equiv_pos_site_id
 _symmetry_equiv_pos_as_xyz
  1  'x, y, z'
loop_
 _atom_site_type_symbol
 _atom_site_label
 _atom_site_symmetry_multiplicity
 _atom_site_fract_x
 _atom_site_fract_y
 _atom_site_fract_z
 _atom_site_occupancy
  Ta  Ta0  1  0.980860  0.803985  0.500000  1
  Si  Si1  1  0.252228  0.254657  0.004035  1
  Si  Si2  1  0.748193  0.750622  0.995965  1
  B  B3  1  0.130933  0.629036  0.760647  1
  B  B4  1  0.870284  0.368387  0.239353  1
  B  B5  1  0.625112  0.871425  0.500000  1
  B  B6  1  0.372765  0.126909  0.500000  1
  W  W7  1  0.997531  0.997645  0.999545  1
  W  W8  1  0.497986  0.498099  0.000455  1
  W  W9  1  0.801719  0.302108  0.822086  1
  W  W10  1  0.200402  0.701866  0.182556  1
  W  W11  1  0.479632  0.980021  0.177914  1
  W  W12  1  0.303360  0.475402  0.500000  1
  W  W13  1  0.018910  0.202957  0.500000  1
  W  W14  1  0.517846  0.019310  0.817444  1
  W  W15  1  0.702238  0.517571  0.500000  1
