# generated using pymatgen
data_Y4Er(SnSb)2
_symmetry_space_group_name_H-M   'P 1'
_cell_length_a   8.08641900
_cell_length_b   8.14151100
_cell_length_c   15.43173700
_cell_angle_alpha   90.00000000
_cell_angle_beta   90.00000000
_cell_angle_gamma   90.00000000
_symmetry_Int_Tables_number   1
_chemical_formula_structural   Y4Er(SnSb)2
_chemical_formula_sum   'Y16 Er4 Sn8 Sb8'
_cell_volume   1015.95873292
_cell_formula_units_Z   4
loop_
 _symmetry_equiv_pos_site_id
 _symmetry_equiv_pos_as_xyz
  1  'x, y, z'
loop_
 _atom_site_type_symbol
 _atom_site_label
 _atom_site_symmetry_multiplicity
 _atom_site_fract_x
 _atom_site_fract_y
 _atom_site_fract_z
 _atom_site_occupancy
  Y  Y0  1  0.390606  0.838846  0.880941  1
  Y  Y1  1  0.890606  0.661154  0.619059  1
  Y  Y2  1  0.609394  0.161154  0.380941  1
  Y  Y3  1  0.109394  0.338846  0.119059  1
  Y  Y4  1  0.609394  0.161154  0.119059  1
  Y  Y5  1  0.109394  0.338846  0.380941  1
  Y  Y6  1  0.390606  0.838846  0.619059  1
  Y  Y7  1  0.890606  0.661154  0.880941  1
  Y  Y8  1  0.556887  0.329678  0.891985  1
  Y  Y9  1  0.056887  0.170322  0.608015  1
  Y  Y10  1  0.443113  0.670322  0.391985  1
  Y  Y11  1  0.943113  0.829678  0.108015  1
  Y  Y12  1  0.443113  0.670322  0.108015  1
  Y  Y13  1  0.943113  0.829678  0.391985  1
  Y  Y14  1  0.556887  0.329678  0.608015  1
  Y  Y15  1  0.056887  0.170322  0.891985  1
  Er  Er16  1  0.222359  0.499335  0.750000  1
  Er  Er17  1  0.722359  0.000665  0.750000  1
  Er  Er18  1  0.777641  0.500665  0.250000  1
  Er  Er19  1  0.277641  0.999335  0.250000  1
  Sn  Sn20  1  0.587375  0.627792  0.750000  1
  Sn  Sn21  1  0.087375  0.872208  0.750000  1
  Sn  Sn22  1  0.412625  0.372208  0.250000  1
  Sn  Sn23  1  0.912625  0.127792  0.250000  1
  Sn  Sn24  1  0.359765  0.142665  0.750000  1
  Sn  Sn25  1  0.859765  0.357335  0.750000  1
  Sn  Sn26  1  0.640235  0.857335  0.250000  1
  Sn  Sn27  1  0.140235  0.642665  0.250000  1
  Sb  Sb28  1  0.267058  0.017470  0.046892  1
  Sb  Sb29  1  0.767058  0.482530  0.453108  1
  Sb  Sb30  1  0.732942  0.982530  0.546892  1
  Sb  Sb31  1  0.232942  0.517470  0.953108  1
  Sb  Sb32  1  0.732942  0.982530  0.953108  1
  Sb  Sb33  1  0.232942  0.517470  0.546892  1
  Sb  Sb34  1  0.267058  0.017470  0.453108  1
  Sb  Sb35  1  0.767058  0.482530  0.046892  1
