# generated using pymatgen
data_Yb11SmZn24
_symmetry_space_group_name_H-M   'P 1'
_cell_length_a   4.56911800
_cell_length_b   7.48290415
_cell_length_c   21.66925327
_cell_angle_alpha   89.97943745
_cell_angle_beta   90.00000000
_cell_angle_gamma   90.00000000
_symmetry_Int_Tables_number   1
_chemical_formula_structural   Yb11SmZn24
_chemical_formula_sum   'Yb11 Sm1 Zn24'
_cell_volume   740.87761668
_cell_formula_units_Z   1
loop_
 _symmetry_equiv_pos_site_id
 _symmetry_equiv_pos_as_xyz
  1  'x, y, z'
loop_
 _atom_site_type_symbol
 _atom_site_label
 _atom_site_symmetry_multiplicity
 _atom_site_fract_x
 _atom_site_fract_y
 _atom_site_fract_z
 _atom_site_occupancy
  Yb  Yb0  1  0.250000  0.700718  0.000729  1
  Yb  Yb1  1  0.750000  0.298633  0.001109  1
  Yb  Yb2  1  0.750000  0.201235  0.499680  1
  Yb  Yb3  1  0.250000  0.799194  0.499795  1
  Yb  Yb4  1  0.250000  0.798715  0.166733  1
  Yb  Yb5  1  0.750000  0.204495  0.833362  1
  Yb  Yb6  1  0.750000  0.298224  0.333360  1
  Yb  Yb7  1  0.250000  0.701095  0.665856  1
  Yb  Yb8  1  0.250000  0.701478  0.333279  1
  Yb  Yb9  1  0.750000  0.299099  0.665687  1
  Yb  Yb10  1  0.750000  0.200830  0.167084  1
  Sm  Sm11  1  0.250000  0.797227  0.833347  1
  Zn  Zn12  1  0.250000  0.415511  0.103846  1
  Zn  Zn13  1  0.750000  0.583174  0.897177  1
  Zn  Zn14  1  0.750000  0.915169  0.396341  1
  Zn  Zn15  1  0.250000  0.085085  0.602679  1
  Zn  Zn16  1  0.250000  0.413876  0.230766  1
  Zn  Zn17  1  0.750000  0.584749  0.769213  1
  Zn  Zn18  1  0.750000  0.913462  0.269942  1
  Zn  Zn19  1  0.250000  0.086003  0.729298  1
  Zn  Zn20  1  0.250000  0.415563  0.436311  1
  Zn  Zn21  1  0.750000  0.585366  0.563353  1
  Zn  Zn22  1  0.750000  0.915849  0.063636  1
  Zn  Zn23  1  0.250000  0.084330  0.937766  1
  Zn  Zn24  1  0.250000  0.085775  0.064282  1
  Zn  Zn25  1  0.750000  0.913727  0.936309  1
  Zn  Zn26  1  0.750000  0.585291  0.436130  1
  Zn  Zn27  1  0.250000  0.414952  0.563064  1
  Zn  Zn28  1  0.250000  0.083994  0.270390  1
  Zn  Zn29  1  0.750000  0.915172  0.729976  1
  Zn  Zn30  1  0.750000  0.583750  0.230110  1
  Zn  Zn31  1  0.250000  0.416478  0.769098  1
  Zn  Zn32  1  0.250000  0.085727  0.396823  1
  Zn  Zn33  1  0.750000  0.914939  0.602604  1
  Zn  Zn34  1  0.750000  0.586215  0.102824  1
  Zn  Zn35  1  0.250000  0.414904  0.898038  1
