# generated using pymatgen
data_Ta2Ti5Nb5(BOs)12
_symmetry_space_group_name_H-M   'P 1'
_cell_length_a   3.09725900
_cell_length_b   9.01940995
_cell_length_c   15.60176919
_cell_angle_alpha   89.96480911
_cell_angle_beta   90.00000000
_cell_angle_gamma   90.00000000
_symmetry_Int_Tables_number   1
_chemical_formula_structural   Ta2Ti5Nb5(BOs)12
_chemical_formula_sum   'Ta2 Ti5 Nb5 B12 Os12'
_cell_volume   435.84233972
_cell_formula_units_Z   1
loop_
 _symmetry_equiv_pos_site_id
 _symmetry_equiv_pos_as_xyz
  1  'x, y, z'
loop_
 _atom_site_type_symbol
 _atom_site_label
 _atom_site_symmetry_multiplicity
 _atom_site_fract_x
 _atom_site_fract_y
 _atom_site_fract_z
 _atom_site_occupancy
  Ta  Ta0  1  0.000000  0.796878  0.497276  1
  Ta  Ta1  1  0.000000  0.203567  0.503981  1
  Ti  Ti2  1  0.000000  0.300392  0.004436  1
  Ti  Ti3  1  0.000000  0.697670  0.993834  1
  Ti  Ti4  1  0.000000  0.514915  0.594579  1
  Ti  Ti5  1  0.000000  0.485189  0.406329  1
  Ti  Ti6  1  0.000000  0.015071  0.905192  1
  Nb  Nb7  1  0.000000  0.982573  0.092045  1
  Nb  Nb8  1  0.000000  0.685013  0.202544  1
  Nb  Nb9  1  0.000000  0.315565  0.797851  1
  Nb  Nb10  1  0.000000  0.187106  0.295687  1
  Nb  Nb11  1  0.000000  0.814813  0.705487  1
  B  B12  1  0.500000  0.600962  0.496596  1
  B  B13  1  0.500000  0.399278  0.504197  1
  B  B14  1  0.500000  0.105651  0.001825  1
  B  B15  1  0.500000  0.893027  0.992809  1
  B  B16  1  0.000000  0.609945  0.834406  1
  B  B17  1  0.000000  0.393317  0.165682  1
  B  B18  1  0.000000  0.113226  0.669125  1
  B  B19  1  0.000000  0.886341  0.333430  1
  B  B20  1  0.500000  0.708974  0.601233  1
  B  B21  1  0.500000  0.291470  0.399861  1
  B  B22  1  0.500000  0.211621  0.902020  1
  B  B23  1  0.500000  0.781929  0.095764  1
  Os  Os24  1  0.500000  0.715624  0.358778  1
  Os  Os25  1  0.500000  0.284750  0.642125  1
  Os  Os26  1  0.500000  0.219458  0.140927  1
  Os  Os27  1  0.500000  0.782954  0.859058  1
  Os  Os28  1  0.500000  0.519113  0.092386  1
  Os  Os29  1  0.500000  0.480334  0.907082  1
  Os  Os30  1  0.500000  0.017760  0.406195  1
  Os  Os31  1  0.500000  0.983103  0.594702  1
  Os  Os32  1  0.500000  0.565052  0.732212  1
  Os  Os33  1  0.500000  0.436358  0.267899  1
  Os  Os34  1  0.500000  0.066172  0.768420  1
  Os  Os35  1  0.500000  0.934831  0.234028  1
