# generated using pymatgen
data_CsRb7Cr5Tc3N16
_symmetry_space_group_name_H-M   'P 1'
_cell_length_a   5.88197741
_cell_length_b   8.35583796
_cell_length_c   11.77717567
_cell_angle_alpha   90.03539991
_cell_angle_beta   90.02185703
_cell_angle_gamma   90.06331496
_symmetry_Int_Tables_number   1
_chemical_formula_structural   CsRb7Cr5Tc3N16
_chemical_formula_sum   'Cs1 Rb7 Cr5 Tc3 N16'
_cell_volume   578.83413532
_cell_formula_units_Z   1
loop_
 _symmetry_equiv_pos_site_id
 _symmetry_equiv_pos_as_xyz
  1  'x, y, z'
loop_
 _atom_site_type_symbol
 _atom_site_label
 _atom_site_symmetry_multiplicity
 _atom_site_fract_x
 _atom_site_fract_y
 _atom_site_fract_z
 _atom_site_occupancy
  Cs  Cs0  1  0.753199  0.365146  0.755005  1
  Rb  Rb1  1  0.754357  0.098385  0.998698  1
  Rb  Rb2  1  0.254488  0.894895  0.514645  1
  Rb  Rb3  1  0.254242  0.857800  0.997279  1
  Rb  Rb4  1  0.753231  0.135487  0.488528  1
  Rb  Rb5  1  0.739470  0.391686  0.228369  1
  Rb  Rb6  1  0.239447  0.635524  0.269454  1
  Rb  Rb7  1  0.253602  0.631496  0.743378  1
  Cr  Cr8  1  0.752585  0.636318  0.993973  1
  Cr  Cr9  1  0.251975  0.367192  0.508711  1
  Cr  Cr10  1  0.742142  0.868065  0.244962  1
  Cr  Cr11  1  0.752630  0.880851  0.748512  1
  Cr  Cr12  1  0.252887  0.119168  0.752000  1
  Tc  Tc13  1  0.251974  0.381541  0.998432  1
  Tc  Tc14  1  0.752286  0.622030  0.499290  1
  Tc  Tc15  1  0.242745  0.121435  0.255114  1
  N  N16  1  0.979793  0.997739  0.250172  1
  N  N17  1  0.490561  0.983784  0.248792  1
  N  N18  1  0.004479  0.999087  0.750298  1
  N  N19  1  0.502675  0.000527  0.750108  1
  N  N20  1  0.250942  0.239451  0.388358  1
  N  N21  1  0.750730  0.755282  0.117806  1
  N  N22  1  0.751916  0.760530  0.871515  1
  N  N23  1  0.251650  0.245330  0.631443  1
  N  N24  1  0.752267  0.760477  0.623566  1
  N  N25  1  0.251965  0.242371  0.875821  1
  N  N26  1  0.249896  0.263123  0.132364  1
  N  N27  1  0.749086  0.736946  0.364611  1
  N  N28  1  0.497580  0.490144  0.505590  1
  N  N29  1  0.998150  0.513936  0.994048  1
  N  N30  1  0.508166  0.512295  0.994078  1
  N  N31  1  0.008883  0.491960  0.505081  1
