# generated using pymatgen
data_Tb8Dy2AlSb5
_symmetry_space_group_name_H-M   'P 1'
_cell_length_a   6.40211201
_cell_length_b   8.99180174
_cell_length_c   8.97091401
_cell_angle_alpha   120.07706098
_cell_angle_beta   90.00395263
_cell_angle_gamma   89.99212809
_symmetry_Int_Tables_number   1
_chemical_formula_structural   Tb8Dy2AlSb5
_chemical_formula_sum   'Tb8 Dy2 Al1 Sb5'
_cell_volume   446.88888330
_cell_formula_units_Z   1
loop_
 _symmetry_equiv_pos_site_id
 _symmetry_equiv_pos_as_xyz
  1  'x, y, z'
loop_
 _atom_site_type_symbol
 _atom_site_label
 _atom_site_symmetry_multiplicity
 _atom_site_fract_x
 _atom_site_fract_y
 _atom_site_fract_z
 _atom_site_occupancy
  Tb  Tb0  1  0.500759  0.338112  0.672954  1
  Tb  Tb1  1  0.500759  0.665159  0.327046  1
  Tb  Tb2  1  0.750027  0.248464  0.000000  1
  Tb  Tb3  1  0.750063  0.753847  0.762419  1
  Tb  Tb4  1  0.750063  0.991428  0.237581  1
  Tb  Tb5  1  0.249886  0.756890  0.000000  1
  Tb  Tb6  1  0.249954  0.245426  0.244852  1
  Tb  Tb7  1  0.249954  0.000574  0.755148  1
  Dy  Dy8  1  0.999242  0.665213  0.327119  1
  Dy  Dy9  1  0.999242  0.338094  0.672881  1
  Al  Al10  1  0.750375  0.604510  0.000000  1
  Sb  Sb11  1  0.750335  0.388626  0.390407  1
  Sb  Sb12  1  0.750335  0.998220  0.609593  1
  Sb  Sb13  1  0.249596  0.392193  0.000000  1
  Sb  Sb14  1  0.249705  0.610777  0.608307  1
  Sb  Sb15  1  0.249705  0.002469  0.391693  1
