# generated using pymatgen
data_Ca2Nd3NiSn15Rh7
_symmetry_space_group_name_H-M   'P 1'
_cell_length_a   4.49344500
_cell_length_b   7.29723145
_cell_length_c   18.77482401
_cell_angle_alpha   89.82714885
_cell_angle_beta   90.00000000
_cell_angle_gamma   90.00000000
_symmetry_Int_Tables_number   1
_chemical_formula_structural   Ca2Nd3NiSn15Rh7
_chemical_formula_sum   'Ca2 Nd3 Ni1 Sn15 Rh7'
_cell_volume   615.61819860
_cell_formula_units_Z   1
loop_
 _symmetry_equiv_pos_site_id
 _symmetry_equiv_pos_as_xyz
  1  'x, y, z'
loop_
 _atom_site_type_symbol
 _atom_site_label
 _atom_site_symmetry_multiplicity
 _atom_site_fract_x
 _atom_site_fract_y
 _atom_site_fract_z
 _atom_site_occupancy
  Ca  Ca0  1  0.500000  0.006994  0.857688  1
  Ca  Ca1  1  0.000000  0.996249  0.143504  1
  Nd  Nd2  1  0.500000  0.500772  0.356089  1
  Nd  Nd3  1  0.000000  0.498616  0.641714  1
  Nd  Nd4  1  0.500000  0.499109  0.931303  1
  Ni  Ni5  1  0.500000  0.763171  0.046194  1
  Sn  Sn6  1  0.000000  0.721533  0.806654  1
  Sn  Sn7  1  0.000000  0.782885  0.304615  1
  Sn  Sn8  1  0.500000  0.276825  0.193031  1
  Sn  Sn9  1  0.500000  0.215188  0.694640  1
  Sn  Sn10  1  0.000000  0.850080  0.972392  1
  Sn  Sn11  1  0.000000  0.632674  0.467238  1
  Sn  Sn12  1  0.500000  0.125997  0.033711  1
  Sn  Sn13  1  0.500000  0.366509  0.530550  1
  Sn  Sn14  1  0.000000  0.303949  0.819787  1
  Sn  Sn15  1  0.000000  0.201744  0.316746  1
  Sn  Sn16  1  0.500000  0.702425  0.183263  1
  Sn  Sn17  1  0.500000  0.805043  0.678345  1
  Sn  Sn18  1  0.500000  0.019931  0.432652  1
  Sn  Sn19  1  0.000000  0.506225  0.067938  1
  Sn  Sn20  1  0.000000  0.980957  0.567907  1
  Rh  Rh21  1  0.000000  0.228816  0.965207  1
  Rh  Rh22  1  0.000000  0.249083  0.464191  1
  Rh  Rh23  1  0.500000  0.749847  0.532785  1
  Rh  Rh24  1  0.000000  0.018242  0.715341  1
  Rh  Rh25  1  0.000000  0.488485  0.213176  1
  Rh  Rh26  1  0.500000  0.989485  0.289335  1
  Rh  Rh27  1  0.500000  0.519163  0.774003  1
