# generated using pymatgen
data_Ca2Si2OsRu
_symmetry_space_group_name_H-M   'P 1'
_cell_length_a   4.27155400
_cell_length_b   4.27155400
_cell_length_c   6.72529400
_cell_angle_alpha   90.00000000
_cell_angle_beta   90.00000000
_cell_angle_gamma   90.00000000
_symmetry_Int_Tables_number   1
_chemical_formula_structural   Ca2Si2OsRu
_chemical_formula_sum   'Ca2 Si2 Os1 Ru1'
_cell_volume   122.71088167
_cell_formula_units_Z   1
loop_
 _symmetry_equiv_pos_site_id
 _symmetry_equiv_pos_as_xyz
  1  'x, y, z'
loop_
 _atom_site_type_symbol
 _atom_site_label
 _atom_site_symmetry_multiplicity
 _atom_site_fract_x
 _atom_site_fract_y
 _atom_site_fract_z
 _atom_site_occupancy
  Ca  Ca0  1  0.000000  0.500000  0.321349  1
  Ca  Ca1  1  0.500000  0.000000  0.678651  1
  Si  Si2  1  0.000000  0.500000  0.831011  1
  Si  Si3  1  0.500000  0.000000  0.168989  1
  Os  Os4  1  0.000000  0.000000  0.000000  1
  Ru  Ru5  1  0.500000  0.500000  0.000000  1
