# generated using pymatgen
data_Dy9HoB2I15
_symmetry_space_group_name_H-M   'P 1'
_cell_length_a   9.61915993
_cell_length_b   10.34581272
_cell_length_c   11.29448621
_cell_angle_alpha   91.65290280
_cell_angle_beta   114.47378264
_cell_angle_gamma   110.47664733
_symmetry_Int_Tables_number   1
_chemical_formula_structural   Dy9HoB2I15
_chemical_formula_sum   'Dy9 Ho1 B2 I15'
_cell_volume   938.26088688
_cell_formula_units_Z   1
loop_
 _symmetry_equiv_pos_site_id
 _symmetry_equiv_pos_as_xyz
  1  'x, y, z'
loop_
 _atom_site_type_symbol
 _atom_site_label
 _atom_site_symmetry_multiplicity
 _atom_site_fract_x
 _atom_site_fract_y
 _atom_site_fract_z
 _atom_site_occupancy
  Dy  Dy0  1  0.783965  0.393252  0.267543  1
  Dy  Dy1  1  0.215810  0.606596  0.732359  1
  Dy  Dy2  1  0.662812  0.752247  0.825753  1
  Dy  Dy3  1  0.336948  0.247781  0.174261  1
  Dy  Dy4  1  0.523068  0.713014  0.085962  1
  Dy  Dy5  1  0.476748  0.286912  0.913994  1
  Dy  Dy6  1  0.580279  0.043326  0.308462  1
  Dy  Dy7  1  0.419591  0.956636  0.691491  1
  Dy  Dy8  1  0.707541  0.069943  0.045634  1
  Ho  Ho9  1  0.293795  0.930375  0.954606  1
  B  B10  1  0.468155  0.823256  0.880360  1
  B  B11  1  0.530795  0.176370  0.119395  1
  I  I12  1  0.000231  0.999851  0.999900  1
  I  I13  1  0.638164  0.882323  0.583145  1
  I  I14  1  0.361820  0.117651  0.416872  1
  I  I15  1  0.884315  0.299159  0.530831  1
  I  I16  1  0.115657  0.700824  0.469137  1
  I  I17  1  0.284120  0.760261  0.176797  1
  I  I18  1  0.715626  0.240005  0.822696  1
  I  I19  1  0.054357  0.339924  0.225408  1
  I  I20  1  0.159927  0.055480  0.702252  1
  I  I21  1  0.840074  0.944177  0.298202  1
  I  I22  1  0.228608  0.409883  0.942024  1
  I  I23  1  0.771360  0.590108  0.057966  1
  I  I24  1  0.409984  0.459797  0.660477  1
  I  I25  1  0.590035  0.540213  0.339522  1
  I  I26  1  0.946214  0.660636  0.774950  1
