# generated using pymatgen
data_Ho4Ga3P3Ir7
_symmetry_space_group_name_H-M   'P 1'
_cell_length_a   7.16387914
_cell_length_b   7.16388008
_cell_length_c   7.24222800
_cell_angle_alpha   109.69290671
_cell_angle_beta   109.69290940
_cell_angle_gamma   109.24863033
_symmetry_Int_Tables_number   1
_chemical_formula_structural   Ho4Ga3P3Ir7
_chemical_formula_sum   'Ho4 Ga3 P3 Ir7'
_cell_volume   285.33255312
_cell_formula_units_Z   1
loop_
 _symmetry_equiv_pos_site_id
 _symmetry_equiv_pos_as_xyz
  1  'x, y, z'
loop_
 _atom_site_type_symbol
 _atom_site_label
 _atom_site_symmetry_multiplicity
 _atom_site_fract_x
 _atom_site_fract_y
 _atom_site_fract_z
 _atom_site_occupancy
  Ho  Ho0  1  0.000000  0.000000  0.454332  1
  Ho  Ho1  1  0.000000  0.522433  0.000434  1
  Ho  Ho2  1  0.522433  0.000000  0.000434  1
  Ho  Ho3  1  0.477567  0.477567  0.478001  1
  Ga  Ga4  1  0.286499  0.286499  0.979565  1
  Ga  Ga5  1  0.713501  0.000000  0.693066  1
  Ga  Ga6  1  0.000000  0.713501  0.693066  1
  P  P7  1  0.652057  0.652057  0.992197  1
  P  P8  1  0.347943  0.000000  0.340140  1
  P  P9  1  0.000000  0.347943  0.340140  1
  Ir  Ir10  1  0.754438  0.255743  0.501296  1
  Ir  Ir11  1  0.744257  0.498695  0.245553  1
  Ir  Ir12  1  0.501305  0.245562  0.746858  1
  Ir  Ir13  1  0.245562  0.501305  0.746858  1
  Ir  Ir14  1  0.255743  0.754438  0.501296  1
  Ir  Ir15  1  0.498695  0.744257  0.245553  1
  Ir  Ir16  1  0.000000  0.000000  0.041209  1
