# generated using pymatgen
data_Lu3Al2ZnSi2Ir
_symmetry_space_group_name_H-M   'P 1'
_cell_length_a   6.80855500
_cell_length_b   6.73674672
_cell_length_c   4.20848600
_cell_angle_alpha   90.00000000
_cell_angle_beta   90.00000000
_cell_angle_gamma   120.35322919
_symmetry_Int_Tables_number   1
_chemical_formula_structural   Lu3Al2ZnSi2Ir
_chemical_formula_sum   'Lu3 Al2 Zn1 Si2 Ir1'
_cell_volume   166.57309014
_cell_formula_units_Z   1
loop_
 _symmetry_equiv_pos_site_id
 _symmetry_equiv_pos_as_xyz
  1  'x, y, z'
loop_
 _atom_site_type_symbol
 _atom_site_label
 _atom_site_symmetry_multiplicity
 _atom_site_fract_x
 _atom_site_fract_y
 _atom_site_fract_z
 _atom_site_occupancy
  Lu  Lu0  1  0.422542  0.000000  0.000000  1
  Lu  Lu1  1  0.996749  0.413781  0.000000  1
  Lu  Lu2  1  0.582967  0.586218  0.000000  1
  Al  Al3  1  0.230820  0.233024  0.500001  1
  Al  Al4  1  0.997796  0.766975  0.500001  1
  Zn  Zn5  1  0.756609  0.000000  0.500001  1
  Si  Si6  1  0.666142  0.336058  0.500001  1
  Si  Si7  1  0.330084  0.663943  0.500001  1
  Ir  Ir8  1  0.016290  0.000000  0.000000  1
