# generated using pymatgen
data_Cs2ZnCd(SiAs2)2
_symmetry_space_group_name_H-M   'P 1'
_cell_length_a   8.86601617
_cell_length_b   8.39511206
_cell_length_c   8.67900007
_cell_angle_alpha   70.48790866
_cell_angle_beta   76.26402861
_cell_angle_gamma   73.86175189
_symmetry_Int_Tables_number   1
_chemical_formula_structural   Cs2ZnCd(SiAs2)2
_chemical_formula_sum   'Cs4 Zn2 Cd2 Si4 As8'
_cell_volume   577.38782565
_cell_formula_units_Z   2
loop_
 _symmetry_equiv_pos_site_id
 _symmetry_equiv_pos_as_xyz
  1  'x, y, z'
loop_
 _atom_site_type_symbol
 _atom_site_label
 _atom_site_symmetry_multiplicity
 _atom_site_fract_x
 _atom_site_fract_y
 _atom_site_fract_z
 _atom_site_occupancy
  Cs  Cs0  1  0.451426  0.760480  0.316997  1
  Cs  Cs1  1  0.548574  0.239520  0.683003  1
  Cs  Cs2  1  0.430651  0.799894  0.816945  1
  Cs  Cs3  1  0.569349  0.200106  0.183055  1
  Zn  Zn4  1  0.996133  0.891188  0.679799  1
  Zn  Zn5  1  0.003867  0.108812  0.320201  1
  Cd  Cd6  1  0.975765  0.831311  0.164589  1
  Cd  Cd7  1  0.024235  0.168689  0.835411  1
  Si  Si8  1  0.963715  0.587773  0.593702  1
  Si  Si9  1  0.036285  0.412227  0.406298  1
  Si  Si10  1  0.136557  0.447144  0.980396  1
  Si  Si11  1  0.863443  0.552856  0.019604  1
  As  As12  1  0.828613  0.877489  0.464910  1
  As  As13  1  0.171387  0.122511  0.535090  1
  As  As14  1  0.803200  0.402723  0.310449  1
  As  As15  1  0.196800  0.597277  0.689551  1
  As  As16  1  0.793172  0.864583  0.944605  1
  As  As17  1  0.206828  0.135417  0.055395  1
  As  As18  1  0.782814  0.454913  0.824242  1
  As  As19  1  0.217186  0.545087  0.175758  1
