# generated using pymatgen
data_Dy16Tm4Ir11Ru
_symmetry_space_group_name_H-M   'P 1'
_cell_length_a   10.83722500
_cell_length_b   10.83722500
_cell_length_c   6.36444900
_cell_angle_alpha   90.00000000
_cell_angle_beta   90.00000000
_cell_angle_gamma   90.00000000
_symmetry_Int_Tables_number   1
_chemical_formula_structural   Dy16Tm4Ir11Ru
_chemical_formula_sum   'Dy16 Tm4 Ir11 Ru1'
_cell_volume   747.47554944
_cell_formula_units_Z   1
loop_
 _symmetry_equiv_pos_site_id
 _symmetry_equiv_pos_as_xyz
  1  'x, y, z'
loop_
 _atom_site_type_symbol
 _atom_site_label
 _atom_site_symmetry_multiplicity
 _atom_site_fract_x
 _atom_site_fract_y
 _atom_site_fract_z
 _atom_site_occupancy
  Dy  Dy0  1  0.291679  0.087031  0.376393  1
  Dy  Dy1  1  0.291834  0.913000  0.878390  1
  Dy  Dy2  1  0.708166  0.087000  0.878390  1
  Dy  Dy3  1  0.708321  0.912969  0.376393  1
  Dy  Dy4  1  0.587000  0.791834  0.878390  1
  Dy  Dy5  1  0.587031  0.208321  0.376393  1
  Dy  Dy6  1  0.412969  0.791679  0.376393  1
  Dy  Dy7  1  0.413000  0.208166  0.878390  1
  Dy  Dy8  1  0.209612  0.412327  0.622430  1
  Dy  Dy9  1  0.209602  0.587651  0.122342  1
  Dy  Dy10  1  0.790398  0.412349  0.122342  1
  Dy  Dy11  1  0.790388  0.587673  0.622430  1
  Dy  Dy12  1  0.912349  0.709602  0.122342  1
  Dy  Dy13  1  0.912327  0.290388  0.622430  1
  Dy  Dy14  1  0.087673  0.709612  0.622430  1
  Dy  Dy15  1  0.087651  0.290398  0.122342  1
  Tm  Tm16  1  0.000000  0.000000  0.499826  1
  Tm  Tm17  1  0.000000  0.000000  0.999874  1
  Tm  Tm18  1  0.500000  0.500000  0.999874  1
  Tm  Tm19  1  0.500000  0.500000  0.499826  1
  Ir  Ir20  1  0.848214  0.152409  0.250188  1
  Ir  Ir21  1  0.848338  0.847769  0.749999  1
  Ir  Ir22  1  0.151662  0.152231  0.749999  1
  Ir  Ir23  1  0.151786  0.847591  0.250188  1
  Ir  Ir24  1  0.652231  0.348338  0.749999  1
  Ir  Ir25  1  0.652409  0.651786  0.250188  1
  Ir  Ir26  1  0.347591  0.348214  0.250188  1
  Ir  Ir27  1  0.347769  0.651662  0.749999  1
  Ir  Ir28  1  0.500000  0.000000  0.622117  1
  Ir  Ir29  1  0.000000  0.500000  0.878565  1
  Ir  Ir30  1  0.000000  0.500000  0.378630  1
  Ru  Ru31  1  0.500000  0.000000  0.122317  1
