# generated using pymatgen
data_Pr11Nd(CCl3)4
_symmetry_space_group_name_H-M   'P 1'
_cell_length_a   9.73229875
_cell_length_b   9.73229817
_cell_length_c   9.73160632
_cell_angle_alpha   109.45511338
_cell_angle_beta   109.45511520
_cell_angle_gamma   109.49303089
_symmetry_Int_Tables_number   1
_chemical_formula_structural   Pr11Nd(CCl3)4
_chemical_formula_sum   'Pr11 Nd1 C4 Cl12'
_cell_volume   709.65811542
_cell_formula_units_Z   1
loop_
 _symmetry_equiv_pos_site_id
 _symmetry_equiv_pos_as_xyz
  1  'x, y, z'
loop_
 _atom_site_type_symbol
 _atom_site_label
 _atom_site_symmetry_multiplicity
 _atom_site_fract_x
 _atom_site_fract_y
 _atom_site_fract_z
 _atom_site_occupancy
  Pr  Pr0  1  0.466390  0.483145  0.233141  1
  Pr  Pr1  1  0.750053  0.233154  0.266861  1
  Pr  Pr2  1  0.750062  0.016798  0.483232  1
  Pr  Pr3  1  0.233267  0.466394  0.483308  1
  Pr  Pr4  1  0.266846  0.749947  0.233139  1
  Pr  Pr5  1  0.033606  0.266733  0.016692  1
  Pr  Pr6  1  0.016855  0.033610  0.266859  1
  Pr  Pr7  1  0.483202  0.749938  0.016768  1
  Pr  Pr8  1  0.483303  0.233242  0.466522  1
  Pr  Pr9  1  0.016939  0.483061  0.750000  1
  Pr  Pr10  1  0.266758  0.016697  0.033478  1
  Nd  Nd11  1  0.232448  0.267552  0.750000  1
  C  C12  1  0.249984  0.250016  0.250000  1
  C  C13  1  0.500041  0.999959  0.250000  1
  C  C14  1  0.000963  0.250045  0.501005  1
  C  C15  1  0.249955  0.499037  0.998995  1
  Cl  Cl16  1  0.249972  0.756181  0.743736  1
  Cl  Cl17  1  0.511520  0.505287  0.756258  1
  Cl  Cl18  1  0.987534  0.743779  0.993744  1
  Cl  Cl19  1  0.743819  0.250028  0.756264  1
  Cl  Cl20  1  0.994713  0.988480  0.743742  1
  Cl  Cl21  1  0.250042  0.994498  0.506993  1
  Cl  Cl22  1  0.756221  0.512466  0.506256  1
  Cl  Cl23  1  0.505502  0.249958  0.993007  1
  Cl  Cl24  1  0.756254  0.743746  0.250000  1
  Cl  Cl25  1  0.743751  0.993738  0.987487  1
  Cl  Cl26  1  0.993739  0.506261  0.250000  1
  Cl  Cl27  1  0.506262  0.756249  0.512513  1
