# generated using pymatgen
data_PrDy4CoRuO12
_symmetry_space_group_name_H-M   'P 1'
_cell_length_a   6.88401421
_cell_length_b   6.88401534
_cell_length_c   7.35857433
_cell_angle_alpha   74.56804777
_cell_angle_beta   74.56805464
_cell_angle_gamma   50.42511547
_symmetry_Int_Tables_number   1
_chemical_formula_structural   PrDy4CoRuO12
_chemical_formula_sum   'Pr1 Dy4 Co1 Ru1 O12'
_cell_volume   256.90261786
_cell_formula_units_Z   1
loop_
 _symmetry_equiv_pos_site_id
 _symmetry_equiv_pos_as_xyz
  1  'x, y, z'
loop_
 _atom_site_type_symbol
 _atom_site_label
 _atom_site_symmetry_multiplicity
 _atom_site_fract_x
 _atom_site_fract_y
 _atom_site_fract_z
 _atom_site_occupancy
  Pr  Pr0  1  0.003829  0.996171  0.500000  1
  Dy  Dy1  1  0.321562  0.289405  0.356676  1
  Dy  Dy2  1  0.710595  0.678438  0.643324  1
  Dy  Dy3  1  0.696571  0.689632  0.164959  1
  Dy  Dy4  1  0.310368  0.303429  0.835041  1
  Co  Co5  1  0.740007  0.259993  0.000000  1
  Ru  Ru6  1  0.232026  0.767974  0.000000  1
  O  O7  1  0.103997  0.584199  0.577458  1
  O  O8  1  0.983500  0.014826  0.169108  1
  O  O9  1  0.415801  0.896003  0.422542  1
  O  O10  1  0.497716  0.503489  0.181535  1
  O  O11  1  0.105044  0.578734  0.079073  1
  O  O12  1  0.914733  0.409241  0.415572  1
  O  O13  1  0.985174  0.016500  0.830892  1
  O  O14  1  0.590759  0.085266  0.584428  1
  O  O15  1  0.496511  0.502284  0.818465  1
  O  O16  1  0.570444  0.099901  0.080096  1
  O  O17  1  0.421266  0.894956  0.920927  1
  O  O18  1  0.900099  0.429556  0.919904  1
