# generated using pymatgen
data_CaYb12Ce(DySb6)2
_symmetry_space_group_name_H-M   'P 1'
_cell_length_a   9.42299390
_cell_length_b   9.42463291
_cell_length_c   9.42251830
_cell_angle_alpha   89.75038553
_cell_angle_beta   90.12005811
_cell_angle_gamma   90.29803755
_symmetry_Int_Tables_number   1
_chemical_formula_structural   CaYb12Ce(DySb6)2
_chemical_formula_sum   'Ca1 Yb12 Ce1 Dy2 Sb12'
_cell_volume   836.77638116
_cell_formula_units_Z   1
loop_
 _symmetry_equiv_pos_site_id
 _symmetry_equiv_pos_as_xyz
  1  'x, y, z'
loop_
 _atom_site_type_symbol
 _atom_site_label
 _atom_site_symmetry_multiplicity
 _atom_site_fract_x
 _atom_site_fract_y
 _atom_site_fract_z
 _atom_site_occupancy
  Ca  Ca0  1  0.926433  0.072675  0.571449  1
  Yb  Yb1  1  0.821424  0.320719  0.179446  1
  Yb  Yb2  1  0.930052  0.932444  0.927535  1
  Yb  Yb3  1  0.824966  0.674995  0.326830  1
  Yb  Yb4  1  0.175052  0.825873  0.325077  1
  Yb  Yb5  1  0.173699  0.173663  0.175380  1
  Yb  Yb6  1  0.327423  0.828525  0.672259  1
  Yb  Yb7  1  0.068455  0.425403  0.567561  1
  Yb  Yb8  1  0.323292  0.176309  0.822562  1
  Yb  Yb9  1  0.674448  0.324299  0.824644  1
  Yb  Yb10  1  0.676866  0.677563  0.675872  1
  Yb  Yb11  1  0.572776  0.068560  0.431798  1
  Yb  Yb12  1  0.431919  0.568966  0.070251  1
  Ce  Ce13  1  0.071754  0.573359  0.926317  1
  Dy  Dy14  1  0.430004  0.426930  0.430046  1
  Dy  Dy15  1  0.572398  0.931664  0.072637  1
  Sb  Sb16  1  0.742942  0.374357  0.499781  1
  Sb  Sb17  1  0.868514  0.997780  0.247654  1
  Sb  Sb18  1  0.002203  0.747376  0.631406  1
  Sb  Sb19  1  0.251444  0.131518  0.498641  1
  Sb  Sb20  1  0.130649  0.500611  0.246027  1
  Sb  Sb21  1  0.001260  0.256954  0.874457  1
  Sb  Sb22  1  0.254018  0.868976  0.999927  1
  Sb  Sb23  1  0.370128  0.501071  0.746023  1
  Sb  Sb24  1  0.498692  0.246275  0.129430  1
  Sb  Sb25  1  0.753876  0.629233  0.000151  1
  Sb  Sb26  1  0.626082  0.998610  0.758111  1
  Sb  Sb27  1  0.499234  0.745293  0.368727  1
