# generated using pymatgen
data_Y3Al12Os3Rh
_symmetry_space_group_name_H-M   'P 1'
_cell_length_a   8.82629313
_cell_length_b   8.83402779
_cell_length_c   9.56772700
_cell_angle_alpha   90.00000000
_cell_angle_beta   90.00000000
_cell_angle_gamma   120.02898429
_symmetry_Int_Tables_number   1
_chemical_formula_structural   Y3Al12Os3Rh
_chemical_formula_sum   'Y6 Al24 Os6 Rh2'
_cell_volume   645.87667095
_cell_formula_units_Z   2
loop_
 _symmetry_equiv_pos_site_id
 _symmetry_equiv_pos_as_xyz
  1  'x, y, z'
loop_
 _atom_site_type_symbol
 _atom_site_label
 _atom_site_symmetry_multiplicity
 _atom_site_fract_x
 _atom_site_fract_y
 _atom_site_fract_z
 _atom_site_occupancy
  Y  Y0  1  0.195635  0.384025  0.250000  1
  Y  Y1  1  0.804365  0.615975  0.750000  1
  Y  Y2  1  0.611813  0.805906  0.250000  1
  Y  Y3  1  0.388187  0.194094  0.750000  1
  Y  Y4  1  0.195635  0.811610  0.250000  1
  Y  Y5  1  0.804365  0.188390  0.750000  1
  Al  Al6  1  0.333407  0.666704  0.019731  1
  Al  Al7  1  0.666593  0.333296  0.980269  1
  Al  Al8  1  0.666593  0.333296  0.519731  1
  Al  Al9  1  0.333407  0.666704  0.480269  1
  Al  Al10  1  0.164984  0.326834  0.576749  1
  Al  Al11  1  0.835016  0.673166  0.423251  1
  Al  Al12  1  0.671968  0.835984  0.575983  1
  Al  Al13  1  0.835016  0.673166  0.076749  1
  Al  Al14  1  0.328032  0.164016  0.424017  1
  Al  Al15  1  0.164984  0.326834  0.923251  1
  Al  Al16  1  0.164984  0.838149  0.576749  1
  Al  Al17  1  0.328032  0.164016  0.075983  1
  Al  Al18  1  0.835016  0.161851  0.423251  1
  Al  Al19  1  0.671968  0.835984  0.924017  1
  Al  Al20  1  0.835016  0.161851  0.076749  1
  Al  Al21  1  0.164984  0.838149  0.923251  1
  Al  Al22  1  0.562150  0.124099  0.250000  1
  Al  Al23  1  0.437850  0.875901  0.750000  1
  Al  Al24  1  0.879944  0.439972  0.250000  1
  Al  Al25  1  0.120056  0.560028  0.750000  1
  Al  Al26  1  0.562150  0.438051  0.250000  1
  Al  Al27  1  0.437850  0.561949  0.750000  1
  Al  Al28  1  0.000814  0.000407  0.250000  1
  Al  Al29  1  0.999186  0.999593  0.750000  1
  Os  Os30  1  0.500000  0.000000  0.000000  1
  Os  Os31  1  0.500000  0.000000  0.500000  1
  Os  Os32  1  0.500000  0.500000  0.000000  1
  Os  Os33  1  0.500000  0.500000  0.500000  1
  Os  Os34  1  0.000000  0.000000  0.000000  1
  Os  Os35  1  0.000000  0.000000  0.500000  1
  Rh  Rh36  1  0.000000  0.500000  0.000000  1
  Rh  Rh37  1  0.000000  0.500000  0.500000  1
