# generated using pymatgen
data_HoEr5MgCo17P12
_symmetry_space_group_name_H-M   'P 1'
_cell_length_a   3.69897700
_cell_length_b   10.53739700
_cell_length_c   12.19164000
_cell_angle_alpha   90.00000000
_cell_angle_beta   90.00000000
_cell_angle_gamma   90.00000000
_symmetry_Int_Tables_number   1
_chemical_formula_structural   HoEr5MgCo17P12
_chemical_formula_sum   'Ho1 Er5 Mg1 Co17 P12'
_cell_volume   475.20073490
_cell_formula_units_Z   1
loop_
 _symmetry_equiv_pos_site_id
 _symmetry_equiv_pos_as_xyz
  1  'x, y, z'
loop_
 _atom_site_type_symbol
 _atom_site_label
 _atom_site_symmetry_multiplicity
 _atom_site_fract_x
 _atom_site_fract_y
 _atom_site_fract_z
 _atom_site_occupancy
  Ho  Ho0  1  0.750000  0.250000  0.474461  1
  Er  Er1  1  0.250000  0.750000  0.522178  1
  Er  Er2  1  0.250000  0.928026  0.792460  1
  Er  Er3  1  0.250000  0.571974  0.792460  1
  Er  Er4  1  0.750000  0.067757  0.205242  1
  Er  Er5  1  0.750000  0.432243  0.205242  1
  Mg  Mg6  1  0.250000  0.250000  0.846748  1
  Co  Co7  1  0.750000  0.750000  0.162261  1
  Co  Co8  1  0.250000  0.250000  0.295250  1
  Co  Co9  1  0.750000  0.750000  0.703768  1
  Co  Co10  1  0.750000  0.250000  0.013762  1
  Co  Co11  1  0.250000  0.750000  0.987591  1
  Co  Co12  1  0.250000  0.421118  0.007237  1
  Co  Co13  1  0.250000  0.078882  0.007237  1
  Co  Co14  1  0.750000  0.586920  0.998341  1
  Co  Co15  1  0.750000  0.913080  0.998341  1
  Co  Co16  1  0.250000  0.454464  0.566767  1
  Co  Co17  1  0.250000  0.045536  0.566767  1
  Co  Co18  1  0.750000  0.548170  0.429515  1
  Co  Co19  1  0.750000  0.951830  0.429515  1
  Co  Co20  1  0.250000  0.870294  0.291607  1
  Co  Co21  1  0.250000  0.629706  0.291607  1
  Co  Co22  1  0.750000  0.126537  0.706765  1
  Co  Co23  1  0.750000  0.373463  0.706765  1
  P  P24  1  0.250000  0.250000  0.116655  1
  P  P25  1  0.750000  0.750000  0.883212  1
  P  P26  1  0.250000  0.250000  0.645702  1
  P  P27  1  0.750000  0.750000  0.346048  1
  P  P28  1  0.250000  0.439854  0.382117  1
  P  P29  1  0.250000  0.060146  0.382117  1
  P  P30  1  0.750000  0.561565  0.614504  1
  P  P31  1  0.750000  0.938435  0.614504  1
  P  P32  1  0.250000  0.900733  0.110571  1
  P  P33  1  0.250000  0.599267  0.110571  1
  P  P34  1  0.750000  0.086428  0.896058  1
  P  P35  1  0.750000  0.413572  0.896058  1
