# generated using pymatgen
data_TbBi(SeO4)3
_symmetry_space_group_name_H-M   'P 1'
_cell_length_a   10.12819014
_cell_length_b   10.12819193
_cell_length_c   10.12819152
_cell_angle_alpha   55.92147879
_cell_angle_beta   55.92147781
_cell_angle_gamma   55.92147730
_symmetry_Int_Tables_number   1
_chemical_formula_structural   TbBi(SeO4)3
_chemical_formula_sum   'Tb2 Bi2 Se6 O24'
_cell_volume   665.21060860
_cell_formula_units_Z   2
loop_
 _symmetry_equiv_pos_site_id
 _symmetry_equiv_pos_as_xyz
  1  'x, y, z'
loop_
 _atom_site_type_symbol
 _atom_site_label
 _atom_site_symmetry_multiplicity
 _atom_site_fract_x
 _atom_site_fract_y
 _atom_site_fract_z
 _atom_site_occupancy
  Tb  Tb0  1  0.857625  0.857625  0.857625  1
  Tb  Tb1  1  0.142375  0.142375  0.142375  1
  Bi  Bi2  1  0.649854  0.649854  0.649854  1
  Bi  Bi3  1  0.350146  0.350146  0.350146  1
  Se  Se4  1  0.533668  0.243789  0.973147  1
  Se  Se5  1  0.973147  0.533668  0.243789  1
  Se  Se6  1  0.243789  0.973147  0.533668  1
  Se  Se7  1  0.466332  0.756211  0.026853  1
  Se  Se8  1  0.026853  0.466332  0.756211  1
  Se  Se9  1  0.756211  0.026853  0.466332  1
  O  O10  1  0.382973  0.203050  0.995067  1
  O  O11  1  0.995067  0.382973  0.203050  1
  O  O12  1  0.203050  0.995067  0.382973  1
  O  O13  1  0.617027  0.796950  0.004933  1
  O  O14  1  0.004933  0.617027  0.796950  1
  O  O15  1  0.796950  0.004933  0.617027  1
  O  O16  1  0.518063  0.201339  0.166925  1
  O  O17  1  0.166925  0.518063  0.201339  1
  O  O18  1  0.201339  0.166925  0.518063  1
  O  O19  1  0.481937  0.798661  0.833075  1
  O  O20  1  0.833075  0.481937  0.798661  1
  O  O21  1  0.798661  0.833075  0.481937  1
  O  O22  1  0.724852  0.114165  0.887866  1
  O  O23  1  0.887866  0.724852  0.114165  1
  O  O24  1  0.114165  0.887866  0.724852  1
  O  O25  1  0.275148  0.885835  0.112134  1
  O  O26  1  0.112134  0.275148  0.885835  1
  O  O27  1  0.885835  0.112134  0.275148  1
  O  O28  1  0.510009  0.447636  0.848311  1
  O  O29  1  0.848311  0.510009  0.447636  1
  O  O30  1  0.447636  0.848311  0.510009  1
  O  O31  1  0.489991  0.552364  0.151689  1
  O  O32  1  0.151689  0.489991  0.552364  1
  O  O33  1  0.552364  0.151689  0.489991  1
