# generated using pymatgen
data_Ho2Mn3P7(Ir2W)3
_symmetry_space_group_name_H-M   'P 1'
_cell_length_a   9.43438300
_cell_length_b   9.43438332
_cell_length_c   3.88820400
_cell_angle_alpha   90.00000000
_cell_angle_beta   90.00000000
_cell_angle_gamma   120.00000753
_symmetry_Int_Tables_number   1
_chemical_formula_structural   Ho2Mn3P7(Ir2W)3
_chemical_formula_sum   'Ho2 Mn3 P7 Ir6 W3'
_cell_volume   299.71374608
_cell_formula_units_Z   1
loop_
 _symmetry_equiv_pos_site_id
 _symmetry_equiv_pos_as_xyz
  1  'x, y, z'
loop_
 _atom_site_type_symbol
 _atom_site_label
 _atom_site_symmetry_multiplicity
 _atom_site_fract_x
 _atom_site_fract_y
 _atom_site_fract_z
 _atom_site_occupancy
  Ho  Ho0  1  0.666667  0.333333  0.000000  1
  Ho  Ho1  1  0.333333  0.666667  0.500000  1
  Mn  Mn2  1  0.268162  0.158660  0.000000  1
  Mn  Mn3  1  0.841340  0.109503  0.000000  1
  Mn  Mn4  1  0.890497  0.731838  0.000000  1
  P  P5  1  0.297498  0.407254  0.000000  1
  P  P6  1  0.592746  0.890243  0.000000  1
  P  P7  1  0.109757  0.702502  0.000000  1
  P  P8  1  0.397880  0.121034  0.500000  1
  P  P9  1  0.878966  0.276845  0.500000  1
  P  P10  1  0.723155  0.602120  0.500000  1
  P  P11  1  0.000000  0.000000  0.000000  1
  Ir  Ir12  1  0.069070  0.432759  0.000000  1
  Ir  Ir13  1  0.567241  0.636311  0.000000  1
  Ir  Ir14  1  0.363689  0.930930  0.000000  1
  Ir  Ir15  1  0.446067  0.387024  0.500000  1
  Ir  Ir16  1  0.612976  0.059043  0.500000  1
  Ir  Ir17  1  0.940957  0.553933  0.500000  1
  W  W18  1  0.095395  0.209517  0.500000  1
  W  W19  1  0.790483  0.885877  0.500000  1
  W  W20  1  0.114123  0.904605  0.500000  1
