# generated using pymatgen
data_NaNd(MgPb)2
_symmetry_space_group_name_H-M   'P 1'
_cell_length_a   7.89312600
_cell_length_b   4.81237800
_cell_length_c   8.91809200
_cell_angle_alpha   90.00000000
_cell_angle_beta   90.00000000
_cell_angle_gamma   90.00000000
_symmetry_Int_Tables_number   1
_chemical_formula_structural   NaNd(MgPb)2
_chemical_formula_sum   'Na2 Nd2 Mg4 Pb4'
_cell_volume   338.75110193
_cell_formula_units_Z   2
loop_
 _symmetry_equiv_pos_site_id
 _symmetry_equiv_pos_as_xyz
  1  'x, y, z'
loop_
 _atom_site_type_symbol
 _atom_site_label
 _atom_site_symmetry_multiplicity
 _atom_site_fract_x
 _atom_site_fract_y
 _atom_site_fract_z
 _atom_site_occupancy
  Na  Na0  1  0.977715  0.750000  0.181433  1
  Na  Na1  1  0.477715  0.750000  0.318567  1
  Nd  Nd2  1  0.521133  0.249999  0.690248  1
  Nd  Nd3  1  0.021134  0.249999  0.809751  1
  Mg  Mg4  1  0.645200  0.249999  0.072125  1
  Mg  Mg5  1  0.145200  0.249999  0.427875  1
  Mg  Mg6  1  0.852225  0.750000  0.559643  1
  Mg  Mg7  1  0.352226  0.750000  0.940357  1
  Pb  Pb8  1  0.265257  0.249999  0.107157  1
  Pb  Pb9  1  0.765258  0.249999  0.392843  1
  Pb  Pb10  1  0.238470  0.750000  0.620325  1
  Pb  Pb11  1  0.738470  0.750000  0.879675  1
