# generated using pymatgen
data_NaGeH5
_symmetry_space_group_name_H-M   'P 1'
_cell_length_a   4.58236383
_cell_length_b   4.54053535
_cell_length_c   7.36471707
_cell_angle_alpha   120.17716122
_cell_angle_beta   98.63490038
_cell_angle_gamma   82.41261175
_symmetry_Int_Tables_number   1
_chemical_formula_structural   NaGeH5
_chemical_formula_sum   'Na1 Ge1 H5'
_cell_volume   130.67759745
_cell_formula_units_Z   1
loop_
 _symmetry_equiv_pos_site_id
 _symmetry_equiv_pos_as_xyz
  1  'x, y, z'
loop_
 _atom_site_type_symbol
 _atom_site_label
 _atom_site_symmetry_multiplicity
 _atom_site_fract_x
 _atom_site_fract_y
 _atom_site_fract_z
 _atom_site_occupancy
  Na  Na0  1  0.882337  0.859006  0.331971  1
  Ge  Ge1  1  0.392785  0.384570  0.371603  1
  H  H2  1  0.217303  0.686450  0.559141  1
  H  H3  1  0.634011  0.264141  0.812032  1
  H  H4  1  0.407412  0.616024  0.264323  1
  H  H5  1  0.761664  0.193511  0.859014  1
  H  H6  1  0.089638  0.233392  0.226643  1
