# generated using pymatgen
data_Ti8SnS16
_symmetry_space_group_name_H-M   'P 1'
_cell_length_a   6.84761400
_cell_length_b   6.84761464
_cell_length_c   13.62243900
_cell_angle_alpha   90.00000000
_cell_angle_beta   90.00000000
_cell_angle_gamma   119.99998723
_symmetry_Int_Tables_number   1
_chemical_formula_structural   Ti8SnS16
_chemical_formula_sum   'Ti8 Sn1 S16'
_cell_volume   553.17703555
_cell_formula_units_Z   1
loop_
 _symmetry_equiv_pos_site_id
 _symmetry_equiv_pos_as_xyz
  1  'x, y, z'
loop_
 _atom_site_type_symbol
 _atom_site_label
 _atom_site_symmetry_multiplicity
 _atom_site_fract_x
 _atom_site_fract_y
 _atom_site_fract_z
 _atom_site_occupancy
  Ti  Ti0  1  0.502742  0.497258  0.741456  1
  Ti  Ti1  1  0.497258  0.502742  0.258544  1
  Ti  Ti2  1  0.502742  0.005484  0.741456  1
  Ti  Ti3  1  0.497258  0.994516  0.258544  1
  Ti  Ti4  1  0.994516  0.497258  0.741456  1
  Ti  Ti5  1  0.005484  0.502742  0.258544  1
  Ti  Ti6  1  0.000000  0.000000  0.734266  1
  Ti  Ti7  1  0.000000  0.000000  0.265734  1
  Sn  Sn8  1  0.000000  0.000000  0.000000  1
  S  S9  1  0.834645  0.669291  0.153205  1
  S  S10  1  0.831980  0.663961  0.635588  1
  S  S11  1  0.834645  0.165355  0.153205  1
  S  S12  1  0.831980  0.168020  0.635588  1
  S  S13  1  0.333333  0.666667  0.152026  1
  S  S14  1  0.333333  0.666667  0.641488  1
  S  S15  1  0.330709  0.165355  0.153205  1
  S  S16  1  0.336039  0.168020  0.635588  1
  S  S17  1  0.669291  0.834645  0.846795  1
  S  S18  1  0.663961  0.831980  0.364412  1
  S  S19  1  0.666667  0.333333  0.847974  1
  S  S20  1  0.666667  0.333333  0.358512  1
  S  S21  1  0.165355  0.834645  0.846795  1
  S  S22  1  0.168020  0.831980  0.364412  1
  S  S23  1  0.165355  0.330709  0.846795  1
  S  S24  1  0.168020  0.336039  0.364412  1
