# generated using pymatgen
data_Ho3V(Co4P3)2
_symmetry_space_group_name_H-M   'P 1'
_cell_length_a   3.67806800
_cell_length_b   10.53062400
_cell_length_c   12.18505100
_cell_angle_alpha   90.00000000
_cell_angle_beta   90.00000000
_cell_angle_gamma   90.00000000
_symmetry_Int_Tables_number   1
_chemical_formula_structural   Ho3V(Co4P3)2
_chemical_formula_sum   'Ho6 V2 Co16 P12'
_cell_volume   471.95567417
_cell_formula_units_Z   2
loop_
 _symmetry_equiv_pos_site_id
 _symmetry_equiv_pos_as_xyz
  1  'x, y, z'
loop_
 _atom_site_type_symbol
 _atom_site_label
 _atom_site_symmetry_multiplicity
 _atom_site_fract_x
 _atom_site_fract_y
 _atom_site_fract_z
 _atom_site_occupancy
  Ho  Ho0  1  0.000000  0.500000  0.523449  1
  Ho  Ho1  1  0.500000  0.000000  0.476551  1
  Ho  Ho2  1  0.500000  0.818784  0.204421  1
  Ho  Ho3  1  0.500000  0.181216  0.204421  1
  Ho  Ho4  1  0.000000  0.681216  0.795579  1
  Ho  Ho5  1  0.000000  0.318784  0.795579  1
  V  V6  1  0.500000  0.500000  0.154447  1
  V  V7  1  0.000000  0.000000  0.845553  1
  Co  Co8  1  0.000000  0.500000  0.986837  1
  Co  Co9  1  0.500000  0.000000  0.013163  1
  Co  Co10  1  0.500000  0.295929  0.431247  1
  Co  Co11  1  0.500000  0.704071  0.431247  1
  Co  Co12  1  0.000000  0.204071  0.568753  1
  Co  Co13  1  0.000000  0.795929  0.568753  1
  Co  Co14  1  0.500000  0.878581  0.707502  1
  Co  Co15  1  0.500000  0.121419  0.707502  1
  Co  Co16  1  0.000000  0.621419  0.292498  1
  Co  Co17  1  0.000000  0.378581  0.292498  1
  Co  Co18  1  0.500000  0.332393  0.992910  1
  Co  Co19  1  0.500000  0.667607  0.992910  1
  Co  Co20  1  0.000000  0.167607  0.007090  1
  Co  Co21  1  0.000000  0.832393  0.007090  1
  Co  Co22  1  0.500000  0.500000  0.701730  1
  Co  Co23  1  0.000000  0.000000  0.298270  1
  P  P24  1  0.500000  0.311446  0.616004  1
  P  P25  1  0.500000  0.688554  0.616004  1
  P  P26  1  0.000000  0.188554  0.383996  1
  P  P27  1  0.000000  0.811446  0.383996  1
  P  P28  1  0.500000  0.500000  0.881836  1
  P  P29  1  0.000000  0.000000  0.118164  1
  P  P30  1  0.500000  0.845806  0.891619  1
  P  P31  1  0.500000  0.154194  0.891619  1
  P  P32  1  0.000000  0.654194  0.108381  1
  P  P33  1  0.000000  0.345806  0.108381  1
  P  P34  1  0.500000  0.500000  0.347423  1
  P  P35  1  0.000000  0.000000  0.652577  1
