# generated using pymatgen
data_Nb6VCo4RuC2
_symmetry_space_group_name_H-M   'P 1'
_cell_length_a   8.12584554
_cell_length_b   8.12584559
_cell_length_c   8.19117200
_cell_angle_alpha   59.73369446
_cell_angle_beta   59.73369427
_cell_angle_gamma   59.51964692
_symmetry_Int_Tables_number   1
_chemical_formula_structural   Nb6VCo4RuC2
_chemical_formula_sum   'Nb12 V2 Co8 Ru2 C4'
_cell_volume   379.50677513
_cell_formula_units_Z   2
loop_
 _symmetry_equiv_pos_site_id
 _symmetry_equiv_pos_as_xyz
  1  'x, y, z'
loop_
 _atom_site_type_symbol
 _atom_site_label
 _atom_site_symmetry_multiplicity
 _atom_site_fract_x
 _atom_site_fract_y
 _atom_site_fract_z
 _atom_site_occupancy
  Nb  Nb0  1  0.696257  0.305407  0.691914  1
  Nb  Nb1  1  0.944593  0.553743  0.558086  1
  Nb  Nb2  1  0.553743  0.944593  0.943577  1
  Nb  Nb3  1  0.944593  0.553743  0.943577  1
  Nb  Nb4  1  0.559085  0.559085  0.940915  1
  Nb  Nb5  1  0.947586  0.947586  0.552414  1
  Nb  Nb6  1  0.690915  0.690915  0.309085  1
  Nb  Nb7  1  0.305407  0.696257  0.691914  1
  Nb  Nb8  1  0.696257  0.305407  0.306423  1
  Nb  Nb9  1  0.302414  0.302414  0.697586  1
  Nb  Nb10  1  0.553743  0.944593  0.558086  1
  Nb  Nb11  1  0.305407  0.696257  0.306423  1
  V  V12  1  0.625000  0.125000  0.125000  1
  V  V13  1  0.125000  0.625000  0.125000  1
  Co  Co14  1  0.330187  0.330187  0.321320  1
  Co  Co15  1  0.227329  0.916209  0.928231  1
  Co  Co16  1  0.916209  0.227329  0.928231  1
  Co  Co17  1  0.919813  0.919813  0.231691  1
  Co  Co18  1  0.333791  0.022671  0.321769  1
  Co  Co19  1  0.330187  0.330187  0.018309  1
  Co  Co20  1  0.022671  0.333791  0.321769  1
  Co  Co21  1  0.919813  0.919813  0.928680  1
  Ru  Ru22  1  0.125000  0.125000  0.125000  1
  Ru  Ru23  1  0.125000  0.125000  0.625000  1
  C  C24  1  0.625000  0.625000  0.625000  1
  C  C25  1  0.125000  0.625000  0.625000  1
  C  C26  1  0.625000  0.125000  0.625000  1
  C  C27  1  0.625000  0.625000  0.125000  1
