# generated using pymatgen
data_NaSm6PtBr12
_symmetry_space_group_name_H-M   'P 1'
_cell_length_a   9.43582884
_cell_length_b   9.49700299
_cell_length_c   9.48464748
_cell_angle_alpha   106.76026880
_cell_angle_beta   107.88058783
_cell_angle_gamma   107.10545949
_symmetry_Int_Tables_number   1
_chemical_formula_structural   NaSm6PtBr12
_chemical_formula_sum   'Na1 Sm6 Pt1 Br12'
_cell_volume   702.92412209
_cell_formula_units_Z   1
loop_
 _symmetry_equiv_pos_site_id
 _symmetry_equiv_pos_as_xyz
  1  'x, y, z'
loop_
 _atom_site_type_symbol
 _atom_site_label
 _atom_site_symmetry_multiplicity
 _atom_site_fract_x
 _atom_site_fract_y
 _atom_site_fract_z
 _atom_site_occupancy
  Na  Na0  1  0.500000  0.500000  0.500000  1
  Sm  Sm1  1  0.113893  0.324908  0.029510  1
  Sm  Sm2  1  0.315898  0.027919  0.108616  1
  Sm  Sm3  1  0.028275  0.113941  0.324149  1
  Sm  Sm4  1  0.971725  0.886060  0.675851  1
  Sm  Sm5  1  0.684102  0.972082  0.891384  1
  Sm  Sm6  1  0.886107  0.675092  0.970490  1
  Pt  Pt7  1  0.000000  0.000000  0.000000  1
  Br  Br8  1  0.217631  0.683491  0.073458  1
  Br  Br9  1  0.453395  0.368484  0.152617  1
  Br  Br10  1  0.680848  0.071816  0.216924  1
  Br  Br11  1  0.930044  0.784395  0.318428  1
  Br  Br12  1  0.152218  0.451547  0.369087  1
  Br  Br13  1  0.368455  0.150632  0.450463  1
  Br  Br14  1  0.631545  0.849368  0.549538  1
  Br  Br15  1  0.847782  0.548453  0.630913  1
  Br  Br16  1  0.069956  0.215605  0.681573  1
  Br  Br17  1  0.319152  0.928184  0.783076  1
  Br  Br18  1  0.546605  0.631516  0.847384  1
  Br  Br19  1  0.782369  0.316510  0.926542  1
