# generated using pymatgen
data_Li2ErLu15(InRh2)2
_symmetry_space_group_name_H-M   'P 1'
_cell_length_a   9.48109238
_cell_length_b   9.45507521
_cell_length_c   9.45369628
_cell_angle_alpha   60.04767893
_cell_angle_beta   59.86387305
_cell_angle_gamma   59.81942030
_symmetry_Int_Tables_number   1
_chemical_formula_structural   Li2ErLu15(InRh2)2
_chemical_formula_sum   'Li2 Er1 Lu15 In2 Rh4'
_cell_volume   598.02829094
_cell_formula_units_Z   1
loop_
 _symmetry_equiv_pos_site_id
 _symmetry_equiv_pos_as_xyz
  1  'x, y, z'
loop_
 _atom_site_type_symbol
 _atom_site_label
 _atom_site_symmetry_multiplicity
 _atom_site_fract_x
 _atom_site_fract_y
 _atom_site_fract_z
 _atom_site_occupancy
  Li  Li0  1  0.427618  0.718512  0.426522  1
  Li  Li1  1  0.427522  0.426465  0.718571  1
  Er  Er2  1  0.187224  0.811429  0.189628  1
  Lu  Lu3  1  0.187017  0.189791  0.811249  1
  Lu  Lu4  1  0.439794  0.060311  0.059903  1
  Lu  Lu5  1  0.434430  0.063475  0.435788  1
  Lu  Lu6  1  0.065663  0.435871  0.063478  1
  Lu  Lu7  1  0.651339  0.051328  0.645886  1
  Lu  Lu8  1  0.183593  0.816406  0.816258  1
  Lu  Lu9  1  0.065558  0.063565  0.436106  1
  Lu  Lu10  1  0.808047  0.191890  0.191445  1
  Lu  Lu11  1  0.811891  0.811550  0.189650  1
  Lu  Lu12  1  0.651715  0.645459  0.051011  1
  Lu  Lu13  1  0.654716  0.652498  0.652813  1
  Lu  Lu14  1  0.064193  0.435192  0.435643  1
  Lu  Lu15  1  0.040102  0.652171  0.652597  1
  Lu  Lu16  1  0.812124  0.189686  0.811559  1
  Lu  Lu17  1  0.434634  0.435516  0.063401  1
  In  In18  1  0.745935  0.420355  0.420390  1
  In  In19  1  0.414083  0.419903  0.420008  1
  Rh  Rh20  1  0.856791  0.426615  0.860339  1
  Rh  Rh21  1  0.855857  0.860462  0.427193  1
  Rh  Rh22  1  0.428012  0.860763  0.859927  1
  Rh  Rh23  1  0.852144  0.860788  0.860636  1
