# generated using pymatgen
data_Ho2Lu3Rh2
_symmetry_space_group_name_H-M   'P 1'
_cell_length_a   6.33856666
_cell_length_b   7.10777909
_cell_length_c   8.46548679
_cell_angle_alpha   97.10427988
_cell_angle_beta   111.98580823
_cell_angle_gamma   89.99999535
_symmetry_Int_Tables_number   1
_chemical_formula_structural   Ho2Lu3Rh2
_chemical_formula_sum   'Ho4 Lu6 Rh4'
_cell_volume   350.50050156
_cell_formula_units_Z   2
loop_
 _symmetry_equiv_pos_site_id
 _symmetry_equiv_pos_as_xyz
  1  'x, y, z'
loop_
 _atom_site_type_symbol
 _atom_site_label
 _atom_site_symmetry_multiplicity
 _atom_site_fract_x
 _atom_site_fract_y
 _atom_site_fract_z
 _atom_site_occupancy
  Ho  Ho0  1  0.521550  0.081667  0.809440  1
  Ho  Ho1  1  0.478450  0.918333  0.190560  1
  Ho  Ho2  1  0.712110  0.418333  0.190560  1
  Ho  Ho3  1  0.287890  0.581667  0.809440  1
  Lu  Lu4  1  0.294845  0.313220  0.437242  1
  Lu  Lu5  1  0.705155  0.686780  0.562758  1
  Lu  Lu6  1  0.857604  0.186780  0.562758  1
  Lu  Lu7  1  0.142396  0.813220  0.437242  1
  Lu  Lu8  1  0.077042  0.250000  0.000000  1
  Lu  Lu9  1  0.922958  0.750000  0.000000  1
  Rh  Rh10  1  0.316543  0.573491  0.222068  1
  Rh  Rh11  1  0.683457  0.426509  0.777932  1
  Rh  Rh12  1  0.094476  0.926509  0.777932  1
  Rh  Rh13  1  0.905524  0.073491  0.222068  1
