# generated using pymatgen
data_Yb2Si7(PdPt3)3
_symmetry_space_group_name_H-M   'P 1'
_cell_length_a   9.94902700
_cell_length_b   9.94902764
_cell_length_c   3.92330700
_cell_angle_alpha   90.00000000
_cell_angle_beta   90.00000000
_cell_angle_gamma   120.00000784
_symmetry_Int_Tables_number   1
_chemical_formula_structural   Yb2Si7(PdPt3)3
_chemical_formula_sum   'Yb2 Si7 Pd3 Pt9'
_cell_volume   336.31337358
_cell_formula_units_Z   1
loop_
 _symmetry_equiv_pos_site_id
 _symmetry_equiv_pos_as_xyz
  1  'x, y, z'
loop_
 _atom_site_type_symbol
 _atom_site_label
 _atom_site_symmetry_multiplicity
 _atom_site_fract_x
 _atom_site_fract_y
 _atom_site_fract_z
 _atom_site_occupancy
  Yb  Yb0  1  0.000000  0.000000  0.000000  1
  Yb  Yb1  1  0.333333  0.666667  0.500000  1
  Si  Si2  1  0.265939  0.219225  0.500000  1
  Si  Si3  1  0.780775  0.046715  0.500000  1
  Si  Si4  1  0.953285  0.734061  0.500000  1
  Si  Si5  1  0.550211  0.629980  0.000000  1
  Si  Si6  1  0.370020  0.920230  0.000000  1
  Si  Si7  1  0.079770  0.449789  0.000000  1
  Si  Si8  1  0.666667  0.333333  0.000000  1
  Pd  Pd9  1  0.894329  0.463549  0.500000  1
  Pd  Pd10  1  0.569219  0.105671  0.500000  1
  Pd  Pd11  1  0.536451  0.430781  0.500000  1
  Pt  Pt12  1  0.216099  0.946230  0.500000  1
  Pt  Pt13  1  0.053770  0.269871  0.500000  1
  Pt  Pt14  1  0.730129  0.783901  0.500000  1
  Pt  Pt15  1  0.299112  0.407696  0.000000  1
  Pt  Pt16  1  0.592304  0.891416  0.000000  1
  Pt  Pt17  1  0.108584  0.700888  0.000000  1
  Pt  Pt18  1  0.391597  0.173858  0.000000  1
  Pt  Pt19  1  0.826142  0.217739  0.000000  1
  Pt  Pt20  1  0.782261  0.608403  0.000000  1
