# generated using pymatgen
data_Li8As3PPd12
_symmetry_space_group_name_H-M   'P 1'
_cell_length_a   7.32838422
_cell_length_b   7.32838370
_cell_length_c   7.32838325
_cell_angle_alpha   90.57524265
_cell_angle_beta   89.42475593
_cell_angle_gamma   89.42476540
_symmetry_Int_Tables_number   1
_chemical_formula_structural   Li8As3PPd12
_chemical_formula_sum   'Li8 As3 P1 Pd12'
_cell_volume   393.51246408
_cell_formula_units_Z   1
loop_
 _symmetry_equiv_pos_site_id
 _symmetry_equiv_pos_as_xyz
  1  'x, y, z'
loop_
 _atom_site_type_symbol
 _atom_site_label
 _atom_site_symmetry_multiplicity
 _atom_site_fract_x
 _atom_site_fract_y
 _atom_site_fract_z
 _atom_site_occupancy
  Li  Li0  1  0.283804  0.284643  0.283230  1
  Li  Li1  1  0.033230  0.465357  0.533804  1
  Li  Li2  1  0.534643  0.033804  0.466770  1
  Li  Li3  1  0.465223  0.534777  0.034777  1
  Li  Li4  1  0.216770  0.716196  0.784643  1
  Li  Li5  1  0.966196  0.966770  0.965357  1
  Li  Li6  1  0.784777  0.215223  0.715223  1
  Li  Li7  1  0.715357  0.783230  0.216196  1
  As  As8  1  0.874657  0.375000  0.124657  1
  As  As9  1  0.375343  0.125343  0.875000  1
  As  As10  1  0.625000  0.624657  0.625343  1
  P  P11  1  0.125000  0.875000  0.375000  1
  Pd  Pd12  1  0.168479  0.080991  0.615944  1
  Pd  Pd13  1  0.408136  0.375000  0.658136  1
  Pd  Pd14  1  0.081521  0.634056  0.169009  1
  Pd  Pd15  1  0.919009  0.115944  0.331521  1
  Pd  Pd16  1  0.330991  0.918479  0.134056  1
  Pd  Pd17  1  0.657340  0.407340  0.375000  1
  Pd  Pd18  1  0.592660  0.875000  0.842660  1
  Pd  Pd19  1  0.625000  0.158136  0.091864  1
  Pd  Pd20  1  0.365944  0.669009  0.418479  1
  Pd  Pd21  1  0.884056  0.831521  0.580991  1
  Pd  Pd22  1  0.125000  0.342660  0.907340  1
  Pd  Pd23  1  0.841864  0.591864  0.875000  1
