# generated using pymatgen
data_YPa3Se20
_symmetry_space_group_name_H-M   'P 1'
_cell_length_a   4.07241648
_cell_length_b   9.78501876
_cell_length_c   17.68675609
_cell_angle_alpha   90.65528394
_cell_angle_beta   90.62334007
_cell_angle_gamma   94.00380712
_symmetry_Int_Tables_number   1
_chemical_formula_structural   YPa3Se20
_chemical_formula_sum   'Y1 Pa3 Se20'
_cell_volume   702.97946773
_cell_formula_units_Z   1
loop_
 _symmetry_equiv_pos_site_id
 _symmetry_equiv_pos_as_xyz
  1  'x, y, z'
loop_
 _atom_site_type_symbol
 _atom_site_label
 _atom_site_symmetry_multiplicity
 _atom_site_fract_x
 _atom_site_fract_y
 _atom_site_fract_z
 _atom_site_occupancy
  Y  Y0  1  0.351009  0.251015  0.599818  1
  Pa  Pa1  1  0.670989  0.742340  0.418260  1
  Pa  Pa2  1  0.885226  0.757017  0.926521  1
  Pa  Pa3  1  0.116702  0.248230  0.073450  1
  Se  Se4  1  0.647400  0.422050  0.154662  1
  Se  Se5  1  0.374564  0.725463  0.040226  1
  Se  Se6  1  0.185945  0.739904  0.525959  1
  Se  Se7  1  0.183828  0.922588  0.347328  1
  Se  Se8  1  0.989640  0.999054  0.001842  1
  Se  Se9  1  0.594365  0.757295  0.769852  1
  Se  Se10  1  0.620250  0.277211  0.964008  1
  Se  Se11  1  0.037291  0.252377  0.745303  1
  Se  Se12  1  0.509397  0.454176  0.481747  1
  Se  Se13  1  0.485308  0.045491  0.478514  1
  Se  Se14  1  0.354888  0.578795  0.849738  1
  Se  Se15  1  0.012119  0.509146  0.004981  1
  Se  Se16  1  0.127504  0.569389  0.340522  1
  Se  Se17  1  0.403331  0.931865  0.853372  1
  Se  Se18  1  0.822832  0.069754  0.662357  1
  Se  Se19  1  0.904890  0.741380  0.261723  1
  Se  Se20  1  0.598197  0.070340  0.147339  1
  Se  Se21  1  0.881693  0.432738  0.663994  1
  Se  Se22  1  0.851499  0.255366  0.457739  1
  Se  Se23  1  0.391135  0.241808  0.230746  1
