# generated using pymatgen
data_LiTh3(Ga8Pt3)3
_symmetry_space_group_name_H-M   'P 1'
_cell_length_a   7.61520527
_cell_length_b   7.66315914
_cell_length_c   13.36801894
_cell_angle_alpha   84.62694489
_cell_angle_beta   79.01122899
_cell_angle_gamma   60.25434106
_symmetry_Int_Tables_number   1
_chemical_formula_structural   LiTh3(Ga8Pt3)3
_chemical_formula_sum   'Li1 Th3 Ga24 Pt9'
_cell_volume   664.90156647
_cell_formula_units_Z   1
loop_
 _symmetry_equiv_pos_site_id
 _symmetry_equiv_pos_as_xyz
  1  'x, y, z'
loop_
 _atom_site_type_symbol
 _atom_site_label
 _atom_site_symmetry_multiplicity
 _atom_site_fract_x
 _atom_site_fract_y
 _atom_site_fract_z
 _atom_site_occupancy
  Li  Li0  1  0.261847  0.499840  0.213993  1
  Th  Th1  1  0.395639  0.169008  0.809986  1
  Th  Th2  1  0.602890  0.832324  0.190465  1
  Th  Th3  1  0.731484  0.496934  0.809688  1
  Ga  Ga4  1  0.689867  0.833755  0.940634  1
  Ga  Ga5  1  0.310272  0.182487  0.064916  1
  Ga  Ga6  1  0.144208  0.835674  0.557323  1
  Ga  Ga7  1  0.854777  0.166817  0.437669  1
  Ga  Ga8  1  0.482316  0.166016  0.555154  1
  Ga  Ga9  1  0.520653  0.833549  0.443740  1
  Ga  Ga10  1  0.217757  0.177065  0.321584  1
  Ga  Ga11  1  0.784485  0.833862  0.670869  1
  Ga  Ga12  1  0.435741  0.507714  0.669680  1
  Ga  Ga13  1  0.555440  0.491071  0.322214  1
  Ga  Ga14  1  0.109787  0.160849  0.670464  1
  Ga  Ga15  1  0.904086  0.828917  0.324185  1
  Ga  Ga16  1  0.347644  0.502993  0.949505  1
  Ga  Ga17  1  0.629299  0.500589  0.064360  1
  Ga  Ga18  1  0.016840  0.163947  0.949655  1
  Ga  Ga19  1  0.992662  0.818613  0.059805  1
  Ga  Ga20  1  0.187580  0.499422  0.441363  1
  Ga  Ga21  1  0.814559  0.498062  0.555358  1
  Ga  Ga22  1  0.734896  0.163796  0.179942  1
  Ga  Ga23  1  0.263953  0.834421  0.818039  1
  Ga  Ga24  1  0.064628  0.632965  0.815880  1
  Ga  Ga25  1  0.939049  0.370626  0.181070  1
  Ga  Ga26  1  0.865235  0.034341  0.815771  1
  Ga  Ga27  1  0.141914  0.961348  0.181509  1
  Pt  Pt28  1  0.119184  0.496520  0.637351  1
  Pt  Pt29  1  0.876068  0.505490  0.359994  1
  Pt  Pt30  1  0.662571  0.167274  0.996300  1
  Pt  Pt31  1  0.342408  0.836767  0.998303  1
  Pt  Pt32  1  0.545808  0.159746  0.359516  1
  Pt  Pt33  1  0.459693  0.833626  0.639130  1
  Pt  Pt34  1  0.779741  0.172999  0.637568  1
  Pt  Pt35  1  0.221380  0.831045  0.360756  1
  Pt  Pt36  1  0.993636  0.499525  0.996259  1
