# generated using pymatgen
data_Tb7Ho3(In2Ni)4
_symmetry_space_group_name_H-M   'P 1'
_cell_length_a   8.06023547
_cell_length_b   17.96733310
_cell_length_c   3.58835800
_cell_angle_alpha   90.00000000
_cell_angle_beta   90.00000000
_cell_angle_gamma   89.96038556
_symmetry_Int_Tables_number   1
_chemical_formula_structural   Tb7Ho3(In2Ni)4
_chemical_formula_sum   'Tb7 Ho3 In8 Ni4'
_cell_volume   519.66923845
_cell_formula_units_Z   1
loop_
 _symmetry_equiv_pos_site_id
 _symmetry_equiv_pos_as_xyz
  1  'x, y, z'
loop_
 _atom_site_type_symbol
 _atom_site_label
 _atom_site_symmetry_multiplicity
 _atom_site_fract_x
 _atom_site_fract_y
 _atom_site_fract_z
 _atom_site_occupancy
  Tb  Tb0  1  0.500501  0.500096  0.000000  1
  Tb  Tb1  1  0.999010  0.999679  0.000000  1
  Tb  Tb2  1  0.744509  0.280185  0.000000  1
  Tb  Tb3  1  0.255772  0.719914  0.000000  1
  Tb  Tb4  1  0.755635  0.779430  0.000000  1
  Tb  Tb5  1  0.244764  0.220733  0.000000  1
  Tb  Tb6  1  0.617281  0.088367  0.000000  1
  Ho  Ho7  1  0.382019  0.910954  0.000000  1
  Ho  Ho8  1  0.883207  0.588836  0.000000  1
  Ho  Ho9  1  0.117496  0.411494  0.000000  1
  In  In10  1  0.701804  0.931449  0.500000  1
  In  In11  1  0.295630  0.067862  0.500000  1
  In  In12  1  0.798332  0.432927  0.500000  1
  In  In13  1  0.202550  0.567204  0.500000  1
  In  In14  1  0.575226  0.652364  0.500000  1
  In  In15  1  0.424667  0.347813  0.500000  1
  In  In16  1  0.926782  0.153027  0.500000  1
  In  In17  1  0.074761  0.847053  0.500000  1
  Ni  Ni18  1  0.523046  0.196621  0.500000  1
  Ni  Ni19  1  0.476310  0.803793  0.500000  1
  Ni  Ni20  1  0.976872  0.695807  0.500000  1
  Ni  Ni21  1  0.023825  0.304393  0.500000  1
