# generated using pymatgen
data_Ho4ScTa3(Co4P3)4
_symmetry_space_group_name_H-M   'P 1'
_cell_length_a   12.12204615
_cell_length_b   12.12204623
_cell_length_c   3.67224100
_cell_angle_alpha   90.00000000
_cell_angle_beta   90.00000000
_cell_angle_gamma   119.98212270
_symmetry_Int_Tables_number   1
_chemical_formula_structural   Ho4ScTa3(Co4P3)4
_chemical_formula_sum   'Ho4 Sc1 Ta3 Co16 P12'
_cell_volume   467.40341690
_cell_formula_units_Z   1
loop_
 _symmetry_equiv_pos_site_id
 _symmetry_equiv_pos_as_xyz
  1  'x, y, z'
loop_
 _atom_site_type_symbol
 _atom_site_label
 _atom_site_symmetry_multiplicity
 _atom_site_fract_x
 _atom_site_fract_y
 _atom_site_fract_z
 _atom_site_occupancy
  Ho  Ho0  1  0.666723  0.333438  0.000000  1
  Ho  Ho1  1  0.333438  0.666723  0.000000  1
  Ho  Ho2  1  0.182430  0.999507  0.500000  1
  Ho  Ho3  1  0.999507  0.182430  0.500000  1
  Sc  Sc4  1  0.815501  0.815501  0.500000  1
  Ta  Ta5  1  0.445861  0.445861  0.000000  1
  Ta  Ta6  1  0.556183  0.999651  0.000000  1
  Ta  Ta7  1  0.999651  0.556183  0.000000  1
  Co  Co8  1  0.873426  0.354785  0.500000  1
  Co  Co9  1  0.646224  0.520120  0.500000  1
  Co  Co10  1  0.481495  0.126628  0.500000  1
  Co  Co11  1  0.354785  0.873426  0.500000  1
  Co  Co12  1  0.520120  0.646224  0.500000  1
  Co  Co13  1  0.126628  0.481495  0.500000  1
  Co  Co14  1  0.802763  0.175950  0.000000  1
  Co  Co15  1  0.823026  0.628681  0.000000  1
  Co  Co16  1  0.373903  0.197435  0.000000  1
  Co  Co17  1  0.175950  0.802763  0.000000  1
  Co  Co18  1  0.628681  0.823026  0.000000  1
  Co  Co19  1  0.197435  0.373903  0.000000  1
  Co  Co20  1  0.280100  0.280100  0.500000  1
  Co  Co21  1  0.720880  0.998019  0.500000  1
  Co  Co22  1  0.998019  0.720880  0.500000  1
  Co  Co23  1  0.997809  0.997809  0.000000  1
  P  P24  1  0.688768  0.167842  0.500000  1
  P  P25  1  0.831583  0.520224  0.500000  1
  P  P26  1  0.480268  0.311951  0.500000  1
  P  P27  1  0.167842  0.688768  0.500000  1
  P  P28  1  0.520224  0.831583  0.500000  1
  P  P29  1  0.311951  0.480268  0.500000  1
  P  P30  1  0.176296  0.176296  0.000000  1
  P  P31  1  0.822093  0.996197  0.000000  1
  P  P32  1  0.996197  0.822093  0.000000  1
  P  P33  1  0.648979  0.648979  0.000000  1
  P  P34  1  0.355291  0.999972  0.000000  1
  P  P35  1  0.999972  0.355291  0.000000  1
