# generated using pymatgen
data_Ta5Ti7Sn9Au
_symmetry_space_group_name_H-M   'P 1'
_cell_length_a   9.34900995
_cell_length_b   9.34901055
_cell_length_c   5.69529417
_cell_angle_alpha   90.40686181
_cell_angle_beta   89.59314211
_cell_angle_gamma   119.83883388
_symmetry_Int_Tables_number   1
_chemical_formula_structural   Ta5Ti7Sn9Au
_chemical_formula_sum   'Ta5 Ti7 Sn9 Au1'
_cell_volume   431.78390905
_cell_formula_units_Z   1
loop_
 _symmetry_equiv_pos_site_id
 _symmetry_equiv_pos_as_xyz
  1  'x, y, z'
loop_
 _atom_site_type_symbol
 _atom_site_label
 _atom_site_symmetry_multiplicity
 _atom_site_fract_x
 _atom_site_fract_y
 _atom_site_fract_z
 _atom_site_occupancy
  Ta  Ta0  1  0.500000  0.000000  0.500000  1
  Ta  Ta1  1  0.500000  0.500000  0.000000  1
  Ta  Ta2  1  0.000000  0.500000  0.000000  1
  Ta  Ta3  1  0.000000  0.500000  0.500000  1
  Ta  Ta4  1  0.500000  0.000000  0.000000  1
  Ti  Ti5  1  0.844810  0.684897  0.760966  1
  Ti  Ti6  1  0.158338  0.841662  0.247008  1
  Ti  Ti7  1  0.684897  0.844810  0.239034  1
  Ti  Ti8  1  0.315103  0.155190  0.760966  1
  Ti  Ti9  1  0.841662  0.158338  0.752992  1
  Ti  Ti10  1  0.155190  0.315103  0.239034  1
  Ti  Ti11  1  0.500000  0.500000  0.500000  1
  Sn  Sn12  1  0.202425  0.399701  0.741671  1
  Sn  Sn13  1  0.800325  0.199675  0.251477  1
  Sn  Sn14  1  0.399701  0.202425  0.258329  1
  Sn  Sn15  1  0.600299  0.797575  0.741671  1
  Sn  Sn16  1  0.199675  0.800325  0.748523  1
  Sn  Sn17  1  0.797575  0.600299  0.258329  1
  Sn  Sn18  1  0.665450  0.334550  0.755818  1
  Sn  Sn19  1  0.334550  0.665450  0.244182  1
  Sn  Sn20  1  0.000000  0.000000  0.000000  1
  Au  Au21  1  0.000000  0.000000  0.500000  1
