# generated using pymatgen
data_Er12Fe4CoBi
_symmetry_space_group_name_H-M   'P 1'
_cell_length_a   8.24597424
_cell_length_b   8.24597393
_cell_length_c   8.24597477
_cell_angle_alpha   111.22205193
_cell_angle_beta   110.76040929
_cell_angle_gamma   106.47253279
_symmetry_Int_Tables_number   1
_chemical_formula_structural   Er12Fe4CoBi
_chemical_formula_sum   'Er12 Fe4 Co1 Bi1'
_cell_volume   430.73426782
_cell_formula_units_Z   1
loop_
 _symmetry_equiv_pos_site_id
 _symmetry_equiv_pos_as_xyz
  1  'x, y, z'
loop_
 _atom_site_type_symbol
 _atom_site_label
 _atom_site_symmetry_multiplicity
 _atom_site_fract_x
 _atom_site_fract_y
 _atom_site_fract_z
 _atom_site_occupancy
  Er  Er0  1  0.283493  0.183855  0.467348  1
  Er  Er1  1  0.716507  0.816145  0.532652  1
  Er  Er2  1  0.283493  0.816145  0.099638  1
  Er  Er3  1  0.716507  0.183855  0.900362  1
  Er  Er4  1  0.615515  0.309527  0.305988  1
  Er  Er5  1  0.384485  0.690473  0.694012  1
  Er  Er6  1  0.003540  0.309527  0.694012  1
  Er  Er7  1  0.996460  0.690473  0.305988  1
  Er  Er8  1  0.209694  0.405685  0.195991  1
  Er  Er9  1  0.790306  0.594315  0.804009  1
  Er  Er10  1  0.209694  0.013702  0.804009  1
  Er  Er11  1  0.790306  0.986298  0.195991  1
  Fe  Fe12  1  0.000000  0.383812  0.383812  1
  Fe  Fe13  1  0.000000  0.616188  0.616188  1
  Fe  Fe14  1  0.392924  0.892924  0.500000  1
  Fe  Fe15  1  0.607076  0.107076  0.500000  1
  Co  Co16  1  0.000000  0.000000  0.000000  1
  Bi  Bi17  1  0.500000  0.500000  0.000000  1
