# generated using pymatgen
data_Ac3(OsO5)2
_symmetry_space_group_name_H-M   'P 1'
_cell_length_a   5.80063251
_cell_length_b   5.80063827
_cell_length_c   7.14268931
_cell_angle_alpha   108.25235436
_cell_angle_beta   108.25242020
_cell_angle_gamma   90.67617507
_symmetry_Int_Tables_number   1
_chemical_formula_structural   Ac3(OsO5)2
_chemical_formula_sum   'Ac3 Os2 O10'
_cell_volume   215.14177675
_cell_formula_units_Z   1
loop_
 _symmetry_equiv_pos_site_id
 _symmetry_equiv_pos_as_xyz
  1  'x, y, z'
loop_
 _atom_site_type_symbol
 _atom_site_label
 _atom_site_symmetry_multiplicity
 _atom_site_fract_x
 _atom_site_fract_y
 _atom_site_fract_z
 _atom_site_occupancy
  Ac  Ac0  1  0.499999  0.499999  0.000000  1
  Ac  Ac1  1  0.757216  0.242784  0.500000  1
  Ac  Ac2  1  0.242784  0.757216  0.500000  1
  Os  Os3  1  0.131241  0.131240  0.175123  1
  Os  Os4  1  0.868759  0.868760  0.824876  1
  O  O5  1  0.862808  0.862809  0.104065  1
  O  O6  1  0.905637  0.371275  0.208128  1
  O  O7  1  0.371275  0.905637  0.208128  1
  O  O8  1  0.398363  0.398364  0.280195  1
  O  O9  1  0.177193  0.177192  0.472083  1
  O  O10  1  0.822806  0.822807  0.527916  1
  O  O11  1  0.601638  0.601637  0.719805  1
  O  O12  1  0.628725  0.094363  0.791871  1
  O  O13  1  0.094363  0.628725  0.791871  1
  O  O14  1  0.137192  0.137191  0.895936  1
