# generated using pymatgen
data_LiHo9Tl10
_symmetry_space_group_name_H-M   'P 1'
_cell_length_a   5.31216252
_cell_length_b   10.73777487
_cell_length_c   11.23957984
_cell_angle_alpha   103.54845243
_cell_angle_beta   77.30057222
_cell_angle_gamma   120.03137488
_symmetry_Int_Tables_number   1
_chemical_formula_structural   LiHo9Tl10
_chemical_formula_sum   'Li1 Ho9 Tl10'
_cell_volume   535.57664965
_cell_formula_units_Z   1
loop_
 _symmetry_equiv_pos_site_id
 _symmetry_equiv_pos_as_xyz
  1  'x, y, z'
loop_
 _atom_site_type_symbol
 _atom_site_label
 _atom_site_symmetry_multiplicity
 _atom_site_fract_x
 _atom_site_fract_y
 _atom_site_fract_z
 _atom_site_occupancy
  Li  Li0  1  0.000000  0.500000  0.000000  1
  Ho  Ho1  1  0.801212  0.600492  0.598907  1
  Ho  Ho2  1  0.605237  0.204779  0.197779  1
  Ho  Ho3  1  0.394763  0.795221  0.802221  1
  Ho  Ho4  1  0.596071  0.691150  0.192390  1
  Ho  Ho5  1  0.198788  0.399508  0.401093  1
  Ho  Ho6  1  0.403929  0.308850  0.807610  1
  Ho  Ho7  1  0.000000  0.000000  0.000000  1
  Ho  Ho8  1  0.202397  0.900070  0.396626  1
  Ho  Ho9  1  0.797603  0.099930  0.603374  1
  Tl  Tl10  1  0.698004  0.647210  0.901819  1
  Tl  Tl11  1  0.500716  0.251321  0.502023  1
  Tl  Tl12  1  0.706046  0.157888  0.902129  1
  Tl  Tl13  1  0.293954  0.842112  0.097871  1
  Tl  Tl14  1  0.499284  0.748679  0.497977  1
  Tl  Tl15  1  0.096627  0.450986  0.706187  1
  Tl  Tl16  1  0.301996  0.352790  0.098181  1
  Tl  Tl17  1  0.898812  0.048917  0.300229  1
  Tl  Tl18  1  0.101188  0.951083  0.699771  1
  Tl  Tl19  1  0.903373  0.549014  0.293813  1
