# generated using pymatgen
data_Y6B14RuW
_symmetry_space_group_name_H-M   'P 1'
_cell_length_a   8.12803765
_cell_length_b   8.12803662
_cell_length_c   9.40997500
_cell_angle_alpha   90.00000000
_cell_angle_beta   90.00000000
_cell_angle_gamma   155.11121156
_symmetry_Int_Tables_number   1
_chemical_formula_structural   Y6B14RuW
_chemical_formula_sum   'Y6 B14 Ru1 W1'
_cell_volume   261.63493990
_cell_formula_units_Z   1
loop_
 _symmetry_equiv_pos_site_id
 _symmetry_equiv_pos_as_xyz
  1  'x, y, z'
loop_
 _atom_site_type_symbol
 _atom_site_label
 _atom_site_symmetry_multiplicity
 _atom_site_fract_x
 _atom_site_fract_y
 _atom_site_fract_z
 _atom_site_occupancy
  Y  Y0  1  0.894123  0.105877  0.937472  1
  Y  Y1  1  0.106993  0.893007  0.058618  1
  Y  Y2  1  0.754809  0.245191  0.250000  1
  Y  Y3  1  0.243377  0.756623  0.750000  1
  Y  Y4  1  0.894123  0.105877  0.562528  1
  Y  Y5  1  0.106993  0.893007  0.441382  1
  B  B6  1  0.544897  0.455103  0.250000  1
  B  B7  1  0.459035  0.540965  0.750000  1
  B  B8  1  0.521336  0.478664  0.903022  1
  B  B9  1  0.480338  0.519662  0.091280  1
  B  B10  1  0.480338  0.519662  0.408720  1
  B  B11  1  0.521336  0.478664  0.596978  1
  B  B12  1  0.631518  0.368482  0.848460  1
  B  B13  1  0.365267  0.634733  0.147302  1
  B  B14  1  0.726511  0.273489  0.965142  1
  B  B15  1  0.272028  0.727972  0.032191  1
  B  B16  1  0.272028  0.727972  0.467809  1
  B  B17  1  0.726511  0.273489  0.534858  1
  B  B18  1  0.631518  0.368482  0.651540  1
  B  B19  1  0.365267  0.634733  0.352698  1
  Ru  Ru20  1  0.054391  0.945609  0.750000  1
  W  W21  1  0.947265  0.052735  0.250000  1
