# generated using pymatgen
data_Tb2Al8GaIrRh2
_symmetry_space_group_name_H-M   'P 1'
_cell_length_a   7.54053056
_cell_length_b   7.54053005
_cell_length_c   9.52454451
_cell_angle_alpha   89.96744431
_cell_angle_beta   89.96744103
_cell_angle_gamma   119.24328824
_symmetry_Int_Tables_number   1
_chemical_formula_structural   Tb2Al8GaIrRh2
_chemical_formula_sum   'Tb4 Al16 Ga2 Ir2 Rh4'
_cell_volume   472.54117418
_cell_formula_units_Z   2
loop_
 _symmetry_equiv_pos_site_id
 _symmetry_equiv_pos_as_xyz
  1  'x, y, z'
loop_
 _atom_site_type_symbol
 _atom_site_label
 _atom_site_symmetry_multiplicity
 _atom_site_fract_x
 _atom_site_fract_y
 _atom_site_fract_z
 _atom_site_occupancy
  Tb  Tb0  1  0.994708  0.674192  0.250725  1
  Tb  Tb1  1  0.005292  0.325808  0.749275  1
  Tb  Tb2  1  0.674192  0.994708  0.250725  1
  Tb  Tb3  1  0.325808  0.005292  0.749275  1
  Al  Al4  1  0.002053  0.336168  0.073304  1
  Al  Al5  1  0.997947  0.663832  0.926696  1
  Al  Al6  1  0.997678  0.663831  0.573244  1
  Al  Al7  1  0.336169  0.002322  0.426756  1
  Al  Al8  1  0.002322  0.336169  0.426756  1
  Al  Al9  1  0.663831  0.997678  0.573244  1
  Al  Al10  1  0.663832  0.997947  0.926696  1
  Al  Al11  1  0.336168  0.002053  0.073304  1
  Al  Al12  1  0.334041  0.334041  0.552176  1
  Al  Al13  1  0.665959  0.665959  0.447824  1
  Al  Al14  1  0.665671  0.665671  0.052643  1
  Al  Al15  1  0.334329  0.334329  0.947357  1
  Al  Al16  1  0.337624  0.549637  0.249622  1
  Al  Al17  1  0.662376  0.450363  0.750378  1
  Al  Al18  1  0.549637  0.337624  0.249622  1
  Al  Al19  1  0.450363  0.662376  0.750378  1
  Ga  Ga20  1  0.133260  0.133260  0.250111  1
  Ga  Ga21  1  0.866740  0.866740  0.749889  1
  Ir  Ir22  1  0.328342  0.671658  0.500000  1
  Ir  Ir23  1  0.671658  0.328342  0.500000  1
  Rh  Rh24  1  0.671495  0.328505  0.000000  1
  Rh  Rh25  1  0.328505  0.671495  0.000000  1
  Rh  Rh26  1  0.000000  0.000000  0.000000  1
  Rh  Rh27  1  0.000000  0.000000  0.500000  1
