# generated using pymatgen
data_Pr2Sm2Y2CoI10
_symmetry_space_group_name_H-M   'P 1'
_cell_length_a   7.82516103
_cell_length_b   9.87665151
_cell_length_c   9.82572634
_cell_angle_alpha   107.01567239
_cell_angle_beta   96.10667479
_cell_angle_gamma   105.02052422
_symmetry_Int_Tables_number   1
_chemical_formula_structural   Pr2Sm2Y2CoI10
_chemical_formula_sum   'Pr2 Sm2 Y2 Co1 I10'
_cell_volume   687.55515319
_cell_formula_units_Z   1
loop_
 _symmetry_equiv_pos_site_id
 _symmetry_equiv_pos_as_xyz
  1  'x, y, z'
loop_
 _atom_site_type_symbol
 _atom_site_label
 _atom_site_symmetry_multiplicity
 _atom_site_fract_x
 _atom_site_fract_y
 _atom_site_fract_z
 _atom_site_occupancy
  Pr  Pr0  1  0.885962  0.958270  0.232608  1
  Pr  Pr1  1  0.114038  0.041730  0.767392  1
  Sm  Sm2  1  0.031450  0.715833  0.914668  1
  Sm  Sm3  1  0.968550  0.284167  0.085332  1
  Y  Y4  1  0.656661  0.877545  0.838146  1
  Y  Y5  1  0.343339  0.122455  0.161854  1
  Co  Co6  1  0.000000  0.000000  0.000000  1
  I  I7  1  0.648159  0.553730  0.730207  1
  I  I8  1  0.351841  0.446270  0.269793  1
  I  I9  1  0.735050  0.911990  0.544715  1
  I  I10  1  0.264950  0.088010  0.455285  1
  I  I11  1  0.084409  0.374964  0.819884  1
  I  I12  1  0.915591  0.625036  0.180116  1
  I  I13  1  0.450822  0.818369  0.090612  1
  I  I14  1  0.549178  0.181631  0.909388  1
  I  I15  1  0.232477  0.741963  0.657301  1
  I  I16  1  0.767523  0.258037  0.342699  1
