# generated using pymatgen
data_TiCr5(SiRu2)6
_symmetry_space_group_name_H-M   'P 1'
_cell_length_a   4.20482900
_cell_length_b   5.94417800
_cell_length_c   12.58085400
_cell_angle_alpha   90.00004205
_cell_angle_beta   89.99890845
_cell_angle_gamma   90.00003290
_symmetry_Int_Tables_number   1
_chemical_formula_structural   TiCr5(SiRu2)6
_chemical_formula_sum   'Ti1 Cr5 Si6 Ru12'
_cell_volume   314.44903567
_cell_formula_units_Z   1
loop_
 _symmetry_equiv_pos_site_id
 _symmetry_equiv_pos_as_xyz
  1  'x, y, z'
loop_
 _atom_site_type_symbol
 _atom_site_label
 _atom_site_symmetry_multiplicity
 _atom_site_fract_x
 _atom_site_fract_y
 _atom_site_fract_z
 _atom_site_occupancy
  Ti  Ti0  1  0.000000  0.500001  0.000000  1
  Cr  Cr1  1  0.499842  0.000006  0.167480  1
  Cr  Cr2  1  0.999794  0.499996  0.334089  1
  Cr  Cr3  1  0.500000  0.000000  0.500000  1
  Cr  Cr4  1  0.000207  0.500006  0.665911  1
  Cr  Cr5  1  0.500157  0.999994  0.832520  1
  Si  Si6  1  0.000000  0.000000  0.000000  1
  Si  Si7  1  0.499766  0.500002  0.168080  1
  Si  Si8  1  0.999701  0.999998  0.334039  1
  Si  Si9  1  0.500000  0.500001  0.500000  1
  Si  Si10  1  0.000300  0.000002  0.665961  1
  Si  Si11  1  0.500235  0.500000  0.831920  1
  Ru  Ru12  1  0.499999  0.246211  0.000000  1
  Ru  Ru13  1  0.500001  0.753789  0.000000  1
  Ru  Ru14  1  0.999801  0.248175  0.168378  1
  Ru  Ru15  1  0.999803  0.751824  0.168379  1
  Ru  Ru16  1  0.499733  0.250752  0.333799  1
  Ru  Ru17  1  0.499731  0.749247  0.333798  1
  Ru  Ru18  1  0.000001  0.249446  0.500001  1
  Ru  Ru19  1  0.999999  0.750554  0.499999  1
  Ru  Ru20  1  0.500270  0.250753  0.666202  1
  Ru  Ru21  1  0.500268  0.749248  0.666201  1
  Ru  Ru22  1  0.000198  0.248176  0.831621  1
  Ru  Ru23  1  0.000200  0.751825  0.831622  1
