# generated using pymatgen
data_YbYFeIr3
_symmetry_space_group_name_H-M   'P 1'
_cell_length_a   5.14374530
_cell_length_b   5.14374554
_cell_length_c   5.14374599
_cell_angle_alpha   64.15126818
_cell_angle_beta   64.15126674
_cell_angle_gamma   64.15127117
_symmetry_Int_Tables_number   1
_chemical_formula_structural   YbYFeIr3
_chemical_formula_sum   'Yb1 Y1 Fe1 Ir3'
_cell_volume   105.02005878
_cell_formula_units_Z   1
loop_
 _symmetry_equiv_pos_site_id
 _symmetry_equiv_pos_as_xyz
  1  'x, y, z'
loop_
 _atom_site_type_symbol
 _atom_site_label
 _atom_site_symmetry_multiplicity
 _atom_site_fract_x
 _atom_site_fract_y
 _atom_site_fract_z
 _atom_site_occupancy
  Yb  Yb0  1  0.250598  0.250598  0.250598  1
  Y  Y1  1  0.000068  0.000068  0.000068  1
  Fe  Fe2  1  0.625022  0.625022  0.625022  1
  Ir  Ir3  1  0.624086  0.624086  0.126140  1
  Ir  Ir4  1  0.624086  0.126140  0.624086  1
  Ir  Ir5  1  0.126140  0.624086  0.624086  1
