# generated using pymatgen
data_YPa2Ga5
_symmetry_space_group_name_H-M   'P 1'
_cell_length_a   6.08408100
_cell_length_b   9.52624000
_cell_length_c   11.73689800
_cell_angle_alpha   90.00000000
_cell_angle_beta   90.00000000
_cell_angle_gamma   90.00000000
_symmetry_Int_Tables_number   1
_chemical_formula_structural   YPa2Ga5
_chemical_formula_sum   'Y4 Pa8 Ga20'
_cell_volume   680.25201432
_cell_formula_units_Z   4
loop_
 _symmetry_equiv_pos_site_id
 _symmetry_equiv_pos_as_xyz
  1  'x, y, z'
loop_
 _atom_site_type_symbol
 _atom_site_label
 _atom_site_symmetry_multiplicity
 _atom_site_fract_x
 _atom_site_fract_y
 _atom_site_fract_z
 _atom_site_occupancy
  Y  Y0  1  0.858407  0.750000  0.072864  1
  Y  Y1  1  0.641593  0.750000  0.572864  1
  Y  Y2  1  0.141593  0.250000  0.927136  1
  Y  Y3  1  0.358407  0.250000  0.427136  1
  Pa  Pa4  1  0.879107  0.501726  0.351904  1
  Pa  Pa5  1  0.620893  0.998274  0.851904  1
  Pa  Pa6  1  0.120893  0.001726  0.648096  1
  Pa  Pa7  1  0.379107  0.498274  0.148096  1
  Pa  Pa8  1  0.120893  0.498274  0.648096  1
  Pa  Pa9  1  0.379107  0.001726  0.148096  1
  Pa  Pa10  1  0.879107  0.998274  0.351904  1
  Pa  Pa11  1  0.620893  0.501726  0.851904  1
  Ga  Ga12  1  0.869653  0.052832  0.091701  1
  Ga  Ga13  1  0.630347  0.447168  0.591701  1
  Ga  Ga14  1  0.130347  0.552832  0.908299  1
  Ga  Ga15  1  0.369653  0.947168  0.408299  1
  Ga  Ga16  1  0.130347  0.947168  0.908299  1
  Ga  Ga17  1  0.369653  0.552832  0.408299  1
  Ga  Ga18  1  0.869653  0.447168  0.091701  1
  Ga  Ga19  1  0.630347  0.052832  0.591701  1
  Ga  Ga20  1  0.155186  0.750000  0.265487  1
  Ga  Ga21  1  0.344814  0.750000  0.765487  1
  Ga  Ga22  1  0.844814  0.250000  0.734513  1
  Ga  Ga23  1  0.655186  0.250000  0.234513  1
  Ga  Ga24  1  0.392540  0.750000  0.994104  1
  Ga  Ga25  1  0.107460  0.750000  0.494104  1
  Ga  Ga26  1  0.607460  0.250000  0.005896  1
  Ga  Ga27  1  0.892540  0.250000  0.505896  1
  Ga  Ga28  1  0.595886  0.750000  0.292713  1
  Ga  Ga29  1  0.904114  0.750000  0.792713  1
  Ga  Ga30  1  0.404114  0.250000  0.707287  1
  Ga  Ga31  1  0.095886  0.250000  0.207287  1
