# generated using pymatgen
data_Pu4Ga4NiIr3
_symmetry_space_group_name_H-M   'P 1'
_cell_length_a   4.40713300
_cell_length_b   7.09292448
_cell_length_c   7.79365100
_cell_angle_alpha   90.08857397
_cell_angle_beta   90.00000000
_cell_angle_gamma   90.00000000
_symmetry_Int_Tables_number   1
_chemical_formula_structural   Pu4Ga4NiIr3
_chemical_formula_sum   'Pu4 Ga4 Ni1 Ir3'
_cell_volume   243.62504244
_cell_formula_units_Z   1
loop_
 _symmetry_equiv_pos_site_id
 _symmetry_equiv_pos_as_xyz
  1  'x, y, z'
loop_
 _atom_site_type_symbol
 _atom_site_label
 _atom_site_symmetry_multiplicity
 _atom_site_fract_x
 _atom_site_fract_y
 _atom_site_fract_z
 _atom_site_occupancy
  Pu  Pu0  1  0.250000  0.043173  0.808940  1
  Pu  Pu1  1  0.250000  0.524657  0.688405  1
  Pu  Pu2  1  0.750000  0.973001  0.192361  1
  Pu  Pu3  1  0.750000  0.474641  0.312146  1
  Ga  Ga4  1  0.250000  0.156467  0.426015  1
  Ga  Ga5  1  0.250000  0.664231  0.062639  1
  Ga  Ga6  1  0.750000  0.837293  0.580958  1
  Ga  Ga7  1  0.750000  0.346231  0.929773  1
  Ni  Ni8  1  0.750000  0.726017  0.894740  1
  Ir  Ir9  1  0.250000  0.757004  0.390855  1
  Ir  Ir10  1  0.250000  0.272336  0.104824  1
  Ir  Ir11  1  0.750000  0.224950  0.608344  1
