# generated using pymatgen
data_CaYbPd4
_symmetry_space_group_name_H-M   'P 1'
_cell_length_a   5.45424635
_cell_length_b   5.45424577
_cell_length_c   5.45424700
_cell_angle_alpha   59.99999861
_cell_angle_beta   60.00000213
_cell_angle_gamma   60.00000140
_symmetry_Int_Tables_number   1
_chemical_formula_structural   CaYbPd4
_chemical_formula_sum   'Ca1 Yb1 Pd4'
_cell_volume   114.73324158
_cell_formula_units_Z   1
loop_
 _symmetry_equiv_pos_site_id
 _symmetry_equiv_pos_as_xyz
  1  'x, y, z'
loop_
 _atom_site_type_symbol
 _atom_site_label
 _atom_site_symmetry_multiplicity
 _atom_site_fract_x
 _atom_site_fract_y
 _atom_site_fract_z
 _atom_site_occupancy
  Ca  Ca0  1  0.500000  0.500000  0.500000  1
  Yb  Yb1  1  0.750000  0.750000  0.750000  1
  Pd  Pd2  1  0.124928  0.625215  0.124928  1
  Pd  Pd3  1  0.124928  0.124928  0.625215  1
  Pd  Pd4  1  0.625215  0.124928  0.124928  1
  Pd  Pd5  1  0.124928  0.124928  0.124928  1
