# generated using pymatgen
data_Na4ErGe2P10Ir19
_symmetry_space_group_name_H-M   'P 1'
_cell_length_a   12.70547039
_cell_length_b   12.78666567
_cell_length_c   3.96691600
_cell_angle_alpha   90.00000000
_cell_angle_beta   90.00000000
_cell_angle_gamma   120.20180054
_symmetry_Int_Tables_number   1
_chemical_formula_structural   Na4ErGe2P10Ir19
_chemical_formula_sum   'Na4 Er1 Ge2 P10 Ir19'
_cell_volume   556.98688633
_cell_formula_units_Z   1
loop_
 _symmetry_equiv_pos_site_id
 _symmetry_equiv_pos_as_xyz
  1  'x, y, z'
loop_
 _atom_site_type_symbol
 _atom_site_label
 _atom_site_symmetry_multiplicity
 _atom_site_fract_x
 _atom_site_fract_y
 _atom_site_fract_z
 _atom_site_occupancy
  Na  Na0  1  0.664484  0.330728  0.000000  1
  Na  Na1  1  0.825265  0.823970  0.500000  1
  Na  Na2  1  0.173779  0.996822  0.500000  1
  Na  Na3  1  0.000612  0.177334  0.500000  1
  Er  Er4  1  0.335638  0.666929  0.000000  1
  Ge  Ge5  1  0.646952  0.645663  0.000000  1
  Ge  Ge6  1  0.354976  0.002707  0.000000  1
  P  P7  1  0.688074  0.174547  0.500000  1
  P  P8  1  0.820410  0.509021  0.500000  1
  P  P9  1  0.483357  0.310729  0.500000  1
  P  P10  1  0.177026  0.691833  0.500000  1
  P  P11  1  0.521159  0.830332  0.500000  1
  P  P12  1  0.310343  0.481755  0.500000  1
  P  P13  1  0.997342  0.355872  0.000000  1
  P  P14  1  0.175697  0.177259  0.000000  1
  P  P15  1  0.826275  0.005018  0.000000  1
  P  P16  1  0.997822  0.814517  0.000000  1
  Ir  Ir17  1  0.805628  0.183001  0.000000  1
  Ir  Ir18  1  0.822592  0.612353  0.000000  1
  Ir  Ir19  1  0.380339  0.208496  0.000000  1
  Ir  Ir20  1  0.178151  0.793043  0.000000  1
  Ir  Ir21  1  0.621200  0.826471  0.000000  1
  Ir  Ir22  1  0.191498  0.377024  0.000000  1
  Ir  Ir23  1  0.446664  0.458807  0.000000  1
  Ir  Ir24  1  0.550944  0.007112  0.000000  1
  Ir  Ir25  1  0.002473  0.537767  0.000000  1
  Ir  Ir26  1  0.285224  0.290021  0.500000  1
  Ir  Ir27  1  0.713900  0.005357  0.500000  1
  Ir  Ir28  1  0.999289  0.703181  0.500000  1
  Ir  Ir29  1  0.871563  0.360402  0.500000  1
  Ir  Ir30  1  0.634624  0.507335  0.500000  1
  Ir  Ir31  1  0.490347  0.132286  0.500000  1
  Ir  Ir32  1  0.366484  0.868698  0.500000  1
  Ir  Ir33  1  0.504500  0.641053  0.500000  1
  Ir  Ir34  1  0.135421  0.497211  0.500000  1
  Ir  Ir35  1  0.999948  0.995346  0.000000  1
