# generated using pymatgen
data_Tb6DyScO12
_symmetry_space_group_name_H-M   'P 1'
_cell_length_a   6.70510147
_cell_length_b   6.70510115
_cell_length_c   6.70510204
_cell_angle_alpha   92.55206687
_cell_angle_beta   92.55205729
_cell_angle_gamma   92.55206322
_symmetry_Int_Tables_number   1
_chemical_formula_structural   Tb6DyScO12
_chemical_formula_sum   'Tb6 Dy1 Sc1 O12'
_cell_volume   300.52600401
_cell_formula_units_Z   1
loop_
 _symmetry_equiv_pos_site_id
 _symmetry_equiv_pos_as_xyz
  1  'x, y, z'
loop_
 _atom_site_type_symbol
 _atom_site_label
 _atom_site_symmetry_multiplicity
 _atom_site_fract_x
 _atom_site_fract_y
 _atom_site_fract_z
 _atom_site_occupancy
  Tb  Tb0  1  0.742723  0.929686  0.439175  1
  Tb  Tb1  1  0.929686  0.439175  0.742723  1
  Tb  Tb2  1  0.439175  0.742723  0.929686  1
  Tb  Tb3  1  0.257277  0.070314  0.560825  1
  Tb  Tb4  1  0.070314  0.560825  0.257277  1
  Tb  Tb5  1  0.560825  0.257277  0.070314  1
  Dy  Dy6  1  0.000000  0.000000  0.000000  1
  Sc  Sc7  1  0.500000  0.500000  0.500000  1
  O  O8  1  0.592566  0.464424  0.804417  1
  O  O9  1  0.464424  0.804417  0.592566  1
  O  O10  1  0.804417  0.592566  0.464424  1
  O  O11  1  0.407434  0.535576  0.195583  1
  O  O12  1  0.535576  0.195583  0.407434  1
  O  O13  1  0.195583  0.407434  0.535576  1
  O  O14  1  0.068824  0.906892  0.316858  1
  O  O15  1  0.906892  0.316858  0.068824  1
  O  O16  1  0.683142  0.931176  0.093108  1
  O  O17  1  0.093108  0.683142  0.931176  1
  O  O18  1  0.931176  0.093108  0.683142  1
  O  O19  1  0.316858  0.068824  0.906892  1
