# generated using pymatgen
data_Pr16Ga5Co2Hg
_symmetry_space_group_name_H-M   'P 1'
_cell_length_a   10.57479309
_cell_length_b   10.57479348
_cell_length_c   7.17672479
_cell_angle_alpha   90.04460958
_cell_angle_beta   89.95539350
_cell_angle_gamma   120.14405602
_symmetry_Int_Tables_number   1
_chemical_formula_structural   Pr16Ga5Co2Hg
_chemical_formula_sum   'Pr16 Ga5 Co2 Hg1'
_cell_volume   694.01405561
_cell_formula_units_Z   1
loop_
 _symmetry_equiv_pos_site_id
 _symmetry_equiv_pos_as_xyz
  1  'x, y, z'
loop_
 _atom_site_type_symbol
 _atom_site_label
 _atom_site_symmetry_multiplicity
 _atom_site_fract_x
 _atom_site_fract_y
 _atom_site_fract_z
 _atom_site_occupancy
  Pr  Pr0  1  0.171289  0.828711  0.986604  1
  Pr  Pr1  1  0.340252  0.172491  0.486717  1
  Pr  Pr2  1  0.827509  0.659748  0.486717  1
  Pr  Pr3  1  0.170885  0.340637  0.986268  1
  Pr  Pr4  1  0.659363  0.829115  0.986268  1
  Pr  Pr5  1  0.829176  0.170824  0.485635  1
  Pr  Pr6  1  0.335825  0.664175  0.678991  1
  Pr  Pr7  1  0.666560  0.333440  0.178488  1
  Pr  Pr8  1  0.460755  0.539245  0.291505  1
  Pr  Pr9  1  0.919466  0.459403  0.790736  1
  Pr  Pr10  1  0.540597  0.080534  0.790736  1
  Pr  Pr11  1  0.464036  0.921590  0.288800  1
  Pr  Pr12  1  0.078410  0.535964  0.288800  1
  Pr  Pr13  1  0.539862  0.460138  0.793166  1
  Pr  Pr14  1  0.998559  0.001441  0.273001  1
  Pr  Pr15  1  0.995597  0.004403  0.777885  1
  Ga  Ga16  1  0.327311  0.163700  0.041548  1
  Ga  Ga17  1  0.836300  0.672689  0.041548  1
  Ga  Ga18  1  0.163372  0.328350  0.541347  1
  Ga  Ga19  1  0.671650  0.836628  0.541347  1
  Ga  Ga20  1  0.835338  0.164662  0.044440  1
  Co  Co21  1  0.334788  0.665212  0.051229  1
  Co  Co22  1  0.665180  0.334820  0.551343  1
  Hg  Hg23  1  0.167919  0.832081  0.542881  1
