# generated using pymatgen
data_TbDy3Sb6Ru2Rh5
_symmetry_space_group_name_H-M   'P 1'
_cell_length_a   7.58446228
_cell_length_b   7.58464688
_cell_length_c   7.58464633
_cell_angle_alpha   109.28350428
_cell_angle_beta   109.58364608
_cell_angle_gamma   109.58366970
_symmetry_Int_Tables_number   1
_chemical_formula_structural   TbDy3Sb6Ru2Rh5
_chemical_formula_sum   'Tb1 Dy3 Sb6 Ru2 Rh5'
_cell_volume   335.71543531
_cell_formula_units_Z   1
loop_
 _symmetry_equiv_pos_site_id
 _symmetry_equiv_pos_as_xyz
  1  'x, y, z'
loop_
 _atom_site_type_symbol
 _atom_site_label
 _atom_site_symmetry_multiplicity
 _atom_site_fract_x
 _atom_site_fract_y
 _atom_site_fract_z
 _atom_site_occupancy
  Tb  Tb0  1  0.500000  0.501164  0.498836  1
  Dy  Dy1  1  0.500000  0.998762  0.001238  1
  Dy  Dy2  1  0.002486  0.501202  0.001244  1
  Dy  Dy3  1  0.997514  0.998756  0.498798  1
  Sb  Sb4  1  0.999737  0.314584  0.314595  1
  Sb  Sb5  1  0.684577  0.999504  0.683858  1
  Sb  Sb6  1  0.684630  0.685404  0.000993  1
  Sb  Sb7  1  0.000263  0.685405  0.685416  1
  Sb  Sb8  1  0.315370  0.999007  0.314596  1
  Sb  Sb9  1  0.315423  0.316142  0.000496  1
  Ru  Ru10  1  0.000000  0.000033  0.999967  1
  Ru  Ru11  1  0.500000  0.750277  0.249723  1
  Rh  Rh12  1  0.751078  0.499967  0.250448  1
  Rh  Rh13  1  0.248922  0.749552  0.500033  1
  Rh  Rh14  1  0.248917  0.499922  0.749402  1
  Rh  Rh15  1  0.500000  0.249721  0.750279  1
  Rh  Rh16  1  0.751083  0.250598  0.500078  1
