# generated using pymatgen
data_Ni3Ag4RhO8
_symmetry_space_group_name_H-M   'P 1'
_cell_length_a   5.27727330
_cell_length_b   6.11037015
_cell_length_c   7.14440245
_cell_angle_alpha   64.66059329
_cell_angle_beta   104.27151725
_cell_angle_gamma   90.02589000
_symmetry_Int_Tables_number   1
_chemical_formula_structural   Ni3Ag4RhO8
_chemical_formula_sum   'Ni3 Ag4 Rh1 O8'
_cell_volume   200.33150508
_cell_formula_units_Z   1
loop_
 _symmetry_equiv_pos_site_id
 _symmetry_equiv_pos_as_xyz
  1  'x, y, z'
loop_
 _atom_site_type_symbol
 _atom_site_label
 _atom_site_symmetry_multiplicity
 _atom_site_fract_x
 _atom_site_fract_y
 _atom_site_fract_z
 _atom_site_occupancy
  Ni  Ni0  1  0.000554  0.002795  0.500296  1
  Ni  Ni1  1  0.499153  0.250733  0.499206  1
  Ni  Ni2  1  0.000758  0.496257  0.499529  1
  Ag  Ag3  1  0.996394  0.001781  0.996256  1
  Ag  Ag4  1  0.499898  0.249975  0.000146  1
  Ag  Ag5  1  0.003399  0.498255  0.003873  1
  Ag  Ag6  1  0.499918  0.750051  0.000030  1
  Rh  Rh7  1  0.500015  0.750035  0.500062  1
  O  O8  1  0.884113  0.667690  0.664851  1
  O  O9  1  0.394264  0.910044  0.666260  1
  O  O10  1  0.879311  0.169825  0.660837  1
  O  O11  1  0.394336  0.423938  0.666192  1
  O  O12  1  0.115892  0.832249  0.335363  1
  O  O13  1  0.605690  0.076124  0.333964  1
  O  O14  1  0.120534  0.330201  0.339165  1
  O  O15  1  0.605775  0.590048  0.333969  1
