# generated using pymatgen
data_Zr10CuSn5GeBi
_symmetry_space_group_name_H-M   'P 1'
_cell_length_a   8.74057045
_cell_length_b   8.74057082
_cell_length_c   5.89291507
_cell_angle_alpha   90.03459894
_cell_angle_beta   90.03459915
_cell_angle_gamma   119.95080621
_symmetry_Int_Tables_number   1
_chemical_formula_structural   Zr10CuSn5GeBi
_chemical_formula_sum   'Zr10 Cu1 Sn5 Ge1 Bi1'
_cell_volume   390.08130930
_cell_formula_units_Z   1
loop_
 _symmetry_equiv_pos_site_id
 _symmetry_equiv_pos_as_xyz
  1  'x, y, z'
loop_
 _atom_site_type_symbol
 _atom_site_label
 _atom_site_symmetry_multiplicity
 _atom_site_fract_x
 _atom_site_fract_y
 _atom_site_fract_z
 _atom_site_occupancy
  Zr  Zr0  1  0.668957  0.332911  0.501520  1
  Zr  Zr1  1  0.332911  0.668957  0.501520  1
  Zr  Zr2  1  0.332783  0.669104  0.998536  1
  Zr  Zr3  1  0.669104  0.332783  0.998536  1
  Zr  Zr4  1  0.738528  0.738528  0.250775  1
  Zr  Zr5  1  0.261897  0.994819  0.250803  1
  Zr  Zr6  1  0.994819  0.261897  0.250803  1
  Zr  Zr7  1  0.263958  0.263958  0.749371  1
  Zr  Zr8  1  0.735271  0.000646  0.749399  1
  Zr  Zr9  1  0.000646  0.735271  0.749399  1
  Cu  Cu10  1  0.999910  0.999910  0.997578  1
  Sn  Sn11  1  0.610971  0.999289  0.249203  1
  Sn  Sn12  1  0.999289  0.610971  0.249203  1
  Sn  Sn13  1  0.613765  0.613765  0.750770  1
  Sn  Sn14  1  0.388105  0.000968  0.751061  1
  Sn  Sn15  1  0.000968  0.388105  0.751061  1
  Ge  Ge16  1  0.000259  0.000259  0.501561  1
  Bi  Bi17  1  0.387861  0.387861  0.248901  1
