# generated using pymatgen
data_Pa5V3(Fe4P3)4
_symmetry_space_group_name_H-M   'P 1'
_cell_length_a   12.05820500
_cell_length_b   12.05820351
_cell_length_c   3.71514100
_cell_angle_alpha   90.00000000
_cell_angle_beta   90.00000000
_cell_angle_gamma   119.99999586
_symmetry_Int_Tables_number   1
_chemical_formula_structural   Pa5V3(Fe4P3)4
_chemical_formula_sum   'Pa5 V3 Fe16 P12'
_cell_volume   467.81185500
_cell_formula_units_Z   1
loop_
 _symmetry_equiv_pos_site_id
 _symmetry_equiv_pos_as_xyz
  1  'x, y, z'
loop_
 _atom_site_type_symbol
 _atom_site_label
 _atom_site_symmetry_multiplicity
 _atom_site_fract_x
 _atom_site_fract_y
 _atom_site_fract_z
 _atom_site_occupancy
  Pa  Pa0  1  0.813354  0.000000  0.500000  1
  Pa  Pa1  1  0.000000  0.813354  0.500000  1
  Pa  Pa2  1  0.186646  0.186646  0.500000  1
  Pa  Pa3  1  0.333333  0.666667  0.000000  1
  Pa  Pa4  1  0.666667  0.333333  0.000000  1
  V  V5  1  0.430196  0.000000  0.000000  1
  V  V6  1  0.000000  0.430196  0.000000  1
  V  V7  1  0.569804  0.569804  0.000000  1
  Fe  Fe8  1  0.280667  0.000000  0.500000  1
  Fe  Fe9  1  0.000000  0.280667  0.500000  1
  Fe  Fe10  1  0.719333  0.719333  0.500000  1
  Fe  Fe11  1  0.625153  0.807342  0.000000  1
  Fe  Fe12  1  0.192658  0.817812  0.000000  1
  Fe  Fe13  1  0.182188  0.374847  0.000000  1
  Fe  Fe14  1  0.374847  0.182188  0.000000  1
  Fe  Fe15  1  0.807342  0.625153  0.000000  1
  Fe  Fe16  1  0.817812  0.192658  0.000000  1
  Fe  Fe17  1  0.513240  0.873734  0.500000  1
  Fe  Fe18  1  0.126266  0.639506  0.500000  1
  Fe  Fe19  1  0.360494  0.486760  0.500000  1
  Fe  Fe20  1  0.486760  0.360494  0.500000  1
  Fe  Fe21  1  0.873734  0.513240  0.500000  1
  Fe  Fe22  1  0.639506  0.126266  0.500000  1
  Fe  Fe23  1  0.000000  0.000000  0.000000  1
  P  P24  1  0.184144  0.000000  0.000000  1
  P  P25  1  0.000000  0.184144  0.000000  1
  P  P26  1  0.815856  0.815856  0.000000  1
  P  P27  1  0.525268  0.690801  0.500000  1
  P  P28  1  0.309199  0.834467  0.500000  1
  P  P29  1  0.165533  0.474732  0.500000  1
  P  P30  1  0.474732  0.165533  0.500000  1
  P  P31  1  0.690801  0.525268  0.500000  1
  P  P32  1  0.834467  0.309199  0.500000  1
  P  P33  1  0.629176  0.000000  0.000000  1
  P  P34  1  0.000000  0.629176  0.000000  1
  P  P35  1  0.370824  0.370824  0.000000  1
