# generated using pymatgen
data_Pr7Nd3Sn20(PdRh)4
_symmetry_space_group_name_H-M   'P 1'
_cell_length_a   14.29533705
_cell_length_b   14.28773205
_cell_length_c   4.66958300
_cell_angle_alpha   90.00000000
_cell_angle_beta   90.00000000
_cell_angle_gamma   89.98998534
_symmetry_Int_Tables_number   1
_chemical_formula_structural   Pr7Nd3Sn20(PdRh)4
_chemical_formula_sum   'Pr7 Nd3 Sn20 Pd4 Rh4'
_cell_volume   953.75271936
_cell_formula_units_Z   1
loop_
 _symmetry_equiv_pos_site_id
 _symmetry_equiv_pos_as_xyz
  1  'x, y, z'
loop_
 _atom_site_type_symbol
 _atom_site_label
 _atom_site_symmetry_multiplicity
 _atom_site_fract_x
 _atom_site_fract_y
 _atom_site_fract_z
 _atom_site_occupancy
  Pr  Pr0  1  0.500008  0.499982  0.000000  1
  Pr  Pr1  1  0.000009  0.999995  0.000000  1
  Pr  Pr2  1  0.821972  0.679883  0.500000  1
  Pr  Pr3  1  0.892382  0.390436  0.500000  1
  Pr  Pr4  1  0.107667  0.609517  0.500000  1
  Pr  Pr5  1  0.392374  0.109531  0.500000  1
  Pr  Pr6  1  0.607594  0.890505  0.500000  1
  Nd  Nd7  1  0.677881  0.179787  0.500000  1
  Nd  Nd8  1  0.322130  0.820207  0.500000  1
  Nd  Nd9  1  0.177881  0.320182  0.500000  1
  Sn  Sn10  1  0.567051  0.071509  0.000000  1
  Sn  Sn11  1  0.432948  0.928494  0.000000  1
  Sn  Sn12  1  0.067083  0.428457  0.000000  1
  Sn  Sn13  1  0.933157  0.571318  0.000000  1
  Sn  Sn14  1  0.652001  0.702392  0.000000  1
  Sn  Sn15  1  0.347814  0.297644  0.000000  1
  Sn  Sn16  1  0.152202  0.797652  0.000000  1
  Sn  Sn17  1  0.847804  0.202362  0.000000  1
  Sn  Sn18  1  0.301571  0.653455  0.000000  1
  Sn  Sn19  1  0.698415  0.346551  0.000000  1
  Sn  Sn20  1  0.198440  0.153454  0.000000  1
  Sn  Sn21  1  0.801532  0.846786  0.000000  1
  Sn  Sn22  1  0.662881  0.502788  0.500000  1
  Sn  Sn23  1  0.337005  0.497063  0.500000  1
  Sn  Sn24  1  0.162988  0.997062  0.500000  1
  Sn  Sn25  1  0.836991  0.002889  0.500000  1
  Sn  Sn26  1  0.496195  0.663981  0.500000  1
  Sn  Sn27  1  0.503851  0.336052  0.500000  1
  Sn  Sn28  1  0.003847  0.163977  0.500000  1
  Sn  Sn29  1  0.996295  0.836141  0.500000  1
  Pd  Pd30  1  0.746120  0.530430  0.000000  1
  Pd  Pd31  1  0.253796  0.469406  0.000000  1
  Pd  Pd32  1  0.246207  0.969396  0.000000  1
  Pd  Pd33  1  0.753790  0.030638  0.000000  1
  Rh  Rh34  1  0.468863  0.743013  0.000000  1
  Rh  Rh35  1  0.531101  0.257007  0.000000  1
  Rh  Rh36  1  0.031080  0.242936  0.000000  1
  Rh  Rh37  1  0.969074  0.757124  0.000000  1
