# generated using pymatgen
data_Ho4LuPb3Se
_symmetry_space_group_name_H-M   'P 1'
_cell_length_a   9.15336700
_cell_length_b   9.15336781
_cell_length_c   6.71864900
_cell_angle_alpha   90.00000000
_cell_angle_beta   90.00000000
_cell_angle_gamma   120.00000068
_symmetry_Int_Tables_number   1
_chemical_formula_structural   Ho4LuPb3Se
_chemical_formula_sum   'Ho8 Lu2 Pb6 Se2'
_cell_volume   487.49972076
_cell_formula_units_Z   2
loop_
 _symmetry_equiv_pos_site_id
 _symmetry_equiv_pos_as_xyz
  1  'x, y, z'
loop_
 _atom_site_type_symbol
 _atom_site_label
 _atom_site_symmetry_multiplicity
 _atom_site_fract_x
 _atom_site_fract_y
 _atom_site_fract_z
 _atom_site_occupancy
  Ho  Ho0  1  0.749195  0.749195  0.749247  1
  Ho  Ho1  1  0.250805  0.000000  0.749247  1
  Ho  Ho2  1  0.000000  0.250805  0.749247  1
  Ho  Ho3  1  0.250805  0.250805  0.250753  1
  Ho  Ho4  1  0.749195  0.000000  0.250753  1
  Ho  Ho5  1  0.000000  0.749195  0.250753  1
  Ho  Ho6  1  0.666667  0.333333  0.000000  1
  Ho  Ho7  1  0.333333  0.666667  0.000000  1
  Lu  Lu8  1  0.333333  0.666667  0.500000  1
  Lu  Lu9  1  0.666667  0.333333  0.500000  1
  Pb  Pb10  1  0.396902  0.396902  0.747461  1
  Pb  Pb11  1  0.603098  0.000000  0.747461  1
  Pb  Pb12  1  0.000000  0.603098  0.747461  1
  Pb  Pb13  1  0.603098  0.603098  0.252539  1
  Pb  Pb14  1  0.396902  0.000000  0.252539  1
  Pb  Pb15  1  0.000000  0.396902  0.252539  1
  Se  Se16  1  0.000000  0.000000  0.000000  1
  Se  Se17  1  0.000000  0.000000  0.500000  1
