# generated using pymatgen
data_Tb4Ga18Ir5Ru
_symmetry_space_group_name_H-M   'P 1'
_cell_length_a   7.57826492
_cell_length_b   7.57826437
_cell_length_c   9.56550440
_cell_angle_alpha   89.95975040
_cell_angle_beta   89.95974941
_cell_angle_gamma   119.82594034
_symmetry_Int_Tables_number   1
_chemical_formula_structural   Tb4Ga18Ir5Ru
_chemical_formula_sum   'Tb4 Ga18 Ir5 Ru1'
_cell_volume   476.58094476
_cell_formula_units_Z   1
loop_
 _symmetry_equiv_pos_site_id
 _symmetry_equiv_pos_as_xyz
  1  'x, y, z'
loop_
 _atom_site_type_symbol
 _atom_site_label
 _atom_site_symmetry_multiplicity
 _atom_site_fract_x
 _atom_site_fract_y
 _atom_site_fract_z
 _atom_site_occupancy
  Tb  Tb0  1  0.998032  0.670563  0.249430  1
  Tb  Tb1  1  0.002561  0.330627  0.750824  1
  Tb  Tb2  1  0.669373  0.997439  0.249176  1
  Tb  Tb3  1  0.329437  0.001968  0.750570  1
  Ga  Ga4  1  0.130529  0.131194  0.249439  1
  Ga  Ga5  1  0.868806  0.869471  0.750561  1
  Ga  Ga6  1  0.000627  0.335136  0.078368  1
  Ga  Ga7  1  0.998603  0.665358  0.920962  1
  Ga  Ga8  1  0.996716  0.662804  0.578606  1
  Ga  Ga9  1  0.337196  0.003284  0.421394  1
  Ga  Ga10  1  0.998582  0.334699  0.421507  1
  Ga  Ga11  1  0.665301  0.001418  0.578493  1
  Ga  Ga12  1  0.664864  0.999373  0.921632  1
  Ga  Ga13  1  0.334642  0.001397  0.079038  1
  Ga  Ga14  1  0.336483  0.333686  0.562841  1
  Ga  Ga15  1  0.666314  0.663517  0.437159  1
  Ga  Ga16  1  0.666428  0.666603  0.063383  1
  Ga  Ga17  1  0.333397  0.333572  0.936617  1
  Ga  Ga18  1  0.337963  0.545867  0.249516  1
  Ga  Ga19  1  0.661857  0.451365  0.748948  1
  Ga  Ga20  1  0.548635  0.338143  0.251052  1
  Ga  Ga21  1  0.454133  0.662037  0.750484  1
  Ir  Ir22  1  0.671808  0.328192  0.000000  1
  Ir  Ir23  1  0.327751  0.672249  0.000000  1
  Ir  Ir24  1  0.328081  0.671919  0.500000  1
  Ir  Ir25  1  0.999860  0.000140  0.000000  1
  Ir  Ir26  1  0.999964  0.000036  0.500000  1
  Ru  Ru27  1  0.672058  0.327942  0.500000  1
