# generated using pymatgen
data_KRb2Al3F12
_symmetry_space_group_name_H-M   'P 1'
_cell_length_a   7.15935600
_cell_length_b   7.47809055
_cell_length_c   10.17983869
_cell_angle_alpha   86.75156386
_cell_angle_beta   90.00000000
_cell_angle_gamma   90.00000000
_symmetry_Int_Tables_number   1
_chemical_formula_structural   KRb2Al3F12
_chemical_formula_sum   'K2 Rb4 Al6 F24'
_cell_volume   544.13567003
_cell_formula_units_Z   2
loop_
 _symmetry_equiv_pos_site_id
 _symmetry_equiv_pos_as_xyz
  1  'x, y, z'
loop_
 _atom_site_type_symbol
 _atom_site_label
 _atom_site_symmetry_multiplicity
 _atom_site_fract_x
 _atom_site_fract_y
 _atom_site_fract_z
 _atom_site_occupancy
  K  K0  1  0.750000  0.225807  0.755306  1
  K  K1  1  0.250000  0.774193  0.244694  1
  Rb  Rb2  1  0.750000  0.998179  0.115275  1
  Rb  Rb3  1  0.250000  0.001821  0.884725  1
  Rb  Rb4  1  0.250000  0.475674  0.645075  1
  Rb  Rb5  1  0.750000  0.524326  0.354925  1
  Al  Al6  1  0.500000  0.000000  0.500000  1
  Al  Al7  1  0.000000  0.000000  0.500000  1
  Al  Al8  1  0.000000  0.500000  0.000000  1
  Al  Al9  1  0.500000  0.500000  0.000000  1
  Al  Al10  1  0.750000  0.710543  0.728739  1
  Al  Al11  1  0.250000  0.289457  0.271261  1
  F  F12  1  0.750000  0.079720  0.499816  1
  F  F13  1  0.250000  0.920280  0.500184  1
  F  F14  1  0.750000  0.530955  0.621348  1
  F  F15  1  0.250000  0.469045  0.378652  1
  F  F16  1  0.250000  0.510132  0.946440  1
  F  F17  1  0.750000  0.489868  0.053560  1
  F  F18  1  0.250000  0.112623  0.164802  1
  F  F19  1  0.750000  0.887377  0.835198  1
  F  F20  1  0.949808  0.855761  0.372081  1
  F  F21  1  0.449808  0.144239  0.627919  1
  F  F22  1  0.050192  0.144239  0.627919  1
  F  F23  1  0.550192  0.855761  0.372081  1
  F  F24  1  0.941243  0.818153  0.627143  1
  F  F25  1  0.441243  0.181847  0.372857  1
  F  F26  1  0.058757  0.181847  0.372857  1
  F  F27  1  0.558757  0.818153  0.627143  1
  F  F28  1  0.015545  0.723156  0.050664  1
  F  F29  1  0.515545  0.276844  0.949336  1
  F  F30  1  0.984455  0.276844  0.949336  1
  F  F31  1  0.484455  0.723156  0.050664  1
  F  F32  1  0.433659  0.414888  0.169960  1
  F  F33  1  0.933659  0.585112  0.830040  1
  F  F34  1  0.566341  0.585112  0.830040  1
  F  F35  1  0.066341  0.414888  0.169960  1
