# generated using pymatgen
data_Sc8SiAgPd23
_symmetry_space_group_name_H-M   'P 1'
_cell_length_a   8.09021800
_cell_length_b   8.14278000
_cell_length_c   8.17262600
_cell_angle_alpha   90.00000000
_cell_angle_beta   90.00000000
_cell_angle_gamma   90.00000000
_symmetry_Int_Tables_number   1
_chemical_formula_structural   Sc8SiAgPd23
_chemical_formula_sum   'Sc8 Si1 Ag1 Pd23'
_cell_volume   538.38698236
_cell_formula_units_Z   1
loop_
 _symmetry_equiv_pos_site_id
 _symmetry_equiv_pos_as_xyz
  1  'x, y, z'
loop_
 _atom_site_type_symbol
 _atom_site_label
 _atom_site_symmetry_multiplicity
 _atom_site_fract_x
 _atom_site_fract_y
 _atom_site_fract_z
 _atom_site_occupancy
  Sc  Sc0  1  0.254690  0.249112  0.261404  1
  Sc  Sc1  1  0.745229  0.744988  0.745524  1
  Sc  Sc2  1  0.745229  0.744988  0.254476  1
  Sc  Sc3  1  0.745229  0.255012  0.745524  1
  Sc  Sc4  1  0.254690  0.249112  0.738596  1
  Sc  Sc5  1  0.254690  0.750888  0.261404  1
  Sc  Sc6  1  0.254690  0.750888  0.738596  1
  Sc  Sc7  1  0.745229  0.255012  0.254476  1
  Si  Si8  1  0.998627  0.000000  0.000000  1
  Ag  Ag9  1  0.259312  0.500000  0.000000  1
  Pd  Pd10  1  0.743551  0.500000  0.000000  1
  Pd  Pd11  1  0.999203  0.256633  0.500000  1
  Pd  Pd12  1  0.499098  0.256722  0.000000  1
  Pd  Pd13  1  0.999203  0.743367  0.500000  1
  Pd  Pd14  1  0.499098  0.743278  0.000000  1
  Pd  Pd15  1  0.500259  0.000000  0.257310  1
  Pd  Pd16  1  0.256434  0.000000  0.500000  1
  Pd  Pd17  1  0.500259  0.000000  0.742690  1
  Pd  Pd18  1  0.742867  0.000000  0.500000  1
  Pd  Pd19  1  0.001029  0.500000  0.257578  1
  Pd  Pd20  1  0.001029  0.500000  0.742422  1
  Pd  Pd21  1  0.252059  0.500000  0.500000  1
  Pd  Pd22  1  0.747914  0.500000  0.500000  1
  Pd  Pd23  1  0.500778  0.252220  0.500000  1
  Pd  Pd24  1  0.500778  0.747780  0.500000  1
  Pd  Pd25  1  0.499375  0.500000  0.253346  1
  Pd  Pd26  1  0.499375  0.500000  0.746654  1
  Pd  Pd27  1  0.279230  0.000000  0.000000  1
  Pd  Pd28  1  0.718396  0.000000  0.000000  1
  Pd  Pd29  1  0.002445  0.279171  0.000000  1
  Pd  Pd30  1  0.002445  0.720829  0.000000  1
  Pd  Pd31  1  0.998780  0.000000  0.278831  1
  Pd  Pd32  1  0.998780  0.000000  0.721169  1
