# generated using pymatgen
data_Nd7Gd9(InIr)4
_symmetry_space_group_name_H-M   'P 1'
_cell_length_a   9.80710054
_cell_length_b   9.80710083
_cell_length_c   9.79391200
_cell_angle_alpha   60.04447649
_cell_angle_beta   60.04447551
_cell_angle_gamma   60.46720837
_symmetry_Int_Tables_number   1
_chemical_formula_structural   Nd7Gd9(InIr)4
_chemical_formula_sum   'Nd7 Gd9 In4 Ir4'
_cell_volume   668.84611255
_cell_formula_units_Z   1
loop_
 _symmetry_equiv_pos_site_id
 _symmetry_equiv_pos_as_xyz
  1  'x, y, z'
loop_
 _atom_site_type_symbol
 _atom_site_label
 _atom_site_symmetry_multiplicity
 _atom_site_fract_x
 _atom_site_fract_y
 _atom_site_fract_z
 _atom_site_occupancy
  Nd  Nd0  1  0.809993  0.809993  0.190007  1
  Nd  Nd1  1  0.940492  0.558860  0.561464  1
  Nd  Nd2  1  0.558860  0.940492  0.939184  1
  Nd  Nd3  1  0.558860  0.940492  0.561464  1
  Nd  Nd4  1  0.940492  0.558860  0.939184  1
  Nd  Nd5  1  0.556660  0.556660  0.943340  1
  Nd  Nd6  1  0.942249  0.942249  0.557751  1
  Gd  Gd7  1  0.347066  0.347066  0.349385  1
  Gd  Gd8  1  0.347066  0.347066  0.956480  1
  Gd  Gd9  1  0.348057  0.957234  0.347354  1
  Gd  Gd10  1  0.957234  0.348057  0.347354  1
  Gd  Gd11  1  0.809454  0.191463  0.189629  1
  Gd  Gd12  1  0.191463  0.809454  0.809455  1
  Gd  Gd13  1  0.191463  0.809454  0.189629  1
  Gd  Gd14  1  0.809454  0.191463  0.809455  1
  Gd  Gd15  1  0.188661  0.188661  0.811339  1
  In  In16  1  0.580919  0.580919  0.580062  1
  In  In17  1  0.580919  0.580919  0.258098  1
  In  In18  1  0.581300  0.257790  0.580455  1
  In  In19  1  0.257790  0.581300  0.580455  1
  Ir  Ir20  1  0.139766  0.139766  0.142971  1
  Ir  Ir21  1  0.139766  0.139766  0.577496  1
  Ir  Ir22  1  0.146424  0.575586  0.138995  1
  Ir  Ir23  1  0.575586  0.146424  0.138995  1
