# generated using pymatgen
data_Rb3TlTe3
_symmetry_space_group_name_H-M   'P 1'
_cell_length_a   14.85530800
_cell_length_b   9.17910749
_cell_length_c   12.09782107
_cell_angle_alpha   52.02025348
_cell_angle_beta   90.00000000
_cell_angle_gamma   90.00000000
_symmetry_Int_Tables_number   1
_chemical_formula_structural   Rb3TlTe3
_chemical_formula_sum   'Rb12 Tl4 Te12'
_cell_volume   1300.29327225
_cell_formula_units_Z   4
loop_
 _symmetry_equiv_pos_site_id
 _symmetry_equiv_pos_as_xyz
  1  'x, y, z'
loop_
 _atom_site_type_symbol
 _atom_site_label
 _atom_site_symmetry_multiplicity
 _atom_site_fract_x
 _atom_site_fract_y
 _atom_site_fract_z
 _atom_site_occupancy
  Rb  Rb0  1  0.902695  0.335437  0.402960  1
  Rb  Rb1  1  0.402695  0.664563  0.097040  1
  Rb  Rb2  1  0.097305  0.664563  0.597040  1
  Rb  Rb3  1  0.597305  0.335437  0.902960  1
  Rb  Rb4  1  0.188545  0.116831  0.591024  1
  Rb  Rb5  1  0.688545  0.883169  0.908976  1
  Rb  Rb6  1  0.811455  0.883169  0.408976  1
  Rb  Rb7  1  0.311455  0.116831  0.091024  1
  Rb  Rb8  1  0.616545  0.365469  0.472587  1
  Rb  Rb9  1  0.116545  0.634531  0.027413  1
  Rb  Rb10  1  0.383455  0.634531  0.527413  1
  Rb  Rb11  1  0.883455  0.365469  0.972587  1
  Tl  Tl12  1  0.936544  0.069651  0.827962  1
  Tl  Tl13  1  0.436544  0.930349  0.672038  1
  Tl  Tl14  1  0.063456  0.930349  0.172038  1
  Tl  Tl15  1  0.563456  0.069651  0.327962  1
  Te  Te16  1  0.384525  0.164582  0.367966  1
  Te  Te17  1  0.884525  0.835418  0.132034  1
  Te  Te18  1  0.615475  0.835418  0.632034  1
  Te  Te19  1  0.115475  0.164582  0.867966  1
  Te  Te20  1  0.692615  0.366485  0.179668  1
  Te  Te21  1  0.192615  0.633515  0.320332  1
  Te  Te22  1  0.307385  0.633515  0.820332  1
  Te  Te23  1  0.807385  0.366485  0.679668  1
  Te  Te24  1  0.546253  0.863706  0.224385  1
  Te  Te25  1  0.046253  0.136294  0.275615  1
  Te  Te26  1  0.453747  0.136294  0.775615  1
  Te  Te27  1  0.953747  0.863706  0.724385  1
