# generated using pymatgen
data_LaYSiO5
_symmetry_space_group_name_H-M   'P 1'
_cell_length_a   8.17627481
_cell_length_b   8.17627397
_cell_length_c   10.92102536
_cell_angle_alpha   61.20875537
_cell_angle_beta   61.20875710
_cell_angle_gamma   50.37261955
_symmetry_Int_Tables_number   1
_chemical_formula_structural   LaYSiO5
_chemical_formula_sum   'La4 Y4 Si4 O20'
_cell_volume   476.06314703
_cell_formula_units_Z   4
loop_
 _symmetry_equiv_pos_site_id
 _symmetry_equiv_pos_as_xyz
  1  'x, y, z'
loop_
 _atom_site_type_symbol
 _atom_site_label
 _atom_site_symmetry_multiplicity
 _atom_site_fract_x
 _atom_site_fract_y
 _atom_site_fract_z
 _atom_site_occupancy
  La  La0  1  0.783758  0.291866  0.034198  1
  La  La1  1  0.708134  0.216242  0.465802  1
  La  La2  1  0.216242  0.708134  0.965802  1
  La  La3  1  0.291866  0.783758  0.534198  1
  Y  Y4  1  0.236862  0.476103  0.337402  1
  Y  Y5  1  0.523897  0.763138  0.162598  1
  Y  Y6  1  0.763138  0.523897  0.662598  1
  Y  Y7  1  0.476103  0.236862  0.837402  1
  Si  Si8  1  0.727857  0.902912  0.307155  1
  Si  Si9  1  0.097088  0.272143  0.192845  1
  Si  Si10  1  0.272143  0.097088  0.692845  1
  Si  Si11  1  0.902912  0.727857  0.807155  1
  O  O12  1  0.420938  0.611025  0.110746  1
  O  O13  1  0.388975  0.579062  0.389254  1
  O  O14  1  0.579062  0.388975  0.889254  1
  O  O15  1  0.611025  0.420938  0.610746  1
  O  O16  1  0.866982  0.723456  0.431711  1
  O  O17  1  0.276544  0.133018  0.068289  1
  O  O18  1  0.133018  0.276544  0.568289  1
  O  O19  1  0.723456  0.866982  0.931711  1
  O  O20  1  0.567462  0.841375  0.315493  1
  O  O21  1  0.158625  0.432538  0.184507  1
  O  O22  1  0.432538  0.158625  0.684507  1
  O  O23  1  0.841375  0.567462  0.815493  1
  O  O24  1  0.156901  0.585291  0.824513  1
  O  O25  1  0.414709  0.843099  0.675487  1
  O  O26  1  0.843099  0.414709  0.175487  1
  O  O27  1  0.585291  0.156901  0.324513  1
  O  O28  1  0.908827  0.904454  0.647322  1
  O  O29  1  0.095546  0.091173  0.852678  1
  O  O30  1  0.091173  0.095546  0.352678  1
  O  O31  1  0.904454  0.908827  0.147322  1
