# generated using pymatgen
data_Tb2YEr5(WO6)4
_symmetry_space_group_name_H-M   'P 1'
_cell_length_a   5.38655800
_cell_length_b   7.68873231
_cell_length_c   11.43049839
_cell_angle_alpha   75.42996291
_cell_angle_beta   90.00000000
_cell_angle_gamma   90.00000000
_symmetry_Int_Tables_number   1
_chemical_formula_structural   Tb2YEr5(WO6)4
_chemical_formula_sum   'Tb2 Y1 Er5 W4 O24'
_cell_volume   458.17902131
_cell_formula_units_Z   1
loop_
 _symmetry_equiv_pos_site_id
 _symmetry_equiv_pos_as_xyz
  1  'x, y, z'
loop_
 _atom_site_type_symbol
 _atom_site_label
 _atom_site_symmetry_multiplicity
 _atom_site_fract_x
 _atom_site_fract_y
 _atom_site_fract_z
 _atom_site_occupancy
  Tb  Tb0  1  0.683959  0.500000  0.250000  1
  Tb  Tb1  1  0.315611  0.500000  0.750000  1
  Y  Y2  1  0.741510  0.000000  0.250000  1
  Er  Er3  1  0.183829  0.205618  0.422367  1
  Er  Er4  1  0.183829  0.794382  0.077633  1
  Er  Er5  1  0.816455  0.794627  0.578295  1
  Er  Er6  1  0.816455  0.205373  0.921705  1
  Er  Er7  1  0.259206  0.000000  0.750000  1
  W  W8  1  0.255623  0.275892  0.114748  1
  W  W9  1  0.255623  0.724108  0.385252  1
  W  W10  1  0.744243  0.724850  0.884896  1
  W  W11  1  0.744243  0.275150  0.615104  1
  O  O12  1  0.456387  0.208684  0.273716  1
  O  O13  1  0.456387  0.791316  0.226284  1
  O  O14  1  0.541808  0.792876  0.726255  1
  O  O15  1  0.541808  0.207124  0.773745  1
  O  O16  1  0.045672  0.059588  0.103378  1
  O  O17  1  0.045672  0.940412  0.396622  1
  O  O18  1  0.956445  0.940745  0.895530  1
  O  O19  1  0.956445  0.059255  0.604470  1
  O  O20  1  0.981642  0.287716  0.229344  1
  O  O21  1  0.981642  0.712284  0.270656  1
  O  O22  1  0.018462  0.713037  0.770515  1
  O  O23  1  0.018462  0.286963  0.729485  1
  O  O24  1  0.850382  0.364063  0.451746  1
  O  O25  1  0.850382  0.635937  0.048254  1
  O  O26  1  0.149201  0.635399  0.548490  1
  O  O27  1  0.149201  0.364601  0.951510  1
  O  O28  1  0.641951  0.510166  0.614173  1
  O  O29  1  0.641951  0.489834  0.885827  1
  O  O30  1  0.358320  0.489306  0.386104  1
  O  O31  1  0.358320  0.510694  0.113896  1
  O  O32  1  0.463602  0.153501  0.569492  1
  O  O33  1  0.463602  0.846499  0.930508  1
  O  O34  1  0.535836  0.845530  0.431405  1
  O  O35  1  0.535836  0.154470  0.068595  1
