# generated using pymatgen
data_Tb3Tm3Co16(P6Ru)2
_symmetry_space_group_name_H-M   'P 1'
_cell_length_a   3.69884200
_cell_length_b   10.50642601
_cell_length_c   12.23326601
_cell_angle_alpha   89.99619054
_cell_angle_beta   90.00000000
_cell_angle_gamma   90.00000000
_symmetry_Int_Tables_number   1
_chemical_formula_structural   Tb3Tm3Co16(P6Ru)2
_chemical_formula_sum   'Tb3 Tm3 Co16 P12 Ru2'
_cell_volume   475.40440884
_cell_formula_units_Z   1
loop_
 _symmetry_equiv_pos_site_id
 _symmetry_equiv_pos_as_xyz
  1  'x, y, z'
loop_
 _atom_site_type_symbol
 _atom_site_label
 _atom_site_symmetry_multiplicity
 _atom_site_fract_x
 _atom_site_fract_y
 _atom_site_fract_z
 _atom_site_occupancy
  Tb  Tb0  1  0.000000  0.500259  0.524346  1
  Tb  Tb1  1  0.500000  0.999850  0.475089  1
  Tb  Tb2  1  0.000000  0.317329  0.793390  1
  Tm  Tm3  1  0.500000  0.817279  0.206801  1
  Tm  Tm4  1  0.500000  0.182581  0.206598  1
  Tm  Tm5  1  0.000000  0.683103  0.793445  1
  Co  Co6  1  0.500000  0.501286  0.704724  1
  Co  Co7  1  0.000000  0.999812  0.294883  1
  Co  Co8  1  0.000000  0.500694  0.986662  1
  Co  Co9  1  0.500000  0.999307  0.014481  1
  Co  Co10  1  0.500000  0.332449  0.991316  1
  Co  Co11  1  0.500000  0.668276  0.990516  1
  Co  Co12  1  0.000000  0.167109  0.010479  1
  Co  Co13  1  0.000000  0.832244  0.010053  1
  Co  Co14  1  0.500000  0.296995  0.429927  1
  Co  Co15  1  0.500000  0.703172  0.430586  1
  Co  Co16  1  0.000000  0.202832  0.568279  1
  Co  Co17  1  0.000000  0.797050  0.569231  1
  Co  Co18  1  0.500000  0.878187  0.708676  1
  Co  Co19  1  0.500000  0.120250  0.707736  1
  Co  Co20  1  0.000000  0.621566  0.291493  1
  Co  Co21  1  0.000000  0.378483  0.291115  1
  P  P22  1  0.500000  0.501193  0.882280  1
  P  P23  1  0.000000  0.999642  0.118777  1
  P  P24  1  0.500000  0.500006  0.349362  1
  P  P25  1  0.000000  0.000085  0.650447  1
  P  P26  1  0.500000  0.311039  0.615579  1
  P  P27  1  0.500000  0.689144  0.617131  1
  P  P28  1  0.000000  0.188597  0.382221  1
  P  P29  1  0.000000  0.811157  0.382726  1
  P  P30  1  0.500000  0.846007  0.893068  1
  P  P31  1  0.500000  0.152881  0.894057  1
  P  P32  1  0.000000  0.654327  0.107375  1
  P  P33  1  0.000000  0.345889  0.106986  1
  Ru  Ru34  1  0.500000  0.500383  0.158976  1
  Ru  Ru35  1  0.000000  0.999536  0.841190  1
