# generated using pymatgen
data_DyYCo3Si4Rh3
_symmetry_space_group_name_H-M   'P 1'
_cell_length_a   6.45846188
_cell_length_b   6.52072999
_cell_length_c   6.45867657
_cell_angle_alpha   131.37116169
_cell_angle_beta   114.10302416
_cell_angle_gamma   85.70936283
_symmetry_Int_Tables_number   1
_chemical_formula_structural   DyYCo3Si4Rh3
_chemical_formula_sum   'Dy1 Y1 Co3 Si4 Rh3'
_cell_volume   178.60742670
_cell_formula_units_Z   1
loop_
 _symmetry_equiv_pos_site_id
 _symmetry_equiv_pos_as_xyz
  1  'x, y, z'
loop_
 _atom_site_type_symbol
 _atom_site_label
 _atom_site_symmetry_multiplicity
 _atom_site_fract_x
 _atom_site_fract_y
 _atom_site_fract_z
 _atom_site_occupancy
  Dy  Dy0  1  0.254007  0.535085  0.285058  1
  Y  Y1  1  0.749964  0.465854  0.719972  1
  Co  Co2  1  0.718317  0.999735  0.718229  1
  Co  Co3  1  0.219116  0.499937  0.718862  1
  Co  Co4  1  0.279426  0.999762  0.279376  1
  Si  Si5  1  0.077032  0.877673  0.809471  1
  Si  Si6  1  0.931876  0.122648  0.199643  1
  Si  Si7  1  0.565246  0.777751  0.200460  1
  Si  Si8  1  0.422637  0.222400  0.787757  1
  Rh  Rh9  1  0.782429  0.499911  0.282048  1
  Rh  Rh10  1  0.001262  0.009484  0.508458  1
  Rh  Rh11  1  0.498688  0.989760  0.990666  1
