# generated using pymatgen
data_VTe6As3O22
_symmetry_space_group_name_H-M   'P 1'
_cell_length_a   6.70256102
_cell_length_b   7.95077468
_cell_length_c   10.99256503
_cell_angle_alpha   67.57340963
_cell_angle_beta   91.74978420
_cell_angle_gamma   78.85455668
_symmetry_Int_Tables_number   1
_chemical_formula_structural   VTe6As3O22
_chemical_formula_sum   'V1 Te6 As3 O22'
_cell_volume   527.75897909
_cell_formula_units_Z   1
loop_
 _symmetry_equiv_pos_site_id
 _symmetry_equiv_pos_as_xyz
  1  'x, y, z'
loop_
 _atom_site_type_symbol
 _atom_site_label
 _atom_site_symmetry_multiplicity
 _atom_site_fract_x
 _atom_site_fract_y
 _atom_site_fract_z
 _atom_site_occupancy
  V  V0  1  0.307772  0.291406  0.109756  1
  Te  Te1  1  0.692779  0.767579  0.476246  1
  Te  Te2  1  0.309448  0.230244  0.525741  1
  Te  Te3  1  0.803971  0.330779  0.200156  1
  Te  Te4  1  0.194186  0.667599  0.801216  1
  Te  Te5  1  0.765865  0.950119  0.163897  1
  Te  Te6  1  0.240997  0.051250  0.835279  1
  As  As7  1  0.681901  0.705777  0.889643  1
  As  As8  1  0.190118  0.717236  0.397261  1
  As  As9  1  0.813051  0.281736  0.603614  1
  O  O10  1  0.193299  0.421111  0.942811  1
  O  O11  1  0.802403  0.584051  0.052177  1
  O  O12  1  0.750701  0.036021  0.309625  1
  O  O13  1  0.259483  0.970994  0.687728  1
  O  O14  1  0.477677  0.402080  0.150156  1
  O  O15  1  0.514863  0.591290  0.847224  1
  O  O16  1  0.701041  0.718878  0.318856  1
  O  O17  1  0.302499  0.285530  0.680822  1
  O  O18  1  0.082954  0.838625  0.235220  1
  O  O19  1  0.922639  0.162001  0.765090  1
  O  O20  1  0.012795  0.693536  0.511692  1
  O  O21  1  0.989150  0.306362  0.488610  1
  O  O22  1  0.822230  0.215407  0.074845  1
  O  O23  1  0.173723  0.789192  0.922260  1
  O  O24  1  0.444103  0.076829  0.120182  1
  O  O25  1  0.561578  0.919889  0.887719  1
  O  O26  1  0.360098  0.823874  0.444471  1
  O  O27  1  0.643097  0.174773  0.557393  1
  O  O28  1  0.121751  0.272104  0.221354  1
  O  O29  1  0.862787  0.723458  0.779715  1
  O  O30  1  0.314820  0.498615  0.407298  1
  O  O31  1  0.686219  0.501654  0.591945  1
