# generated using pymatgen
data_LiPr2Ag3O8
_symmetry_space_group_name_H-M   'P 1'
_cell_length_a   6.71066678
_cell_length_b   6.77986057
_cell_length_c   6.54755372
_cell_angle_alpha   125.90054821
_cell_angle_beta   125.53610832
_cell_angle_gamma   81.02354393
_symmetry_Int_Tables_number   1
_chemical_formula_structural   LiPr2Ag3O8
_chemical_formula_sum   'Li1 Pr2 Ag3 O8'
_cell_volume   188.48987647
_cell_formula_units_Z   1
loop_
 _symmetry_equiv_pos_site_id
 _symmetry_equiv_pos_as_xyz
  1  'x, y, z'
loop_
 _atom_site_type_symbol
 _atom_site_label
 _atom_site_symmetry_multiplicity
 _atom_site_fract_x
 _atom_site_fract_y
 _atom_site_fract_z
 _atom_site_occupancy
  Li  Li0  1  0.875000  0.625000  0.250000  1
  Pr  Pr1  1  0.988460  0.012031  0.997869  1
  Pr  Pr2  1  0.761540  0.237969  0.502131  1
  Ag  Ag3  1  0.375000  0.125000  0.750000  1
  Ag  Ag4  1  0.375000  0.625000  0.250000  1
  Ag  Ag5  1  0.375000  0.625000  0.750000  1
  O  O6  1  0.145549  0.601566  0.849649  1
  O  O7  1  0.744807  0.287326  0.148115  1
  O  O8  1  0.604451  0.648434  0.650351  1
  O  O9  1  0.005193  0.962674  0.351885  1
  O  O10  1  0.335435  0.981874  0.930793  1
  O  O11  1  0.055562  0.400806  0.062801  1
  O  O12  1  0.694438  0.849194  0.437199  1
  O  O13  1  0.414565  0.268126  0.569207  1
