# generated using pymatgen
data_DyNpN3
_symmetry_space_group_name_H-M   'P 1'
_cell_length_a   5.67734500
_cell_length_b   5.95130400
_cell_length_c   8.25312700
_cell_angle_alpha   90.00000000
_cell_angle_beta   90.00000000
_cell_angle_gamma   90.00000000
_symmetry_Int_Tables_number   1
_chemical_formula_structural   DyNpN3
_chemical_formula_sum   'Dy4 Np4 N12'
_cell_volume   278.85340341
_cell_formula_units_Z   4
loop_
 _symmetry_equiv_pos_site_id
 _symmetry_equiv_pos_as_xyz
  1  'x, y, z'
loop_
 _atom_site_type_symbol
 _atom_site_label
 _atom_site_symmetry_multiplicity
 _atom_site_fract_x
 _atom_site_fract_y
 _atom_site_fract_z
 _atom_site_occupancy
  Dy  Dy0  1  0.514220  0.557632  0.250000  1
  Dy  Dy1  1  0.985780  0.057632  0.250000  1
  Dy  Dy2  1  0.485780  0.442368  0.750000  1
  Dy  Dy3  1  0.014220  0.942368  0.750000  1
  Np  Np4  1  0.000000  0.500000  0.000000  1
  Np  Np5  1  0.500000  0.000000  0.500000  1
  Np  Np6  1  0.000000  0.500000  0.500000  1
  Np  Np7  1  0.500000  0.000000  0.000000  1
  N  N8  1  0.382623  0.951531  0.250000  1
  N  N9  1  0.117377  0.451531  0.250000  1
  N  N10  1  0.617377  0.048469  0.750000  1
  N  N11  1  0.882623  0.548469  0.750000  1
  N  N12  1  0.790352  0.812229  0.061999  1
  N  N13  1  0.709648  0.312229  0.438001  1
  N  N14  1  0.209648  0.187771  0.561999  1
  N  N15  1  0.290352  0.687771  0.938001  1
  N  N16  1  0.209648  0.187771  0.938001  1
  N  N17  1  0.290352  0.687771  0.561999  1
  N  N18  1  0.790352  0.812229  0.438001  1
  N  N19  1  0.709648  0.312229  0.061999  1
