# generated using pymatgen
data_Ag2AsIrF12
_symmetry_space_group_name_H-M   'P 1'
_cell_length_a   5.50863489
_cell_length_b   5.85891915
_cell_length_c   8.00042900
_cell_angle_alpha   96.94542298
_cell_angle_beta   89.74190660
_cell_angle_gamma   90.31841478
_symmetry_Int_Tables_number   1
_chemical_formula_structural   Ag2AsIrF12
_chemical_formula_sum   'Ag2 As1 Ir1 F12'
_cell_volume   256.31034139
_cell_formula_units_Z   1
loop_
 _symmetry_equiv_pos_site_id
 _symmetry_equiv_pos_as_xyz
  1  'x, y, z'
loop_
 _atom_site_type_symbol
 _atom_site_label
 _atom_site_symmetry_multiplicity
 _atom_site_fract_x
 _atom_site_fract_y
 _atom_site_fract_z
 _atom_site_occupancy
  Ag  Ag0  1  0.000000  0.000000  0.000000  1
  Ag  Ag1  1  0.500000  0.500000  0.500000  1
  As  As2  1  0.500000  0.500000  0.000000  1
  Ir  Ir3  1  0.000000  0.000000  0.500000  1
  F  F4  1  0.862336  0.992730  0.722106  1
  F  F5  1  0.142544  0.299307  0.567187  1
  F  F6  1  0.242903  0.638215  0.924306  1
  F  F7  1  0.352496  0.493554  0.197430  1
  F  F8  1  0.370915  0.227414  0.926753  1
  F  F9  1  0.291739  0.856630  0.569504  1
  F  F10  1  0.708261  0.143370  0.430496  1
  F  F11  1  0.629085  0.772586  0.073247  1
  F  F12  1  0.647504  0.506446  0.802570  1
  F  F13  1  0.757097  0.361785  0.075694  1
  F  F14  1  0.857456  0.700693  0.432813  1
  F  F15  1  0.137664  0.007270  0.277894  1
