# generated using pymatgen
data_Li6ScTa5Rh12
_symmetry_space_group_name_H-M   'P 1'
_cell_length_a   4.38042600
_cell_length_b   6.11085900
_cell_length_c   13.09486400
_cell_angle_alpha   90.00032129
_cell_angle_beta   90.00110067
_cell_angle_gamma   89.99884316
_symmetry_Int_Tables_number   1
_chemical_formula_structural   Li6ScTa5Rh12
_chemical_formula_sum   'Li6 Sc1 Ta5 Rh12'
_cell_volume   350.52548859
_cell_formula_units_Z   1
loop_
 _symmetry_equiv_pos_site_id
 _symmetry_equiv_pos_as_xyz
  1  'x, y, z'
loop_
 _atom_site_type_symbol
 _atom_site_label
 _atom_site_symmetry_multiplicity
 _atom_site_fract_x
 _atom_site_fract_y
 _atom_site_fract_z
 _atom_site_occupancy
  Li  Li0  1  0.000000  0.499999  0.000000  1
  Li  Li1  1  0.499889  0.000007  0.166474  1
  Li  Li2  1  0.999888  0.499996  0.332895  1
  Li  Li3  1  0.500000  0.000000  0.500000  1
  Li  Li4  1  0.000113  0.500002  0.667105  1
  Li  Li5  1  0.500112  0.999993  0.833526  1
  Sc  Sc6  1  0.000000  0.000000  0.000000  1
  Ta  Ta7  1  0.499889  0.500003  0.165168  1
  Ta  Ta8  1  0.999897  0.999997  0.332971  1
  Ta  Ta9  1  0.500000  0.499999  0.500000  1
  Ta  Ta10  1  0.000104  0.000003  0.667029  1
  Ta  Ta11  1  0.500112  0.499995  0.834832  1
  Rh  Rh12  1  0.499973  0.256216  0.000000  1
  Rh  Rh13  1  0.500027  0.743785  0.000000  1
  Rh  Rh14  1  0.999879  0.253500  0.170719  1
  Rh  Rh15  1  0.999882  0.746503  0.170718  1
  Rh  Rh16  1  0.499886  0.249773  0.334007  1
  Rh  Rh17  1  0.499883  0.750230  0.334006  1
  Rh  Rh18  1  0.000024  0.250467  0.500004  1
  Rh  Rh19  1  0.999976  0.749533  0.499996  1
  Rh  Rh20  1  0.500118  0.249771  0.665994  1
  Rh  Rh21  1  0.500115  0.750228  0.665993  1
  Rh  Rh22  1  0.000119  0.253498  0.829282  1
  Rh  Rh23  1  0.000122  0.746501  0.829281  1
