# generated using pymatgen
data_Sm4Ga3SnRu4
_symmetry_space_group_name_H-M   'P 1'
_cell_length_a   4.67446400
_cell_length_b   7.13613331
_cell_length_c   7.43865212
_cell_angle_alpha   89.23788190
_cell_angle_beta   90.00000000
_cell_angle_gamma   90.00000000
_symmetry_Int_Tables_number   1
_chemical_formula_structural   Sm4Ga3SnRu4
_chemical_formula_sum   'Sm4 Ga3 Sn1 Ru4'
_cell_volume   248.11361813
_cell_formula_units_Z   1
loop_
 _symmetry_equiv_pos_site_id
 _symmetry_equiv_pos_as_xyz
  1  'x, y, z'
loop_
 _atom_site_type_symbol
 _atom_site_label
 _atom_site_symmetry_multiplicity
 _atom_site_fract_x
 _atom_site_fract_y
 _atom_site_fract_z
 _atom_site_occupancy
  Sm  Sm0  1  0.250000  0.810473  0.472556  1
  Sm  Sm1  1  0.750000  0.189074  0.535063  1
  Sm  Sm2  1  0.750000  0.304054  0.017582  1
  Sm  Sm3  1  0.250000  0.698537  0.968728  1
  Ga  Ga4  1  0.750000  0.610632  0.693312  1
  Ga  Ga5  1  0.750000  0.891841  0.192797  1
  Ga  Ga6  1  0.250000  0.107900  0.805360  1
  Sn  Sn7  1  0.250000  0.388047  0.304370  1
  Ru  Ru8  1  0.750000  0.568799  0.352952  1
  Ru  Ru9  1  0.750000  0.938091  0.846685  1
  Ru  Ru10  1  0.250000  0.052174  0.147039  1
  Ru  Ru11  1  0.250000  0.440378  0.663555  1
