# generated using pymatgen
data_Er2Tm10Ni5Pb
_symmetry_space_group_name_H-M   'P 1'
_cell_length_a   8.24685182
_cell_length_b   8.24685273
_cell_length_c   8.24878100
_cell_angle_alpha   109.52691867
_cell_angle_beta   111.57388182
_cell_angle_gamma   107.33062835
_symmetry_Int_Tables_number   1
_chemical_formula_structural   Er2Tm10Ni5Pb
_chemical_formula_sum   'Er2 Tm10 Ni5 Pb1'
_cell_volume   431.32268203
_cell_formula_units_Z   1
loop_
 _symmetry_equiv_pos_site_id
 _symmetry_equiv_pos_as_xyz
  1  'x, y, z'
loop_
 _atom_site_type_symbol
 _atom_site_label
 _atom_site_symmetry_multiplicity
 _atom_site_fract_x
 _atom_site_fract_y
 _atom_site_fract_z
 _atom_site_occupancy
  Er  Er0  1  0.291771  0.180879  0.472650  1
  Er  Er1  1  0.708229  0.819121  0.527350  1
  Tm  Tm2  1  0.292347  0.818950  0.111296  1
  Tm  Tm3  1  0.707653  0.181050  0.888704  1
  Tm  Tm4  1  0.627566  0.320434  0.306366  1
  Tm  Tm5  1  0.372434  0.679566  0.693634  1
  Tm  Tm6  1  0.014070  0.321202  0.693634  1
  Tm  Tm7  1  0.985930  0.678798  0.306366  1
  Tm  Tm8  1  0.209856  0.403082  0.192078  1
  Tm  Tm9  1  0.790144  0.596918  0.807922  1
  Tm  Tm10  1  0.211005  0.017779  0.807922  1
  Tm  Tm11  1  0.788995  0.982221  0.192078  1
  Ni  Ni12  1  0.999097  0.366299  0.365397  1
  Ni  Ni13  1  0.000903  0.633701  0.634603  1
  Ni  Ni14  1  0.376526  0.876526  0.500000  1
  Ni  Ni15  1  0.623474  0.123474  0.500000  1
  Ni  Ni16  1  0.000000  0.000000  0.000000  1
  Pb  Pb17  1  0.500000  0.500000  0.000000  1
