# generated using pymatgen
data_TbNd2Lu(AsPt)4
_symmetry_space_group_name_H-M   'P 1'
_cell_length_a   4.29588800
_cell_length_b   4.29588838
_cell_length_c   15.88516400
_cell_angle_alpha   90.00000000
_cell_angle_beta   90.00000000
_cell_angle_gamma   120.00001248
_symmetry_Int_Tables_number   1
_chemical_formula_structural   TbNd2Lu(AsPt)4
_chemical_formula_sum   'Tb1 Nd2 Lu1 As4 Pt4'
_cell_volume   253.87984154
_cell_formula_units_Z   1
loop_
 _symmetry_equiv_pos_site_id
 _symmetry_equiv_pos_as_xyz
  1  'x, y, z'
loop_
 _atom_site_type_symbol
 _atom_site_label
 _atom_site_symmetry_multiplicity
 _atom_site_fract_x
 _atom_site_fract_y
 _atom_site_fract_z
 _atom_site_occupancy
  Tb  Tb0  1  0.000000  0.000000  0.250000  1
  Nd  Nd1  1  0.000000  0.000000  0.502676  1
  Nd  Nd2  1  0.000000  0.000000  0.997324  1
  Lu  Lu3  1  0.000000  0.000000  0.750000  1
  As  As4  1  0.333333  0.666667  0.879736  1
  As  As5  1  0.666667  0.333333  0.118499  1
  As  As6  1  0.666667  0.333333  0.381501  1
  As  As7  1  0.333333  0.666667  0.620264  1
  Pt  Pt8  1  0.333333  0.666667  0.361506  1
  Pt  Pt9  1  0.666667  0.333333  0.646897  1
  Pt  Pt10  1  0.666667  0.333333  0.853103  1
  Pt  Pt11  1  0.333333  0.666667  0.138494  1
