# generated using pymatgen
data_Tm4MnI4
_symmetry_space_group_name_H-M   'P 1'
_cell_length_a   11.20001756
_cell_length_b   11.20001893
_cell_length_c   5.90249178
_cell_angle_alpha   89.38606054
_cell_angle_beta   89.38606056
_cell_angle_gamma   88.71034962
_symmetry_Int_Tables_number   1
_chemical_formula_structural   Tm4MnI4
_chemical_formula_sum   'Tm8 Mn2 I8'
_cell_volume   740.14030806
_cell_formula_units_Z   2
loop_
 _symmetry_equiv_pos_site_id
 _symmetry_equiv_pos_as_xyz
  1  'x, y, z'
loop_
 _atom_site_type_symbol
 _atom_site_label
 _atom_site_symmetry_multiplicity
 _atom_site_fract_x
 _atom_site_fract_y
 _atom_site_fract_z
 _atom_site_occupancy
  Tm  Tm0  1  0.194692  0.917947  0.996256  1
  Tm  Tm1  1  0.805308  0.082053  0.003744  1
  Tm  Tm2  1  0.082053  0.805308  0.503744  1
  Tm  Tm3  1  0.917947  0.194692  0.496256  1
  Tm  Tm4  1  0.807053  0.922499  0.506240  1
  Tm  Tm5  1  0.192947  0.077501  0.493760  1
  Tm  Tm6  1  0.077501  0.192947  0.993760  1
  Tm  Tm7  1  0.922499  0.807053  0.006240  1
  Mn  Mn8  1  0.000337  0.999663  0.250000  1
  Mn  Mn9  1  0.999663  0.000337  0.750000  1
  I  I10  1  0.357831  0.847499  0.510048  1
  I  I11  1  0.642169  0.152501  0.489952  1
  I  I12  1  0.152501  0.642169  0.989952  1
  I  I13  1  0.847499  0.357831  0.010048  1
  I  I14  1  0.353358  0.145631  0.995574  1
  I  I15  1  0.646642  0.854369  0.004426  1
  I  I16  1  0.854369  0.646642  0.504426  1
  I  I17  1  0.145631  0.353358  0.495574  1
