# generated using pymatgen
data_Zr15Ta(Ir2N)4
_symmetry_space_group_name_H-M   'P 1'
_cell_length_a   8.83151361
_cell_length_b   8.83151484
_cell_length_c   8.83151363
_cell_angle_alpha   59.67400016
_cell_angle_beta   59.67400353
_cell_angle_gamma   59.67399537
_symmetry_Int_Tables_number   1
_chemical_formula_structural   Zr15Ta(Ir2N)4
_chemical_formula_sum   'Zr15 Ta1 Ir8 N4'
_cell_volume   483.46164845
_cell_formula_units_Z   1
loop_
 _symmetry_equiv_pos_site_id
 _symmetry_equiv_pos_as_xyz
  1  'x, y, z'
loop_
 _atom_site_type_symbol
 _atom_site_label
 _atom_site_symmetry_multiplicity
 _atom_site_fract_x
 _atom_site_fract_y
 _atom_site_fract_z
 _atom_site_occupancy
  Zr  Zr0  1  0.125000  0.625000  0.625000  1
  Zr  Zr1  1  0.625000  0.125000  0.625000  1
  Zr  Zr2  1  0.625000  0.625000  0.125000  1
  Zr  Zr3  1  0.814446  0.814446  0.186072  1
  Zr  Zr4  1  0.183157  0.183157  0.816568  1
  Zr  Zr5  1  0.814446  0.186072  0.814446  1
  Zr  Zr6  1  0.183157  0.816568  0.183157  1
  Zr  Zr7  1  0.186072  0.814446  0.814446  1
  Zr  Zr8  1  0.816568  0.183157  0.183157  1
  Zr  Zr9  1  0.435554  0.435554  0.063928  1
  Zr  Zr10  1  0.066843  0.066843  0.433432  1
  Zr  Zr11  1  0.435554  0.063928  0.435554  1
  Zr  Zr12  1  0.066843  0.433432  0.066843  1
  Zr  Zr13  1  0.063928  0.435554  0.435554  1
  Zr  Zr14  1  0.433432  0.066843  0.066843  1
  Ta  Ta15  1  0.625000  0.625000  0.625000  1
  Ir  Ir16  1  0.765723  0.416287  0.416287  1
  Ir  Ir17  1  0.416287  0.765723  0.416287  1
  Ir  Ir18  1  0.416287  0.416287  0.765723  1
  Ir  Ir19  1  0.407644  0.407644  0.407644  1
  Ir  Ir20  1  0.484277  0.833713  0.833713  1
  Ir  Ir21  1  0.833713  0.484277  0.833713  1
  Ir  Ir22  1  0.833713  0.833713  0.484277  1
  Ir  Ir23  1  0.842356  0.842356  0.842356  1
  N  N24  1  0.625000  0.125000  0.125000  1
  N  N25  1  0.125000  0.625000  0.125000  1
  N  N26  1  0.125000  0.125000  0.625000  1
  N  N27  1  0.125000  0.125000  0.125000  1
