# generated using pymatgen
data_Yb4UReRu6
_symmetry_space_group_name_H-M   'P 1'
_cell_length_a   5.64531111
_cell_length_b   5.21389599
_cell_length_c   8.94661500
_cell_angle_alpha   90.00000000
_cell_angle_beta   90.00000000
_cell_angle_gamma   123.20511809
_symmetry_Int_Tables_number   1
_chemical_formula_structural   Yb4UReRu6
_chemical_formula_sum   'Yb4 U1 Re1 Ru6'
_cell_volume   220.33665608
_cell_formula_units_Z   1
loop_
 _symmetry_equiv_pos_site_id
 _symmetry_equiv_pos_as_xyz
  1  'x, y, z'
loop_
 _atom_site_type_symbol
 _atom_site_label
 _atom_site_symmetry_multiplicity
 _atom_site_fract_x
 _atom_site_fract_y
 _atom_site_fract_z
 _atom_site_occupancy
  Yb  Yb0  1  0.668840  0.333218  0.553510  1
  Yb  Yb1  1  0.341856  0.683878  0.427419  1
  Yb  Yb2  1  0.341856  0.683878  0.072581  1
  Yb  Yb3  1  0.668840  0.333218  0.946490  1
  U  U4  1  0.153223  0.291025  0.750000  1
  Re  Re5  1  0.841776  0.684775  0.250000  1
  Ru  Ru6  1  0.004076  0.010246  0.503891  1
  Ru  Ru7  1  0.004076  0.010246  0.996109  1
  Ru  Ru8  1  0.158725  0.789192  0.750000  1
  Ru  Ru9  1  0.618088  0.778110  0.750000  1
  Ru  Ru10  1  0.843466  0.200700  0.250000  1
  Ru  Ru11  1  0.355179  0.201515  0.250000  1
