# generated using pymatgen
data_YTh3(MoN2)4
_symmetry_space_group_name_H-M   'P 1'
_cell_length_a   3.30181800
_cell_length_b   5.82190478
_cell_length_c   11.00616585
_cell_angle_alpha   89.48990832
_cell_angle_beta   90.00000000
_cell_angle_gamma   90.00000000
_symmetry_Int_Tables_number   1
_chemical_formula_structural   YTh3(MoN2)4
_chemical_formula_sum   'Y1 Th3 Mo4 N8'
_cell_volume   211.56171096
_cell_formula_units_Z   1
loop_
 _symmetry_equiv_pos_site_id
 _symmetry_equiv_pos_as_xyz
  1  'x, y, z'
loop_
 _atom_site_type_symbol
 _atom_site_label
 _atom_site_symmetry_multiplicity
 _atom_site_fract_x
 _atom_site_fract_y
 _atom_site_fract_z
 _atom_site_occupancy
  Y  Y0  1  0.750000  0.424254  0.350477  1
  Th  Th1  1  0.250000  0.072259  0.854354  1
  Th  Th2  1  0.250000  0.574835  0.641942  1
  Th  Th3  1  0.750000  0.922198  0.151786  1
  Mo  Mo4  1  0.250000  0.432674  0.098909  1
  Mo  Mo5  1  0.250000  0.942145  0.410287  1
  Mo  Mo6  1  0.750000  0.562612  0.905840  1
  Mo  Mo7  1  0.750000  0.068198  0.588665  1
  N  N8  1  0.250000  0.167518  0.251198  1
  N  N9  1  0.250000  0.666776  0.256068  1
  N  N10  1  0.750000  0.832934  0.748158  1
  N  N11  1  0.750000  0.328890  0.745558  1
  N  N12  1  0.250000  0.742916  0.996642  1
  N  N13  1  0.250000  0.256261  0.502650  1
  N  N14  1  0.750000  0.253118  0.007758  1
  N  N15  1  0.750000  0.752412  0.489709  1
