# generated using pymatgen
data_Sc2FeNi2P7Ru9
_symmetry_space_group_name_H-M   'P 1'
_cell_length_a   9.34801646
_cell_length_b   9.32420550
_cell_length_c   3.78550000
_cell_angle_alpha   90.00000000
_cell_angle_beta   90.00000000
_cell_angle_gamma   120.98490851
_symmetry_Int_Tables_number   1
_chemical_formula_structural   Sc2FeNi2P7Ru9
_chemical_formula_sum   'Sc2 Fe1 Ni2 P7 Ru9'
_cell_volume   282.87128524
_cell_formula_units_Z   1
loop_
 _symmetry_equiv_pos_site_id
 _symmetry_equiv_pos_as_xyz
  1  'x, y, z'
loop_
 _atom_site_type_symbol
 _atom_site_label
 _atom_site_symmetry_multiplicity
 _atom_site_fract_x
 _atom_site_fract_y
 _atom_site_fract_z
 _atom_site_occupancy
  Sc  Sc0  1  0.664243  0.333034  0.500000  1
  Sc  Sc1  1  0.341014  0.670349  0.000000  1
  Fe  Fe2  1  0.724967  0.884575  0.000000  1
  Ni  Ni3  1  0.110023  0.839251  0.000000  1
  Ni  Ni4  1  0.159880  0.272599  0.000000  1
  P  P5  1  0.595759  0.717841  0.500000  1
  P  P6  1  0.994129  0.996200  0.000000  1
  P  P7  1  0.289009  0.883206  0.500000  1
  P  P8  1  0.117975  0.407690  0.500000  1
  P  P9  1  0.882562  0.579736  0.000000  1
  P  P10  1  0.412514  0.297864  0.000000  1
  P  P11  1  0.699343  0.110670  0.000000  1
  Ru  Ru12  1  0.562360  0.946805  0.500000  1
  Ru  Ru13  1  0.381745  0.440511  0.500000  1
  Ru  Ru14  1  0.913804  0.116999  0.500000  1
  Ru  Ru15  1  0.215849  0.088700  0.500000  1
  Ru  Ru16  1  0.877834  0.797501  0.500000  1
  Ru  Ru17  1  0.430293  0.064985  0.000000  1
  Ru  Ru18  1  0.938225  0.364342  0.000000  1
  Ru  Ru19  1  0.635972  0.569233  0.000000  1
  Ru  Ru20  1  0.052503  0.617908  0.500000  1
