# generated using pymatgen
data_Sm3Si2Ni2Rh
_symmetry_space_group_name_H-M   'P 1'
_cell_length_a   5.73878600
_cell_length_b   7.39861800
_cell_length_c   14.62933800
_cell_angle_alpha   90.00000000
_cell_angle_beta   90.00000000
_cell_angle_gamma   90.00000000
_symmetry_Int_Tables_number   1
_chemical_formula_structural   Sm3Si2Ni2Rh
_chemical_formula_sum   'Sm12 Si8 Ni8 Rh4'
_cell_volume   621.14831145
_cell_formula_units_Z   4
loop_
 _symmetry_equiv_pos_site_id
 _symmetry_equiv_pos_as_xyz
  1  'x, y, z'
loop_
 _atom_site_type_symbol
 _atom_site_label
 _atom_site_symmetry_multiplicity
 _atom_site_fract_x
 _atom_site_fract_y
 _atom_site_fract_z
 _atom_site_occupancy
  Sm  Sm0  1  0.871505  0.850591  0.750000  1
  Sm  Sm1  1  0.855291  0.515122  0.391571  1
  Sm  Sm2  1  0.355291  0.984878  0.608429  1
  Sm  Sm3  1  0.144709  0.484878  0.891571  1
  Sm  Sm4  1  0.644709  0.015123  0.108429  1
  Sm  Sm5  1  0.128495  0.149409  0.250000  1
  Sm  Sm6  1  0.144709  0.484878  0.608429  1
  Sm  Sm7  1  0.644709  0.015123  0.391571  1
  Sm  Sm8  1  0.371505  0.649409  0.250000  1
  Sm  Sm9  1  0.355291  0.984878  0.891571  1
  Sm  Sm10  1  0.628495  0.350591  0.750000  1
  Sm  Sm11  1  0.855291  0.515122  0.108429  1
  Si  Si12  1  0.641562  0.638648  0.906450  1
  Si  Si13  1  0.858438  0.138648  0.593550  1
  Si  Si14  1  0.141562  0.861352  0.093550  1
  Si  Si15  1  0.141562  0.861352  0.406450  1
  Si  Si16  1  0.641562  0.638648  0.593550  1
  Si  Si17  1  0.858438  0.138648  0.906450  1
  Si  Si18  1  0.358438  0.361352  0.093550  1
  Si  Si19  1  0.358438  0.361352  0.406450  1
  Ni  Ni20  1  0.597642  0.344441  0.963813  1
  Ni  Ni21  1  0.097642  0.155559  0.463813  1
  Ni  Ni22  1  0.097642  0.155559  0.036187  1
  Ni  Ni23  1  0.902358  0.844441  0.963813  1
  Ni  Ni24  1  0.902358  0.844441  0.536187  1
  Ni  Ni25  1  0.597642  0.344441  0.536187  1
  Ni  Ni26  1  0.402358  0.655559  0.463813  1
  Ni  Ni27  1  0.402358  0.655559  0.036187  1
  Rh  Rh28  1  0.413190  0.697380  0.750000  1
  Rh  Rh29  1  0.586810  0.302620  0.250000  1
  Rh  Rh30  1  0.913190  0.802620  0.250000  1
  Rh  Rh31  1  0.086810  0.197380  0.750000  1
