# generated using pymatgen
data_Tb11Sm8LuPb16
_symmetry_space_group_name_H-M   'P 1'
_cell_length_a   8.25184800
_cell_length_b   8.35353125
_cell_length_c   15.78585100
_cell_angle_alpha   90.00000000
_cell_angle_beta   90.00000000
_cell_angle_gamma   90.07007023
_symmetry_Int_Tables_number   1
_chemical_formula_structural   Tb11Sm8LuPb16
_chemical_formula_sum   'Tb11 Sm8 Lu1 Pb16'
_cell_volume   1088.15057418
_cell_formula_units_Z   1
loop_
 _symmetry_equiv_pos_site_id
 _symmetry_equiv_pos_as_xyz
  1  'x, y, z'
loop_
 _atom_site_type_symbol
 _atom_site_label
 _atom_site_symmetry_multiplicity
 _atom_site_fract_x
 _atom_site_fract_y
 _atom_site_fract_z
 _atom_site_occupancy
  Tb  Tb0  1  0.628083  0.158486  0.621042  1
  Tb  Tb1  1  0.128038  0.341554  0.878597  1
  Tb  Tb2  1  0.372700  0.842172  0.121818  1
  Tb  Tb3  1  0.871474  0.658599  0.378222  1
  Tb  Tb4  1  0.372700  0.842172  0.378182  1
  Tb  Tb5  1  0.871474  0.658599  0.121778  1
  Tb  Tb6  1  0.628083  0.158486  0.878958  1
  Tb  Tb7  1  0.128038  0.341554  0.621403  1
  Tb  Tb8  1  0.794618  0.495727  0.750000  1
  Tb  Tb9  1  0.294660  0.004192  0.750000  1
  Tb  Tb10  1  0.205106  0.504073  0.250000  1
  Sm  Sm11  1  0.469571  0.677147  0.598783  1
  Sm  Sm12  1  0.969731  0.822847  0.901470  1
  Sm  Sm13  1  0.530739  0.322267  0.098937  1
  Sm  Sm14  1  0.029815  0.176742  0.401091  1
  Sm  Sm15  1  0.530739  0.322267  0.401063  1
  Sm  Sm16  1  0.029815  0.176742  0.098909  1
  Sm  Sm17  1  0.469571  0.677147  0.901217  1
  Sm  Sm18  1  0.969731  0.822847  0.598530  1
  Lu  Lu19  1  0.705766  0.995037  0.250000  1
  Pb  Pb20  1  0.713097  0.963419  0.455879  1
  Pb  Pb21  1  0.213073  0.536994  0.043305  1
  Pb  Pb22  1  0.286978  0.037074  0.957370  1
  Pb  Pb23  1  0.787084  0.463205  0.542611  1
  Pb  Pb24  1  0.286978  0.037074  0.542630  1
  Pb  Pb25  1  0.787084  0.463205  0.957389  1
  Pb  Pb26  1  0.713097  0.963419  0.044121  1
  Pb  Pb27  1  0.213073  0.536994  0.456695  1
  Pb  Pb28  1  0.431491  0.373953  0.750000  1
  Pb  Pb29  1  0.931293  0.125783  0.750000  1
  Pb  Pb30  1  0.568835  0.627264  0.250000  1
  Pb  Pb31  1  0.066619  0.874925  0.250000  1
  Pb  Pb32  1  0.658868  0.848399  0.750000  1
  Pb  Pb33  1  0.158510  0.652251  0.750000  1
  Pb  Pb34  1  0.342241  0.151680  0.250000  1
  Pb  Pb35  1  0.841226  0.345708  0.250000  1
