# generated using pymatgen
data_TaGaI8
_symmetry_space_group_name_H-M   'P 1'
_cell_length_a   11.29028635
_cell_length_b   11.29028528
_cell_length_c   10.08274000
_cell_angle_alpha   90.00000000
_cell_angle_beta   90.00000000
_cell_angle_gamma   128.34885180
_symmetry_Int_Tables_number   1
_chemical_formula_structural   TaGaI8
_chemical_formula_sum   'Ta2 Ga2 I16'
_cell_volume   1007.95621001
_cell_formula_units_Z   2
loop_
 _symmetry_equiv_pos_site_id
 _symmetry_equiv_pos_as_xyz
  1  'x, y, z'
loop_
 _atom_site_type_symbol
 _atom_site_label
 _atom_site_symmetry_multiplicity
 _atom_site_fract_x
 _atom_site_fract_y
 _atom_site_fract_z
 _atom_site_occupancy
  Ta  Ta0  1  0.612470  0.387530  0.250000  1
  Ta  Ta1  1  0.387530  0.612470  0.750000  1
  Ga  Ga2  1  0.813971  0.186029  0.250000  1
  Ga  Ga3  1  0.186029  0.813971  0.750000  1
  I  I4  1  0.525778  0.072532  0.250000  1
  I  I5  1  0.072532  0.525778  0.750000  1
  I  I6  1  0.474222  0.927468  0.750000  1
  I  I7  1  0.927468  0.474222  0.250000  1
  I  I8  1  0.630872  0.369128  0.983985  1
  I  I9  1  0.369128  0.630872  0.016015  1
  I  I10  1  0.630872  0.369128  0.516015  1
  I  I11  1  0.369128  0.630872  0.483985  1
  I  I12  1  0.321904  0.261393  0.250000  1
  I  I13  1  0.261393  0.321904  0.750000  1
  I  I14  1  0.678096  0.738607  0.750000  1
  I  I15  1  0.738607  0.678096  0.250000  1
  I  I16  1  0.880578  0.119422  0.462332  1
  I  I17  1  0.119422  0.880578  0.537668  1
  I  I18  1  0.880578  0.119422  0.037668  1
  I  I19  1  0.119422  0.880578  0.962332  1
