# generated using pymatgen
data_PrHo9In8(IrPd)2
_symmetry_space_group_name_H-M   'P 1'
_cell_length_a   3.62911000
_cell_length_b   8.14372290
_cell_length_c   18.32913844
_cell_angle_alpha   89.91106835
_cell_angle_beta   90.00000000
_cell_angle_gamma   90.00000000
_symmetry_Int_Tables_number   1
_chemical_formula_structural   PrHo9In8(IrPd)2
_chemical_formula_sum   'Pr1 Ho9 In8 Ir2 Pd2'
_cell_volume   541.70724979
_cell_formula_units_Z   1
loop_
 _symmetry_equiv_pos_site_id
 _symmetry_equiv_pos_as_xyz
  1  'x, y, z'
loop_
 _atom_site_type_symbol
 _atom_site_label
 _atom_site_symmetry_multiplicity
 _atom_site_fract_x
 _atom_site_fract_y
 _atom_site_fract_z
 _atom_site_occupancy
  Pr  Pr0  1  0.000000  0.000000  0.000000  1
  Ho  Ho1  1  0.000000  0.500000  0.500000  1
  Ho  Ho2  1  0.000000  0.726927  0.279871  1
  Ho  Ho3  1  0.000000  0.273073  0.720129  1
  Ho  Ho4  1  0.000000  0.744982  0.778763  1
  Ho  Ho5  1  0.000000  0.255018  0.221237  1
  Ho  Ho6  1  0.000000  0.617825  0.088943  1
  Ho  Ho7  1  0.000000  0.382175  0.911057  1
  Ho  Ho8  1  0.000000  0.884147  0.584819  1
  Ho  Ho9  1  0.000000  0.115853  0.415181  1
  In  In10  1  0.500000  0.701842  0.929926  1
  In  In11  1  0.500000  0.298158  0.070074  1
  In  In12  1  0.500000  0.792440  0.433136  1
  In  In13  1  0.500000  0.207560  0.566864  1
  In  In14  1  0.500000  0.578304  0.647927  1
  In  In15  1  0.500000  0.421696  0.352073  1
  In  In16  1  0.500000  0.922917  0.154567  1
  In  In17  1  0.500000  0.077083  0.845433  1
  Ir  Ir18  1  0.500000  0.520661  0.196825  1
  Ir  Ir19  1  0.500000  0.479339  0.803175  1
  Pd  Pd20  1  0.500000  0.982184  0.694443  1
  Pd  Pd21  1  0.500000  0.017816  0.305557  1
