# generated using pymatgen
data_Tb10Si16B
_symmetry_space_group_name_H-M   'P 1'
_cell_length_a   6.58548666
_cell_length_b   8.38618833
_cell_length_c   10.94499325
_cell_angle_alpha   112.52622235
_cell_angle_beta   107.50834453
_cell_angle_gamma   90.00000021
_symmetry_Int_Tables_number   1
_chemical_formula_structural   Tb10Si16B
_chemical_formula_sum   'Tb10 Si16 B1'
_cell_volume   527.89937312
_cell_formula_units_Z   1
loop_
 _symmetry_equiv_pos_site_id
 _symmetry_equiv_pos_as_xyz
  1  'x, y, z'
loop_
 _atom_site_type_symbol
 _atom_site_label
 _atom_site_symmetry_multiplicity
 _atom_site_fract_x
 _atom_site_fract_y
 _atom_site_fract_z
 _atom_site_occupancy
  Tb  Tb0  1  0.238719  0.241330  0.000000  1
  Tb  Tb1  1  0.238719  0.758670  0.000000  1
  Tb  Tb2  1  0.830774  0.351325  0.198842  1
  Tb  Tb3  1  0.830774  0.847519  0.198842  1
  Tb  Tb4  1  0.436270  0.447185  0.397431  1
  Tb  Tb5  1  0.436270  0.950246  0.397431  1
  Tb  Tb6  1  0.038839  0.049754  0.602570  1
  Tb  Tb7  1  0.038839  0.552815  0.602570  1
  Tb  Tb8  1  0.631931  0.152481  0.801157  1
  Tb  Tb9  1  0.631931  0.648676  0.801157  1
  Si  Si10  1  0.883964  0.000000  0.000000  1
  Si  Si11  1  0.614676  0.500000  0.000000  1
  Si  Si12  1  0.120612  0.580121  0.160242  1
  Si  Si13  1  0.498245  0.600346  0.200692  1
  Si  Si14  1  0.503829  0.094606  0.189214  1
  Si  Si15  1  0.160503  0.112912  0.225823  1
  Si  Si16  1  0.820218  0.198441  0.396884  1
  Si  Si17  1  0.103277  0.699406  0.398810  1
  Si  Si18  1  0.756276  0.716195  0.432390  1
  Si  Si19  1  0.323887  0.283805  0.567610  1
  Si  Si20  1  0.704466  0.300594  0.601189  1
  Si  Si21  1  0.423335  0.801559  0.603116  1
  Si  Si22  1  0.934680  0.887088  0.774177  1
  Si  Si23  1  0.314614  0.905393  0.810785  1
  Si  Si24  1  0.297554  0.399654  0.799309  1
  Si  Si25  1  0.960370  0.419879  0.839758  1
  B  B26  1  0.564930  0.000000  0.000000  1
