# generated using pymatgen
data_La5SiTe4
_symmetry_space_group_name_H-M   'P 1'
_cell_length_a   7.82080903
_cell_length_b   7.82080827
_cell_length_c   11.01213500
_cell_angle_alpha   61.49349063
_cell_angle_beta   61.49349368
_cell_angle_gamma   33.02268301
_symmetry_Int_Tables_number   1
_chemical_formula_structural   La5SiTe4
_chemical_formula_sum   'La5 Si1 Te4'
_cell_volume   318.35940502
_cell_formula_units_Z   1
loop_
 _symmetry_equiv_pos_site_id
 _symmetry_equiv_pos_as_xyz
  1  'x, y, z'
loop_
 _atom_site_type_symbol
 _atom_site_label
 _atom_site_symmetry_multiplicity
 _atom_site_fract_x
 _atom_site_fract_y
 _atom_site_fract_z
 _atom_site_occupancy
  La  La0  1  0.000000  0.000000  0.500000  1
  La  La1  1  0.588399  0.588399  0.092964  1
  La  La2  1  0.189505  0.189505  0.722011  1
  La  La3  1  0.810495  0.810495  0.277989  1
  La  La4  1  0.411601  0.411601  0.907036  1
  Si  Si5  1  0.000000  0.000000  0.000000  1
  Te  Te6  1  0.606891  0.606891  0.591914  1
  Te  Te7  1  0.195914  0.195914  0.195310  1
  Te  Te8  1  0.804086  0.804086  0.804690  1
  Te  Te9  1  0.393109  0.393109  0.408086  1
