# generated using pymatgen
data_Li2CaLa3(WN4)2
_symmetry_space_group_name_H-M   'P 1'
_cell_length_a   5.82516900
_cell_length_b   6.00575218
_cell_length_c   6.75024900
_cell_angle_alpha   72.55154390
_cell_angle_beta   90.00000000
_cell_angle_gamma   90.00000000
_symmetry_Int_Tables_number   1
_chemical_formula_structural   Li2CaLa3(WN4)2
_chemical_formula_sum   'Li2 Ca1 La3 W2 N8'
_cell_volume   225.28808558
_cell_formula_units_Z   1
loop_
 _symmetry_equiv_pos_site_id
 _symmetry_equiv_pos_as_xyz
  1  'x, y, z'
loop_
 _atom_site_type_symbol
 _atom_site_label
 _atom_site_symmetry_multiplicity
 _atom_site_fract_x
 _atom_site_fract_y
 _atom_site_fract_z
 _atom_site_occupancy
  Li  Li0  1  0.750000  0.293089  0.307609  1
  Li  Li1  1  0.250000  0.702339  0.693281  1
  Ca  Ca2  1  0.250000  0.273754  0.052769  1
  La  La3  1  0.750000  0.729231  0.942763  1
  La  La4  1  0.750000  0.777755  0.432327  1
  La  La5  1  0.250000  0.227676  0.563983  1
  W  W6  1  0.250000  0.735534  0.192305  1
  W  W7  1  0.750000  0.265173  0.809359  1
  N  N8  1  0.499103  0.468916  0.754181  1
  N  N9  1  0.002348  0.528021  0.251115  1
  N  N10  1  0.497652  0.528021  0.251115  1
  N  N11  1  0.000897  0.468916  0.754181  1
  N  N12  1  0.750000  0.084836  0.618275  1
  N  N13  1  0.250000  0.923110  0.375231  1
  N  N14  1  0.750000  0.082852  0.092914  1
  N  N15  1  0.250000  0.910775  0.908590  1
