# generated using pymatgen
data_Tb5Sc3(Co4As3)4
_symmetry_space_group_name_H-M   'P 1'
_cell_length_a   12.67397000
_cell_length_b   12.67396828
_cell_length_c   3.85150500
_cell_angle_alpha   90.00000000
_cell_angle_beta   90.00000000
_cell_angle_gamma   120.00000449
_symmetry_Int_Tables_number   1
_chemical_formula_structural   Tb5Sc3(Co4As3)4
_chemical_formula_sum   'Tb5 Sc3 Co16 As12'
_cell_volume   535.77984056
_cell_formula_units_Z   1
loop_
 _symmetry_equiv_pos_site_id
 _symmetry_equiv_pos_as_xyz
  1  'x, y, z'
loop_
 _atom_site_type_symbol
 _atom_site_label
 _atom_site_symmetry_multiplicity
 _atom_site_fract_x
 _atom_site_fract_y
 _atom_site_fract_z
 _atom_site_occupancy
  Tb  Tb0  1  0.185066  0.185066  0.500000  1
  Tb  Tb1  1  0.814934  0.000000  0.500000  1
  Tb  Tb2  1  0.000000  0.814934  0.500000  1
  Tb  Tb3  1  0.333333  0.666667  0.000000  1
  Tb  Tb4  1  0.666667  0.333333  0.000000  1
  Sc  Sc5  1  0.562527  0.562527  0.000000  1
  Sc  Sc6  1  0.437473  0.000000  0.000000  1
  Sc  Sc7  1  0.000000  0.437473  0.000000  1
  Co  Co8  1  0.719840  0.719840  0.500000  1
  Co  Co9  1  0.280160  0.000000  0.500000  1
  Co  Co10  1  0.000000  0.280160  0.500000  1
  Co  Co11  1  0.178577  0.374971  0.000000  1
  Co  Co12  1  0.625029  0.803605  0.000000  1
  Co  Co13  1  0.196395  0.821423  0.000000  1
  Co  Co14  1  0.803605  0.625029  0.000000  1
  Co  Co15  1  0.821423  0.196395  0.000000  1
  Co  Co16  1  0.374971  0.178577  0.000000  1
  Co  Co17  1  0.355546  0.478678  0.500000  1
  Co  Co18  1  0.521322  0.876869  0.500000  1
  Co  Co19  1  0.123131  0.644454  0.500000  1
  Co  Co20  1  0.876869  0.521322  0.500000  1
  Co  Co21  1  0.644454  0.123131  0.500000  1
  Co  Co22  1  0.478678  0.355546  0.500000  1
  Co  Co23  1  0.000000  0.000000  0.000000  1
  As  As24  1  0.821585  0.821585  0.000000  1
  As  As25  1  0.178415  0.000000  0.000000  1
  As  As26  1  0.000000  0.178415  0.000000  1
  As  As27  1  0.171343  0.481391  0.500000  1
  As  As28  1  0.518609  0.689953  0.500000  1
  As  As29  1  0.310047  0.828657  0.500000  1
  As  As30  1  0.689953  0.518609  0.500000  1
  As  As31  1  0.828657  0.310047  0.500000  1
  As  As32  1  0.481391  0.171343  0.500000  1
  As  As33  1  0.356164  0.356164  0.000000  1
  As  As34  1  0.643836  0.000000  0.000000  1
  As  As35  1  0.000000  0.643836  0.000000  1
