# generated using pymatgen
data_Tb2Dy6Hf12Si15Os
_symmetry_space_group_name_H-M   'P 1'
_cell_length_a   7.29102190
_cell_length_b   7.29569351
_cell_length_c   13.41223103
_cell_angle_alpha   89.87281664
_cell_angle_beta   89.85843826
_cell_angle_gamma   90.02800594
_symmetry_Int_Tables_number   1
_chemical_formula_structural   Tb2Dy6Hf12Si15Os
_chemical_formula_sum   'Tb2 Dy6 Hf12 Si15 Os1'
_cell_volume   713.43360287
_cell_formula_units_Z   1
loop_
 _symmetry_equiv_pos_site_id
 _symmetry_equiv_pos_as_xyz
  1  'x, y, z'
loop_
 _atom_site_type_symbol
 _atom_site_label
 _atom_site_symmetry_multiplicity
 _atom_site_fract_x
 _atom_site_fract_y
 _atom_site_fract_z
 _atom_site_occupancy
  Tb  Tb0  1  0.343640  0.996619  0.784881  1
  Tb  Tb1  1  0.654861  0.003484  0.284490  1
  Dy  Dy2  1  0.997348  0.346771  0.214648  1
  Dy  Dy3  1  0.004246  0.655244  0.714535  1
  Dy  Dy4  1  0.158427  0.495307  0.463208  1
  Dy  Dy5  1  0.503675  0.843341  0.034304  1
  Dy  Dy6  1  0.844649  0.502385  0.965224  1
  Dy  Dy7  1  0.496334  0.158511  0.534713  1
  Hf  Hf8  1  0.175665  0.174635  0.998420  1
  Hf  Hf9  1  0.826880  0.825881  0.500596  1
  Hf  Hf10  1  0.325160  0.665500  0.253019  1
  Hf  Hf11  1  0.674269  0.325538  0.750289  1
  Hf  Hf12  1  0.155316  0.003189  0.373229  1
  Hf  Hf13  1  0.850304  0.003901  0.874804  1
  Hf  Hf14  1  0.503662  0.650508  0.626224  1
  Hf  Hf15  1  0.351095  0.496412  0.873230  1
  Hf  Hf16  1  0.494549  0.345851  0.128252  1
  Hf  Hf17  1  0.644467  0.498661  0.377317  1
  Hf  Hf18  1  0.997380  0.148972  0.625722  1
  Hf  Hf19  1  0.000137  0.848475  0.124549  1
  Si  Si20  1  0.639048  0.704845  0.818890  1
  Si  Si21  1  0.205920  0.861649  0.567485  1
  Si  Si22  1  0.137825  0.795486  0.933034  1
  Si  Si23  1  0.796940  0.137262  0.065909  1
  Si  Si24  1  0.862470  0.200601  0.435084  1
  Si  Si25  1  0.295835  0.362139  0.683066  1
  Si  Si26  1  0.703710  0.639653  0.181993  1
  Si  Si27  1  0.289588  0.046075  0.183375  1
  Si  Si28  1  0.705461  0.951522  0.685549  1
  Si  Si29  1  0.452885  0.798200  0.438800  1
  Si  Si30  1  0.206169  0.550945  0.061102  1
  Si  Si31  1  0.548249  0.204770  0.935388  1
  Si  Si32  1  0.795687  0.451920  0.566124  1
  Si  Si33  1  0.047501  0.295628  0.814464  1
  Si  Si34  1  0.947001  0.709879  0.313992  1
  Os  Os35  1  0.363646  0.300242  0.314088  1
