# generated using pymatgen
data_Nd6YEr13Pt16
_symmetry_space_group_name_H-M   'P 1'
_cell_length_a   7.53821272
_cell_length_b   7.61848593
_cell_length_c   14.75892952
_cell_angle_alpha   90.01084280
_cell_angle_beta   90.00112198
_cell_angle_gamma   89.91692438
_symmetry_Int_Tables_number   1
_chemical_formula_structural   Nd6YEr13Pt16
_chemical_formula_sum   'Nd6 Y1 Er13 Pt16'
_cell_volume   847.60098552
_cell_formula_units_Z   1
loop_
 _symmetry_equiv_pos_site_id
 _symmetry_equiv_pos_as_xyz
  1  'x, y, z'
loop_
 _atom_site_type_symbol
 _atom_site_label
 _atom_site_symmetry_multiplicity
 _atom_site_fract_x
 _atom_site_fract_y
 _atom_site_fract_z
 _atom_site_occupancy
  Nd  Nd0  1  0.499522  0.678859  0.093649  1
  Nd  Nd1  1  0.500332  0.322335  0.593681  1
  Nd  Nd2  1  0.000125  0.176748  0.907320  1
  Nd  Nd3  1  0.999547  0.175891  0.592424  1
  Nd  Nd4  1  0.500492  0.322389  0.906317  1
  Nd  Nd5  1  0.499493  0.679060  0.406661  1
  Y  Y6  1  0.998755  0.820751  0.094217  1
  Er  Er7  1  0.682024  0.990545  0.250340  1
  Er  Er8  1  0.179792  0.510552  0.250357  1
  Er  Er9  1  0.819897  0.490711  0.749815  1
  Er  Er10  1  0.319357  0.009309  0.749985  1
  Er  Er11  1  0.656530  0.832491  0.623033  1
  Er  Er12  1  0.155089  0.668512  0.877137  1
  Er  Er13  1  0.844414  0.331354  0.376503  1
  Er  Er14  1  0.342201  0.166656  0.123506  1
  Er  Er15  1  0.341950  0.166401  0.376943  1
  Er  Er16  1  0.844465  0.331340  0.123792  1
  Er  Er17  1  0.154545  0.668946  0.622466  1
  Er  Er18  1  0.656701  0.832312  0.876913  1
  Er  Er19  1  0.997542  0.819706  0.405537  1
  Pt  Pt20  1  0.819938  0.642405  0.251206  1
  Pt  Pt21  1  0.312994  0.861253  0.250497  1
  Pt  Pt22  1  0.684347  0.138577  0.749724  1
  Pt  Pt23  1  0.184408  0.361643  0.749650  1
  Pt  Pt24  1  0.548135  0.381158  0.250230  1
  Pt  Pt25  1  0.045932  0.116386  0.250603  1
  Pt  Pt26  1  0.952886  0.879849  0.749857  1
  Pt  Pt27  1  0.453029  0.620162  0.749776  1
  Pt  Pt28  1  0.820737  0.538723  0.541218  1
  Pt  Pt29  1  0.319589  0.963038  0.958331  1
  Pt  Pt30  1  0.685995  0.031982  0.456418  1
  Pt  Pt31  1  0.178384  0.467149  0.043521  1
  Pt  Pt32  1  0.177667  0.468965  0.455942  1
  Pt  Pt33  1  0.683423  0.033788  0.043185  1
  Pt  Pt34  1  0.319188  0.962576  0.541135  1
  Pt  Pt35  1  0.820576  0.537478  0.958111  1
