# generated using pymatgen
data_Zr24CoAs3Se8
_symmetry_space_group_name_H-M   'P 1'
_cell_length_a   3.66206200
_cell_length_b   12.73842913
_cell_length_c   15.80118018
_cell_angle_alpha   90.13540603
_cell_angle_beta   90.00000000
_cell_angle_gamma   90.00000000
_symmetry_Int_Tables_number   1
_chemical_formula_structural   Zr24CoAs3Se8
_chemical_formula_sum   'Zr24 Co1 As3 Se8'
_cell_volume   737.10588801
_cell_formula_units_Z   1
loop_
 _symmetry_equiv_pos_site_id
 _symmetry_equiv_pos_as_xyz
  1  'x, y, z'
loop_
 _atom_site_type_symbol
 _atom_site_label
 _atom_site_symmetry_multiplicity
 _atom_site_fract_x
 _atom_site_fract_y
 _atom_site_fract_z
 _atom_site_occupancy
  Zr  Zr0  1  0.000000  0.343894  0.478781  1
  Zr  Zr1  1  0.000000  0.663560  0.513293  1
  Zr  Zr2  1  0.500000  0.152043  0.979248  1
  Zr  Zr3  1  0.500000  0.849097  0.020584  1
  Zr  Zr4  1  0.000000  0.082805  0.578097  1
  Zr  Zr5  1  0.000000  0.906555  0.420905  1
  Zr  Zr6  1  0.500000  0.416683  0.078380  1
  Zr  Zr7  1  0.500000  0.584704  0.924119  1
  Zr  Zr8  1  0.000000  0.698871  0.299889  1
  Zr  Zr9  1  0.000000  0.303967  0.704621  1
  Zr  Zr10  1  0.500000  0.805719  0.794360  1
  Zr  Zr11  1  0.500000  0.195197  0.204942  1
  Zr  Zr12  1  0.000000  0.030831  0.109852  1
  Zr  Zr13  1  0.000000  0.969547  0.889203  1
  Zr  Zr14  1  0.500000  0.469640  0.607983  1
  Zr  Zr15  1  0.500000  0.528712  0.393889  1
  Zr  Zr16  1  0.000000  0.620373  0.077319  1
  Zr  Zr17  1  0.000000  0.379491  0.923702  1
  Zr  Zr18  1  0.500000  0.879394  0.579137  1
  Zr  Zr19  1  0.500000  0.118744  0.423922  1
  Zr  Zr20  1  0.000000  0.410710  0.241917  1
  Zr  Zr21  1  0.000000  0.586706  0.757942  1
  Zr  Zr22  1  0.500000  0.087112  0.744152  1
  Zr  Zr23  1  0.500000  0.916527  0.252786  1
  Co  Co24  1  0.500000  0.759108  0.411934  1
  As  As25  1  0.000000  0.256392  0.085635  1
  As  As26  1  0.000000  0.744510  0.913917  1
  As  As27  1  0.500000  0.242888  0.584686  1
  Se  Se28  1  0.000000  0.814866  0.150796  1
  Se  Se29  1  0.000000  0.185658  0.849459  1
  Se  Se30  1  0.500000  0.683640  0.651471  1
  Se  Se31  1  0.500000  0.312426  0.349420  1
  Se  Se32  1  0.000000  0.071626  0.293623  1
  Se  Se33  1  0.000000  0.929129  0.707540  1
  Se  Se34  1  0.500000  0.429124  0.793006  1
  Se  Se35  1  0.500000  0.569748  0.209492  1
