# generated using pymatgen
data_Tb3Gd2Th(Si2Ni)2
_symmetry_space_group_name_H-M   'P 1'
_cell_length_a   4.17736100
_cell_length_b   11.41379000
_cell_length_c   11.31702600
_cell_angle_alpha   90.00000000
_cell_angle_beta   90.00000000
_cell_angle_gamma   90.00000000
_symmetry_Int_Tables_number   1
_chemical_formula_structural   Tb3Gd2Th(Si2Ni)2
_chemical_formula_sum   'Tb6 Gd4 Th2 Si8 Ni4'
_cell_volume   539.59038118
_cell_formula_units_Z   2
loop_
 _symmetry_equiv_pos_site_id
 _symmetry_equiv_pos_as_xyz
  1  'x, y, z'
loop_
 _atom_site_type_symbol
 _atom_site_label
 _atom_site_symmetry_multiplicity
 _atom_site_fract_x
 _atom_site_fract_y
 _atom_site_fract_z
 _atom_site_occupancy
  Tb  Tb0  1  0.250000  0.120662  0.558994  1
  Tb  Tb1  1  0.250000  0.379338  0.058994  1
  Tb  Tb2  1  0.250000  0.804552  0.711873  1
  Tb  Tb3  1  0.250000  0.695448  0.211873  1
  Tb  Tb4  1  0.750000  0.192910  0.289591  1
  Tb  Tb5  1  0.750000  0.307090  0.789591  1
  Gd  Gd6  1  0.750000  0.939357  0.117988  1
  Gd  Gd7  1  0.750000  0.560643  0.617988  1
  Gd  Gd8  1  0.750000  0.876200  0.438951  1
  Gd  Gd9  1  0.750000  0.623800  0.938951  1
  Th  Th10  1  0.250000  0.060701  0.884972  1
  Th  Th11  1  0.250000  0.439299  0.384972  1
  Si  Si12  1  0.250000  0.809693  0.973769  1
  Si  Si13  1  0.250000  0.690307  0.473769  1
  Si  Si14  1  0.750000  0.191656  0.029895  1
  Si  Si15  1  0.750000  0.308344  0.529895  1
  Si  Si16  1  0.250000  0.492237  0.802486  1
  Si  Si17  1  0.250000  0.007763  0.302486  1
  Si  Si18  1  0.750000  0.510166  0.193153  1
  Si  Si19  1  0.750000  0.989834  0.693153  1
  Ni  Ni20  1  0.250000  0.363719  0.628289  1
  Ni  Ni21  1  0.250000  0.136281  0.128289  1
  Ni  Ni22  1  0.750000  0.632275  0.370039  1
  Ni  Ni23  1  0.750000  0.867725  0.870039  1
