# generated using pymatgen
data_Cd2OsRhO7
_symmetry_space_group_name_H-M   'P 1'
_cell_length_a   7.22762380
_cell_length_b   7.26863393
_cell_length_c   7.26863477
_cell_angle_alpha   60.37526669
_cell_angle_beta   60.18647490
_cell_angle_gamma   60.18646401
_symmetry_Int_Tables_number   1
_chemical_formula_structural   Cd2OsRhO7
_chemical_formula_sum   'Cd4 Os2 Rh2 O14'
_cell_volume   271.53637906
_cell_formula_units_Z   2
loop_
 _symmetry_equiv_pos_site_id
 _symmetry_equiv_pos_as_xyz
  1  'x, y, z'
loop_
 _atom_site_type_symbol
 _atom_site_label
 _atom_site_symmetry_multiplicity
 _atom_site_fract_x
 _atom_site_fract_y
 _atom_site_fract_z
 _atom_site_occupancy
  Cd  Cd0  1  0.125000  0.125000  0.125000  1
  Cd  Cd1  1  0.625000  0.125000  0.125000  1
  Cd  Cd2  1  0.125000  0.625000  0.125000  1
  Cd  Cd3  1  0.125000  0.125000  0.625000  1
  Os  Os4  1  0.625000  0.125000  0.625000  1
  Os  Os5  1  0.625000  0.625000  0.125000  1
  Rh  Rh6  1  0.625000  0.625000  0.625000  1
  Rh  Rh7  1  0.125000  0.625000  0.625000  1
  O  O8  1  0.254023  0.245977  0.245977  1
  O  O9  1  0.995977  0.004023  0.004023  1
  O  O10  1  0.561960  0.953195  0.545610  1
  O  O11  1  0.310765  0.704390  0.296805  1
  O  O12  1  0.561960  0.545610  0.953195  1
  O  O13  1  0.958793  0.541207  0.541207  1
  O  O14  1  0.568745  0.931255  0.931255  1
  O  O15  1  0.939235  0.953195  0.545610  1
  O  O16  1  0.939235  0.545610  0.953195  1
  O  O17  1  0.681255  0.318745  0.318745  1
  O  O18  1  0.291207  0.708793  0.708793  1
  O  O19  1  0.688040  0.296805  0.704390  1
  O  O20  1  0.310765  0.296805  0.704390  1
  O  O21  1  0.688040  0.704390  0.296805  1
