# generated using pymatgen
data_CsDy(TaBr3)6
_symmetry_space_group_name_H-M   'P 1'
_cell_length_a   10.79605248
_cell_length_b   10.79605283
_cell_length_c   10.79605289
_cell_angle_alpha   55.44950299
_cell_angle_beta   55.44950856
_cell_angle_gamma   55.44950958
_symmetry_Int_Tables_number   1
_chemical_formula_structural   CsDy(TaBr3)6
_chemical_formula_sum   'Cs1 Dy1 Ta6 Br18'
_cell_volume   795.74571401
_cell_formula_units_Z   1
loop_
 _symmetry_equiv_pos_site_id
 _symmetry_equiv_pos_as_xyz
  1  'x, y, z'
loop_
 _atom_site_type_symbol
 _atom_site_label
 _atom_site_symmetry_multiplicity
 _atom_site_fract_x
 _atom_site_fract_y
 _atom_site_fract_z
 _atom_site_occupancy
  Cs  Cs0  1  0.222087  0.222087  0.222087  1
  Dy  Dy1  1  0.498182  0.498182  0.498182  1
  Ta  Ta2  1  0.812172  0.140281  0.917530  1
  Ta  Ta3  1  0.917530  0.812172  0.140281  1
  Ta  Ta4  1  0.140281  0.917530  0.812172  1
  Ta  Ta5  1  0.188953  0.860257  0.081614  1
  Ta  Ta6  1  0.081614  0.188953  0.860257  1
  Ta  Ta7  1  0.860257  0.081614  0.188953  1
  Br  Br8  1  0.865283  0.410217  0.726557  1
  Br  Br9  1  0.726557  0.865283  0.410217  1
  Br  Br10  1  0.410217  0.726557  0.865283  1
  Br  Br11  1  0.133492  0.590656  0.276439  1
  Br  Br12  1  0.276439  0.133492  0.590656  1
  Br  Br13  1  0.590656  0.276439  0.133492  1
  Br  Br14  1  0.536729  0.340606  0.802273  1
  Br  Br15  1  0.802273  0.536729  0.340606  1
  Br  Br16  1  0.340606  0.802273  0.536729  1
  Br  Br17  1  0.462307  0.661466  0.197507  1
  Br  Br18  1  0.197507  0.462307  0.661466  1
  Br  Br19  1  0.661466  0.197507  0.462307  1
  Br  Br20  1  0.665111  0.938234  0.069918  1
  Br  Br21  1  0.069918  0.665111  0.938234  1
  Br  Br22  1  0.938234  0.069918  0.665111  1
  Br  Br23  1  0.340076  0.059352  0.923839  1
  Br  Br24  1  0.923839  0.340076  0.059352  1
  Br  Br25  1  0.059352  0.923839  0.340076  1
