# generated using pymatgen
data_CaHoSi3(AsRh3)4
_symmetry_space_group_name_H-M   'P 1'
_cell_length_a   9.90885200
_cell_length_b   9.90885239
_cell_length_c   3.86978700
_cell_angle_alpha   90.00000000
_cell_angle_beta   90.00000000
_cell_angle_gamma   119.99999871
_symmetry_Int_Tables_number   1
_chemical_formula_structural   CaHoSi3(AsRh3)4
_chemical_formula_sum   'Ca1 Ho1 Si3 As4 Rh12'
_cell_volume   329.05189720
_cell_formula_units_Z   1
loop_
 _symmetry_equiv_pos_site_id
 _symmetry_equiv_pos_as_xyz
  1  'x, y, z'
loop_
 _atom_site_type_symbol
 _atom_site_label
 _atom_site_symmetry_multiplicity
 _atom_site_fract_x
 _atom_site_fract_y
 _atom_site_fract_z
 _atom_site_occupancy
  Ca  Ca0  1  0.333333  0.666667  0.244874  1
  Ho  Ho1  1  0.666667  0.333333  0.743816  1
  Si  Si2  1  0.404067  0.112323  0.242665  1
  Si  Si3  1  0.708256  0.595933  0.242665  1
  Si  Si4  1  0.887677  0.291744  0.242665  1
  As  As5  1  0.000000  0.000000  0.624137  1
  As  As6  1  0.595342  0.882229  0.745832  1
  As  As7  1  0.286886  0.404658  0.745832  1
  As  As8  1  0.117771  0.713114  0.745832  1
  Rh  Rh9  1  0.449189  0.377991  0.242576  1
  Rh  Rh10  1  0.928803  0.550811  0.242576  1
  Rh  Rh11  1  0.622009  0.071197  0.242576  1
  Rh  Rh12  1  0.560086  0.613989  0.744341  1
  Rh  Rh13  1  0.053902  0.439914  0.744341  1
  Rh  Rh14  1  0.386011  0.946098  0.744341  1
  Rh  Rh15  1  0.144978  0.889344  0.245102  1
  Rh  Rh16  1  0.744366  0.855022  0.245102  1
  Rh  Rh17  1  0.110656  0.255634  0.245102  1
  Rh  Rh18  1  0.849350  0.123569  0.741876  1
  Rh  Rh19  1  0.274219  0.150650  0.741876  1
  Rh  Rh20  1  0.876431  0.725781  0.741876  1
