# generated using pymatgen
data_TbPaTe4
_symmetry_space_group_name_H-M   'P 1'
_cell_length_a   8.03773872
_cell_length_b   8.03773863
_cell_length_c   8.03773863
_cell_angle_alpha   149.69856319
_cell_angle_beta   135.42773963
_cell_angle_gamma   54.84791278
_symmetry_Int_Tables_number   1
_chemical_formula_structural   TbPaTe4
_chemical_formula_sum   'Tb1 Pa1 Te4'
_cell_volume   182.73967422
_cell_formula_units_Z   1
loop_
 _symmetry_equiv_pos_site_id
 _symmetry_equiv_pos_as_xyz
  1  'x, y, z'
loop_
 _atom_site_type_symbol
 _atom_site_label
 _atom_site_symmetry_multiplicity
 _atom_site_fract_x
 _atom_site_fract_y
 _atom_site_fract_z
 _atom_site_occupancy
  Tb  Tb0  1  0.136731  0.136731  0.000000  1
  Pa  Pa1  1  0.862903  0.862903  0.000000  1
  Te  Te2  1  0.705173  0.205173  0.500000  1
  Te  Te3  1  0.297922  0.797922  0.500000  1
  Te  Te4  1  0.752320  0.498636  0.253685  1
  Te  Te5  1  0.244951  0.498636  0.746315  1
