# generated using pymatgen
data_TbCdCuNi2Pt
_symmetry_space_group_name_H-M   'P 1'
_cell_length_a   5.07968107
_cell_length_b   5.04327632
_cell_length_c   5.20319641
_cell_angle_alpha   60.36071156
_cell_angle_beta   60.78220860
_cell_angle_gamma   59.76092783
_symmetry_Int_Tables_number   1
_chemical_formula_structural   TbCdCuNi2Pt
_chemical_formula_sum   'Tb1 Cd1 Cu1 Ni2 Pt1'
_cell_volume   94.88254784
_cell_formula_units_Z   1
loop_
 _symmetry_equiv_pos_site_id
 _symmetry_equiv_pos_as_xyz
  1  'x, y, z'
loop_
 _atom_site_type_symbol
 _atom_site_label
 _atom_site_symmetry_multiplicity
 _atom_site_fract_x
 _atom_site_fract_y
 _atom_site_fract_z
 _atom_site_occupancy
  Tb  Tb0  1  0.248184  0.252090  0.251541  1
  Cd  Cd1  1  0.004699  0.003113  0.987488  1
  Cu  Cu2  1  0.624609  0.122614  0.628169  1
  Ni  Ni3  1  0.121986  0.624066  0.628598  1
  Ni  Ni4  1  0.625350  0.624066  0.628598  1
  Pt  Pt5  1  0.625171  0.624052  0.125606  1
