# generated using pymatgen
data_Yb12Dy5Y3Sn16
_symmetry_space_group_name_H-M   'P 1'
_cell_length_a   7.83666400
_cell_length_b   8.44125601
_cell_length_c   16.05197801
_cell_angle_alpha   90.00365341
_cell_angle_beta   89.99744266
_cell_angle_gamma   90.00197126
_symmetry_Int_Tables_number   1
_chemical_formula_structural   Yb12Dy5Y3Sn16
_chemical_formula_sum   'Yb12 Dy5 Y3 Sn16'
_cell_volume   1061.85900183
_cell_formula_units_Z   1
loop_
 _symmetry_equiv_pos_site_id
 _symmetry_equiv_pos_as_xyz
  1  'x, y, z'
loop_
 _atom_site_type_symbol
 _atom_site_label
 _atom_site_symmetry_multiplicity
 _atom_site_fract_x
 _atom_site_fract_y
 _atom_site_fract_z
 _atom_site_occupancy
  Yb  Yb0  1  0.505138  0.688729  0.592786  1
  Yb  Yb1  1  0.005141  0.811282  0.907198  1
  Yb  Yb2  1  0.494859  0.311303  0.092811  1
  Yb  Yb3  1  0.994932  0.188707  0.407177  1
  Yb  Yb4  1  0.494890  0.311324  0.407139  1
  Yb  Yb5  1  0.994848  0.188788  0.092854  1
  Yb  Yb6  1  0.505160  0.688768  0.907153  1
  Yb  Yb7  1  0.005112  0.811243  0.592816  1
  Yb  Yb8  1  0.835671  0.512077  0.749975  1
  Yb  Yb9  1  0.335673  0.987915  0.750019  1
  Yb  Yb10  1  0.164258  0.487999  0.250017  1
  Yb  Yb11  1  0.664353  0.012038  0.250049  1
  Dy  Dy12  1  0.826730  0.665967  0.377963  1
  Dy  Dy13  1  0.326818  0.833881  0.377916  1
  Dy  Dy14  1  0.826813  0.666100  0.122080  1
  Dy  Dy15  1  0.673139  0.166127  0.877880  1
  Dy  Dy16  1  0.173077  0.333948  0.622095  1
  Y  Y17  1  0.673432  0.165990  0.621970  1
  Y  Y18  1  0.173410  0.334008  0.878001  1
  Y  Y19  1  0.326609  0.833974  0.122008  1
  Sn  Sn20  1  0.671264  0.964145  0.459033  1
  Sn  Sn21  1  0.171067  0.535364  0.040840  1
  Sn  Sn22  1  0.328919  0.035355  0.959185  1
  Sn  Sn23  1  0.828877  0.464780  0.540713  1
  Sn  Sn24  1  0.328595  0.035585  0.540754  1
  Sn  Sn25  1  0.828597  0.464457  0.959230  1
  Sn  Sn26  1  0.671421  0.964460  0.040762  1
  Sn  Sn27  1  0.171267  0.535672  0.459146  1
  Sn  Sn28  1  0.471749  0.374778  0.750203  1
  Sn  Sn29  1  0.971726  0.125218  0.749759  1
  Sn  Sn30  1  0.528406  0.625314  0.250299  1
  Sn  Sn31  1  0.028067  0.874552  0.250078  1
  Sn  Sn32  1  0.718178  0.873128  0.750124  1
  Sn  Sn33  1  0.218174  0.626868  0.749862  1
  Sn  Sn34  1  0.281804  0.126838  0.250124  1
  Sn  Sn35  1  0.781828  0.373321  0.249982  1
