# generated using pymatgen
data_Sm8SiPdPt23
_symmetry_space_group_name_H-M   'P 1'
_cell_length_a   8.43213600
_cell_length_b   8.43165100
_cell_length_c   8.44628800
_cell_angle_alpha   90.00000000
_cell_angle_beta   90.00000000
_cell_angle_gamma   90.00000000
_symmetry_Int_Tables_number   1
_chemical_formula_structural   Sm8SiPdPt23
_chemical_formula_sum   'Sm8 Si1 Pd1 Pt23'
_cell_volume   600.50428464
_cell_formula_units_Z   1
loop_
 _symmetry_equiv_pos_site_id
 _symmetry_equiv_pos_as_xyz
  1  'x, y, z'
loop_
 _atom_site_type_symbol
 _atom_site_label
 _atom_site_symmetry_multiplicity
 _atom_site_fract_x
 _atom_site_fract_y
 _atom_site_fract_z
 _atom_site_occupancy
  Sm  Sm0  1  0.252783  0.252799  0.252873  1
  Sm  Sm1  1  0.747173  0.747145  0.747099  1
  Sm  Sm2  1  0.747217  0.747201  0.252873  1
  Sm  Sm3  1  0.747173  0.252855  0.747099  1
  Sm  Sm4  1  0.252827  0.252855  0.747099  1
  Sm  Sm5  1  0.252783  0.747201  0.252873  1
  Sm  Sm6  1  0.252827  0.747145  0.747099  1
  Sm  Sm7  1  0.747217  0.252799  0.252873  1
  Si  Si8  1  0.000000  0.000000  0.000314  1
  Pd  Pd9  1  0.000000  0.500000  0.741799  1
  Pt  Pt10  1  0.257986  0.500000  0.000002  1
  Pt  Pt11  1  0.742014  0.500000  0.000002  1
  Pt  Pt12  1  0.000000  0.258417  0.499852  1
  Pt  Pt13  1  0.500000  0.258363  0.000003  1
  Pt  Pt14  1  0.000000  0.741583  0.499852  1
  Pt  Pt15  1  0.500000  0.741637  0.000003  1
  Pt  Pt16  1  0.500000  0.000000  0.258092  1
  Pt  Pt17  1  0.258009  0.000000  0.500033  1
  Pt  Pt18  1  0.500000  0.000000  0.742040  1
  Pt  Pt19  1  0.741991  0.000000  0.500033  1
  Pt  Pt20  1  0.000000  0.500000  0.258334  1
  Pt  Pt21  1  0.252015  0.500000  0.499914  1
  Pt  Pt22  1  0.747985  0.500000  0.499914  1
  Pt  Pt23  1  0.500000  0.252400  0.500084  1
  Pt  Pt24  1  0.500000  0.747600  0.500084  1
  Pt  Pt25  1  0.500000  0.500000  0.252175  1
  Pt  Pt26  1  0.500000  0.500000  0.747777  1
  Pt  Pt27  1  0.282070  0.000000  0.999892  1
  Pt  Pt28  1  0.717930  0.000000  0.999892  1
  Pt  Pt29  1  0.000000  0.282608  0.999949  1
  Pt  Pt30  1  0.000000  0.717392  0.999949  1
  Pt  Pt31  1  0.000000  0.000000  0.282225  1
  Pt  Pt32  1  0.000000  0.000000  0.717900  1
