# generated using pymatgen
data_Ta8AuS20
_symmetry_space_group_name_H-M   'P 1'
_cell_length_a   10.30221349
_cell_length_b   10.30221393
_cell_length_c   18.87000000
_cell_angle_alpha   76.52987171
_cell_angle_beta   76.52987112
_cell_angle_gamma   18.81356442
_symmetry_Int_Tables_number   1
_chemical_formula_structural   Ta8AuS20
_chemical_formula_sum   'Ta8 Au1 S20'
_cell_volume   627.61395345
_cell_formula_units_Z   1
loop_
 _symmetry_equiv_pos_site_id
 _symmetry_equiv_pos_as_xyz
  1  'x, y, z'
loop_
 _atom_site_type_symbol
 _atom_site_label
 _atom_site_symmetry_multiplicity
 _atom_site_fract_x
 _atom_site_fract_y
 _atom_site_fract_z
 _atom_site_occupancy
  Ta  Ta0  1  0.083241  0.083241  0.097631  1
  Ta  Ta1  1  0.916759  0.916759  0.902369  1
  Ta  Ta2  1  0.330299  0.330299  0.810082  1
  Ta  Ta3  1  0.669701  0.669701  0.189918  1
  Ta  Ta4  1  0.267412  0.267412  0.281655  1
  Ta  Ta5  1  0.732588  0.732588  0.718345  1
  Ta  Ta6  1  0.160709  0.160709  0.553397  1
  Ta  Ta7  1  0.839291  0.839291  0.446603  1
  Au  Au8  1  0.500000  0.500000  0.000000  1
  S  S9  1  0.433165  0.433165  0.403324  1
  S  S10  1  0.566835  0.566835  0.596676  1
  S  S11  1  0.395410  0.395410  0.514702  1
  S  S12  1  0.604590  0.604590  0.485298  1
  S  S13  1  0.151063  0.151063  0.690538  1
  S  S14  1  0.848937  0.848937  0.309462  1
  S  S15  1  0.382435  0.382435  0.001895  1
  S  S16  1  0.617565  0.617565  0.998105  1
  S  S17  1  0.206249  0.206249  0.818326  1
  S  S18  1  0.793751  0.793751  0.181674  1
  S  S19  1  0.253206  0.253206  0.430060  1
  S  S20  1  0.746794  0.746794  0.569940  1
  S  S21  1  0.325152  0.325152  0.678937  1
  S  S22  1  0.674848  0.674848  0.321063  1
  S  S23  1  0.490169  0.490169  0.129090  1
  S  S24  1  0.509831  0.509831  0.870910  1
  S  S25  1  0.204010  0.204010  0.092405  1
  S  S26  1  0.795990  0.795990  0.907595  1
  S  S27  1  0.078880  0.078880  0.228802  1
  S  S28  1  0.921120  0.921120  0.771198  1
