# generated using pymatgen
data_Ca20Zn7Cd3Pd2
_symmetry_space_group_name_H-M   'P 1'
_cell_length_a   8.04632681
_cell_length_b   8.04632681
_cell_length_c   14.78989585
_cell_angle_alpha   89.97296906
_cell_angle_beta   90.02703094
_cell_angle_gamma   90.09196029
_symmetry_Int_Tables_number   1
_chemical_formula_structural   Ca20Zn7Cd3Pd2
_chemical_formula_sum   'Ca20 Zn7 Cd3 Pd2'
_cell_volume   957.54632837
_cell_formula_units_Z   1
loop_
 _symmetry_equiv_pos_site_id
 _symmetry_equiv_pos_as_xyz
  1  'x, y, z'
loop_
 _atom_site_type_symbol
 _atom_site_label
 _atom_site_symmetry_multiplicity
 _atom_site_fract_x
 _atom_site_fract_y
 _atom_site_fract_z
 _atom_site_occupancy
  Ca  Ca0  1  0.672848  0.164621  0.104654  1
  Ca  Ca1  1  0.169257  0.668130  0.607020  1
  Ca  Ca2  1  0.322277  0.830532  0.106919  1
  Ca  Ca3  1  0.825543  0.326657  0.609525  1
  Ca  Ca4  1  0.841128  0.672730  0.106512  1
  Ca  Ca5  1  0.337581  0.169388  0.609106  1
  Ca  Ca6  1  0.165077  0.332956  0.106267  1
  Ca  Ca7  1  0.668311  0.836603  0.608967  1
  Ca  Ca8  1  0.830532  0.322277  0.893081  1
  Ca  Ca9  1  0.326657  0.825543  0.390475  1
  Ca  Ca10  1  0.164621  0.672848  0.895346  1
  Ca  Ca11  1  0.668130  0.169257  0.392980  1
  Ca  Ca12  1  0.672730  0.841128  0.893488  1
  Ca  Ca13  1  0.169388  0.337581  0.390894  1
  Ca  Ca14  1  0.332956  0.165077  0.893733  1
  Ca  Ca15  1  0.836603  0.668311  0.391033  1
  Ca  Ca16  1  0.502933  0.493105  0.753972  1
  Ca  Ca17  1  0.002870  0.993593  0.250095  1
  Ca  Ca18  1  0.993593  0.002870  0.749905  1
  Ca  Ca19  1  0.493105  0.502933  0.246028  1
  Zn  Zn20  1  0.882355  0.383218  0.248533  1
  Zn  Zn21  1  0.383218  0.882355  0.751467  1
  Zn  Zn22  1  0.880886  0.618903  0.751537  1
  Zn  Zn23  1  0.381497  0.119813  0.248462  1
  Zn  Zn24  1  0.119813  0.381497  0.751538  1
  Zn  Zn25  1  0.618903  0.880886  0.248463  1
  Zn  Zn26  1  0.999954  0.999954  0.000000  1
  Cd  Cd27  1  0.500599  0.500599  0.500000  1
  Cd  Cd28  1  0.500500  0.500500  0.000000  1
  Cd  Cd29  1  0.000448  0.000448  0.500000  1
  Pd  Pd30  1  0.617789  0.117899  0.751578  1
  Pd  Pd31  1  0.117899  0.617789  0.248422  1
