# generated using pymatgen
data_Cs6Li2Sn3Pb5
_symmetry_space_group_name_H-M   'P 1'
_cell_length_a   9.37452183
_cell_length_b   9.37452222
_cell_length_c   10.89216642
_cell_angle_alpha   89.81551922
_cell_angle_beta   90.18447840
_cell_angle_gamma   133.91969427
_symmetry_Int_Tables_number   1
_chemical_formula_structural   Cs6Li2Sn3Pb5
_chemical_formula_sum   'Cs6 Li2 Sn3 Pb5'
_cell_volume   689.49475261
_cell_formula_units_Z   1
loop_
 _symmetry_equiv_pos_site_id
 _symmetry_equiv_pos_as_xyz
  1  'x, y, z'
loop_
 _atom_site_type_symbol
 _atom_site_label
 _atom_site_symmetry_multiplicity
 _atom_site_fract_x
 _atom_site_fract_y
 _atom_site_fract_z
 _atom_site_occupancy
  Cs  Cs0  1  0.229814  0.770186  0.248375  1
  Cs  Cs1  1  0.768879  0.231121  0.752604  1
  Cs  Cs2  1  0.616320  0.383680  0.052848  1
  Cs  Cs3  1  0.384300  0.615700  0.947363  1
  Cs  Cs4  1  0.384527  0.615473  0.553528  1
  Cs  Cs5  1  0.613620  0.386380  0.447518  1
  Li  Li6  1  0.000305  0.999695  0.999482  1
  Li  Li7  1  0.001872  0.998128  0.499468  1
  Sn  Sn8  1  0.839222  0.160778  0.111796  1
  Sn  Sn9  1  0.162087  0.837913  0.885462  1
  Sn  Sn10  1  0.162556  0.837444  0.614274  1
  Pb  Pb11  1  0.185344  0.260326  0.249135  1
  Pb  Pb12  1  0.815726  0.739349  0.749775  1
  Pb  Pb13  1  0.739674  0.814656  0.249135  1
  Pb  Pb14  1  0.260651  0.184274  0.749775  1
  Pb  Pb15  1  0.835102  0.164898  0.389462  1
