# generated using pymatgen
data_Yb4Cu6IrPd
_symmetry_space_group_name_H-M   'P 1'
_cell_length_a   5.07022500
_cell_length_b   5.07022418
_cell_length_c   8.94142400
_cell_angle_alpha   90.00000000
_cell_angle_beta   90.00000000
_cell_angle_gamma   119.99999880
_symmetry_Int_Tables_number   1
_chemical_formula_structural   Yb4Cu6IrPd
_chemical_formula_sum   'Yb4 Cu6 Ir1 Pd1'
_cell_volume   199.06353922
_cell_formula_units_Z   1
loop_
 _symmetry_equiv_pos_site_id
 _symmetry_equiv_pos_as_xyz
  1  'x, y, z'
loop_
 _atom_site_type_symbol
 _atom_site_label
 _atom_site_symmetry_multiplicity
 _atom_site_fract_x
 _atom_site_fract_y
 _atom_site_fract_z
 _atom_site_occupancy
  Yb  Yb0  1  0.333333  0.666667  0.429763  1
  Yb  Yb1  1  0.666667  0.333333  0.570237  1
  Yb  Yb2  1  0.666667  0.333333  0.945485  1
  Yb  Yb3  1  0.333333  0.666667  0.054515  1
  Cu  Cu4  1  0.831695  0.168305  0.247260  1
  Cu  Cu5  1  0.831695  0.663391  0.247260  1
  Cu  Cu6  1  0.336609  0.168305  0.247260  1
  Cu  Cu7  1  0.168305  0.831695  0.752740  1
  Cu  Cu8  1  0.168305  0.336609  0.752740  1
  Cu  Cu9  1  0.663391  0.831695  0.752740  1
  Ir  Ir10  1  0.000000  0.000000  0.000000  1
  Pd  Pd11  1  0.000000  0.000000  0.500000  1
