# generated using pymatgen
data_Tb16Dy4IrRh11
_symmetry_space_group_name_H-M   'P 1'
_cell_length_a   10.93147503
_cell_length_b   10.93147503
_cell_length_c   6.37068100
_cell_angle_alpha   89.99791902
_cell_angle_beta   89.99791902
_cell_angle_gamma   90.00773623
_symmetry_Int_Tables_number   1
_chemical_formula_structural   Tb16Dy4IrRh11
_chemical_formula_sum   'Tb16 Dy4 Ir1 Rh11'
_cell_volume   761.27819154
_cell_formula_units_Z   1
loop_
 _symmetry_equiv_pos_site_id
 _symmetry_equiv_pos_as_xyz
  1  'x, y, z'
loop_
 _atom_site_type_symbol
 _atom_site_label
 _atom_site_symmetry_multiplicity
 _atom_site_fract_x
 _atom_site_fract_y
 _atom_site_fract_z
 _atom_site_occupancy
  Tb  Tb0  1  0.290641  0.088918  0.378685  1
  Tb  Tb1  1  0.290917  0.910053  0.878351  1
  Tb  Tb2  1  0.709311  0.088816  0.878628  1
  Tb  Tb3  1  0.709318  0.911137  0.378604  1
  Tb  Tb4  1  0.587830  0.790230  0.878351  1
  Tb  Tb5  1  0.588837  0.209202  0.378901  1
  Tb  Tb6  1  0.410851  0.790049  0.379539  1
  Tb  Tb7  1  0.411171  0.209226  0.878608  1
  Tb  Tb8  1  0.209770  0.412170  0.621649  1
  Tb  Tb9  1  0.209951  0.589149  0.120461  1
  Tb  Tb10  1  0.790798  0.411163  0.121099  1
  Tb  Tb11  1  0.790774  0.588829  0.621392  1
  Tb  Tb12  1  0.911082  0.709359  0.121315  1
  Tb  Tb13  1  0.911184  0.290689  0.621372  1
  Tb  Tb14  1  0.089947  0.709083  0.621649  1
  Tb  Tb15  1  0.088863  0.290682  0.121396  1
  Dy  Dy16  1  0.999917  0.999997  0.499891  1
  Dy  Dy17  1  0.000003  0.000083  0.000109  1
  Dy  Dy18  1  0.499658  0.500269  0.999800  1
  Dy  Dy19  1  0.499731  0.500342  0.500200  1
  Ir  Ir20  1  0.346499  0.653501  0.750000  1
  Rh  Rh21  1  0.846549  0.153451  0.250000  1
  Rh  Rh22  1  0.846546  0.846637  0.750058  1
  Rh  Rh23  1  0.153363  0.153454  0.749942  1
  Rh  Rh24  1  0.153020  0.846980  0.250000  1
  Rh  Rh25  1  0.653546  0.346454  0.750000  1
  Rh  Rh26  1  0.653905  0.653544  0.250091  1
  Rh  Rh27  1  0.346456  0.346095  0.249909  1
  Rh  Rh28  1  0.500176  0.000336  0.124093  1
  Rh  Rh29  1  0.500216  0.000493  0.623779  1
  Rh  Rh30  1  0.999507  0.499784  0.876221  1
  Rh  Rh31  1  0.999664  0.499824  0.375907  1
