# generated using pymatgen
data_Tb5Dy11Cd4NiIr3
_symmetry_space_group_name_H-M   'P 1'
_cell_length_a   9.60863430
_cell_length_b   9.60647546
_cell_length_c   9.60647577
_cell_angle_alpha   60.24521016
_cell_angle_beta   60.24457269
_cell_angle_gamma   60.24457192
_symmetry_Int_Tables_number   1
_chemical_formula_structural   Tb5Dy11Cd4NiIr3
_chemical_formula_sum   'Tb5 Dy11 Cd4 Ni1 Ir3'
_cell_volume   630.48495966
_cell_formula_units_Z   1
loop_
 _symmetry_equiv_pos_site_id
 _symmetry_equiv_pos_as_xyz
  1  'x, y, z'
loop_
 _atom_site_type_symbol
 _atom_site_label
 _atom_site_symmetry_multiplicity
 _atom_site_fract_x
 _atom_site_fract_y
 _atom_site_fract_z
 _atom_site_occupancy
  Tb  Tb0  1  0.814106  0.187318  0.187318  1
  Tb  Tb1  1  0.812056  0.188457  0.811806  1
  Tb  Tb2  1  0.187258  0.814095  0.187031  1
  Tb  Tb3  1  0.812056  0.811806  0.188457  1
  Tb  Tb4  1  0.187258  0.187031  0.814095  1
  Dy  Dy5  1  0.598487  0.598507  0.598507  1
  Dy  Dy6  1  0.598141  0.598308  0.203529  1
  Dy  Dy7  1  0.598141  0.203529  0.598308  1
  Dy  Dy8  1  0.203407  0.598360  0.598360  1
  Dy  Dy9  1  0.061529  0.439513  0.439513  1
  Dy  Dy10  1  0.437894  0.060619  0.060619  1
  Dy  Dy11  1  0.439407  0.061485  0.439612  1
  Dy  Dy12  1  0.060678  0.438067  0.060557  1
  Dy  Dy13  1  0.439407  0.439612  0.061485  1
  Dy  Dy14  1  0.060678  0.060557  0.438067  1
  Dy  Dy15  1  0.188832  0.811711  0.811711  1
  Cd  Cd16  1  0.830732  0.830376  0.830376  1
  Cd  Cd17  1  0.831231  0.831244  0.506849  1
  Cd  Cd18  1  0.831231  0.506849  0.831244  1
  Cd  Cd19  1  0.506559  0.831266  0.831266  1
  Ni  Ni20  1  0.392083  0.392159  0.392159  1
  Ir  Ir21  1  0.392037  0.392349  0.824703  1
  Ir  Ir22  1  0.392037  0.824703  0.392349  1
  Ir  Ir23  1  0.824759  0.392082  0.392082  1
