# generated using pymatgen
data_Tb3DyFe4(P3Ir4)4
_symmetry_space_group_name_H-M   'P 1'
_cell_length_a   3.92825000
_cell_length_b   10.77712895
_cell_length_c   12.37577250
_cell_angle_alpha   89.92913394
_cell_angle_beta   90.00000000
_cell_angle_gamma   90.00000000
_symmetry_Int_Tables_number   1
_chemical_formula_structural   Tb3DyFe4(P3Ir4)4
_chemical_formula_sum   'Tb3 Dy1 Fe4 P12 Ir16'
_cell_volume   523.93110600
_cell_formula_units_Z   1
loop_
 _symmetry_equiv_pos_site_id
 _symmetry_equiv_pos_as_xyz
  1  'x, y, z'
loop_
 _atom_site_type_symbol
 _atom_site_label
 _atom_site_symmetry_multiplicity
 _atom_site_fract_x
 _atom_site_fract_y
 _atom_site_fract_z
 _atom_site_occupancy
  Tb  Tb0  1  0.250000  0.582386  0.710327  1
  Tb  Tb1  1  0.250000  0.917688  0.210395  1
  Tb  Tb2  1  0.750000  0.417685  0.289560  1
  Dy  Dy3  1  0.750000  0.082356  0.789610  1
  Fe  Fe4  1  0.250000  0.458593  0.932230  1
  Fe  Fe5  1  0.250000  0.041216  0.432521  1
  Fe  Fe6  1  0.750000  0.541094  0.067645  1
  Fe  Fe7  1  0.750000  0.959025  0.568070  1
  P  P8  1  0.250000  0.432891  0.105233  1
  P  P9  1  0.250000  0.067178  0.605499  1
  P  P10  1  0.750000  0.566972  0.894661  1
  P  P11  1  0.750000  0.932853  0.394980  1
  P  P12  1  0.250000  0.269319  0.869459  1
  P  P13  1  0.250000  0.230376  0.369638  1
  P  P14  1  0.750000  0.730345  0.130168  1
  P  P15  1  0.750000  0.769686  0.630261  1
  P  P16  1  0.250000  0.596654  0.386909  1
  P  P17  1  0.250000  0.903672  0.886869  1
  P  P18  1  0.750000  0.403458  0.612989  1
  P  P19  1  0.750000  0.096628  0.113224  1
  Ir  Ir20  1  0.250000  0.724209  0.988270  1
  Ir  Ir21  1  0.250000  0.775790  0.488590  1
  Ir  Ir22  1  0.750000  0.275823  0.011464  1
  Ir  Ir23  1  0.750000  0.224029  0.511796  1
  Ir  Ir24  1  0.250000  0.408630  0.480028  1
  Ir  Ir25  1  0.250000  0.091333  0.979355  1
  Ir  Ir26  1  0.750000  0.591294  0.519935  1
  Ir  Ir27  1  0.750000  0.908886  0.020018  1
  Ir  Ir28  1  0.250000  0.236706  0.176054  1
  Ir  Ir29  1  0.250000  0.262802  0.676434  1
  Ir  Ir30  1  0.750000  0.763092  0.823706  1
  Ir  Ir31  1  0.750000  0.736878  0.323813  1
  Ir  Ir32  1  0.250000  0.882392  0.701873  1
  Ir  Ir33  1  0.250000  0.618110  0.201518  1
  Ir  Ir34  1  0.750000  0.118137  0.298551  1
  Ir  Ir35  1  0.750000  0.381812  0.798348  1
