# generated using pymatgen
data_Rb3(PdO2)2
_symmetry_space_group_name_H-M   'P 1'
_cell_length_a   5.88938414
_cell_length_b   5.88938396
_cell_length_c   11.58407700
_cell_angle_alpha   90.00000000
_cell_angle_beta   90.00000000
_cell_angle_gamma   113.89404059
_symmetry_Int_Tables_number   1
_chemical_formula_structural   Rb3(PdO2)2
_chemical_formula_sum   'Rb6 Pd4 O8'
_cell_volume   367.35677147
_cell_formula_units_Z   2
loop_
 _symmetry_equiv_pos_site_id
 _symmetry_equiv_pos_as_xyz
  1  'x, y, z'
loop_
 _atom_site_type_symbol
 _atom_site_label
 _atom_site_symmetry_multiplicity
 _atom_site_fract_x
 _atom_site_fract_y
 _atom_site_fract_z
 _atom_site_occupancy
  Rb  Rb0  1  0.350159  0.649841  0.928902  1
  Rb  Rb1  1  0.649841  0.350159  0.428902  1
  Rb  Rb2  1  0.649841  0.350159  0.071098  1
  Rb  Rb3  1  0.350159  0.649841  0.571098  1
  Rb  Rb4  1  0.713751  0.286249  0.750000  1
  Rb  Rb5  1  0.286249  0.713751  0.250000  1
  Pd  Pd6  1  0.000000  0.000000  0.000000  1
  Pd  Pd7  1  0.000000  0.000000  0.500000  1
  Pd  Pd8  1  0.071385  0.928615  0.750000  1
  Pd  Pd9  1  0.928615  0.071385  0.250000  1
  O  O10  1  0.717879  0.872007  0.115630  1
  O  O11  1  0.282121  0.127993  0.615630  1
  O  O12  1  0.872007  0.717879  0.884370  1
  O  O13  1  0.127993  0.282121  0.384370  1
  O  O14  1  0.282121  0.127993  0.884370  1
  O  O15  1  0.717879  0.872007  0.384370  1
  O  O16  1  0.127993  0.282121  0.115630  1
  O  O17  1  0.872007  0.717879  0.615630  1
