# generated using pymatgen
data_YTm11InCo4Pd
_symmetry_space_group_name_H-M   'P 1'
_cell_length_a   8.22108830
_cell_length_b   8.22108731
_cell_length_c   8.20838593
_cell_angle_alpha   110.91020733
_cell_angle_beta   110.67455542
_cell_angle_gamma   106.92580843
_symmetry_Int_Tables_number   1
_chemical_formula_structural   YTm11InCo4Pd
_chemical_formula_sum   'Y1 Tm11 In1 Co4 Pd1'
_cell_volume   426.07219880
_cell_formula_units_Z   1
loop_
 _symmetry_equiv_pos_site_id
 _symmetry_equiv_pos_as_xyz
  1  'x, y, z'
loop_
 _atom_site_type_symbol
 _atom_site_label
 _atom_site_symmetry_multiplicity
 _atom_site_fract_x
 _atom_site_fract_y
 _atom_site_fract_z
 _atom_site_occupancy
  Y  Y0  1  0.189545  0.293390  0.482936  1
  Tm  Tm1  1  0.811655  0.706603  0.518258  1
  Tm  Tm2  1  0.188046  0.706778  0.894824  1
  Tm  Tm3  1  0.810975  0.294366  0.105341  1
  Tm  Tm4  1  0.314526  0.618584  0.303862  1
  Tm  Tm5  1  0.687198  0.382320  0.696882  1
  Tm  Tm6  1  0.314562  0.009683  0.696882  1
  Tm  Tm7  1  0.685278  0.989336  0.303862  1
  Tm  Tm8  1  0.417137  0.215727  0.200115  1
  Tm  Tm9  1  0.587360  0.787108  0.801702  1
  Tm  Tm10  1  0.014593  0.214341  0.801702  1
  Tm  Tm11  1  0.984388  0.782978  0.200115  1
  In  In12  1  0.499336  0.499994  0.999330  1
  Co  Co13  1  0.110037  0.614072  0.498336  1
  Co  Co14  1  0.884264  0.388299  0.498336  1
  Co  Co15  1  0.379119  0.999285  0.378405  1
  Co  Co16  1  0.620193  0.000076  0.620269  1
  Pd  Pd17  1  0.001787  0.997059  0.998846  1
