# generated using pymatgen
data_Pr16MgIn(AgIr2)2
_symmetry_space_group_name_H-M   'P 1'
_cell_length_a   9.98519155
_cell_length_b   10.00861896
_cell_length_c   10.00861891
_cell_angle_alpha   60.08735127
_cell_angle_beta   60.15637768
_cell_angle_gamma   60.15637576
_symmetry_Int_Tables_number   1
_chemical_formula_structural   Pr16MgIn(AgIr2)2
_chemical_formula_sum   'Pr16 Mg1 In1 Ag2 Ir4'
_cell_volume   709.41345688
_cell_formula_units_Z   1
loop_
 _symmetry_equiv_pos_site_id
 _symmetry_equiv_pos_as_xyz
  1  'x, y, z'
loop_
 _atom_site_type_symbol
 _atom_site_label
 _atom_site_symmetry_multiplicity
 _atom_site_fract_x
 _atom_site_fract_y
 _atom_site_fract_z
 _atom_site_occupancy
  Pr  Pr0  1  0.347364  0.347097  0.347097  1
  Pr  Pr1  1  0.347761  0.348206  0.955669  1
  Pr  Pr2  1  0.347761  0.955669  0.348206  1
  Pr  Pr3  1  0.948878  0.349953  0.349953  1
  Pr  Pr4  1  0.807463  0.191015  0.191015  1
  Pr  Pr5  1  0.192688  0.807696  0.807696  1
  Pr  Pr6  1  0.187457  0.811440  0.188429  1
  Pr  Pr7  1  0.804866  0.194902  0.805808  1
  Pr  Pr8  1  0.187457  0.188429  0.811440  1
  Pr  Pr9  1  0.804866  0.805808  0.194902  1
  Pr  Pr10  1  0.941536  0.561813  0.561813  1
  Pr  Pr11  1  0.559533  0.940774  0.940774  1
  Pr  Pr12  1  0.559811  0.944983  0.562595  1
  Pr  Pr13  1  0.939050  0.562102  0.940051  1
  Pr  Pr14  1  0.559811  0.562595  0.944983  1
  Pr  Pr15  1  0.939050  0.940051  0.562102  1
  Mg  Mg16  1  0.287109  0.567530  0.567530  1
  In  In17  1  0.582073  0.579142  0.579142  1
  Ag  Ag18  1  0.579710  0.584296  0.253384  1
  Ag  Ag19  1  0.579710  0.253384  0.584296  1
  Ir  Ir20  1  0.139148  0.142675  0.142675  1
  Ir  Ir21  1  0.141264  0.142444  0.575495  1
  Ir  Ir22  1  0.141264  0.575495  0.142444  1
  Ir  Ir23  1  0.574372  0.142501  0.142501  1
