# generated using pymatgen
data_Rb8Li4DyTm3Sb8
_symmetry_space_group_name_H-M   'P 1'
_cell_length_a   11.15021300
_cell_length_b   11.15021256
_cell_length_c   7.22650161
_cell_angle_alpha   89.99731479
_cell_angle_beta   90.00267368
_cell_angle_gamma   99.38921048
_symmetry_Int_Tables_number   1
_chemical_formula_structural   Rb8Li4DyTm3Sb8
_chemical_formula_sum   'Rb8 Li4 Dy1 Tm3 Sb8'
_cell_volume   886.41439722
_cell_formula_units_Z   1
loop_
 _symmetry_equiv_pos_site_id
 _symmetry_equiv_pos_as_xyz
  1  'x, y, z'
loop_
 _atom_site_type_symbol
 _atom_site_label
 _atom_site_symmetry_multiplicity
 _atom_site_fract_x
 _atom_site_fract_y
 _atom_site_fract_z
 _atom_site_occupancy
  Rb  Rb0  1  0.570775  0.929478  0.750242  1
  Rb  Rb1  1  0.929478  0.570775  0.249758  1
  Rb  Rb2  1  0.429560  0.069796  0.249862  1
  Rb  Rb3  1  0.069796  0.429560  0.750138  1
  Rb  Rb4  1  0.676488  0.324090  0.787008  1
  Rb  Rb5  1  0.823931  0.175822  0.286794  1
  Rb  Rb6  1  0.324090  0.676488  0.212992  1
  Rb  Rb7  1  0.175822  0.823931  0.713206  1
  Li  Li8  1  0.620786  0.620786  0.000000  1
  Li  Li9  1  0.879673  0.879673  0.500000  1
  Li  Li10  1  0.379815  0.379815  0.000000  1
  Li  Li11  1  0.119539  0.119539  0.500000  1
  Dy  Dy12  1  0.369670  0.369670  0.500000  1
  Tm  Tm13  1  0.870186  0.870186  0.000000  1
  Tm  Tm14  1  0.630505  0.630505  0.500000  1
  Tm  Tm15  1  0.129457  0.129457  0.000000  1
  Sb  Sb16  1  0.345731  0.152538  0.752067  1
  Sb  Sb17  1  0.152538  0.345731  0.247933  1
  Sb  Sb18  1  0.654573  0.845877  0.250031  1
  Sb  Sb19  1  0.845877  0.654573  0.749969  1
  Sb  Sb20  1  0.906026  0.093535  0.761909  1
  Sb  Sb21  1  0.595230  0.406921  0.261206  1
  Sb  Sb22  1  0.093535  0.906026  0.238091  1
  Sb  Sb23  1  0.406921  0.595230  0.738794  1
