# generated using pymatgen
data_Ho6Al24CuRu7
_symmetry_space_group_name_H-M   'P 1'
_cell_length_a   8.77386436
_cell_length_b   8.77386409
_cell_length_c   9.48984708
_cell_angle_alpha   89.71585787
_cell_angle_beta   90.28413889
_cell_angle_gamma   119.74101555
_symmetry_Int_Tables_number   1
_chemical_formula_structural   Ho6Al24CuRu7
_chemical_formula_sum   'Ho6 Al24 Cu1 Ru7'
_cell_volume   634.29603749
_cell_formula_units_Z   1
loop_
 _symmetry_equiv_pos_site_id
 _symmetry_equiv_pos_as_xyz
  1  'x, y, z'
loop_
 _atom_site_type_symbol
 _atom_site_label
 _atom_site_symmetry_multiplicity
 _atom_site_fract_x
 _atom_site_fract_y
 _atom_site_fract_z
 _atom_site_occupancy
  Ho  Ho0  1  0.192580  0.387138  0.248666  1
  Ho  Ho1  1  0.807420  0.612862  0.751334  1
  Ho  Ho2  1  0.612862  0.807420  0.248666  1
  Ho  Ho3  1  0.387138  0.192580  0.751334  1
  Ho  Ho4  1  0.194717  0.805283  0.250713  1
  Ho  Ho5  1  0.805283  0.194717  0.749287  1
  Al  Al6  1  0.332378  0.667622  0.020649  1
  Al  Al7  1  0.667622  0.332378  0.979351  1
  Al  Al8  1  0.666688  0.333312  0.515981  1
  Al  Al9  1  0.333312  0.666688  0.484019  1
  Al  Al10  1  0.163139  0.324259  0.578578  1
  Al  Al11  1  0.836861  0.675741  0.421422  1
  Al  Al12  1  0.675741  0.836861  0.578578  1
  Al  Al13  1  0.843629  0.676402  0.079630  1
  Al  Al14  1  0.324259  0.163139  0.421422  1
  Al  Al15  1  0.156371  0.323598  0.920370  1
  Al  Al16  1  0.162598  0.837402  0.578083  1
  Al  Al17  1  0.323598  0.156371  0.079630  1
  Al  Al18  1  0.837402  0.162598  0.421917  1
  Al  Al19  1  0.676402  0.843629  0.920370  1
  Al  Al20  1  0.837086  0.162914  0.077552  1
  Al  Al21  1  0.162914  0.837086  0.922448  1
  Al  Al22  1  0.560720  0.121786  0.248209  1
  Al  Al23  1  0.439280  0.878214  0.751791  1
  Al  Al24  1  0.878214  0.439280  0.248209  1
  Al  Al25  1  0.121786  0.560720  0.751791  1
  Al  Al26  1  0.560944  0.439056  0.249604  1
  Al  Al27  1  0.439056  0.560944  0.750396  1
  Al  Al28  1  0.999215  0.000785  0.250123  1
  Al  Al29  1  0.000785  0.999215  0.749877  1
  Cu  Cu30  1  0.500000  0.500000  0.000000  1
  Ru  Ru31  1  0.500000  0.000000  0.000000  1
  Ru  Ru32  1  0.000000  0.500000  0.000000  1
  Ru  Ru33  1  0.500000  0.000000  0.500000  1
  Ru  Ru34  1  0.000000  0.500000  0.500000  1
  Ru  Ru35  1  0.500000  0.500000  0.500000  1
  Ru  Ru36  1  0.000000  0.000000  0.000000  1
  Ru  Ru37  1  0.000000  0.000000  0.500000  1
