# generated using pymatgen
data_Dy4Er3Tm3Sn8
_symmetry_space_group_name_H-M   'P 1'
_cell_length_a   7.99151600
_cell_length_b   8.12644701
_cell_length_c   15.36698903
_cell_angle_alpha   89.99344788
_cell_angle_beta   90.00000000
_cell_angle_gamma   90.00000000
_symmetry_Int_Tables_number   1
_chemical_formula_structural   Dy4Er3Tm3Sn8
_chemical_formula_sum   'Dy8 Er6 Tm6 Sn16'
_cell_volume   997.97269638
_cell_formula_units_Z   2
loop_
 _symmetry_equiv_pos_site_id
 _symmetry_equiv_pos_as_xyz
  1  'x, y, z'
loop_
 _atom_site_type_symbol
 _atom_site_label
 _atom_site_symmetry_multiplicity
 _atom_site_fract_x
 _atom_site_fract_y
 _atom_site_fract_z
 _atom_site_occupancy
  Dy  Dy0  1  0.521403  0.320612  0.902759  1
  Dy  Dy1  1  0.021403  0.179388  0.597241  1
  Dy  Dy2  1  0.478613  0.679453  0.402846  1
  Dy  Dy3  1  0.978613  0.820547  0.097154  1
  Dy  Dy4  1  0.478617  0.679456  0.097225  1
  Dy  Dy5  1  0.978617  0.820544  0.402775  1
  Dy  Dy6  1  0.521371  0.320557  0.597219  1
  Dy  Dy7  1  0.021371  0.179443  0.902781  1
  Er  Er8  1  0.367558  0.836493  0.877473  1
  Er  Er9  1  0.867558  0.663507  0.622527  1
  Er  Er10  1  0.632497  0.163527  0.377431  1
  Er  Er11  1  0.132497  0.336473  0.122569  1
  Er  Er12  1  0.632491  0.163492  0.122527  1
  Er  Er13  1  0.132491  0.336508  0.377473  1
  Tm  Tm14  1  0.367459  0.836546  0.622583  1
  Tm  Tm15  1  0.867459  0.663454  0.877417  1
  Tm  Tm16  1  0.198274  0.503891  0.749982  1
  Tm  Tm17  1  0.698274  0.996109  0.750018  1
  Tm  Tm18  1  0.801714  0.496269  0.249991  1
  Tm  Tm19  1  0.301714  0.003731  0.250009  1
  Sn  Sn20  1  0.293583  0.036615  0.041765  1
  Sn  Sn21  1  0.793583  0.463385  0.458235  1
  Sn  Sn22  1  0.706106  0.963328  0.541798  1
  Sn  Sn23  1  0.206106  0.536672  0.958202  1
  Sn  Sn24  1  0.706590  0.963095  0.958181  1
  Sn  Sn25  1  0.206590  0.536905  0.541819  1
  Sn  Sn26  1  0.293664  0.036440  0.458402  1
  Sn  Sn27  1  0.793664  0.463560  0.041598  1
  Sn  Sn28  1  0.564603  0.620072  0.749998  1
  Sn  Sn29  1  0.064603  0.879928  0.750002  1
  Sn  Sn30  1  0.435431  0.380079  0.250006  1
  Sn  Sn31  1  0.935431  0.119921  0.249994  1
  Sn  Sn32  1  0.330356  0.147752  0.749923  1
  Sn  Sn33  1  0.830356  0.352248  0.750077  1
  Sn  Sn34  1  0.669672  0.852117  0.250004  1
  Sn  Sn35  1  0.169672  0.647883  0.249996  1
