# generated using pymatgen
data_K2Cr3(IF3)2
_symmetry_space_group_name_H-M   'P 1'
_cell_length_a   11.76967100
_cell_length_b   7.09147490
_cell_length_c   7.61322209
_cell_angle_alpha   59.56501218
_cell_angle_beta   90.00000000
_cell_angle_gamma   90.00000000
_symmetry_Int_Tables_number   1
_chemical_formula_structural   K2Cr3(IF3)2
_chemical_formula_sum   'K4 Cr6 I4 F12'
_cell_volume   547.87272033
_cell_formula_units_Z   2
loop_
 _symmetry_equiv_pos_site_id
 _symmetry_equiv_pos_as_xyz
  1  'x, y, z'
loop_
 _atom_site_type_symbol
 _atom_site_label
 _atom_site_symmetry_multiplicity
 _atom_site_fract_x
 _atom_site_fract_y
 _atom_site_fract_z
 _atom_site_occupancy
  K  K0  1  0.036333  0.303271  0.385607  1
  K  K1  1  0.963667  0.696729  0.614393  1
  K  K2  1  0.463667  0.303271  0.885607  1
  K  K3  1  0.536333  0.696729  0.114393  1
  Cr  Cr4  1  0.247485  0.847522  0.775783  1
  Cr  Cr5  1  0.747485  0.152478  0.724217  1
  Cr  Cr6  1  0.000000  0.000000  0.000000  1
  Cr  Cr7  1  0.252515  0.847522  0.275783  1
  Cr  Cr8  1  0.752515  0.152478  0.224217  1
  Cr  Cr9  1  0.500000  0.000000  0.500000  1
  I  I10  1  0.327221  0.344637  0.465063  1
  I  I11  1  0.172779  0.344637  0.965063  1
  I  I12  1  0.827221  0.655363  0.034937  1
  I  I13  1  0.672779  0.655363  0.534937  1
  F  F14  1  0.690151  0.142549  0.981357  1
  F  F15  1  0.091710  0.761874  0.239994  1
  F  F16  1  0.087567  0.944393  0.796942  1
  F  F17  1  0.908290  0.238126  0.760006  1
  F  F18  1  0.912433  0.055607  0.203058  1
  F  F19  1  0.587567  0.055607  0.703058  1
  F  F20  1  0.591710  0.238126  0.260006  1
  F  F21  1  0.408290  0.761874  0.739994  1
  F  F22  1  0.809849  0.142549  0.481357  1
  F  F23  1  0.412433  0.944393  0.296942  1
  F  F24  1  0.190151  0.857451  0.518643  1
  F  F25  1  0.309849  0.857451  0.018643  1
