# generated using pymatgen
data_Dy2YHf(Al3Ir)6
_symmetry_space_group_name_H-M   'P 1'
_cell_length_a   7.53201950
_cell_length_b   7.52231719
_cell_length_c   9.40573600
_cell_angle_alpha   90.00000000
_cell_angle_beta   90.00000000
_cell_angle_gamma   119.58082619
_symmetry_Int_Tables_number   1
_chemical_formula_structural   Dy2YHf(Al3Ir)6
_chemical_formula_sum   'Dy2 Y1 Hf1 Al18 Ir6'
_cell_volume   463.45273123
_cell_formula_units_Z   1
loop_
 _symmetry_equiv_pos_site_id
 _symmetry_equiv_pos_as_xyz
  1  'x, y, z'
loop_
 _atom_site_type_symbol
 _atom_site_label
 _atom_site_symmetry_multiplicity
 _atom_site_fract_x
 _atom_site_fract_y
 _atom_site_fract_z
 _atom_site_occupancy
  Dy  Dy0  1  0.671087  0.993782  0.750000  1
  Dy  Dy1  1  0.328511  0.004284  0.250000  1
  Y  Y2  1  0.994563  0.672894  0.750000  1
  Hf  Hf3  1  0.002447  0.326160  0.250000  1
  Al  Al4  1  0.129144  0.130612  0.750000  1
  Al  Al5  1  0.873499  0.876015  0.250000  1
  Al  Al6  1  0.000827  0.335208  0.570533  1
  Al  Al7  1  0.999719  0.661721  0.420715  1
  Al  Al8  1  0.999719  0.661721  0.079285  1
  Al  Al9  1  0.335468  0.001806  0.925647  1
  Al  Al10  1  0.000827  0.335208  0.929467  1
  Al  Al11  1  0.667423  0.001836  0.079384  1
  Al  Al12  1  0.667423  0.001836  0.420616  1
  Al  Al13  1  0.335468  0.001806  0.574353  1
  Al  Al14  1  0.331129  0.333352  0.056616  1
  Al  Al15  1  0.666476  0.666364  0.949725  1
  Al  Al16  1  0.666476  0.666364  0.550275  1
  Al  Al17  1  0.331129  0.333352  0.443384  1
  Al  Al18  1  0.339486  0.548122  0.750000  1
  Al  Al19  1  0.663995  0.450445  0.250000  1
  Al  Al20  1  0.549214  0.340394  0.750000  1
  Al  Al21  1  0.444655  0.655102  0.250000  1
  Ir  Ir22  1  0.672504  0.327741  0.498114  1
  Ir  Ir23  1  0.327401  0.671555  0.498755  1
  Ir  Ir24  1  0.327401  0.671555  0.001245  1
  Ir  Ir25  1  0.672504  0.327741  0.001886  1
  Ir  Ir26  1  0.000750  0.001511  0.498461  1
  Ir  Ir27  1  0.000750  0.001511  0.001539  1
