# generated using pymatgen
data_Ho8Lu2In8Pt3Rh
_symmetry_space_group_name_H-M   'P 1'
_cell_length_a   3.60344500
_cell_length_b   8.10892909
_cell_length_c   18.16154201
_cell_angle_alpha   89.97239828
_cell_angle_beta   90.00000000
_cell_angle_gamma   90.00000000
_symmetry_Int_Tables_number   1
_chemical_formula_structural   Ho8Lu2In8Pt3Rh
_chemical_formula_sum   'Ho8 Lu2 In8 Pt3 Rh1'
_cell_volume   530.68164859
_cell_formula_units_Z   1
loop_
 _symmetry_equiv_pos_site_id
 _symmetry_equiv_pos_as_xyz
  1  'x, y, z'
loop_
 _atom_site_type_symbol
 _atom_site_label
 _atom_site_symmetry_multiplicity
 _atom_site_fract_x
 _atom_site_fract_y
 _atom_site_fract_z
 _atom_site_occupancy
  Ho  Ho0  1  0.000000  0.383544  0.915336  1
  Ho  Ho1  1  0.000000  0.616528  0.086022  1
  Ho  Ho2  1  0.000000  0.238311  0.222726  1
  Ho  Ho3  1  0.000000  0.757905  0.779182  1
  Ho  Ho4  1  0.000000  0.258321  0.719135  1
  Ho  Ho5  1  0.000000  0.749290  0.280263  1
  Ho  Ho6  1  0.000000  0.999963  0.000154  1
  Ho  Ho7  1  0.000000  0.500611  0.499578  1
  Lu  Lu8  1  0.000000  0.114023  0.412148  1
  Lu  Lu9  1  0.000000  0.883524  0.585135  1
  In  In10  1  0.500000  0.420415  0.352457  1
  In  In11  1  0.500000  0.579277  0.647517  1
  In  In12  1  0.500000  0.075961  0.850699  1
  In  In13  1  0.500000  0.927845  0.149914  1
  In  In14  1  0.500000  0.290501  0.067435  1
  In  In15  1  0.500000  0.708723  0.933616  1
  In  In16  1  0.500000  0.204946  0.564065  1
  In  In17  1  0.500000  0.796188  0.433413  1
  Pt  Pt18  1  0.500000  0.974443  0.694162  1
  Pt  Pt19  1  0.500000  0.474843  0.802983  1
  Pt  Pt20  1  0.500000  0.522767  0.197788  1
  Rh  Rh21  1  0.500000  0.022070  0.306273  1
