# generated using pymatgen
data_Ta13Ni8Mo3N4
_symmetry_space_group_name_H-M   'P 1'
_cell_length_a   8.14201053
_cell_length_b   8.14197536
_cell_length_c   8.14245317
_cell_angle_alpha   60.26856821
_cell_angle_beta   60.26967979
_cell_angle_gamma   60.26678245
_symmetry_Int_Tables_number   1
_chemical_formula_structural   Ta13Ni8Mo3N4
_chemical_formula_sum   'Ta13 Ni8 Mo3 N4'
_cell_volume   384.00023023
_cell_formula_units_Z   1
loop_
 _symmetry_equiv_pos_site_id
 _symmetry_equiv_pos_as_xyz
  1  'x, y, z'
loop_
 _atom_site_type_symbol
 _atom_site_label
 _atom_site_symmetry_multiplicity
 _atom_site_fract_x
 _atom_site_fract_y
 _atom_site_fract_z
 _atom_site_occupancy
  Ta  Ta0  1  0.311674  0.688285  0.688389  1
  Ta  Ta1  1  0.561687  0.561665  0.938273  1
  Ta  Ta2  1  0.313160  0.685117  0.313244  1
  Ta  Ta3  1  0.313198  0.313227  0.685157  1
  Ta  Ta4  1  0.685098  0.313175  0.313230  1
  Ta  Ta5  1  0.936802  0.936773  0.564843  1
  Ta  Ta6  1  0.936840  0.564883  0.936756  1
  Ta  Ta7  1  0.938326  0.561715  0.561611  1
  Ta  Ta8  1  0.564902  0.936825  0.936770  1
  Ta  Ta9  1  0.125000  0.125000  0.125000  1
  Ta  Ta10  1  0.688313  0.688335  0.311727  1
  Ta  Ta11  1  0.688259  0.311702  0.688384  1
  Ta  Ta12  1  0.561741  0.938298  0.561616  1
  Ni  Ni13  1  0.006818  0.332039  0.332013  1
  Ni  Ni14  1  0.920604  0.920604  0.920663  1
  Ni  Ni15  1  0.332047  0.332034  0.006824  1
  Ni  Ni16  1  0.917953  0.917966  0.243176  1
  Ni  Ni17  1  0.243182  0.917961  0.917987  1
  Ni  Ni18  1  0.332036  0.006874  0.331996  1
  Ni  Ni19  1  0.917964  0.243126  0.918004  1
  Ni  Ni20  1  0.329396  0.329396  0.329337  1
  Mo  Mo21  1  0.125000  0.125000  0.625000  1
  Mo  Mo22  1  0.625000  0.125000  0.125000  1
  Mo  Mo23  1  0.125000  0.625000  0.125000  1
  N  N24  1  0.625000  0.125000  0.625000  1
  N  N25  1  0.625000  0.625000  0.125000  1
  N  N26  1  0.125000  0.625000  0.625000  1
  N  N27  1  0.625000  0.625000  0.625000  1
