# generated using pymatgen
data_Ti12Ga3Cu9O4
_symmetry_space_group_name_H-M   'P 1'
_cell_length_a   8.01817615
_cell_length_b   8.01817586
_cell_length_c   8.01817702
_cell_angle_alpha   59.77090625
_cell_angle_beta   59.77090682
_cell_angle_gamma   59.77090592
_symmetry_Int_Tables_number   1
_chemical_formula_structural   Ti12Ga3Cu9O4
_chemical_formula_sum   'Ti12 Ga3 Cu9 O4'
_cell_volume   362.61595369
_cell_formula_units_Z   1
loop_
 _symmetry_equiv_pos_site_id
 _symmetry_equiv_pos_as_xyz
  1  'x, y, z'
loop_
 _atom_site_type_symbol
 _atom_site_label
 _atom_site_symmetry_multiplicity
 _atom_site_fract_x
 _atom_site_fract_y
 _atom_site_fract_z
 _atom_site_occupancy
  Ti  Ti0  1  0.934140  0.566964  0.566964  1
  Ti  Ti1  1  0.683036  0.315860  0.683036  1
  Ti  Ti2  1  0.934749  0.563363  0.934749  1
  Ti  Ti3  1  0.563363  0.934749  0.934749  1
  Ti  Ti4  1  0.315251  0.686637  0.315251  1
  Ti  Ti5  1  0.566964  0.934140  0.566964  1
  Ti  Ti6  1  0.683036  0.683036  0.315860  1
  Ti  Ti7  1  0.934749  0.934749  0.563363  1
  Ti  Ti8  1  0.315251  0.315251  0.686637  1
  Ti  Ti9  1  0.686637  0.315251  0.315251  1
  Ti  Ti10  1  0.566964  0.566964  0.934140  1
  Ti  Ti11  1  0.315860  0.683036  0.683036  1
  Ga  Ga12  1  0.125000  0.625000  0.125000  1
  Ga  Ga13  1  0.125000  0.125000  0.625000  1
  Ga  Ga14  1  0.625000  0.125000  0.125000  1
  Cu  Cu15  1  0.254141  0.916668  0.916668  1
  Cu  Cu16  1  0.335540  0.335540  0.335540  1
  Cu  Cu17  1  0.333332  0.333332  0.995859  1
  Cu  Cu18  1  0.916668  0.254141  0.916668  1
  Cu  Cu19  1  0.914460  0.914460  0.914460  1
  Cu  Cu20  1  0.995859  0.333332  0.333332  1
  Cu  Cu21  1  0.916668  0.916668  0.254141  1
  Cu  Cu22  1  0.333332  0.995859  0.333332  1
  Cu  Cu23  1  0.125000  0.125000  0.125000  1
  O  O24  1  0.625000  0.125000  0.625000  1
  O  O25  1  0.625000  0.625000  0.125000  1
  O  O26  1  0.125000  0.625000  0.625000  1
  O  O27  1  0.625000  0.625000  0.625000  1
