# generated using pymatgen
data_Ca20(Cu3Hg)3
_symmetry_space_group_name_H-M   'P 1'
_cell_length_a   7.87170500
_cell_length_b   7.87170500
_cell_length_c   14.61069000
_cell_angle_alpha   90.00000000
_cell_angle_beta   90.00000000
_cell_angle_gamma   90.00000000
_symmetry_Int_Tables_number   1
_chemical_formula_structural   Ca20(Cu3Hg)3
_chemical_formula_sum   'Ca20 Cu9 Hg3'
_cell_volume   905.33299064
_cell_formula_units_Z   1
loop_
 _symmetry_equiv_pos_site_id
 _symmetry_equiv_pos_as_xyz
  1  'x, y, z'
loop_
 _atom_site_type_symbol
 _atom_site_label
 _atom_site_symmetry_multiplicity
 _atom_site_fract_x
 _atom_site_fract_y
 _atom_site_fract_z
 _atom_site_occupancy
  Ca  Ca0  1  0.676046  0.165089  0.107334  1
  Ca  Ca1  1  0.170783  0.670126  0.610773  1
  Ca  Ca2  1  0.323954  0.834911  0.107334  1
  Ca  Ca3  1  0.829217  0.329874  0.610773  1
  Ca  Ca4  1  0.834911  0.676046  0.107334  1
  Ca  Ca5  1  0.329874  0.170783  0.610773  1
  Ca  Ca6  1  0.165089  0.323954  0.107334  1
  Ca  Ca7  1  0.670126  0.829217  0.610773  1
  Ca  Ca8  1  0.834911  0.323954  0.892666  1
  Ca  Ca9  1  0.329874  0.829217  0.389227  1
  Ca  Ca10  1  0.165089  0.676046  0.892666  1
  Ca  Ca11  1  0.670126  0.170783  0.389227  1
  Ca  Ca12  1  0.676046  0.834911  0.892666  1
  Ca  Ca13  1  0.170783  0.329874  0.389227  1
  Ca  Ca14  1  0.323954  0.165089  0.892666  1
  Ca  Ca15  1  0.829217  0.670126  0.389227  1
  Ca  Ca16  1  0.500000  0.500000  0.755078  1
  Ca  Ca17  1  0.000000  0.000000  0.250530  1
  Ca  Ca18  1  0.000000  0.000000  0.749470  1
  Ca  Ca19  1  0.500000  0.500000  0.244922  1
  Cu  Cu20  1  0.613711  0.114659  0.751567  1
  Cu  Cu21  1  0.114659  0.613711  0.248433  1
  Cu  Cu22  1  0.885341  0.386289  0.248433  1
  Cu  Cu23  1  0.386289  0.885341  0.751567  1
  Cu  Cu24  1  0.885341  0.613711  0.751567  1
  Cu  Cu25  1  0.386289  0.114659  0.248433  1
  Cu  Cu26  1  0.114659  0.386289  0.751567  1
  Cu  Cu27  1  0.613711  0.885341  0.248433  1
  Cu  Cu28  1  0.000000  0.000000  0.000000  1
  Hg  Hg29  1  0.500000  0.500000  0.500000  1
  Hg  Hg30  1  0.500000  0.500000  0.000000  1
  Hg  Hg31  1  0.000000  0.000000  0.500000  1
