# generated using pymatgen
data_Cs4UAsBr12
_symmetry_space_group_name_H-M   'P 1'
_cell_length_a   7.93259700
_cell_length_b   7.93259700
_cell_length_c   11.60500600
_cell_angle_alpha   90.00000000
_cell_angle_beta   90.00000000
_cell_angle_gamma   90.00000000
_symmetry_Int_Tables_number   1
_chemical_formula_structural   Cs4UAsBr12
_chemical_formula_sum   'Cs4 U1 As1 Br12'
_cell_volume   730.25771194
_cell_formula_units_Z   1
loop_
 _symmetry_equiv_pos_site_id
 _symmetry_equiv_pos_as_xyz
  1  'x, y, z'
loop_
 _atom_site_type_symbol
 _atom_site_label
 _atom_site_symmetry_multiplicity
 _atom_site_fract_x
 _atom_site_fract_y
 _atom_site_fract_z
 _atom_site_occupancy
  Cs  Cs0  1  0.500000  0.000000  0.790200  1
  Cs  Cs1  1  0.500000  0.000000  0.209800  1
  Cs  Cs2  1  0.000000  0.500000  0.209800  1
  Cs  Cs3  1  0.000000  0.500000  0.790200  1
  U  U4  1  0.500000  0.500000  0.500000  1
  As  As5  1  0.000000  0.000000  0.000000  1
  Br  Br6  1  0.762552  0.241144  0.000000  1
  Br  Br7  1  0.237448  0.758856  0.000000  1
  Br  Br8  1  0.500000  0.500000  0.265794  1
  Br  Br9  1  0.298880  0.225540  0.500000  1
  Br  Br10  1  0.241144  0.237448  0.000000  1
  Br  Br11  1  0.774460  0.298880  0.500000  1
  Br  Br12  1  0.000000  0.000000  0.231313  1
  Br  Br13  1  0.701120  0.774460  0.500000  1
  Br  Br14  1  0.225540  0.701120  0.500000  1
  Br  Br15  1  0.500000  0.500000  0.734206  1
  Br  Br16  1  0.758856  0.762552  0.000000  1
  Br  Br17  1  0.000000  0.000000  0.768687  1
