# generated using pymatgen
data_Eu3Cd2HgPd3
_symmetry_space_group_name_H-M   'P 1'
_cell_length_a   7.83085100
_cell_length_b   7.77200733
_cell_length_c   4.18724400
_cell_angle_alpha   90.00000000
_cell_angle_beta   90.00000000
_cell_angle_gamma   120.25075917
_symmetry_Int_Tables_number   1
_chemical_formula_structural   Eu3Cd2HgPd3
_chemical_formula_sum   'Eu3 Cd2 Hg1 Pd3'
_cell_volume   220.13957593
_cell_formula_units_Z   1
loop_
 _symmetry_equiv_pos_site_id
 _symmetry_equiv_pos_as_xyz
  1  'x, y, z'
loop_
 _atom_site_type_symbol
 _atom_site_label
 _atom_site_symmetry_multiplicity
 _atom_site_fract_x
 _atom_site_fract_y
 _atom_site_fract_z
 _atom_site_occupancy
  Eu  Eu0  1  0.589974  0.000000  0.000000  1
  Eu  Eu1  1  0.003671  0.598968  0.000000  1
  Eu  Eu2  1  0.404702  0.401032  0.000000  1
  Cd  Cd3  1  0.997391  0.250822  0.500000  1
  Cd  Cd4  1  0.746570  0.749178  0.500000  1
  Hg  Hg5  1  0.255283  0.000000  0.500000  1
  Pd  Pd6  1  0.334446  0.660162  0.500000  1
  Pd  Pd7  1  0.674285  0.339838  0.500000  1
  Pd  Pd8  1  0.993677  0.000000  0.000000  1
