# generated using pymatgen
data_NdDy3(B2Ir5)2
_symmetry_space_group_name_H-M   'P 1'
_cell_length_a   11.06421893
_cell_length_b   11.06421835
_cell_length_c   11.06421935
_cell_angle_alpha   28.77150721
_cell_angle_beta   28.77151133
_cell_angle_gamma   28.77151585
_symmetry_Int_Tables_number   1
_chemical_formula_structural   NdDy3(B2Ir5)2
_chemical_formula_sum   'Nd1 Dy3 B4 Ir10'
_cell_volume   277.44534256
_cell_formula_units_Z   1
loop_
 _symmetry_equiv_pos_site_id
 _symmetry_equiv_pos_as_xyz
  1  'x, y, z'
loop_
 _atom_site_type_symbol
 _atom_site_label
 _atom_site_symmetry_multiplicity
 _atom_site_fract_x
 _atom_site_fract_y
 _atom_site_fract_z
 _atom_site_occupancy
  Nd  Nd0  1  0.151549  0.151549  0.151549  1
  Dy  Dy1  1  0.950320  0.950320  0.950320  1
  Dy  Dy2  1  0.848287  0.848287  0.848287  1
  Dy  Dy3  1  0.049520  0.049520  0.049520  1
  B  B4  1  0.617976  0.617976  0.617976  1
  B  B5  1  0.716122  0.716122  0.716122  1
  B  B6  1  0.382132  0.382132  0.382132  1
  B  B7  1  0.283743  0.283743  0.283743  1
  Ir  Ir8  1  0.407627  0.898641  0.407627  1
  Ir  Ir9  1  0.898641  0.407627  0.407627  1
  Ir  Ir10  1  0.499958  0.499958  0.000141  1
  Ir  Ir11  1  0.499958  0.000141  0.499958  1
  Ir  Ir12  1  0.000141  0.499958  0.499958  1
  Ir  Ir13  1  0.500170  0.500170  0.500170  1
  Ir  Ir14  1  0.592951  0.100328  0.592951  1
  Ir  Ir15  1  0.592951  0.592951  0.100328  1
  Ir  Ir16  1  0.100328  0.592951  0.592951  1
  Ir  Ir17  1  0.407627  0.407627  0.898641  1
