# generated using pymatgen
data_Tb4ScPa2Co17P12
_symmetry_space_group_name_H-M   'P 1'
_cell_length_a   3.72297300
_cell_length_b   10.59772300
_cell_length_c   12.22707700
_cell_angle_alpha   90.00000000
_cell_angle_beta   90.00000000
_cell_angle_gamma   90.00000000
_symmetry_Int_Tables_number   1
_chemical_formula_structural   Tb4ScPa2Co17P12
_chemical_formula_sum   'Tb4 Sc1 Pa2 Co17 P12'
_cell_volume   482.41977043
_cell_formula_units_Z   1
loop_
 _symmetry_equiv_pos_site_id
 _symmetry_equiv_pos_as_xyz
  1  'x, y, z'
loop_
 _atom_site_type_symbol
 _atom_site_label
 _atom_site_symmetry_multiplicity
 _atom_site_fract_x
 _atom_site_fract_y
 _atom_site_fract_z
 _atom_site_occupancy
  Tb  Tb0  1  0.500000  0.818903  0.206508  1
  Tb  Tb1  1  0.500000  0.181097  0.206508  1
  Tb  Tb2  1  0.000000  0.685310  0.796468  1
  Tb  Tb3  1  0.000000  0.314690  0.796468  1
  Sc  Sc4  1  0.500000  0.500000  0.151559  1
  Pa  Pa5  1  0.000000  0.500000  0.534084  1
  Pa  Pa6  1  0.500000  0.000000  0.471246  1
  Co  Co7  1  0.000000  0.000000  0.838401  1
  Co  Co8  1  0.500000  0.500000  0.695358  1
  Co  Co9  1  0.000000  0.000000  0.304260  1
  Co  Co10  1  0.000000  0.500000  0.983835  1
  Co  Co11  1  0.500000  0.000000  0.014774  1
  Co  Co12  1  0.500000  0.327963  0.989109  1
  Co  Co13  1  0.500000  0.672037  0.989109  1
  Co  Co14  1  0.000000  0.161278  0.002676  1
  Co  Co15  1  0.000000  0.838722  0.002676  1
  Co  Co16  1  0.500000  0.297461  0.435436  1
  Co  Co17  1  0.500000  0.702539  0.435436  1
  Co  Co18  1  0.000000  0.197692  0.568495  1
  Co  Co19  1  0.000000  0.802308  0.568495  1
  Co  Co20  1  0.500000  0.881354  0.708152  1
  Co  Co21  1  0.500000  0.118646  0.708152  1
  Co  Co22  1  0.000000  0.621294  0.296524  1
  Co  Co23  1  0.000000  0.378706  0.296524  1
  P  P24  1  0.500000  0.500000  0.879088  1
  P  P25  1  0.000000  0.000000  0.119660  1
  P  P26  1  0.500000  0.500000  0.357953  1
  P  P27  1  0.000000  0.000000  0.655869  1
  P  P28  1  0.500000  0.305707  0.618070  1
  P  P29  1  0.500000  0.694293  0.618070  1
  P  P30  1  0.000000  0.192358  0.384879  1
  P  P31  1  0.000000  0.807642  0.384879  1
  P  P32  1  0.500000  0.851974  0.890637  1
  P  P33  1  0.500000  0.148026  0.890637  1
  P  P34  1  0.000000  0.662907  0.100002  1
  P  P35  1  0.000000  0.337093  0.100002  1
