# generated using pymatgen
data_Er17Hf2SnIr12
_symmetry_space_group_name_H-M   'P 1'
_cell_length_a   10.76749400
_cell_length_b   10.76749400
_cell_length_c   6.22303800
_cell_angle_alpha   90.00000000
_cell_angle_beta   90.00000000
_cell_angle_gamma   90.00000000
_symmetry_Int_Tables_number   1
_chemical_formula_structural   Er17Hf2SnIr12
_chemical_formula_sum   'Er17 Hf2 Sn1 Ir12'
_cell_volume   721.49234865
_cell_formula_units_Z   1
loop_
 _symmetry_equiv_pos_site_id
 _symmetry_equiv_pos_as_xyz
  1  'x, y, z'
loop_
 _atom_site_type_symbol
 _atom_site_label
 _atom_site_symmetry_multiplicity
 _atom_site_fract_x
 _atom_site_fract_y
 _atom_site_fract_z
 _atom_site_occupancy
  Er  Er0  1  0.286716  0.084240  0.377698  1
  Er  Er1  1  0.292249  0.911671  0.878259  1
  Er  Er2  1  0.707751  0.088329  0.878259  1
  Er  Er3  1  0.713284  0.915760  0.377698  1
  Er  Er4  1  0.587345  0.789005  0.877706  1
  Er  Er5  1  0.586525  0.210555  0.374816  1
  Er  Er6  1  0.413475  0.789445  0.374816  1
  Er  Er7  1  0.412655  0.210995  0.877706  1
  Er  Er8  1  0.210555  0.413475  0.625184  1
  Er  Er9  1  0.210995  0.587345  0.122294  1
  Er  Er10  1  0.789005  0.412655  0.122294  1
  Er  Er11  1  0.789445  0.586525  0.625184  1
  Er  Er12  1  0.911671  0.707751  0.121741  1
  Er  Er13  1  0.915760  0.286716  0.622302  1
  Er  Er14  1  0.084240  0.713284  0.622302  1
  Er  Er15  1  0.088329  0.292249  0.121741  1
  Er  Er16  1  0.000000  0.000000  0.000000  1
  Hf  Hf17  1  0.500000  0.500000  0.000000  1
  Hf  Hf18  1  0.500000  0.500000  0.500000  1
  Sn  Sn19  1  0.000000  0.000000  0.500000  1
  Ir  Ir20  1  0.845461  0.157162  0.246900  1
  Ir  Ir21  1  0.842838  0.845461  0.753100  1
  Ir  Ir22  1  0.157162  0.154539  0.753100  1
  Ir  Ir23  1  0.154539  0.842838  0.246900  1
  Ir  Ir24  1  0.643684  0.357825  0.746917  1
  Ir  Ir25  1  0.642175  0.643684  0.253083  1
  Ir  Ir26  1  0.357825  0.356316  0.253083  1
  Ir  Ir27  1  0.356316  0.642175  0.746917  1
  Ir  Ir28  1  0.500000  0.000000  0.125236  1
  Ir  Ir29  1  0.500000  0.000000  0.621436  1
  Ir  Ir30  1  0.000000  0.500000  0.874764  1
  Ir  Ir31  1  0.000000  0.500000  0.378564  1
