# generated using pymatgen
data_CeNi5P3
_symmetry_space_group_name_H-M   'P 1'
_cell_length_a   6.17369000
_cell_length_b   6.17368987
_cell_length_c   11.44751000
_cell_angle_alpha   90.00000000
_cell_angle_beta   90.00000000
_cell_angle_gamma   33.98019300
_symmetry_Int_Tables_number   1
_chemical_formula_structural   CeNi5P3
_chemical_formula_sum   'Ce2 Ni10 P6'
_cell_volume   243.85948026
_cell_formula_units_Z   2
loop_
 _symmetry_equiv_pos_site_id
 _symmetry_equiv_pos_as_xyz
  1  'x, y, z'
loop_
 _atom_site_type_symbol
 _atom_site_label
 _atom_site_symmetry_multiplicity
 _atom_site_fract_x
 _atom_site_fract_y
 _atom_site_fract_z
 _atom_site_occupancy
  Ce  Ce0  1  0.158524  0.158524  0.250000  1
  Ce  Ce1  1  0.841475  0.841475  0.750000  1
  Ni  Ni2  1  0.443826  0.443826  0.355449  1
  Ni  Ni3  1  0.556174  0.556174  0.855449  1
  Ni  Ni4  1  0.556174  0.556174  0.644551  1
  Ni  Ni5  1  0.443826  0.443826  0.144551  1
  Ni  Ni6  1  0.199341  0.199341  0.933189  1
  Ni  Ni7  1  0.800659  0.800659  0.433189  1
  Ni  Ni8  1  0.800659  0.800659  0.066811  1
  Ni  Ni9  1  0.199341  0.199341  0.566811  1
  Ni  Ni10  1  0.000000  0.000000  0.000000  1
  Ni  Ni11  1  0.000000  0.000000  0.500000  1
  P  P12  1  0.881076  0.881076  0.250000  1
  P  P13  1  0.118925  0.118925  0.750000  1
  P  P14  1  0.383002  0.383002  0.955480  1
  P  P15  1  0.616999  0.616999  0.455479  1
  P  P16  1  0.616999  0.616999  0.044520  1
  P  P17  1  0.383002  0.383002  0.544520  1
