# generated using pymatgen
data_Er4FeOs5Ru2
_symmetry_space_group_name_H-M   'P 1'
_cell_length_a   5.22864935
_cell_length_b   5.25995835
_cell_length_c   8.91182800
_cell_angle_alpha   90.00000000
_cell_angle_beta   90.00000000
_cell_angle_gamma   120.19828204
_symmetry_Int_Tables_number   1
_chemical_formula_structural   Er4FeOs5Ru2
_chemical_formula_sum   'Er4 Fe1 Os5 Ru2'
_cell_volume   211.83516180
_cell_formula_units_Z   1
loop_
 _symmetry_equiv_pos_site_id
 _symmetry_equiv_pos_as_xyz
  1  'x, y, z'
loop_
 _atom_site_type_symbol
 _atom_site_label
 _atom_site_symmetry_multiplicity
 _atom_site_fract_x
 _atom_site_fract_y
 _atom_site_fract_z
 _atom_site_occupancy
  Er  Er0  1  0.335293  0.667647  0.435488  1
  Er  Er1  1  0.665758  0.332879  0.566961  1
  Er  Er2  1  0.665758  0.332879  0.933039  1
  Er  Er3  1  0.335293  0.667647  0.064512  1
  Fe  Fe4  1  0.667442  0.833722  0.750000  1
  Os  Os5  1  0.828455  0.171410  0.250000  1
  Os  Os6  1  0.828455  0.657044  0.250000  1
  Os  Os7  1  0.335668  0.167834  0.250000  1
  Os  Os8  1  0.170041  0.825620  0.750000  1
  Os  Os9  1  0.170041  0.344423  0.750000  1
  Ru  Ru10  1  0.998898  0.999449  0.501778  1
  Ru  Ru11  1  0.998898  0.999449  0.998222  1
