# generated using pymatgen
data_HoTh2In3Ir2Rh
_symmetry_space_group_name_H-M   'P 1'
_cell_length_a   7.67138300
_cell_length_b   7.75287115
_cell_length_c   3.91784200
_cell_angle_alpha   90.00000000
_cell_angle_beta   90.00000000
_cell_angle_gamma   119.65290921
_symmetry_Int_Tables_number   1
_chemical_formula_structural   HoTh2In3Ir2Rh
_chemical_formula_sum   'Ho1 Th2 In3 Ir2 Rh1'
_cell_volume   202.49865052
_cell_formula_units_Z   1
loop_
 _symmetry_equiv_pos_site_id
 _symmetry_equiv_pos_as_xyz
  1  'x, y, z'
loop_
 _atom_site_type_symbol
 _atom_site_label
 _atom_site_symmetry_multiplicity
 _atom_site_fract_x
 _atom_site_fract_y
 _atom_site_fract_z
 _atom_site_occupancy
  Ho  Ho0  1  0.408452  0.000000  0.500000  1
  Th  Th1  1  0.002177  0.414379  0.500000  1
  Th  Th2  1  0.587798  0.585621  0.500000  1
  In  In3  1  0.253167  0.239310  0.000000  1
  In  In4  1  0.013857  0.760690  0.000000  1
  In  In5  1  0.732700  0.000000  0.000000  1
  Ir  Ir6  1  0.330778  0.648744  0.000000  1
  Ir  Ir7  1  0.682036  0.351256  0.000000  1
  Rh  Rh8  1  0.989035  0.000000  0.500000  1
