# generated using pymatgen
data_Ho3Al12NiRu3
_symmetry_space_group_name_H-M   'P 1'
_cell_length_a   8.77355409
_cell_length_b   8.83157362
_cell_length_c   9.49748500
_cell_angle_alpha   90.00000000
_cell_angle_beta   90.00000000
_cell_angle_gamma   120.21899607
_symmetry_Int_Tables_number   1
_chemical_formula_structural   Ho3Al12NiRu3
_chemical_formula_sum   'Ho6 Al24 Ni2 Ru6'
_cell_volume   635.90213640
_cell_formula_units_Z   2
loop_
 _symmetry_equiv_pos_site_id
 _symmetry_equiv_pos_as_xyz
  1  'x, y, z'
loop_
 _atom_site_type_symbol
 _atom_site_label
 _atom_site_symmetry_multiplicity
 _atom_site_fract_x
 _atom_site_fract_y
 _atom_site_fract_z
 _atom_site_occupancy
  Ho  Ho0  1  0.196800  0.386227  0.250000  1
  Ho  Ho1  1  0.803200  0.613773  0.750000  1
  Ho  Ho2  1  0.608455  0.804228  0.250000  1
  Ho  Ho3  1  0.391545  0.195772  0.750000  1
  Ho  Ho4  1  0.196800  0.810574  0.250000  1
  Ho  Ho5  1  0.803200  0.189426  0.750000  1
  Al  Al6  1  0.329524  0.664763  0.019801  1
  Al  Al7  1  0.670476  0.335237  0.980199  1
  Al  Al8  1  0.670476  0.335237  0.519801  1
  Al  Al9  1  0.329524  0.664763  0.480199  1
  Al  Al10  1  0.161963  0.326199  0.577317  1
  Al  Al11  1  0.838037  0.673801  0.422683  1
  Al  Al12  1  0.672286  0.836144  0.576596  1
  Al  Al13  1  0.838037  0.673801  0.077317  1
  Al  Al14  1  0.327714  0.163856  0.423404  1
  Al  Al15  1  0.161963  0.326199  0.922683  1
  Al  Al16  1  0.161963  0.835764  0.577317  1
  Al  Al17  1  0.327714  0.163856  0.076596  1
  Al  Al18  1  0.838037  0.164236  0.422683  1
  Al  Al19  1  0.672286  0.836144  0.923404  1
  Al  Al20  1  0.838037  0.164236  0.077317  1
  Al  Al21  1  0.161963  0.835764  0.922683  1
  Al  Al22  1  0.563524  0.123978  0.250000  1
  Al  Al23  1  0.436476  0.876022  0.750000  1
  Al  Al24  1  0.883446  0.441723  0.250000  1
  Al  Al25  1  0.116554  0.558277  0.750000  1
  Al  Al26  1  0.563524  0.439546  0.250000  1
  Al  Al27  1  0.436476  0.560454  0.750000  1
  Al  Al28  1  0.001331  0.000665  0.250000  1
  Al  Al29  1  0.998669  0.999335  0.750000  1
  Ni  Ni30  1  0.000000  0.500000  0.000000  1
  Ni  Ni31  1  0.000000  0.500000  0.500000  1
  Ru  Ru32  1  0.500000  0.000000  0.000000  1
  Ru  Ru33  1  0.500000  0.000000  0.500000  1
  Ru  Ru34  1  0.500000  0.500000  0.000000  1
  Ru  Ru35  1  0.500000  0.500000  0.500000  1
  Ru  Ru36  1  0.000000  0.000000  0.000000  1
  Ru  Ru37  1  0.000000  0.000000  0.500000  1
