# generated using pymatgen
data_PaPBr10
_symmetry_space_group_name_H-M   'P 1'
_cell_length_a   7.97242357
_cell_length_b   8.32739586
_cell_length_c   15.37603062
_cell_angle_alpha   91.07011284
_cell_angle_beta   90.95449667
_cell_angle_gamma   105.93055152
_symmetry_Int_Tables_number   1
_chemical_formula_structural   PaPBr10
_chemical_formula_sum   'Pa2 P2 Br20'
_cell_volume   981.18021743
_cell_formula_units_Z   2
loop_
 _symmetry_equiv_pos_site_id
 _symmetry_equiv_pos_as_xyz
  1  'x, y, z'
loop_
 _atom_site_type_symbol
 _atom_site_label
 _atom_site_symmetry_multiplicity
 _atom_site_fract_x
 _atom_site_fract_y
 _atom_site_fract_z
 _atom_site_occupancy
  Pa  Pa0  1  0.000000  0.000000  0.000000  1
  Pa  Pa1  1  0.000000  0.000000  0.500000  1
  P  P2  1  0.383106  0.588547  0.261820  1
  P  P3  1  0.616894  0.411453  0.738180  1
  Br  Br4  1  0.240158  0.839222  0.945277  1
  Br  Br5  1  0.759842  0.160778  0.054723  1
  Br  Br6  1  0.766962  0.698358  0.024293  1
  Br  Br7  1  0.233038  0.301642  0.975707  1
  Br  Br8  1  0.884661  0.996724  0.832957  1
  Br  Br9  1  0.115339  0.003276  0.167043  1
  Br  Br10  1  0.866080  0.177411  0.383016  1
  Br  Br11  1  0.133920  0.822589  0.616984  1
  Br  Br12  1  0.311456  0.080860  0.419209  1
  Br  Br13  1  0.688544  0.919140  0.580791  1
  Br  Br14  1  0.885924  0.717050  0.397877  1
  Br  Br15  1  0.114076  0.282950  0.602123  1
  Br  Br16  1  0.135537  0.520886  0.193454  1
  Br  Br17  1  0.864463  0.479114  0.806546  1
  Br  Br18  1  0.530991  0.832872  0.224775  1
  Br  Br19  1  0.469009  0.167128  0.775225  1
  Br  Br20  1  0.524217  0.411288  0.226241  1
  Br  Br21  1  0.475783  0.588712  0.773759  1
  Br  Br22  1  0.341908  0.583618  0.399485  1
  Br  Br23  1  0.658092  0.416382  0.600515  1
