# generated using pymatgen
data_NdHo(BrO3)6
_symmetry_space_group_name_H-M   'P 1'
_cell_length_a   9.95023100
_cell_length_b   9.95022991
_cell_length_c   5.91783900
_cell_angle_alpha   90.00000000
_cell_angle_beta   90.00000000
_cell_angle_gamma   119.99998701
_symmetry_Int_Tables_number   1
_chemical_formula_structural   NdHo(BrO3)6
_chemical_formula_sum   'Nd1 Ho1 Br6 O18'
_cell_volume   507.41127455
_cell_formula_units_Z   1
loop_
 _symmetry_equiv_pos_site_id
 _symmetry_equiv_pos_as_xyz
  1  'x, y, z'
loop_
 _atom_site_type_symbol
 _atom_site_label
 _atom_site_symmetry_multiplicity
 _atom_site_fract_x
 _atom_site_fract_y
 _atom_site_fract_z
 _atom_site_occupancy
  Nd  Nd0  1  0.666667  0.333333  0.698743  1
  Ho  Ho1  1  0.333333  0.666667  0.198429  1
  Br  Br2  1  0.683413  0.013716  0.365580  1
  Br  Br3  1  0.305461  0.970361  0.872196  1
  Br  Br4  1  0.029639  0.335099  0.872196  1
  Br  Br5  1  0.330302  0.316587  0.365580  1
  Br  Br6  1  0.986284  0.669698  0.365580  1
  Br  Br7  1  0.664901  0.694539  0.872196  1
  O  O8  1  0.771323  0.829432  0.055899  1
  O  O9  1  0.958972  0.775134  0.552356  1
  O  O10  1  0.816162  0.041028  0.552356  1
  O  O11  1  0.170568  0.941891  0.055899  1
  O  O12  1  0.058109  0.228677  0.055899  1
  O  O13  1  0.224866  0.183838  0.552356  1
  O  O14  1  0.706575  0.549069  0.916470  1
  O  O15  1  0.171412  0.705766  0.416543  1
  O  O16  1  0.519122  0.398397  0.453720  1
  O  O17  1  0.130184  0.522989  0.967313  1
  O  O18  1  0.392805  0.869816  0.967313  1
  O  O19  1  0.601603  0.120725  0.453720  1
  O  O20  1  0.879275  0.480878  0.453720  1
  O  O21  1  0.477011  0.607195  0.967313  1
  O  O22  1  0.294234  0.465646  0.416543  1
  O  O23  1  0.842494  0.293425  0.916470  1
  O  O24  1  0.450931  0.157506  0.916470  1
  O  O25  1  0.534354  0.828588  0.416543  1
