# generated using pymatgen
data_Tb3Dy2Mg(P2Ru3)6
_symmetry_space_group_name_H-M   'P 1'
_cell_length_a   3.98536700
_cell_length_b   12.64998061
_cell_length_c   12.49317000
_cell_angle_alpha   119.59529563
_cell_angle_beta   90.00000000
_cell_angle_gamma   90.00000000
_symmetry_Int_Tables_number   1
_chemical_formula_structural   Tb3Dy2Mg(P2Ru3)6
_chemical_formula_sum   'Tb3 Dy2 Mg1 P12 Ru18'
_cell_volume   547.66897422
_cell_formula_units_Z   1
loop_
 _symmetry_equiv_pos_site_id
 _symmetry_equiv_pos_as_xyz
  1  'x, y, z'
loop_
 _atom_site_type_symbol
 _atom_site_label
 _atom_site_symmetry_multiplicity
 _atom_site_fract_x
 _atom_site_fract_y
 _atom_site_fract_z
 _atom_site_occupancy
  Tb  Tb0  1  0.500000  0.815996  0.817204  1
  Tb  Tb1  1  0.000000  0.339718  0.668624  1
  Tb  Tb2  1  0.000000  0.660189  0.328839  1
  Dy  Dy3  1  0.500000  0.000005  0.181065  1
  Dy  Dy4  1  0.500000  0.183978  0.001334  1
  Mg  Mg5  1  0.000000  0.000034  0.561632  1
  P  P6  1  0.000000  0.000155  0.811600  1
  P  P7  1  0.000000  0.817014  0.000836  1
  P  P8  1  0.000000  0.183068  0.183744  1
  P  P9  1  0.500000  0.308622  0.480401  1
  P  P10  1  0.500000  0.181353  0.700214  1
  P  P11  1  0.500000  0.525515  0.832410  1
  P  P12  1  0.500000  0.818684  0.518891  1
  P  P13  1  0.500000  0.474430  0.306848  1
  P  P14  1  0.500000  0.691317  0.171832  1
  P  P15  1  0.000000  0.000017  0.360076  1
  P  P16  1  0.000000  0.374765  0.000165  1
  P  P17  1  0.000000  0.625124  0.625301  1
  Ru  Ru18  1  0.000000  0.555689  0.000357  1
  Ru  Ru19  1  0.000000  0.444251  0.444550  1
  Ru  Ru20  1  0.500000  0.000148  0.716235  1
  Ru  Ru21  1  0.500000  0.718364  0.001890  1
  Ru  Ru22  1  0.500000  0.281571  0.283326  1
  Ru  Ru23  1  0.000000  0.194632  0.378990  1
  Ru  Ru24  1  0.000000  0.186675  0.806776  1
  Ru  Ru25  1  0.000000  0.626574  0.816202  1
  Ru  Ru26  1  0.000000  0.813432  0.619831  1
  Ru  Ru27  1  0.000000  0.373132  0.189266  1
  Ru  Ru28  1  0.000000  0.805387  0.184430  1
  Ru  Ru29  1  0.500000  0.124721  0.490449  1
  Ru  Ru30  1  0.500000  0.369104  0.878798  1
  Ru  Ru31  1  0.500000  0.507848  0.636184  1
  Ru  Ru32  1  0.500000  0.630849  0.509627  1
  Ru  Ru33  1  0.500000  0.492067  0.128345  1
  Ru  Ru34  1  0.500000  0.875219  0.365730  1
  Ru  Ru35  1  0.000000  0.000254  0.997996  1
