# generated using pymatgen
data_Gd6YScO12
_symmetry_space_group_name_H-M   'P 1'
_cell_length_a   6.76544541
_cell_length_b   6.76544654
_cell_length_c   6.76544625
_cell_angle_alpha   92.53540354
_cell_angle_beta   92.53540367
_cell_angle_gamma   92.53540216
_symmetry_Int_Tables_number   1
_chemical_formula_structural   Gd6YScO12
_chemical_formula_sum   'Gd6 Y1 Sc1 O12'
_cell_volume   308.72580758
_cell_formula_units_Z   1
loop_
 _symmetry_equiv_pos_site_id
 _symmetry_equiv_pos_as_xyz
  1  'x, y, z'
loop_
 _atom_site_type_symbol
 _atom_site_label
 _atom_site_symmetry_multiplicity
 _atom_site_fract_x
 _atom_site_fract_y
 _atom_site_fract_z
 _atom_site_occupancy
  Gd  Gd0  1  0.742784  0.930541  0.440265  1
  Gd  Gd1  1  0.440265  0.742784  0.930541  1
  Gd  Gd2  1  0.069459  0.559735  0.257216  1
  Gd  Gd3  1  0.930541  0.440265  0.742784  1
  Gd  Gd4  1  0.559735  0.257216  0.069459  1
  Gd  Gd5  1  0.257216  0.069459  0.559735  1
  Y  Y6  1  0.000000  0.000000  0.000000  1
  Sc  Sc7  1  0.500000  0.500000  0.500000  1
  O  O8  1  0.067776  0.906411  0.315679  1
  O  O9  1  0.684321  0.932224  0.093589  1
  O  O10  1  0.464780  0.802996  0.591975  1
  O  O11  1  0.093589  0.684321  0.932224  1
  O  O12  1  0.802996  0.591975  0.464780  1
  O  O13  1  0.408025  0.535220  0.197004  1
  O  O14  1  0.591975  0.464780  0.802996  1
  O  O15  1  0.197004  0.408025  0.535220  1
  O  O16  1  0.906411  0.315679  0.067776  1
  O  O17  1  0.535220  0.197004  0.408025  1
  O  O18  1  0.315679  0.067776  0.906411  1
  O  O19  1  0.932224  0.093589  0.684321  1
