# generated using pymatgen
data_Ho5ErScCrO12
_symmetry_space_group_name_H-M   'P 1'
_cell_length_a   6.52855778
_cell_length_b   6.52915671
_cell_length_c   6.52893829
_cell_angle_alpha   92.68851435
_cell_angle_beta   92.70974871
_cell_angle_gamma   92.68682914
_symmetry_Int_Tables_number   1
_chemical_formula_structural   Ho5ErScCrO12
_chemical_formula_sum   'Ho5 Er1 Sc1 Cr1 O12'
_cell_volume   277.34886275
_cell_formula_units_Z   1
loop_
 _symmetry_equiv_pos_site_id
 _symmetry_equiv_pos_as_xyz
  1  'x, y, z'
loop_
 _atom_site_type_symbol
 _atom_site_label
 _atom_site_symmetry_multiplicity
 _atom_site_fract_x
 _atom_site_fract_y
 _atom_site_fract_z
 _atom_site_occupancy
  Ho  Ho0  1  0.926710  0.435971  0.742490  1
  Ho  Ho1  1  0.436645  0.743006  0.926995  1
  Ho  Ho2  1  0.257200  0.072782  0.563501  1
  Ho  Ho3  1  0.072738  0.564186  0.257216  1
  Ho  Ho4  1  0.563938  0.256801  0.073459  1
  Er  Er5  1  0.742955  0.926999  0.435871  1
  Sc  Sc6  1  0.999521  0.999838  0.000032  1
  Cr  Cr7  1  0.500344  0.500032  0.499794  1
  O  O8  1  0.588323  0.460809  0.799791  1
  O  O9  1  0.461858  0.800233  0.588019  1
  O  O10  1  0.799777  0.589611  0.460905  1
  O  O11  1  0.411598  0.539077  0.200159  1
  O  O12  1  0.540098  0.199764  0.411834  1
  O  O13  1  0.200302  0.411642  0.539217  1
  O  O14  1  0.067864  0.914396  0.308680  1
  O  O15  1  0.914314  0.308452  0.068610  1
  O  O16  1  0.691466  0.930927  0.087027  1
  O  O17  1  0.085832  0.691571  0.931178  1
  O  O18  1  0.930285  0.085103  0.691068  1
  O  O19  1  0.308232  0.068802  0.914153  1
