# generated using pymatgen
data_Cs6Y3TmCl18
_symmetry_space_group_name_H-M   'P 1'
_cell_length_a   9.95445530
_cell_length_b   9.95445588
_cell_length_c   9.95445500
_cell_angle_alpha   83.15804306
_cell_angle_beta   83.15804266
_cell_angle_gamma   83.15803584
_symmetry_Int_Tables_number   1
_chemical_formula_structural   Cs6Y3TmCl18
_chemical_formula_sum   'Cs6 Y3 Tm1 Cl18'
_cell_volume   966.87447958
_cell_formula_units_Z   1
loop_
 _symmetry_equiv_pos_site_id
 _symmetry_equiv_pos_as_xyz
  1  'x, y, z'
loop_
 _atom_site_type_symbol
 _atom_site_label
 _atom_site_symmetry_multiplicity
 _atom_site_fract_x
 _atom_site_fract_y
 _atom_site_fract_z
 _atom_site_occupancy
  Cs  Cs0  1  0.589500  0.910169  0.250708  1
  Cs  Cs1  1  0.250708  0.589500  0.910169  1
  Cs  Cs2  1  0.910169  0.250708  0.589500  1
  Cs  Cs3  1  0.749849  0.410701  0.089081  1
  Cs  Cs4  1  0.089081  0.749849  0.410701  1
  Cs  Cs5  1  0.410701  0.089081  0.749849  1
  Y  Y6  1  0.847816  0.847816  0.847816  1
  Y  Y7  1  0.348362  0.348362  0.348362  1
  Y  Y8  1  0.151740  0.151740  0.151740  1
  Tm  Tm9  1  0.652880  0.652880  0.652880  1
  Cl  Cl10  1  0.097618  0.402254  0.250155  1
  Cl  Cl11  1  0.250155  0.097618  0.402254  1
  Cl  Cl12  1  0.402254  0.250155  0.097618  1
  Cl  Cl13  1  0.749000  0.900012  0.597753  1
  Cl  Cl14  1  0.597753  0.749000  0.900012  1
  Cl  Cl15  1  0.900012  0.597753  0.749000  1
  Cl  Cl16  1  0.234083  0.414913  0.579050  1
  Cl  Cl17  1  0.579050  0.234083  0.414913  1
  Cl  Cl18  1  0.414913  0.579050  0.234083  1
  Cl  Cl19  1  0.078778  0.914413  0.733958  1
  Cl  Cl20  1  0.733958  0.078778  0.914413  1
  Cl  Cl21  1  0.914413  0.733958  0.078778  1
  Cl  Cl22  1  0.763433  0.586585  0.425291  1
  Cl  Cl23  1  0.425291  0.763433  0.586585  1
  Cl  Cl24  1  0.586585  0.425291  0.763433  1
  Cl  Cl25  1  0.921009  0.085049  0.265842  1
  Cl  Cl26  1  0.265842  0.921009  0.085049  1
  Cl  Cl27  1  0.085049  0.265842  0.921009  1
