# generated using pymatgen
data_Pr8Sm2B2Br15
_symmetry_space_group_name_H-M   'P 1'
_cell_length_a   9.43940057
_cell_length_b   10.27837272
_cell_length_c   11.12323094
_cell_angle_alpha   91.29036654
_cell_angle_beta   114.42459798
_cell_angle_gamma   110.74965079
_symmetry_Int_Tables_number   1
_chemical_formula_structural   Pr8Sm2B2Br15
_chemical_formula_sum   'Pr8 Sm2 B2 Br15'
_cell_volume   900.59312499
_cell_formula_units_Z   1
loop_
 _symmetry_equiv_pos_site_id
 _symmetry_equiv_pos_as_xyz
  1  'x, y, z'
loop_
 _atom_site_type_symbol
 _atom_site_label
 _atom_site_symmetry_multiplicity
 _atom_site_fract_x
 _atom_site_fract_y
 _atom_site_fract_z
 _atom_site_occupancy
  Pr  Pr0  1  0.802554  0.410102  0.276717  1
  Pr  Pr1  1  0.197446  0.589898  0.723283  1
  Pr  Pr2  1  0.675973  0.746260  0.820135  1
  Pr  Pr3  1  0.324027  0.253740  0.179865  1
  Pr  Pr4  1  0.526253  0.704999  0.096590  1
  Pr  Pr5  1  0.473747  0.295001  0.903410  1
  Pr  Pr6  1  0.587472  0.038175  0.325325  1
  Pr  Pr7  1  0.412528  0.961825  0.674675  1
  Sm  Sm8  1  0.720946  0.073307  0.046960  1
  Sm  Sm9  1  0.279054  0.926693  0.953040  1
  B  B10  1  0.466894  0.820709  0.876769  1
  B  B11  1  0.533106  0.179291  0.123231  1
  Br  Br12  1  0.000000  0.000000  0.000000  1
  Br  Br13  1  0.636160  0.881834  0.583238  1
  Br  Br14  1  0.363840  0.118166  0.416762  1
  Br  Br15  1  0.883349  0.298836  0.527948  1
  Br  Br16  1  0.116651  0.701164  0.472052  1
  Br  Br17  1  0.284916  0.764816  0.174014  1
  Br  Br18  1  0.715084  0.235184  0.825986  1
  Br  Br19  1  0.048285  0.335389  0.220766  1
  Br  Br20  1  0.160317  0.053069  0.708514  1
  Br  Br21  1  0.839683  0.946931  0.291486  1
  Br  Br22  1  0.230863  0.410655  0.944256  1
  Br  Br23  1  0.769137  0.589345  0.055744  1
  Br  Br24  1  0.408466  0.463347  0.659661  1
  Br  Br25  1  0.591534  0.536653  0.340339  1
  Br  Br26  1  0.951715  0.664611  0.779234  1
