# generated using pymatgen
data_KLiUS3
_symmetry_space_group_name_H-M   'P 1'
_cell_length_a   7.22369381
_cell_length_b   7.22369425
_cell_length_c   10.51777819
_cell_angle_alpha   89.88044327
_cell_angle_beta   90.11955829
_cell_angle_gamma   147.17785161
_symmetry_Int_Tables_number   1
_chemical_formula_structural   KLiUS3
_chemical_formula_sum   'K2 Li2 U2 S6'
_cell_volume   297.48664537
_cell_formula_units_Z   2
loop_
 _symmetry_equiv_pos_site_id
 _symmetry_equiv_pos_as_xyz
  1  'x, y, z'
loop_
 _atom_site_type_symbol
 _atom_site_label
 _atom_site_symmetry_multiplicity
 _atom_site_fract_x
 _atom_site_fract_y
 _atom_site_fract_z
 _atom_site_occupancy
  K  K0  1  0.239480  0.760520  0.250040  1
  K  K1  1  0.760520  0.239480  0.749960  1
  Li  Li2  1  0.962599  0.037400  0.250076  1
  Li  Li3  1  0.037400  0.962599  0.749924  1
  U  U4  1  0.500000  0.500000  0.000000  1
  U  U5  1  0.500000  0.500000  0.500000  1
  S  S6  1  0.877612  0.122388  0.053174  1
  S  S7  1  0.553502  0.446498  0.250119  1
  S  S8  1  0.877675  0.122325  0.446870  1
  S  S9  1  0.122325  0.877675  0.553130  1
  S  S10  1  0.446498  0.553502  0.749881  1
  S  S11  1  0.122388  0.877612  0.946826  1
