# generated using pymatgen
data_Tb12Nd4MgAg3Rh4
_symmetry_space_group_name_H-M   'P 1'
_cell_length_a   9.68276047
_cell_length_b   9.70300696
_cell_length_c   9.70298257
_cell_angle_alpha   60.08263962
_cell_angle_beta   59.94703189
_cell_angle_gamma   59.94681813
_symmetry_Int_Tables_number   1
_chemical_formula_structural   Tb12Nd4MgAg3Rh4
_chemical_formula_sum   'Tb12 Nd4 Mg1 Ag3 Rh4'
_cell_volume   644.49118657
_cell_formula_units_Z   1
loop_
 _symmetry_equiv_pos_site_id
 _symmetry_equiv_pos_as_xyz
  1  'x, y, z'
loop_
 _atom_site_type_symbol
 _atom_site_label
 _atom_site_symmetry_multiplicity
 _atom_site_fract_x
 _atom_site_fract_y
 _atom_site_fract_z
 _atom_site_occupancy
  Tb  Tb0  1  0.599894  0.598087  0.598097  1
  Tb  Tb1  1  0.598762  0.598244  0.206274  1
  Tb  Tb2  1  0.598750  0.206283  0.598242  1
  Tb  Tb3  1  0.192683  0.602677  0.602681  1
  Tb  Tb4  1  0.061479  0.436855  0.436856  1
  Tb  Tb5  1  0.433765  0.064945  0.064945  1
  Tb  Tb6  1  0.435545  0.063414  0.435697  1
  Tb  Tb7  1  0.059887  0.438365  0.061506  1
  Tb  Tb8  1  0.435545  0.435701  0.063408  1
  Tb  Tb9  1  0.059888  0.061500  0.438368  1
  Tb  Tb10  1  0.185490  0.810534  0.810527  1
  Tb  Tb11  1  0.810409  0.189839  0.189837  1
  Nd  Nd12  1  0.812841  0.185837  0.814394  1
  Nd  Nd13  1  0.186809  0.812625  0.185507  1
  Nd  Nd14  1  0.812838  0.814395  0.185845  1
  Nd  Nd15  1  0.186807  0.185501  0.812627  1
  Mg  Mg16  1  0.541960  0.819409  0.819386  1
  Ag  Ag17  1  0.833940  0.831889  0.831894  1
  Ag  Ag18  1  0.829926  0.836608  0.503161  1
  Ag  Ag19  1  0.829924  0.503162  0.836610  1
  Rh  Rh20  1  0.392449  0.391388  0.391362  1
  Rh  Rh21  1  0.388668  0.398646  0.822410  1
  Rh  Rh22  1  0.388682  0.822406  0.398644  1
  Rh  Rh23  1  0.823054  0.391691  0.391721  1
