# generated using pymatgen
data_Tb5Pr5Pb6
_symmetry_space_group_name_H-M   'P 1'
_cell_length_a   9.28012605
_cell_length_b   9.31232950
_cell_length_c   6.81367100
_cell_angle_alpha   90.00000000
_cell_angle_beta   90.00000000
_cell_angle_gamma   120.11546948
_symmetry_Int_Tables_number   1
_chemical_formula_structural   Tb5Pr5Pb6
_chemical_formula_sum   'Tb5 Pr5 Pb6'
_cell_volume   509.35139757
_cell_formula_units_Z   1
loop_
 _symmetry_equiv_pos_site_id
 _symmetry_equiv_pos_as_xyz
  1  'x, y, z'
loop_
 _atom_site_type_symbol
 _atom_site_label
 _atom_site_symmetry_multiplicity
 _atom_site_fract_x
 _atom_site_fract_y
 _atom_site_fract_z
 _atom_site_occupancy
  Tb  Tb0  1  0.333009  0.666795  0.999603  1
  Tb  Tb1  1  0.666991  0.333778  0.500398  1
  Tb  Tb2  1  0.666991  0.333778  0.999602  1
  Tb  Tb3  1  0.333009  0.666795  0.500397  1
  Tb  Tb4  1  0.999990  0.759424  0.750000  1
  Pr  Pr5  1  0.238305  0.999172  0.250000  1
  Pr  Pr6  1  0.761176  0.999709  0.750000  1
  Pr  Pr7  1  0.000011  0.240815  0.250000  1
  Pr  Pr8  1  0.761713  0.760879  0.250000  1
  Pr  Pr9  1  0.238811  0.238527  0.750000  1
  Pb  Pb10  1  0.601349  0.999675  0.250000  1
  Pb  Pb11  1  0.394511  0.997422  0.750000  1
  Pb  Pb12  1  0.000000  0.601222  0.250000  1
  Pb  Pb13  1  0.398665  0.398340  0.250000  1
  Pb  Pb14  1  0.605466  0.602893  0.750000  1
  Pb  Pb15  1  0.000001  0.400785  0.750000  1
