# generated using pymatgen
data_Yb3DyRu8
_symmetry_space_group_name_H-M   'P 1'
_cell_length_a   5.25235653
_cell_length_b   5.25235642
_cell_length_c   8.84365800
_cell_angle_alpha   90.00325270
_cell_angle_beta   89.99674598
_cell_angle_gamma   119.99550462
_symmetry_Int_Tables_number   1
_chemical_formula_structural   Yb3DyRu8
_chemical_formula_sum   'Yb3 Dy1 Ru8'
_cell_volume   211.29568529
_cell_formula_units_Z   1
loop_
 _symmetry_equiv_pos_site_id
 _symmetry_equiv_pos_as_xyz
  1  'x, y, z'
loop_
 _atom_site_type_symbol
 _atom_site_label
 _atom_site_symmetry_multiplicity
 _atom_site_fract_x
 _atom_site_fract_y
 _atom_site_fract_z
 _atom_site_occupancy
  Yb  Yb0  1  0.333350  0.666650  0.430047  1
  Yb  Yb1  1  0.333360  0.666640  0.065370  1
  Yb  Yb2  1  0.666668  0.333332  0.938615  1
  Dy  Dy3  1  0.666663  0.333337  0.567644  1
  Ru  Ru4  1  0.000048  0.999952  0.499894  1
  Ru  Ru5  1  0.000070  0.999930  0.998194  1
  Ru  Ru6  1  0.172039  0.344226  0.750014  1
  Ru  Ru7  1  0.172093  0.827907  0.750011  1
  Ru  Ru8  1  0.655774  0.827961  0.750014  1
  Ru  Ru9  1  0.828610  0.657126  0.250063  1
  Ru  Ru10  1  0.828449  0.171551  0.250071  1
  Ru  Ru11  1  0.342874  0.171390  0.250063  1
