# generated using pymatgen
data_Er4Tm8Tc3Ni
_symmetry_space_group_name_H-M   'P 1'
_cell_length_a   6.19917805
_cell_length_b   7.26192466
_cell_length_c   9.05292100
_cell_angle_alpha   90.00000000
_cell_angle_beta   90.00000000
_cell_angle_gamma   90.18682162
_symmetry_Int_Tables_number   1
_chemical_formula_structural   Er4Tm8Tc3Ni
_chemical_formula_sum   'Er4 Tm8 Tc3 Ni1'
_cell_volume   407.54190496
_cell_formula_units_Z   1
loop_
 _symmetry_equiv_pos_site_id
 _symmetry_equiv_pos_as_xyz
  1  'x, y, z'
loop_
 _atom_site_type_symbol
 _atom_site_label
 _atom_site_symmetry_multiplicity
 _atom_site_fract_x
 _atom_site_fract_y
 _atom_site_fract_z
 _atom_site_occupancy
  Er  Er0  1  0.872277  0.540297  0.250000  1
  Er  Er1  1  0.623403  0.039605  0.250000  1
  Er  Er2  1  0.139926  0.457811  0.750000  1
  Er  Er3  1  0.373786  0.957727  0.750000  1
  Tm  Tm4  1  0.329352  0.677563  0.066546  1
  Tm  Tm5  1  0.163103  0.176650  0.437475  1
  Tm  Tm6  1  0.665784  0.323013  0.562459  1
  Tm  Tm7  1  0.834995  0.823719  0.938734  1
  Tm  Tm8  1  0.665784  0.323013  0.937541  1
  Tm  Tm9  1  0.834995  0.823719  0.561266  1
  Tm  Tm10  1  0.329352  0.677563  0.433454  1
  Tm  Tm11  1  0.163103  0.176650  0.062525  1
  Tc  Tc12  1  0.037518  0.885438  0.250000  1
  Tc  Tc13  1  0.460871  0.387763  0.250000  1
  Tc  Tc14  1  0.961156  0.113778  0.750000  1
  Ni  Ni15  1  0.544593  0.615690  0.750000  1
