# generated using pymatgen
data_Dy6Lu10In4Ir3Pt
_symmetry_space_group_name_H-M   'P 1'
_cell_length_a   9.55622561
_cell_length_b   9.55626965
_cell_length_c   9.55624036
_cell_angle_alpha   60.04999362
_cell_angle_beta   60.04998274
_cell_angle_gamma   60.04897610
_symmetry_Int_Tables_number   1
_chemical_formula_structural   Dy6Lu10In4Ir3Pt
_chemical_formula_sum   'Dy6 Lu10 In4 Ir3 Pt1'
_cell_volume   617.78209590
_cell_formula_units_Z   1
loop_
 _symmetry_equiv_pos_site_id
 _symmetry_equiv_pos_as_xyz
  1  'x, y, z'
loop_
 _atom_site_type_symbol
 _atom_site_label
 _atom_site_symmetry_multiplicity
 _atom_site_fract_x
 _atom_site_fract_y
 _atom_site_fract_z
 _atom_site_occupancy
  Dy  Dy0  1  0.190934  0.809027  0.809022  1
  Dy  Dy1  1  0.811191  0.189935  0.189932  1
  Dy  Dy2  1  0.809024  0.190932  0.809020  1
  Dy  Dy3  1  0.189936  0.811185  0.189934  1
  Dy  Dy4  1  0.809020  0.809023  0.190915  1
  Dy  Dy5  1  0.189931  0.189933  0.811183  1
  Lu  Lu6  1  0.598092  0.598070  0.598083  1
  Lu  Lu7  1  0.600007  0.600020  0.204082  1
  Lu  Lu8  1  0.600026  0.204058  0.600026  1
  Lu  Lu9  1  0.204082  0.600020  0.600009  1
  Lu  Lu10  1  0.057290  0.439697  0.439738  1
  Lu  Lu11  1  0.439318  0.060867  0.060861  1
  Lu  Lu12  1  0.439715  0.057313  0.439696  1
  Lu  Lu13  1  0.060843  0.439305  0.060839  1
  Lu  Lu14  1  0.439689  0.439713  0.057318  1
  Lu  Lu15  1  0.060850  0.060857  0.439309  1
  In  In16  1  0.832596  0.832615  0.832586  1
  In  In17  1  0.832762  0.832744  0.501855  1
  In  In18  1  0.832753  0.501870  0.832744  1
  In  In19  1  0.501863  0.832742  0.832760  1
  Ir  Ir20  1  0.391029  0.391037  0.826718  1
  Ir  Ir21  1  0.391030  0.826717  0.391039  1
  Ir  Ir22  1  0.826717  0.391031  0.391036  1
  Pt  Pt23  1  0.391300  0.391290  0.391296  1
