# generated using pymatgen
data_TbCe2Dy2Bi2Os
_symmetry_space_group_name_H-M   'P 1'
_cell_length_a   8.12251600
_cell_length_b   8.93918800
_cell_length_c   12.49762700
_cell_angle_alpha   90.00000000
_cell_angle_beta   90.00000000
_cell_angle_gamma   90.00000000
_symmetry_Int_Tables_number   1
_chemical_formula_structural   TbCe2Dy2Bi2Os
_chemical_formula_sum   'Tb4 Ce8 Dy8 Bi8 Os4'
_cell_volume   907.43641902
_cell_formula_units_Z   4
loop_
 _symmetry_equiv_pos_site_id
 _symmetry_equiv_pos_as_xyz
  1  'x, y, z'
loop_
 _atom_site_type_symbol
 _atom_site_label
 _atom_site_symmetry_multiplicity
 _atom_site_fract_x
 _atom_site_fract_y
 _atom_site_fract_z
 _atom_site_occupancy
  Tb  Tb0  1  0.833187  0.750000  0.791099  1
  Tb  Tb1  1  0.166813  0.250000  0.208901  1
  Tb  Tb2  1  0.333187  0.250000  0.708901  1
  Tb  Tb3  1  0.666813  0.750000  0.291099  1
  Ce  Ce4  1  0.669835  0.037856  0.558194  1
  Ce  Ce5  1  0.330165  0.962144  0.441806  1
  Ce  Ce6  1  0.169835  0.962144  0.941806  1
  Ce  Ce7  1  0.330165  0.537856  0.441806  1
  Ce  Ce8  1  0.830165  0.037856  0.058194  1
  Ce  Ce9  1  0.669835  0.462144  0.558194  1
  Ce  Ce10  1  0.830165  0.462144  0.058194  1
  Ce  Ce11  1  0.169835  0.537856  0.941806  1
  Dy  Dy12  1  0.370647  0.750000  0.705404  1
  Dy  Dy13  1  0.629353  0.250000  0.294596  1
  Dy  Dy14  1  0.870647  0.250000  0.794596  1
  Dy  Dy15  1  0.129353  0.750000  0.205404  1
  Dy  Dy16  1  0.957477  0.750000  0.499978  1
  Dy  Dy17  1  0.042523  0.250000  0.500022  1
  Dy  Dy18  1  0.457477  0.250000  0.000022  1
  Dy  Dy19  1  0.542523  0.750000  0.999978  1
  Bi  Bi20  1  0.569074  0.488221  0.826531  1
  Bi  Bi21  1  0.430926  0.511779  0.173469  1
  Bi  Bi22  1  0.069074  0.511779  0.673469  1
  Bi  Bi23  1  0.430926  0.988221  0.173469  1
  Bi  Bi24  1  0.930926  0.488221  0.326531  1
  Bi  Bi25  1  0.569074  0.011779  0.826531  1
  Bi  Bi26  1  0.930926  0.011779  0.326531  1
  Bi  Bi27  1  0.069074  0.988221  0.673469  1
  Os  Os28  1  0.587672  0.750000  0.520622  1
  Os  Os29  1  0.412328  0.250000  0.479378  1
  Os  Os30  1  0.087672  0.250000  0.979378  1
  Os  Os31  1  0.912328  0.750000  0.020622  1
