# generated using pymatgen
data_La2YbTh(Ga3Ir)6
_symmetry_space_group_name_H-M   'P 1'
_cell_length_a   7.67151812
_cell_length_b   7.68304527
_cell_length_c   9.61217300
_cell_angle_alpha   90.00000000
_cell_angle_beta   90.00000000
_cell_angle_gamma   119.63587165
_symmetry_Int_Tables_number   1
_chemical_formula_structural   La2YbTh(Ga3Ir)6
_chemical_formula_sum   'La2 Yb1 Th1 Ga18 Ir6'
_cell_volume   492.43483230
_cell_formula_units_Z   1
loop_
 _symmetry_equiv_pos_site_id
 _symmetry_equiv_pos_as_xyz
  1  'x, y, z'
loop_
 _atom_site_type_symbol
 _atom_site_label
 _atom_site_symmetry_multiplicity
 _atom_site_fract_x
 _atom_site_fract_y
 _atom_site_fract_z
 _atom_site_occupancy
  La  La0  1  0.001269  0.330567  0.750000  1
  La  La1  1  0.331405  0.002923  0.750000  1
  Yb  Yb2  1  0.671213  0.997101  0.250000  1
  Th  Th3  1  0.999601  0.670827  0.250000  1
  Ga  Ga4  1  0.129293  0.130183  0.250000  1
  Ga  Ga5  1  0.867745  0.870879  0.750000  1
  Ga  Ga6  1  0.996639  0.326842  0.082936  1
  Ga  Ga7  1  0.995376  0.665108  0.921551  1
  Ga  Ga8  1  0.995376  0.665108  0.578449  1
  Ga  Ga9  1  0.344094  0.004773  0.417108  1
  Ga  Ga10  1  0.996639  0.326842  0.417064  1
  Ga  Ga11  1  0.665078  0.996450  0.569745  1
  Ga  Ga12  1  0.665078  0.996450  0.930255  1
  Ga  Ga13  1  0.344094  0.004773  0.082892  1
  Ga  Ga14  1  0.334038  0.334682  0.554413  1
  Ga  Ga15  1  0.663635  0.669734  0.435281  1
  Ga  Ga16  1  0.663635  0.669734  0.064719  1
  Ga  Ga17  1  0.334038  0.334682  0.945587  1
  Ga  Ga18  1  0.341427  0.547067  0.250000  1
  Ga  Ga19  1  0.660187  0.457874  0.750000  1
  Ga  Ga20  1  0.545932  0.339009  0.250000  1
  Ga  Ga21  1  0.457157  0.663276  0.750000  1
  Ir  Ir22  1  0.672638  0.331966  0.002172  1
  Ir  Ir23  1  0.325334  0.669082  0.002666  1
  Ir  Ir24  1  0.325334  0.669082  0.497334  1
  Ir  Ir25  1  0.672638  0.331966  0.497828  1
  Ir  Ir26  1  0.000554  0.996508  0.003533  1
  Ir  Ir27  1  0.000554  0.996508  0.496467  1
