# generated using pymatgen
data_Dy6ErScO12
_symmetry_space_group_name_H-M   'P 1'
_cell_length_a   6.66100634
_cell_length_b   6.66100640
_cell_length_c   6.66100640
_cell_angle_alpha   92.47577237
_cell_angle_beta   92.47576537
_cell_angle_gamma   92.47577542
_symmetry_Int_Tables_number   1
_chemical_formula_structural   Dy6ErScO12
_chemical_formula_sum   'Dy6 Er1 Sc1 O12'
_cell_volume   294.68997029
_cell_formula_units_Z   1
loop_
 _symmetry_equiv_pos_site_id
 _symmetry_equiv_pos_as_xyz
  1  'x, y, z'
loop_
 _atom_site_type_symbol
 _atom_site_label
 _atom_site_symmetry_multiplicity
 _atom_site_fract_x
 _atom_site_fract_y
 _atom_site_fract_z
 _atom_site_occupancy
  Dy  Dy0  1  0.743393  0.929983  0.439252  1
  Dy  Dy1  1  0.929983  0.439252  0.743393  1
  Dy  Dy2  1  0.439252  0.743393  0.929983  1
  Dy  Dy3  1  0.256607  0.070017  0.560748  1
  Dy  Dy4  1  0.070017  0.560748  0.256607  1
  Dy  Dy5  1  0.560748  0.256607  0.070017  1
  Er  Er6  1  0.000000  0.000000  0.000000  1
  Sc  Sc7  1  0.500000  0.500000  0.500000  1
  O  O8  1  0.592969  0.464589  0.805543  1
  O  O9  1  0.464589  0.805543  0.592969  1
  O  O10  1  0.805543  0.592969  0.464589  1
  O  O11  1  0.407031  0.535411  0.194457  1
  O  O12  1  0.535411  0.194457  0.407031  1
  O  O13  1  0.194457  0.407031  0.535411  1
  O  O14  1  0.068841  0.907219  0.315780  1
  O  O15  1  0.907219  0.315780  0.068841  1
  O  O16  1  0.684220  0.931159  0.092781  1
  O  O17  1  0.092781  0.684220  0.931159  1
  O  O18  1  0.931159  0.092781  0.684220  1
  O  O19  1  0.315780  0.068841  0.907219  1
