# generated using pymatgen
data_Cs12Sc2BiSe7
_symmetry_space_group_name_H-M   'P 1'
_cell_length_a   11.41775800
_cell_length_b   11.41775845
_cell_length_c   9.04556200
_cell_angle_alpha   90.00000000
_cell_angle_beta   90.00000000
_cell_angle_gamma   119.99999870
_symmetry_Int_Tables_number   1
_chemical_formula_structural   Cs12Sc2BiSe7
_chemical_formula_sum   'Cs12 Sc2 Bi1 Se7'
_cell_volume   1021.24014098
_cell_formula_units_Z   1
loop_
 _symmetry_equiv_pos_site_id
 _symmetry_equiv_pos_as_xyz
  1  'x, y, z'
loop_
 _atom_site_type_symbol
 _atom_site_label
 _atom_site_symmetry_multiplicity
 _atom_site_fract_x
 _atom_site_fract_y
 _atom_site_fract_z
 _atom_site_occupancy
  Cs  Cs0  1  0.137813  0.862187  0.543179  1
  Cs  Cs1  1  0.280733  0.140367  0.039736  1
  Cs  Cs2  1  0.859633  0.719267  0.039736  1
  Cs  Cs3  1  0.137813  0.275626  0.543179  1
  Cs  Cs4  1  0.724374  0.862187  0.543179  1
  Cs  Cs5  1  0.859633  0.140367  0.039736  1
  Cs  Cs6  1  0.529738  0.470262  0.364570  1
  Cs  Cs7  1  0.057954  0.528977  0.869272  1
  Cs  Cs8  1  0.471023  0.942046  0.869272  1
  Cs  Cs9  1  0.529738  0.059475  0.364570  1
  Cs  Cs10  1  0.940525  0.470262  0.364570  1
  Cs  Cs11  1  0.471023  0.528977  0.869272  1
  Sc  Sc12  1  0.333333  0.666667  0.243663  1
  Sc  Sc13  1  0.666667  0.333333  0.755465  1
  Bi  Bi14  1  0.333333  0.666667  0.562752  1
  Se  Se15  1  0.666667  0.333333  0.044440  1
  Se  Se16  1  0.204959  0.795041  0.158668  1
  Se  Se17  1  0.417116  0.208558  0.662270  1
  Se  Se18  1  0.791442  0.582884  0.662270  1
  Se  Se19  1  0.204959  0.409917  0.158668  1
  Se  Se20  1  0.590083  0.795041  0.158668  1
  Se  Se21  1  0.791442  0.208558  0.662270  1
