# generated using pymatgen
data_Yb3Dy5Ho2(CuPb3)2
_symmetry_space_group_name_H-M   'P 1'
_cell_length_a   9.17465101
_cell_length_b   9.17429189
_cell_length_c   6.83153800
_cell_angle_alpha   89.99887430
_cell_angle_beta   89.99926248
_cell_angle_gamma   119.99577621
_symmetry_Int_Tables_number   1
_chemical_formula_structural   Yb3Dy5Ho2(CuPb3)2
_chemical_formula_sum   'Yb3 Dy5 Ho2 Cu2 Pb6'
_cell_volume   498.00042043
_cell_formula_units_Z   1
loop_
 _symmetry_equiv_pos_site_id
 _symmetry_equiv_pos_as_xyz
  1  'x, y, z'
loop_
 _atom_site_type_symbol
 _atom_site_label
 _atom_site_symmetry_multiplicity
 _atom_site_fract_x
 _atom_site_fract_y
 _atom_site_fract_z
 _atom_site_occupancy
  Yb  Yb0  1  0.333323  0.666642  0.499989  1
  Yb  Yb1  1  0.666640  0.333322  0.499989  1
  Yb  Yb2  1  0.666641  0.333324  0.000011  1
  Dy  Dy3  1  0.253517  0.000128  0.748528  1
  Dy  Dy4  1  0.746610  0.000127  0.251466  1
  Dy  Dy5  1  0.999895  0.253399  0.748531  1
  Dy  Dy6  1  0.999900  0.746503  0.251468  1
  Dy  Dy7  1  0.746601  0.746486  0.748535  1
  Ho  Ho8  1  0.253420  0.253320  0.251458  1
  Ho  Ho9  1  0.333317  0.666626  0.000014  1
  Cu  Cu10  1  0.000078  0.000077  0.499944  1
  Cu  Cu11  1  0.000081  0.000078  0.000055  1
  Pb  Pb12  1  0.609228  0.998127  0.753236  1
  Pb  Pb13  1  0.388877  0.998211  0.246774  1
  Pb  Pb14  1  0.001876  0.611104  0.753235  1
  Pb  Pb15  1  0.001962  0.390744  0.246767  1
  Pb  Pb16  1  0.388902  0.390777  0.753233  1
  Pb  Pb17  1  0.609134  0.611005  0.246767  1
