# generated using pymatgen
data_Lu3Ga24MoPd8
_symmetry_space_group_name_H-M   'P 1'
_cell_length_a   8.33720058
_cell_length_b   8.33720065
_cell_length_c   8.33720100
_cell_angle_alpha   89.67566674
_cell_angle_beta   89.67565987
_cell_angle_gamma   89.67566397
_symmetry_Int_Tables_number   1
_chemical_formula_structural   Lu3Ga24MoPd8
_chemical_formula_sum   'Lu3 Ga24 Mo1 Pd8'
_cell_volume   579.48203835
_cell_formula_units_Z   1
loop_
 _symmetry_equiv_pos_site_id
 _symmetry_equiv_pos_as_xyz
  1  'x, y, z'
loop_
 _atom_site_type_symbol
 _atom_site_label
 _atom_site_symmetry_multiplicity
 _atom_site_fract_x
 _atom_site_fract_y
 _atom_site_fract_z
 _atom_site_occupancy
  Lu  Lu0  1  0.000000  0.500000  0.000000  1
  Lu  Lu1  1  0.500000  0.000000  0.000000  1
  Lu  Lu2  1  0.000000  0.000000  0.500000  1
  Ga  Ga3  1  0.993352  0.643555  0.643555  1
  Ga  Ga4  1  0.643555  0.643555  0.993352  1
  Ga  Ga5  1  0.643555  0.993352  0.643555  1
  Ga  Ga6  1  0.006648  0.356445  0.356445  1
  Ga  Ga7  1  0.356445  0.356445  0.006648  1
  Ga  Ga8  1  0.356445  0.006648  0.356445  1
  Ga  Ga9  1  0.736331  0.500000  0.263669  1
  Ga  Ga10  1  0.263669  0.500000  0.736331  1
  Ga  Ga11  1  0.500000  0.263669  0.736331  1
  Ga  Ga12  1  0.500000  0.736331  0.263669  1
  Ga  Ga13  1  0.263669  0.736331  0.500000  1
  Ga  Ga14  1  0.736331  0.263669  0.500000  1
  Ga  Ga15  1  0.840449  0.137674  0.840449  1
  Ga  Ga16  1  0.137674  0.840449  0.840449  1
  Ga  Ga17  1  0.840449  0.840449  0.137674  1
  Ga  Ga18  1  0.159551  0.862326  0.159551  1
  Ga  Ga19  1  0.862326  0.159551  0.159551  1
  Ga  Ga20  1  0.159551  0.159551  0.862326  1
  Ga  Ga21  1  0.730184  0.490870  0.730184  1
  Ga  Ga22  1  0.490870  0.730184  0.730184  1
  Ga  Ga23  1  0.730184  0.730184  0.490870  1
  Ga  Ga24  1  0.269816  0.509130  0.269816  1
  Ga  Ga25  1  0.509130  0.269816  0.269816  1
  Ga  Ga26  1  0.269816  0.269816  0.509130  1
  Mo  Mo27  1  0.500000  0.500000  0.500000  1
  Pd  Pd28  1  0.832969  0.832969  0.832969  1
  Pd  Pd29  1  0.167031  0.167031  0.167031  1
  Pd  Pd30  1  0.666033  0.333967  0.000000  1
  Pd  Pd31  1  0.000000  0.333967  0.666033  1
  Pd  Pd32  1  0.333967  0.000000  0.666033  1
  Pd  Pd33  1  0.333967  0.666033  0.000000  1
  Pd  Pd34  1  0.000000  0.666033  0.333967  1
  Pd  Pd35  1  0.666033  0.000000  0.333967  1
