# generated using pymatgen
data_Tb8Sn(PdPt7)3
_symmetry_space_group_name_H-M   'P 1'
_cell_length_a   8.43892800
_cell_length_b   8.44686100
_cell_length_c   8.44817100
_cell_angle_alpha   90.00000000
_cell_angle_beta   90.00000000
_cell_angle_gamma   90.00000000
_symmetry_Int_Tables_number   1
_chemical_formula_structural   Tb8Sn(PdPt7)3
_chemical_formula_sum   'Tb8 Sn1 Pd3 Pt21'
_cell_volume   602.20634215
_cell_formula_units_Z   1
loop_
 _symmetry_equiv_pos_site_id
 _symmetry_equiv_pos_as_xyz
  1  'x, y, z'
loop_
 _atom_site_type_symbol
 _atom_site_label
 _atom_site_symmetry_multiplicity
 _atom_site_fract_x
 _atom_site_fract_y
 _atom_site_fract_z
 _atom_site_occupancy
  Tb  Tb0  1  0.251067  0.251205  0.251633  1
  Tb  Tb1  1  0.748336  0.748783  0.748328  1
  Tb  Tb2  1  0.748933  0.748795  0.251633  1
  Tb  Tb3  1  0.748336  0.251217  0.748328  1
  Tb  Tb4  1  0.251664  0.251217  0.748328  1
  Tb  Tb5  1  0.251067  0.748795  0.251633  1
  Tb  Tb6  1  0.251664  0.748783  0.748328  1
  Tb  Tb7  1  0.748933  0.251205  0.251633  1
  Sn  Sn8  1  0.000000  0.000000  0.000540  1
  Pd  Pd9  1  0.000000  0.500000  0.733306  1
  Pd  Pd10  1  0.500000  0.500000  0.255300  1
  Pd  Pd11  1  0.500000  0.500000  0.744368  1
  Pt  Pt12  1  0.266943  0.500000  0.999761  1
  Pt  Pt13  1  0.733057  0.500000  0.999761  1
  Pt  Pt14  1  0.000000  0.267451  0.500264  1
  Pt  Pt15  1  0.500000  0.267903  0.000049  1
  Pt  Pt16  1  0.000000  0.732549  0.500264  1
  Pt  Pt17  1  0.500000  0.732097  0.000049  1
  Pt  Pt18  1  0.500000  0.000000  0.266923  1
  Pt  Pt19  1  0.267017  0.000000  0.500005  1
  Pt  Pt20  1  0.500000  0.000000  0.733262  1
  Pt  Pt21  1  0.732983  0.000000  0.500005  1
  Pt  Pt22  1  0.000000  0.500000  0.266709  1
  Pt  Pt23  1  0.255301  0.500000  0.499878  1
  Pt  Pt24  1  0.744699  0.500000  0.499878  1
  Pt  Pt25  1  0.500000  0.255939  0.500018  1
  Pt  Pt26  1  0.500000  0.744061  0.500018  1
  Pt  Pt27  1  0.313653  0.000000  0.999966  1
  Pt  Pt28  1  0.686347  0.000000  0.999966  1
  Pt  Pt29  1  0.000000  0.313200  0.999685  1
  Pt  Pt30  1  0.000000  0.686800  0.999685  1
  Pt  Pt31  1  0.000000  0.000000  0.312483  1
  Pt  Pt32  1  0.000000  0.000000  0.688012  1
