# generated using pymatgen
data_La2CuNi6B2Pd
_symmetry_space_group_name_H-M   'P 1'
_cell_length_a   5.16611000
_cell_length_b   5.16610957
_cell_length_c   7.16970700
_cell_angle_alpha   90.00000000
_cell_angle_beta   90.00000000
_cell_angle_gamma   120.00000277
_symmetry_Int_Tables_number   1
_chemical_formula_structural   La2CuNi6B2Pd
_chemical_formula_sum   'La2 Cu1 Ni6 B2 Pd1'
_cell_volume   165.71403405
_cell_formula_units_Z   1
loop_
 _symmetry_equiv_pos_site_id
 _symmetry_equiv_pos_as_xyz
  1  'x, y, z'
loop_
 _atom_site_type_symbol
 _atom_site_label
 _atom_site_symmetry_multiplicity
 _atom_site_fract_x
 _atom_site_fract_y
 _atom_site_fract_z
 _atom_site_occupancy
  La  La0  1  0.000000  0.000000  0.500000  1
  La  La1  1  0.000000  0.000000  0.000000  1
  Cu  Cu2  1  0.333333  0.666667  0.000000  1
  Ni  Ni3  1  0.499220  0.998439  0.304116  1
  Ni  Ni4  1  0.499220  0.500780  0.304116  1
  Ni  Ni5  1  0.001561  0.500780  0.304116  1
  Ni  Ni6  1  0.499220  0.998439  0.695884  1
  Ni  Ni7  1  0.499220  0.500780  0.695884  1
  Ni  Ni8  1  0.001561  0.500780  0.695884  1
  B  B9  1  0.666667  0.333333  0.500000  1
  B  B10  1  0.333333  0.666667  0.500000  1
  Pd  Pd11  1  0.666667  0.333333  0.000000  1
