# generated using pymatgen
data_Y3Mg2AlSi2Ir
_symmetry_space_group_name_H-M   'P 1'
_cell_length_a   7.16827029
_cell_length_b   7.07409973
_cell_length_c   4.23649000
_cell_angle_alpha   90.00000000
_cell_angle_beta   90.00000000
_cell_angle_gamma   119.56637042
_symmetry_Int_Tables_number   1
_chemical_formula_structural   Y3Mg2AlSi2Ir
_chemical_formula_sum   'Y3 Mg2 Al1 Si2 Ir1'
_cell_volume   186.85447336
_cell_formula_units_Z   1
loop_
 _symmetry_equiv_pos_site_id
 _symmetry_equiv_pos_as_xyz
  1  'x, y, z'
loop_
 _atom_site_type_symbol
 _atom_site_label
 _atom_site_symmetry_multiplicity
 _atom_site_fract_x
 _atom_site_fract_y
 _atom_site_fract_z
 _atom_site_occupancy
  Y  Y0  1  0.413632  0.000216  0.000000  1
  Y  Y1  1  0.000000  0.420626  0.000000  1
  Y  Y2  1  0.586368  0.586583  0.000000  1
  Mg  Mg3  1  0.762513  0.001268  0.500001  1
  Mg  Mg4  1  0.237488  0.238755  0.500001  1
  Al  Al5  1  0.000000  0.763769  0.500001  1
  Si  Si6  1  0.674001  0.345059  0.500001  1
  Si  Si7  1  0.325998  0.671057  0.500001  1
  Ir  Ir8  1  0.000000  0.972665  0.000000  1
