# generated using pymatgen
data_Nd2HoRuI3
_symmetry_space_group_name_H-M   'P 1'
_cell_length_a   4.32237000
_cell_length_b   9.02127978
_cell_length_c   12.48797437
_cell_angle_alpha   85.53508046
_cell_angle_beta   90.00000000
_cell_angle_gamma   90.00000000
_symmetry_Int_Tables_number   1
_chemical_formula_structural   Nd2HoRuI3
_chemical_formula_sum   'Nd4 Ho2 Ru2 I6'
_cell_volume   485.46964907
_cell_formula_units_Z   2
loop_
 _symmetry_equiv_pos_site_id
 _symmetry_equiv_pos_as_xyz
  1  'x, y, z'
loop_
 _atom_site_type_symbol
 _atom_site_label
 _atom_site_symmetry_multiplicity
 _atom_site_fract_x
 _atom_site_fract_y
 _atom_site_fract_z
 _atom_site_occupancy
  Nd  Nd0  1  0.750000  0.095507  0.680883  1
  Nd  Nd1  1  0.250000  0.904493  0.319117  1
  Nd  Nd2  1  0.250000  0.271687  0.899662  1
  Nd  Nd3  1  0.750000  0.728313  0.100338  1
  Ho  Ho4  1  0.750000  0.122044  0.120832  1
  Ho  Ho5  1  0.250000  0.877956  0.879168  1
  Ru  Ru6  1  0.750000  0.055272  0.907040  1
  Ru  Ru7  1  0.250000  0.944728  0.092960  1
  I  I8  1  0.250000  0.354916  0.637453  1
  I  I9  1  0.750000  0.645084  0.362547  1
  I  I10  1  0.750000  0.151139  0.387305  1
  I  I11  1  0.250000  0.848861  0.612695  1
  I  I12  1  0.250000  0.418578  0.136113  1
  I  I13  1  0.750000  0.581422  0.863887  1
