# generated using pymatgen
data_Er3PaMnV3B16
_symmetry_space_group_name_H-M   'P 1'
_cell_length_a   3.46510200
_cell_length_b   5.94479595
_cell_length_c   11.48616334
_cell_angle_alpha   89.94283417
_cell_angle_beta   90.00000000
_cell_angle_gamma   90.00000000
_symmetry_Int_Tables_number   1
_chemical_formula_structural   Er3PaMnV3B16
_chemical_formula_sum   'Er3 Pa1 Mn1 V3 B16'
_cell_volume   236.60708631
_cell_formula_units_Z   1
loop_
 _symmetry_equiv_pos_site_id
 _symmetry_equiv_pos_as_xyz
  1  'x, y, z'
loop_
 _atom_site_type_symbol
 _atom_site_label
 _atom_site_symmetry_multiplicity
 _atom_site_fract_x
 _atom_site_fract_y
 _atom_site_fract_z
 _atom_site_occupancy
  Er  Er0  1  0.500000  0.874675  0.151990  1
  Er  Er1  1  0.500000  0.623588  0.649248  1
  Er  Er2  1  0.500000  0.374360  0.349656  1
  Pa  Pa3  1  0.500000  0.126052  0.848449  1
  Mn  Mn4  1  0.500000  0.123152  0.582890  1
  V  V5  1  0.500000  0.873592  0.420464  1
  V  V6  1  0.500000  0.627330  0.914432  1
  V  V7  1  0.500000  0.373193  0.081702  1
  B  B8  1  0.000000  0.280165  0.681500  1
  B  B9  1  0.000000  0.715387  0.315366  1
  B  B10  1  0.000000  0.785070  0.813149  1
  B  B11  1  0.000000  0.215561  0.187324  1
  B  B12  1  0.000000  0.362446  0.532697  1
  B  B13  1  0.000000  0.634468  0.468795  1
  B  B14  1  0.000000  0.865278  0.966645  1
  B  B15  1  0.000000  0.136464  0.033297  1
  B  B16  1  0.000000  0.024252  0.308644  1
  B  B17  1  0.000000  0.978219  0.689430  1
  B  B18  1  0.000000  0.524409  0.193840  1
  B  B19  1  0.000000  0.473790  0.806420  1
  B  B20  1  0.000000  0.116239  0.455170  1
  B  B21  1  0.000000  0.888435  0.548323  1
  B  B22  1  0.000000  0.615785  0.047468  1
  B  B23  1  0.000000  0.388088  0.953103  1
