# generated using pymatgen
data_Nd2Co12Si4P3
_symmetry_space_group_name_H-M   'P 1'
_cell_length_a   9.15431400
_cell_length_b   9.15431222
_cell_length_c   3.63003800
_cell_angle_alpha   90.00000000
_cell_angle_beta   90.00000000
_cell_angle_gamma   119.99999921
_symmetry_Int_Tables_number   1
_chemical_formula_structural   Nd2Co12Si4P3
_chemical_formula_sum   'Nd2 Co12 Si4 P3'
_cell_volume   263.44704526
_cell_formula_units_Z   1
loop_
 _symmetry_equiv_pos_site_id
 _symmetry_equiv_pos_as_xyz
  1  'x, y, z'
loop_
 _atom_site_type_symbol
 _atom_site_label
 _atom_site_symmetry_multiplicity
 _atom_site_fract_x
 _atom_site_fract_y
 _atom_site_fract_z
 _atom_site_occupancy
  Nd  Nd0  1  0.000000  0.000000  0.000000  1
  Nd  Nd1  1  0.333333  0.666667  0.500000  1
  Co  Co2  1  0.101702  0.387109  0.000000  1
  Co  Co3  1  0.612891  0.714592  0.000000  1
  Co  Co4  1  0.285408  0.898298  0.000000  1
  Co  Co5  1  0.045139  0.768855  0.500000  1
  Co  Co6  1  0.231145  0.276283  0.500000  1
  Co  Co7  1  0.723717  0.954861  0.500000  1
  Co  Co8  1  0.813062  0.610813  0.000000  1
  Co  Co9  1  0.389187  0.202249  0.000000  1
  Co  Co10  1  0.797751  0.186938  0.000000  1
  Co  Co11  1  0.899257  0.438035  0.500000  1
  Co  Co12  1  0.561965  0.461222  0.500000  1
  Co  Co13  1  0.538778  0.100743  0.500000  1
  Si  Si14  1  0.666667  0.333333  0.000000  1
  Si  Si15  1  0.059695  0.619350  0.000000  1
  Si  Si16  1  0.380650  0.440346  0.000000  1
  Si  Si17  1  0.559654  0.940305  0.000000  1
  P  P18  1  0.769476  0.729871  0.500000  1
  P  P19  1  0.270129  0.039605  0.500000  1
  P  P20  1  0.960395  0.230524  0.500000  1
