# generated using pymatgen
data_Yb8Re11Si16Ru
_symmetry_space_group_name_H-M   'P 1'
_cell_length_a   6.72978933
_cell_length_b   6.71637033
_cell_length_c   12.75039664
_cell_angle_alpha   89.64712490
_cell_angle_beta   89.87380073
_cell_angle_gamma   90.02874558
_symmetry_Int_Tables_number   1
_chemical_formula_structural   Yb8Re11Si16Ru
_chemical_formula_sum   'Yb8 Re11 Si16 Ru1'
_cell_volume   576.30242973
_cell_formula_units_Z   1
loop_
 _symmetry_equiv_pos_site_id
 _symmetry_equiv_pos_as_xyz
  1  'x, y, z'
loop_
 _atom_site_type_symbol
 _atom_site_label
 _atom_site_symmetry_multiplicity
 _atom_site_fract_x
 _atom_site_fract_y
 _atom_site_fract_z
 _atom_site_occupancy
  Yb  Yb0  1  0.997150  0.674346  0.028162  1
  Yb  Yb1  1  0.001885  0.326248  0.529257  1
  Yb  Yb2  1  0.329708  0.001765  0.471632  1
  Yb  Yb3  1  0.170215  0.502900  0.777037  1
  Yb  Yb4  1  0.827964  0.499768  0.278514  1
  Yb  Yb5  1  0.500652  0.171616  0.221978  1
  Yb  Yb6  1  0.498204  0.829424  0.722261  1
  Yb  Yb7  1  0.671421  0.999699  0.970941  1
  Re  Re8  1  0.663148  0.662377  0.499079  1
  Re  Re9  1  0.161240  0.836701  0.251292  1
  Re  Re10  1  0.336237  0.339451  0.000507  1
  Re  Re11  1  0.994389  0.181578  0.127936  1
  Re  Re12  1  0.819580  0.000170  0.372354  1
  Re  Re13  1  0.321364  0.491798  0.378084  1
  Re  Re14  1  0.680009  0.506651  0.877371  1
  Re  Re15  1  0.491642  0.318587  0.620513  1
  Re  Re16  1  0.504177  0.679125  0.122481  1
  Re  Re17  1  0.180436  0.999637  0.874141  1
  Re  Re18  1  0.837230  0.166010  0.751700  1
  Si  Si19  1  0.021962  0.711387  0.437116  1
  Si  Si20  1  0.621104  0.299065  0.436530  1
  Si  Si21  1  0.380149  0.700567  0.936708  1
  Si  Si22  1  0.194390  0.112438  0.687411  1
  Si  Si23  1  0.304003  0.618009  0.561996  1
  Si  Si24  1  0.699099  0.382086  0.063039  1
  Si  Si25  1  0.800423  0.882713  0.186436  1
  Si  Si26  1  0.116856  0.199088  0.313544  1
  Si  Si27  1  0.978919  0.290460  0.936069  1
  Si  Si28  1  0.718026  0.016548  0.566405  1
  Si  Si29  1  0.211313  0.478418  0.185669  1
  Si  Si30  1  0.783482  0.521468  0.683642  1
  Si  Si31  1  0.477165  0.215562  0.813906  1
  Si  Si32  1  0.520257  0.785349  0.314823  1
  Si  Si33  1  0.286983  0.979643  0.065309  1
  Si  Si34  1  0.882921  0.805755  0.811095  1
  Ru  Ru35  1  0.016296  0.813593  0.625061  1
