# generated using pymatgen
data_Yb10Cd2Cu3Ir
_symmetry_space_group_name_H-M   'P 1'
_cell_length_a   9.04960541
_cell_length_b   9.04960595
_cell_length_c   9.02069606
_cell_angle_alpha   129.23440031
_cell_angle_beta   129.23440334
_cell_angle_gamma   74.87368583
_symmetry_Int_Tables_number   1
_chemical_formula_structural   Yb10Cd2Cu3Ir
_chemical_formula_sum   'Yb10 Cd2 Cu3 Ir1'
_cell_volume   431.13807605
_cell_formula_units_Z   1
loop_
 _symmetry_equiv_pos_site_id
 _symmetry_equiv_pos_as_xyz
  1  'x, y, z'
loop_
 _atom_site_type_symbol
 _atom_site_label
 _atom_site_symmetry_multiplicity
 _atom_site_fract_x
 _atom_site_fract_y
 _atom_site_fract_z
 _atom_site_occupancy
  Yb  Yb0  1  0.492361  0.502297  0.994658  1
  Yb  Yb1  1  0.002297  0.992361  0.994658  1
  Yb  Yb2  1  0.532507  0.032507  0.834048  1
  Yb  Yb3  1  0.192485  0.692485  0.150189  1
  Yb  Yb4  1  0.033701  0.207186  0.507819  1
  Yb  Yb5  1  0.707186  0.533701  0.507819  1
  Yb  Yb6  1  0.457705  0.957705  0.150189  1
  Yb  Yb7  1  0.801540  0.301540  0.834048  1
  Yb  Yb8  1  0.974118  0.800633  0.507819  1
  Yb  Yb9  1  0.300633  0.474118  0.507819  1
  Cd  Cd10  1  0.251478  0.251478  0.002955  1
  Cd  Cd11  1  0.751478  0.751478  0.002955  1
  Cu  Cu12  1  0.879303  0.379303  0.258604  1
  Cu  Cu13  1  0.616507  0.882626  0.499133  1
  Cu  Cu14  1  0.382626  0.116507  0.499133  1
  Ir  Ir15  1  0.124074  0.624074  0.748149  1
