# generated using pymatgen
data_Tm2Pu3(GeB4)2
_symmetry_space_group_name_H-M   'P 1'
_cell_length_a   7.22332421
_cell_length_b   7.22332559
_cell_length_c   8.11312500
_cell_angle_alpha   90.00000000
_cell_angle_beta   90.00000000
_cell_angle_gamma   89.95678619
_symmetry_Int_Tables_number   1
_chemical_formula_structural   Tm2Pu3(GeB4)2
_chemical_formula_sum   'Tm4 Pu6 Ge4 B16'
_cell_volume   423.31371863
_cell_formula_units_Z   2
loop_
 _symmetry_equiv_pos_site_id
 _symmetry_equiv_pos_as_xyz
  1  'x, y, z'
loop_
 _atom_site_type_symbol
 _atom_site_label
 _atom_site_symmetry_multiplicity
 _atom_site_fract_x
 _atom_site_fract_y
 _atom_site_fract_z
 _atom_site_occupancy
  Tm  Tm0  1  0.181964  0.318036  0.782701  1
  Tm  Tm1  1  0.181964  0.318036  0.217299  1
  Tm  Tm2  1  0.999828  0.998565  0.500000  1
  Tm  Tm3  1  0.501435  0.500172  0.500000  1
  Pu  Pu4  1  0.682876  0.182692  0.226392  1
  Pu  Pu5  1  0.317308  0.817124  0.773608  1
  Pu  Pu6  1  0.317308  0.817124  0.226392  1
  Pu  Pu7  1  0.816767  0.683233  0.226345  1
  Pu  Pu8  1  0.816767  0.683233  0.773655  1
  Pu  Pu9  1  0.682876  0.182692  0.773608  1
  Ge  Ge10  1  0.122760  0.618038  0.500000  1
  Ge  Ge11  1  0.881962  0.377240  0.500000  1
  Ge  Ge12  1  0.374933  0.125067  0.500000  1
  Ge  Ge13  1  0.617725  0.882275  0.500000  1
  B  B14  1  0.173452  0.039103  0.000000  1
  B  B15  1  0.826790  0.959925  0.000000  1
  B  B16  1  0.959125  0.172369  0.000000  1
  B  B17  1  0.327631  0.540875  0.000000  1
  B  B18  1  0.040440  0.826281  0.000000  1
  B  B19  1  0.673719  0.459560  0.000000  1
  B  B20  1  0.540075  0.673210  0.000000  1
  B  B21  1  0.460897  0.326548  0.000000  1
  B  B22  1  0.090784  0.589259  0.000000  1
  B  B23  1  0.910741  0.409216  0.000000  1
  B  B24  1  0.409363  0.090637  0.000000  1
  B  B25  1  0.589405  0.910595  0.000000  1
  B  B26  1  0.999989  0.999438  0.162083  1
  B  B27  1  0.999989  0.999438  0.837917  1
  B  B28  1  0.500562  0.500011  0.837917  1
  B  B29  1  0.500562  0.500011  0.162083  1
