# generated using pymatgen
data_TbHo15Cd4(NiRu)2
_symmetry_space_group_name_H-M   'P 1'
_cell_length_a   9.54246833
_cell_length_b   9.54246735
_cell_length_c   9.61705700
_cell_angle_alpha   59.74107989
_cell_angle_beta   59.74108334
_cell_angle_gamma   59.43503683
_symmetry_Int_Tables_number   1
_chemical_formula_structural   TbHo15Cd4(NiRu)2
_chemical_formula_sum   'Tb1 Ho15 Cd4 Ni2 Ru2'
_cell_volume   614.13472808
_cell_formula_units_Z   1
loop_
 _symmetry_equiv_pos_site_id
 _symmetry_equiv_pos_as_xyz
  1  'x, y, z'
loop_
 _atom_site_type_symbol
 _atom_site_label
 _atom_site_symmetry_multiplicity
 _atom_site_fract_x
 _atom_site_fract_y
 _atom_site_fract_z
 _atom_site_occupancy
  Tb  Tb0  1  0.939540  0.939540  0.560460  1
  Ho  Ho1  1  0.349600  0.349600  0.342756  1
  Ho  Ho2  1  0.349600  0.349600  0.958044  1
  Ho  Ho3  1  0.351854  0.956174  0.345986  1
  Ho  Ho4  1  0.956174  0.351854  0.345986  1
  Ho  Ho5  1  0.810981  0.186820  0.188942  1
  Ho  Ho6  1  0.186820  0.810981  0.813257  1
  Ho  Ho7  1  0.186820  0.810981  0.188942  1
  Ho  Ho8  1  0.810981  0.186820  0.813257  1
  Ho  Ho9  1  0.187979  0.187979  0.812021  1
  Ho  Ho10  1  0.810793  0.810793  0.189207  1
  Ho  Ho11  1  0.937886  0.558585  0.566280  1
  Ho  Ho12  1  0.558585  0.937886  0.937250  1
  Ho  Ho13  1  0.558585  0.937886  0.566280  1
  Ho  Ho14  1  0.937886  0.558585  0.937250  1
  Ho  Ho15  1  0.565387  0.565387  0.934613  1
  Cd  Cd16  1  0.579474  0.579474  0.582566  1
  Cd  Cd17  1  0.579474  0.579474  0.258486  1
  Cd  Cd18  1  0.579714  0.256616  0.581834  1
  Cd  Cd19  1  0.256616  0.579714  0.581834  1
  Ni  Ni20  1  0.142147  0.575703  0.141075  1
  Ni  Ni21  1  0.575703  0.142147  0.141075  1
  Ru  Ru22  1  0.143700  0.143700  0.138629  1
  Ru  Ru23  1  0.143700  0.143700  0.573970  1
