# generated using pymatgen
data_NiHgPd3O8
_symmetry_space_group_name_H-M   'P 1'
_cell_length_a   6.14319334
_cell_length_b   10.64170110
_cell_length_c   6.74611361
_cell_angle_alpha   105.24673687
_cell_angle_beta   62.90781536
_cell_angle_gamma   90.00233706
_symmetry_Int_Tables_number   1
_chemical_formula_structural   NiHgPd3O8
_chemical_formula_sum   'Ni2 Hg2 Pd6 O16'
_cell_volume   375.11200499
_cell_formula_units_Z   2
loop_
 _symmetry_equiv_pos_site_id
 _symmetry_equiv_pos_as_xyz
  1  'x, y, z'
loop_
 _atom_site_type_symbol
 _atom_site_label
 _atom_site_symmetry_multiplicity
 _atom_site_fract_x
 _atom_site_fract_y
 _atom_site_fract_z
 _atom_site_occupancy
  Ni  Ni0  1  0.499821  0.500155  0.000470  1
  Ni  Ni1  1  0.999869  0.999973  0.000276  1
  Hg  Hg2  1  0.750003  0.750000  0.499990  1
  Hg  Hg3  1  0.250001  0.249997  0.499990  1
  Pd  Pd4  1  0.750017  0.749996  0.999948  1
  Pd  Pd5  1  0.750032  0.249995  0.999951  1
  Pd  Pd6  1  0.000017  0.499988  0.999953  1
  Pd  Pd7  1  0.250018  0.249996  0.999945  1
  Pd  Pd8  1  0.250033  0.749994  0.999951  1
  Pd  Pd9  1  0.500041  0.999978  0.999943  1
  O  O10  1  0.088010  0.637327  0.824007  1
  O  O11  1  0.588013  0.137323  0.824002  1
  O  O12  1  0.412024  0.862661  0.175908  1
  O  O13  1  0.912026  0.362658  0.175903  1
  O  O14  1  0.352672  0.882431  0.815940  1
  O  O15  1  0.852676  0.382430  0.815936  1
  O  O16  1  0.907937  0.856879  0.184067  1
  O  O17  1  0.407935  0.356878  0.184066  1
  O  O18  1  0.147316  0.617570  0.184023  1
  O  O19  1  0.647313  0.117572  0.184021  1
  O  O20  1  0.668622  0.617575  0.184033  1
  O  O21  1  0.168628  0.117581  0.184034  1
  O  O22  1  0.831413  0.882427  0.815938  1
  O  O23  1  0.331413  0.382422  0.815926  1
  O  O24  1  0.592076  0.643096  0.815896  1
  O  O25  1  0.092078  0.143099  0.815895  1
