# generated using pymatgen
data_P2OsCl13
_symmetry_space_group_name_H-M   'P 1'
_cell_length_a   9.82325326
_cell_length_b   9.82320877
_cell_length_c   12.00596900
_cell_angle_alpha   90.00000000
_cell_angle_beta   90.00000000
_cell_angle_gamma   115.75759079
_symmetry_Int_Tables_number   1
_chemical_formula_structural   P2OsCl13
_chemical_formula_sum   'P4 Os2 Cl26'
_cell_volume   1043.41599380
_cell_formula_units_Z   2
loop_
 _symmetry_equiv_pos_site_id
 _symmetry_equiv_pos_as_xyz
  1  'x, y, z'
loop_
 _atom_site_type_symbol
 _atom_site_label
 _atom_site_symmetry_multiplicity
 _atom_site_fract_x
 _atom_site_fract_y
 _atom_site_fract_z
 _atom_site_occupancy
  P  P0  1  0.544830  0.455169  0.845369  1
  P  P1  1  0.857961  0.142045  0.537626  1
  P  P2  1  0.455170  0.544831  0.345369  1
  P  P3  1  0.142039  0.857955  0.037626  1
  Os  Os4  1  0.791668  0.208333  0.001096  1
  Os  Os5  1  0.208332  0.791667  0.501096  1
  Cl  Cl6  1  0.065321  0.240426  0.593588  1
  Cl  Cl7  1  0.314602  0.381062  0.868460  1
  Cl  Cl8  1  0.324590  0.675413  0.606783  1
  Cl  Cl9  1  0.675410  0.324587  0.106783  1
  Cl  Cl10  1  0.091783  0.908214  0.393065  1
  Cl  Cl11  1  0.908217  0.091786  0.893065  1
  Cl  Cl12  1  0.309719  0.003370  0.615447  1
  Cl  Cl13  1  0.690281  0.996630  0.115447  1
  Cl  Cl14  1  0.996631  0.690277  0.615449  1
  Cl  Cl15  1  0.003369  0.309723  0.115449  1
  Cl  Cl16  1  0.419994  0.896249  0.386802  1
  Cl  Cl17  1  0.580006  0.103751  0.886802  1
  Cl  Cl18  1  0.103751  0.580003  0.386802  1
  Cl  Cl19  1  0.896249  0.419997  0.886802  1
  Cl  Cl20  1  0.618942  0.685400  0.868459  1
  Cl  Cl21  1  0.240416  0.065316  0.093595  1
  Cl  Cl22  1  0.759584  0.934684  0.593595  1
  Cl  Cl23  1  0.934679  0.759574  0.093588  1
  Cl  Cl24  1  0.746661  0.253343  0.589699  1
  Cl  Cl25  1  0.253339  0.746657  0.089699  1
  Cl  Cl26  1  0.859444  0.140551  0.374471  1
  Cl  Cl27  1  0.140556  0.859449  0.874471  1
  Cl  Cl28  1  0.551985  0.448013  0.672092  1
  Cl  Cl29  1  0.448015  0.551987  0.172092  1
  Cl  Cl30  1  0.381058  0.314600  0.368459  1
  Cl  Cl31  1  0.685398  0.618938  0.368460  1
