# generated using pymatgen
data_TbHo15MgCo4Ag3
_symmetry_space_group_name_H-M   'P 1'
_cell_length_a   9.38986085
_cell_length_b   9.38910349
_cell_length_c   9.38910294
_cell_angle_alpha   59.95982204
_cell_angle_beta   60.01945665
_cell_angle_gamma   60.01945518
_symmetry_Int_Tables_number   1
_chemical_formula_structural   TbHo15MgCo4Ag3
_chemical_formula_sum   'Tb1 Ho15 Mg1 Co4 Ag3'
_cell_volume   585.31265786
_cell_formula_units_Z   1
loop_
 _symmetry_equiv_pos_site_id
 _symmetry_equiv_pos_as_xyz
  1  'x, y, z'
loop_
 _atom_site_type_symbol
 _atom_site_label
 _atom_site_symmetry_multiplicity
 _atom_site_fract_x
 _atom_site_fract_y
 _atom_site_fract_z
 _atom_site_occupancy
  Tb  Tb0  1  0.346835  0.346621  0.346621  1
  Ho  Ho1  1  0.346693  0.346419  0.960266  1
  Ho  Ho2  1  0.346693  0.960266  0.346419  1
  Ho  Ho3  1  0.949807  0.349948  0.349948  1
  Ho  Ho4  1  0.811038  0.188229  0.188229  1
  Ho  Ho5  1  0.185890  0.813873  0.813873  1
  Ho  Ho6  1  0.185681  0.814249  0.186276  1
  Ho  Ho7  1  0.810568  0.188448  0.812690  1
  Ho  Ho8  1  0.185681  0.186276  0.814249  1
  Ho  Ho9  1  0.810568  0.812690  0.188448  1
  Ho  Ho10  1  0.934827  0.563160  0.563160  1
  Ho  Ho11  1  0.562400  0.936865  0.936865  1
  Ho  Ho12  1  0.562693  0.936536  0.564031  1
  Ho  Ho13  1  0.935079  0.563258  0.938607  1
  Ho  Ho14  1  0.562693  0.564031  0.936536  1
  Ho  Ho15  1  0.935079  0.938607  0.563258  1
  Mg  Mg16  1  0.286465  0.571345  0.571345  1
  Co  Co17  1  0.138811  0.142484  0.142484  1
  Co  Co18  1  0.138462  0.142026  0.576626  1
  Co  Co19  1  0.138462  0.576626  0.142026  1
  Co  Co20  1  0.575655  0.141197  0.141197  1
  Ag  Ag21  1  0.583273  0.582970  0.582970  1
  Ag  Ag22  1  0.583321  0.583210  0.250667  1
  Ag  Ag23  1  0.583321  0.250667  0.583210  1
