# generated using pymatgen
data_Ca3GaAu5
_symmetry_space_group_name_H-M   'P 1'
_cell_length_a   8.64895429
_cell_length_b   8.64895451
_cell_length_c   8.64895400
_cell_angle_alpha   128.21522507
_cell_angle_beta   126.53167589
_cell_angle_gamma   77.64991942
_symmetry_Int_Tables_number   1
_chemical_formula_structural   Ca3GaAu5
_chemical_formula_sum   'Ca6 Ga2 Au10'
_cell_volume   396.05842226
_cell_formula_units_Z   2
loop_
 _symmetry_equiv_pos_site_id
 _symmetry_equiv_pos_as_xyz
  1  'x, y, z'
loop_
 _atom_site_type_symbol
 _atom_site_label
 _atom_site_symmetry_multiplicity
 _atom_site_fract_x
 _atom_site_fract_y
 _atom_site_fract_z
 _atom_site_occupancy
  Ca  Ca0  1  0.834688  0.054178  0.780510  1
  Ca  Ca1  1  0.226330  0.445822  0.780510  1
  Ca  Ca2  1  0.165312  0.945822  0.219490  1
  Ca  Ca3  1  0.381926  0.250000  0.131926  1
  Ca  Ca4  1  0.773670  0.554178  0.219490  1
  Ca  Ca5  1  0.618074  0.750000  0.868074  1
  Ga  Ga6  1  0.223645  0.750000  0.473645  1
  Ga  Ga7  1  0.776355  0.250000  0.526355  1
  Au  Au8  1  0.833991  0.607108  0.639603  1
  Au  Au9  1  0.532495  0.305613  0.639603  1
  Au  Au10  1  0.467505  0.107108  0.773118  1
  Au  Au11  1  0.833991  0.194387  0.226882  1
  Au  Au12  1  0.166009  0.392892  0.360397  1
  Au  Au13  1  0.467505  0.694387  0.360397  1
  Au  Au14  1  0.532495  0.892892  0.226882  1
  Au  Au15  1  0.166009  0.805613  0.773118  1
  Au  Au16  1  0.000000  0.000000  0.500000  1
  Au  Au17  1  0.000000  0.500000  0.000000  1
