# generated using pymatgen
data_Y5Er11CdIn3Ni4
_symmetry_space_group_name_H-M   'P 1'
_cell_length_a   9.53013934
_cell_length_b   9.53521120
_cell_length_c   9.53314919
_cell_angle_alpha   59.88696536
_cell_angle_beta   59.94051171
_cell_angle_gamma   59.90276656
_symmetry_Int_Tables_number   1
_chemical_formula_structural   Y5Er11CdIn3Ni4
_chemical_formula_sum   'Y5 Er11 Cd1 In3 Ni4'
_cell_volume   611.31346974
_cell_formula_units_Z   1
loop_
 _symmetry_equiv_pos_site_id
 _symmetry_equiv_pos_as_xyz
  1  'x, y, z'
loop_
 _atom_site_type_symbol
 _atom_site_label
 _atom_site_symmetry_multiplicity
 _atom_site_fract_x
 _atom_site_fract_y
 _atom_site_fract_z
 _atom_site_occupancy
  Y  Y0  1  0.812761  0.188184  0.188117  1
  Y  Y1  1  0.814101  0.186650  0.812134  1
  Y  Y2  1  0.190057  0.811828  0.186555  1
  Y  Y3  1  0.814158  0.812135  0.186604  1
  Y  Y4  1  0.190093  0.186615  0.811683  1
  Er  Er5  1  0.594939  0.596751  0.596804  1
  Er  Er6  1  0.598316  0.597418  0.206493  1
  Er  Er7  1  0.598033  0.206610  0.597267  1
  Er  Er8  1  0.205173  0.598455  0.598624  1
  Er  Er9  1  0.061739  0.438544  0.438499  1
  Er  Er10  1  0.437617  0.063146  0.063026  1
  Er  Er11  1  0.437222  0.062728  0.437632  1
  Er  Er12  1  0.062424  0.439396  0.061600  1
  Er  Er13  1  0.437174  0.437568  0.062860  1
  Er  Er14  1  0.062267  0.061531  0.439560  1
  Er  Er15  1  0.189721  0.812695  0.812707  1
  Cd  Cd16  1  0.504533  0.831175  0.831188  1
  In  In17  1  0.831606  0.832864  0.832848  1
  In  In18  1  0.829981  0.832424  0.504147  1
  In  In19  1  0.830028  0.504173  0.832416  1
  Ni  Ni20  1  0.392381  0.392540  0.392661  1
  Ni  Ni21  1  0.390923  0.391646  0.823629  1
  Ni  Ni22  1  0.390942  0.823618  0.391649  1
  Ni  Ni23  1  0.823810  0.391305  0.391299  1
