# generated using pymatgen
data_Hf4Zr12Ni4Mo3Pt
_symmetry_space_group_name_H-M   'P 1'
_cell_length_a   8.75667140
_cell_length_b   8.77536913
_cell_length_c   8.77536900
_cell_angle_alpha   59.99999673
_cell_angle_beta   59.92933784
_cell_angle_gamma   59.92933693
_symmetry_Int_Tables_number   1
_chemical_formula_structural   Hf4Zr12Ni4Mo3Pt
_chemical_formula_sum   'Hf4 Zr12 Ni4 Mo3 Pt1'
_cell_volume   476.31048746
_cell_formula_units_Z   1
loop_
 _symmetry_equiv_pos_site_id
 _symmetry_equiv_pos_as_xyz
  1  'x, y, z'
loop_
 _atom_site_type_symbol
 _atom_site_label
 _atom_site_symmetry_multiplicity
 _atom_site_fract_x
 _atom_site_fract_y
 _atom_site_fract_z
 _atom_site_occupancy
  Hf  Hf0  1  0.193559  0.602148  0.602148  1
  Hf  Hf1  1  0.602131  0.194566  0.601652  1
  Hf  Hf2  1  0.602131  0.601652  0.601652  1
  Hf  Hf3  1  0.602131  0.601652  0.194566  1
  Zr  Zr4  1  0.452286  0.452760  0.047476  1
  Zr  Zr5  1  0.047829  0.045291  0.453440  1
  Zr  Zr6  1  0.452286  0.047476  0.047476  1
  Zr  Zr7  1  0.047829  0.453440  0.453440  1
  Zr  Zr8  1  0.047829  0.453440  0.045291  1
  Zr  Zr9  1  0.452286  0.047476  0.452760  1
  Zr  Zr10  1  0.813221  0.815210  0.185784  1
  Zr  Zr11  1  0.178864  0.190488  0.815323  1
  Zr  Zr12  1  0.813221  0.185784  0.185784  1
  Zr  Zr13  1  0.178864  0.815323  0.815323  1
  Zr  Zr14  1  0.178864  0.815323  0.190488  1
  Zr  Zr15  1  0.813221  0.185784  0.815210  1
  Ni  Ni16  1  0.823283  0.392239  0.392239  1
  Ni  Ni17  1  0.394991  0.822789  0.391111  1
  Ni  Ni18  1  0.394991  0.391111  0.391111  1
  Ni  Ni19  1  0.394991  0.391111  0.822789  1
  Mo  Mo20  1  0.836067  0.500601  0.831666  1
  Mo  Mo21  1  0.836067  0.831666  0.831666  1
  Mo  Mo22  1  0.836067  0.831666  0.500601  1
  Pt  Pt23  1  0.506994  0.831002  0.831002  1
