# generated using pymatgen
data_Cs4Rb8V3AsSe16
_symmetry_space_group_name_H-M   'P 1'
_cell_length_a   10.17535323
_cell_length_b   10.32075669
_cell_length_c   11.39480400
_cell_angle_alpha   90.00000000
_cell_angle_beta   90.00000000
_cell_angle_gamma   89.62880304
_symmetry_Int_Tables_number   1
_chemical_formula_structural   Cs4Rb8V3AsSe16
_chemical_formula_sum   'Cs4 Rb8 V3 As1 Se16'
_cell_volume   1196.62694834
_cell_formula_units_Z   1
loop_
 _symmetry_equiv_pos_site_id
 _symmetry_equiv_pos_as_xyz
  1  'x, y, z'
loop_
 _atom_site_type_symbol
 _atom_site_label
 _atom_site_symmetry_multiplicity
 _atom_site_fract_x
 _atom_site_fract_y
 _atom_site_fract_z
 _atom_site_occupancy
  Cs  Cs0  1  0.643803  0.917022  0.250000  1
  Cs  Cs1  1  0.149801  0.589710  0.250000  1
  Cs  Cs2  1  0.853701  0.417603  0.750000  1
  Cs  Cs3  1  0.355947  0.078983  0.750000  1
  Rb  Rb4  1  0.052020  0.797366  0.954841  1
  Rb  Rb5  1  0.555719  0.703111  0.545608  1
  Rb  Rb6  1  0.445567  0.293965  0.048096  1
  Rb  Rb7  1  0.946235  0.202017  0.455422  1
  Rb  Rb8  1  0.946235  0.202017  0.044578  1
  Rb  Rb9  1  0.445567  0.293965  0.451904  1
  Rb  Rb10  1  0.555719  0.703111  0.954392  1
  Rb  Rb11  1  0.052020  0.797366  0.545159  1
  V  V12  1  0.781348  0.982473  0.750000  1
  V  V13  1  0.217229  0.020072  0.250000  1
  V  V14  1  0.722861  0.480154  0.250000  1
  As  As15  1  0.277284  0.516935  0.750000  1
  Se  Se16  1  0.328624  0.957233  0.084495  1
  Se  Se17  1  0.834874  0.540772  0.415637  1
  Se  Se18  1  0.163252  0.460612  0.921792  1
  Se  Se19  1  0.670125  0.044877  0.584077  1
  Se  Se20  1  0.010026  0.930136  0.250000  1
  Se  Se21  1  0.515778  0.572646  0.250000  1
  Se  Se22  1  0.487551  0.418098  0.750000  1
  Se  Se23  1  0.988755  0.071601  0.750000  1
  Se  Se24  1  0.670125  0.044877  0.915923  1
  Se  Se25  1  0.328624  0.957233  0.415505  1
  Se  Se26  1  0.834874  0.540772  0.084363  1
  Se  Se27  1  0.163252  0.460612  0.578208  1
  Se  Se28  1  0.801515  0.760474  0.750000  1
  Se  Se29  1  0.304290  0.743214  0.750000  1
  Se  Se30  1  0.701116  0.258700  0.250000  1
  Se  Se31  1  0.196163  0.242278  0.250000  1
