# generated using pymatgen
data_TbEu(Ga4Ni)2
_symmetry_space_group_name_H-M   'P 1'
_cell_length_a   4.19080796
_cell_length_b   6.49589500
_cell_length_c   8.05927289
_cell_angle_alpha   90.00000000
_cell_angle_beta   105.07002423
_cell_angle_gamma   90.00000000
_symmetry_Int_Tables_number   1
_chemical_formula_structural   TbEu(Ga4Ni)2
_chemical_formula_sum   'Tb1 Eu1 Ga8 Ni2'
_cell_volume   211.85261416
_cell_formula_units_Z   1
loop_
 _symmetry_equiv_pos_site_id
 _symmetry_equiv_pos_as_xyz
  1  'x, y, z'
loop_
 _atom_site_type_symbol
 _atom_site_label
 _atom_site_symmetry_multiplicity
 _atom_site_fract_x
 _atom_site_fract_y
 _atom_site_fract_z
 _atom_site_occupancy
  Tb  Tb0  1  0.119085  0.250000  0.238171  1
  Eu  Eu1  1  0.882213  0.750000  0.764425  1
  Ga  Ga2  1  0.501414  0.497307  0.002829  1
  Ga  Ga3  1  0.501414  0.002693  0.002829  1
  Ga  Ga4  1  0.072412  0.750000  0.144824  1
  Ga  Ga5  1  0.928154  0.250000  0.856309  1
  Ga  Ga6  1  0.685445  0.550574  0.370890  1
  Ga  Ga7  1  0.312885  0.449017  0.625770  1
  Ga  Ga8  1  0.685445  0.949426  0.370890  1
  Ga  Ga9  1  0.312885  0.050983  0.625770  1
  Ni  Ni10  1  0.222070  0.750000  0.444140  1
  Ni  Ni11  1  0.776577  0.250000  0.553153  1
