# generated using pymatgen
data_Dy17(LuRh4)3
_symmetry_space_group_name_H-M   'P 1'
_cell_length_a   10.88224800
_cell_length_b   10.88224800
_cell_length_c   6.33989400
_cell_angle_alpha   90.00000000
_cell_angle_beta   90.00000000
_cell_angle_gamma   90.00000000
_symmetry_Int_Tables_number   1
_chemical_formula_structural   Dy17(LuRh4)3
_chemical_formula_sum   'Dy17 Lu3 Rh12'
_cell_volume   750.79130565
_cell_formula_units_Z   1
loop_
 _symmetry_equiv_pos_site_id
 _symmetry_equiv_pos_as_xyz
  1  'x, y, z'
loop_
 _atom_site_type_symbol
 _atom_site_label
 _atom_site_symmetry_multiplicity
 _atom_site_fract_x
 _atom_site_fract_y
 _atom_site_fract_z
 _atom_site_occupancy
  Dy  Dy0  1  0.289754  0.088082  0.378846  1
  Dy  Dy1  1  0.289789  0.911845  0.878752  1
  Dy  Dy2  1  0.710211  0.088155  0.878752  1
  Dy  Dy3  1  0.710246  0.911918  0.378846  1
  Dy  Dy4  1  0.588259  0.790268  0.878876  1
  Dy  Dy5  1  0.588511  0.209208  0.378674  1
  Dy  Dy6  1  0.411489  0.790792  0.378674  1
  Dy  Dy7  1  0.411741  0.209732  0.878876  1
  Dy  Dy8  1  0.209208  0.411489  0.621326  1
  Dy  Dy9  1  0.209732  0.588259  0.121124  1
  Dy  Dy10  1  0.790268  0.411741  0.121124  1
  Dy  Dy11  1  0.790792  0.588511  0.621326  1
  Dy  Dy12  1  0.911845  0.710211  0.121248  1
  Dy  Dy13  1  0.911918  0.289754  0.621154  1
  Dy  Dy14  1  0.088082  0.710246  0.621154  1
  Dy  Dy15  1  0.088155  0.289789  0.121248  1
  Dy  Dy16  1  0.500000  0.500000  0.500000  1
  Lu  Lu17  1  0.000000  0.000000  0.500000  1
  Lu  Lu18  1  0.000000  0.000000  0.000000  1
  Lu  Lu19  1  0.500000  0.500000  0.000000  1
  Rh  Rh20  1  0.848593  0.151331  0.250082  1
  Rh  Rh21  1  0.848669  0.848593  0.749918  1
  Rh  Rh22  1  0.151331  0.151407  0.749918  1
  Rh  Rh23  1  0.151407  0.848669  0.250082  1
  Rh  Rh24  1  0.652802  0.347095  0.752016  1
  Rh  Rh25  1  0.652905  0.652802  0.247984  1
  Rh  Rh26  1  0.347095  0.347198  0.247984  1
  Rh  Rh27  1  0.347198  0.652905  0.752016  1
  Rh  Rh28  1  0.500000  0.000000  0.124139  1
  Rh  Rh29  1  0.500000  0.000000  0.624144  1
  Rh  Rh30  1  0.000000  0.500000  0.875861  1
  Rh  Rh31  1  0.000000  0.500000  0.375856  1
