# generated using pymatgen
data_Lu2Al5Si4Os3
_symmetry_space_group_name_H-M   'P 1'
_cell_length_a   7.39532950
_cell_length_b   7.39532899
_cell_length_c   9.31255200
_cell_angle_alpha   90.00000000
_cell_angle_beta   90.00000000
_cell_angle_gamma   120.11065775
_symmetry_Int_Tables_number   1
_chemical_formula_structural   Lu2Al5Si4Os3
_chemical_formula_sum   'Lu4 Al10 Si8 Os6'
_cell_volume   440.58430750
_cell_formula_units_Z   2
loop_
 _symmetry_equiv_pos_site_id
 _symmetry_equiv_pos_as_xyz
  1  'x, y, z'
loop_
 _atom_site_type_symbol
 _atom_site_label
 _atom_site_symmetry_multiplicity
 _atom_site_fract_x
 _atom_site_fract_y
 _atom_site_fract_z
 _atom_site_occupancy
  Lu  Lu0  1  0.004883  0.669159  0.250000  1
  Lu  Lu1  1  0.995117  0.330841  0.750000  1
  Lu  Lu2  1  0.669159  0.004883  0.250000  1
  Lu  Lu3  1  0.330841  0.995117  0.750000  1
  Al  Al4  1  0.127426  0.127426  0.250000  1
  Al  Al5  1  0.872574  0.872574  0.750000  1
  Al  Al6  1  0.335603  0.335603  0.562448  1
  Al  Al7  1  0.664397  0.664397  0.437552  1
  Al  Al8  1  0.664397  0.664397  0.062448  1
  Al  Al9  1  0.335603  0.335603  0.937552  1
  Al  Al10  1  0.340285  0.548700  0.250000  1
  Al  Al11  1  0.659715  0.451300  0.750000  1
  Al  Al12  1  0.548700  0.340285  0.250000  1
  Al  Al13  1  0.451300  0.659715  0.750000  1
  Si  Si14  1  0.007525  0.334012  0.071086  1
  Si  Si15  1  0.992475  0.665988  0.928914  1
  Si  Si16  1  0.992475  0.665988  0.571086  1
  Si  Si17  1  0.334012  0.007525  0.428914  1
  Si  Si18  1  0.007525  0.334012  0.428914  1
  Si  Si19  1  0.665988  0.992475  0.571086  1
  Si  Si20  1  0.665988  0.992475  0.928914  1
  Si  Si21  1  0.334012  0.007525  0.071086  1
  Os  Os22  1  0.681447  0.318553  0.000000  1
  Os  Os23  1  0.318553  0.681447  0.000000  1
  Os  Os24  1  0.318553  0.681447  0.500000  1
  Os  Os25  1  0.681447  0.318553  0.500000  1
  Os  Os26  1  0.000000  0.000000  0.000000  1
  Os  Os27  1  0.000000  0.000000  0.500000  1
