# generated using pymatgen
data_TmTh7(Si3Tc)4
_symmetry_space_group_name_H-M   'P 1'
_cell_length_a   8.34981900
_cell_length_b   8.34981893
_cell_length_c   8.09926700
_cell_angle_alpha   90.00000000
_cell_angle_beta   90.00000000
_cell_angle_gamma   120.00000424
_symmetry_Int_Tables_number   1
_chemical_formula_structural   TmTh7(Si3Tc)4
_chemical_formula_sum   'Tm1 Th7 Si12 Tc4'
_cell_volume   489.02430914
_cell_formula_units_Z   1
loop_
 _symmetry_equiv_pos_site_id
 _symmetry_equiv_pos_as_xyz
  1  'x, y, z'
loop_
 _atom_site_type_symbol
 _atom_site_label
 _atom_site_symmetry_multiplicity
 _atom_site_fract_x
 _atom_site_fract_y
 _atom_site_fract_z
 _atom_site_occupancy
  Tm  Tm0  1  0.000000  0.000000  0.750000  1
  Th  Th1  1  0.503108  0.006215  0.250000  1
  Th  Th2  1  0.496807  0.993614  0.750000  1
  Th  Th3  1  0.993785  0.496892  0.250000  1
  Th  Th4  1  0.006386  0.503193  0.750000  1
  Th  Th5  1  0.503108  0.496892  0.250000  1
  Th  Th6  1  0.496807  0.503193  0.750000  1
  Th  Th7  1  0.000000  0.000000  0.250000  1
  Si  Si8  1  0.164668  0.329336  0.996393  1
  Si  Si9  1  0.835331  0.670662  0.998118  1
  Si  Si10  1  0.670664  0.835332  0.996393  1
  Si  Si11  1  0.835331  0.670662  0.501882  1
  Si  Si12  1  0.329338  0.164669  0.998118  1
  Si  Si13  1  0.164668  0.329336  0.503607  1
  Si  Si14  1  0.164668  0.835332  0.996393  1
  Si  Si15  1  0.329338  0.164669  0.501882  1
  Si  Si16  1  0.835331  0.164669  0.998118  1
  Si  Si17  1  0.670664  0.835332  0.503607  1
  Si  Si18  1  0.835331  0.164669  0.501882  1
  Si  Si19  1  0.164668  0.835332  0.503607  1
  Tc  Tc20  1  0.333333  0.666667  0.017240  1
  Tc  Tc21  1  0.666667  0.333333  0.977953  1
  Tc  Tc22  1  0.666667  0.333333  0.522047  1
  Tc  Tc23  1  0.333333  0.666667  0.482760  1
