# generated using pymatgen
data_HoTm15Lu4(CoSb2)4
_symmetry_space_group_name_H-M   'P 1'
_cell_length_a   7.72185413
_cell_length_b   8.69141901
_cell_length_c   12.03070965
_cell_angle_alpha   90.00394482
_cell_angle_beta   89.99165970
_cell_angle_gamma   90.00157063
_symmetry_Int_Tables_number   1
_chemical_formula_structural   HoTm15Lu4(CoSb2)4
_chemical_formula_sum   'Ho1 Tm15 Lu4 Co4 Sb8'
_cell_volume   807.42746896
_cell_formula_units_Z   1
loop_
 _symmetry_equiv_pos_site_id
 _symmetry_equiv_pos_as_xyz
  1  'x, y, z'
loop_
 _atom_site_type_symbol
 _atom_site_label
 _atom_site_symmetry_multiplicity
 _atom_site_fract_x
 _atom_site_fract_y
 _atom_site_fract_z
 _atom_site_occupancy
  Ho  Ho0  1  0.877141  0.749780  0.807940  1
  Tm  Tm1  1  0.156459  0.749798  0.204323  1
  Tm  Tm2  1  0.656404  0.250225  0.295758  1
  Tm  Tm3  1  0.843661  0.249792  0.795708  1
  Tm  Tm4  1  0.343930  0.750221  0.704114  1
  Tm  Tm5  1  0.449421  0.750206  0.997762  1
  Tm  Tm6  1  0.949647  0.249839  0.502045  1
  Tm  Tm7  1  0.550012  0.250141  0.002326  1
  Tm  Tm8  1  0.050392  0.749807  0.497846  1
  Tm  Tm9  1  0.622037  0.750197  0.308823  1
  Tm  Tm10  1  0.122145  0.249798  0.191390  1
  Tm  Tm11  1  0.377935  0.250166  0.691180  1
  Tm  Tm12  1  0.823797  0.963482  0.065805  1
  Tm  Tm13  1  0.323510  0.036920  0.434503  1
  Tm  Tm14  1  0.176654  0.462120  0.934855  1
  Tm  Tm15  1  0.676595  0.537123  0.565312  1
  Lu  Lu16  1  0.175160  0.037930  0.935022  1
  Lu  Lu17  1  0.675091  0.962737  0.565198  1
  Lu  Lu18  1  0.825177  0.536652  0.065680  1
  Lu  Lu19  1  0.324860  0.463097  0.434655  1
  Co  Co20  1  0.432346  0.750108  0.491051  1
  Co  Co21  1  0.932216  0.249876  0.009093  1
  Co  Co22  1  0.567612  0.250093  0.508679  1
  Co  Co23  1  0.067626  0.749909  0.991183  1
  Sb  Sb24  1  0.931131  0.991631  0.327701  1
  Sb  Sb25  1  0.431124  0.008347  0.172400  1
  Sb  Sb26  1  0.069670  0.491226  0.672125  1
  Sb  Sb27  1  0.568192  0.507992  0.827655  1
  Sb  Sb28  1  0.069308  0.008669  0.672160  1
  Sb  Sb29  1  0.567792  0.992091  0.827628  1
  Sb  Sb30  1  0.931476  0.508262  0.327651  1
  Sb  Sb31  1  0.431481  0.491764  0.172429  1
