# generated using pymatgen
data_YErRe8Si3Ge
_symmetry_space_group_name_H-M   'P 1'
_cell_length_a   7.42882595
_cell_length_b   7.42882676
_cell_length_c   4.15602400
_cell_angle_alpha   90.00000000
_cell_angle_beta   90.00000000
_cell_angle_gamma   90.07724974
_symmetry_Int_Tables_number   1
_chemical_formula_structural   YErRe8Si3Ge
_chemical_formula_sum   'Y1 Er1 Re8 Si3 Ge1'
_cell_volume   229.36020409
_cell_formula_units_Z   1
loop_
 _symmetry_equiv_pos_site_id
 _symmetry_equiv_pos_as_xyz
  1  'x, y, z'
loop_
 _atom_site_type_symbol
 _atom_site_label
 _atom_site_symmetry_multiplicity
 _atom_site_fract_x
 _atom_site_fract_y
 _atom_site_fract_z
 _atom_site_occupancy
  Y  Y0  1  0.998722  0.001278  0.500000  1
  Er  Er1  1  0.499615  0.500385  0.000000  1
  Re  Re2  1  0.657988  0.904304  0.000000  1
  Re  Re3  1  0.157706  0.588013  0.500000  1
  Re  Re4  1  0.095696  0.342012  0.000000  1
  Re  Re5  1  0.900140  0.653080  0.000000  1
  Re  Re6  1  0.411987  0.842294  0.500000  1
  Re  Re7  1  0.593142  0.160516  0.500000  1
  Re  Re8  1  0.346920  0.099860  0.000000  1
  Re  Re9  1  0.839484  0.406858  0.500000  1
  Si  Si10  1  0.790219  0.209781  0.000000  1
  Si  Si11  1  0.707822  0.706622  0.500000  1
  Si  Si12  1  0.293378  0.292178  0.500000  1
  Ge  Ge13  1  0.207180  0.792820  0.000000  1
