# generated using pymatgen
data_Pr4Tm16SiBi11
_symmetry_space_group_name_H-M   'P 1'
_cell_length_a   8.12041640
_cell_length_b   9.38352300
_cell_length_c   11.89054000
_cell_angle_alpha   90.00000000
_cell_angle_beta   90.20185890
_cell_angle_gamma   90.00000000
_symmetry_Int_Tables_number   1
_chemical_formula_structural   Pr4Tm16SiBi11
_chemical_formula_sum   'Pr4 Tm16 Si1 Bi11'
_cell_volume   906.03109975
_cell_formula_units_Z   1
loop_
 _symmetry_equiv_pos_site_id
 _symmetry_equiv_pos_as_xyz
  1  'x, y, z'
loop_
 _atom_site_type_symbol
 _atom_site_label
 _atom_site_symmetry_multiplicity
 _atom_site_fract_x
 _atom_site_fract_y
 _atom_site_fract_z
 _atom_site_occupancy
  Pr  Pr0  1  0.317490  0.250000  0.219821  1
  Pr  Pr1  1  0.815658  0.250000  0.279658  1
  Pr  Pr2  1  0.669069  0.750000  0.788288  1
  Pr  Pr3  1  0.188184  0.750000  0.724196  1
  Tm  Tm4  1  0.352315  0.750000  0.206187  1
  Tm  Tm5  1  0.849696  0.750000  0.281550  1
  Tm  Tm6  1  0.652302  0.250000  0.781339  1
  Tm  Tm7  1  0.149220  0.250000  0.721239  1
  Tm  Tm8  1  0.680533  0.572474  0.056352  1
  Tm  Tm9  1  0.191594  0.934412  0.437421  1
  Tm  Tm10  1  0.312607  0.047974  0.940165  1
  Tm  Tm11  1  0.808973  0.435527  0.561558  1
  Tm  Tm12  1  0.312607  0.452026  0.940165  1
  Tm  Tm13  1  0.808973  0.064473  0.561558  1
  Tm  Tm14  1  0.680533  0.927526  0.056352  1
  Tm  Tm15  1  0.191594  0.565588  0.437421  1
  Tm  Tm16  1  0.478848  0.250000  0.487833  1
  Tm  Tm17  1  0.982602  0.250000  0.010052  1
  Tm  Tm18  1  0.523230  0.750000  0.512909  1
  Tm  Tm19  1  0.035970  0.750000  0.988691  1
  Si  Si20  1  0.405307  0.750000  0.968937  1
  Bi  Bi21  1  0.904620  0.750000  0.537988  1
  Bi  Bi22  1  0.597735  0.250000  0.034441  1
  Bi  Bi23  1  0.097622  0.250000  0.465658  1
  Bi  Bi24  1  0.564030  0.988849  0.327602  1
  Bi  Bi25  1  0.062889  0.509224  0.171933  1
  Bi  Bi26  1  0.435076  0.488739  0.671928  1
  Bi  Bi27  1  0.934366  0.007385  0.828649  1
  Bi  Bi28  1  0.435076  0.011261  0.671928  1
  Bi  Bi29  1  0.934366  0.492615  0.828649  1
  Bi  Bi30  1  0.564030  0.511151  0.327602  1
  Bi  Bi31  1  0.062889  0.990776  0.171933  1
