# generated using pymatgen
data_Dy3LuFePt3O14
_symmetry_space_group_name_H-M   'P 1'
_cell_length_a   7.25529933
_cell_length_b   7.20258614
_cell_length_c   7.20258700
_cell_angle_alpha   59.99999148
_cell_angle_beta   60.24004189
_cell_angle_gamma   60.24004995
_symmetry_Int_Tables_number   1
_chemical_formula_structural   Dy3LuFePt3O14
_chemical_formula_sum   'Dy3 Lu1 Fe1 Pt3 O14'
_cell_volume   267.10593528
_cell_formula_units_Z   1
loop_
 _symmetry_equiv_pos_site_id
 _symmetry_equiv_pos_as_xyz
  1  'x, y, z'
loop_
 _atom_site_type_symbol
 _atom_site_label
 _atom_site_symmetry_multiplicity
 _atom_site_fract_x
 _atom_site_fract_y
 _atom_site_fract_z
 _atom_site_occupancy
  Dy  Dy0  1  0.125000  0.625000  0.125000  1
  Dy  Dy1  1  0.125000  0.125000  0.625000  1
  Dy  Dy2  1  0.125000  0.125000  0.125000  1
  Lu  Lu3  1  0.625000  0.125000  0.125000  1
  Fe  Fe4  1  0.125000  0.625000  0.625000  1
  Pt  Pt5  1  0.625000  0.625000  0.625000  1
  Pt  Pt6  1  0.625000  0.125000  0.625000  1
  Pt  Pt7  1  0.625000  0.625000  0.125000  1
  O  O8  1  0.287691  0.714528  0.714528  1
  O  O9  1  0.540660  0.965431  0.965431  1
  O  O10  1  0.709340  0.284569  0.721523  1
  O  O11  1  0.287691  0.283253  0.714528  1
  O  O12  1  0.709340  0.721523  0.284569  1
  O  O13  1  0.988796  0.003734  0.003734  1
  O  O14  1  0.287691  0.714528  0.283253  1
  O  O15  1  0.962309  0.535472  0.966747  1
  O  O16  1  0.962309  0.966747  0.535472  1
  O  O17  1  0.540660  0.528477  0.965431  1
  O  O18  1  0.261204  0.246266  0.246266  1
  O  O19  1  0.540660  0.965431  0.528477  1
  O  O20  1  0.709340  0.284569  0.284569  1
  O  O21  1  0.962309  0.535472  0.535472  1
