# generated using pymatgen
data_Lu(Si2Rh3)2
_symmetry_space_group_name_H-M   'P 1'
_cell_length_a   7.03481100
_cell_length_b   7.03481158
_cell_length_c   3.75446200
_cell_angle_alpha   90.00000000
_cell_angle_beta   90.00000000
_cell_angle_gamma   119.99999255
_symmetry_Int_Tables_number   1
_chemical_formula_structural   Lu(Si2Rh3)2
_chemical_formula_sum   'Lu1 Si4 Rh6'
_cell_volume   160.91009136
_cell_formula_units_Z   1
loop_
 _symmetry_equiv_pos_site_id
 _symmetry_equiv_pos_as_xyz
  1  'x, y, z'
loop_
 _atom_site_type_symbol
 _atom_site_label
 _atom_site_symmetry_multiplicity
 _atom_site_fract_x
 _atom_site_fract_y
 _atom_site_fract_z
 _atom_site_occupancy
  Lu  Lu0  1  0.000000  0.000000  0.000000  1
  Si  Si1  1  0.800600  0.199400  0.500000  1
  Si  Si2  1  0.800600  0.601201  0.500000  1
  Si  Si3  1  0.398799  0.199400  0.500000  1
  Si  Si4  1  0.333333  0.666667  0.000000  1
  Rh  Rh5  1  0.532815  0.467185  0.000000  1
  Rh  Rh6  1  0.532815  0.065630  0.000000  1
  Rh  Rh7  1  0.934370  0.467185  0.000000  1
  Rh  Rh8  1  0.195861  0.804139  0.500000  1
  Rh  Rh9  1  0.195861  0.391723  0.500000  1
  Rh  Rh10  1  0.608277  0.804139  0.500000  1
