# generated using pymatgen
data_Er4ThGa2Ru3
_symmetry_space_group_name_H-M   'P 1'
_cell_length_a   8.36570863
_cell_length_b   8.35187213
_cell_length_c   8.33991100
_cell_angle_alpha   109.74946631
_cell_angle_beta   109.66755309
_cell_angle_gamma   109.41718161
_symmetry_Int_Tables_number   1
_chemical_formula_structural   Er4ThGa2Ru3
_chemical_formula_sum   'Er8 Th2 Ga4 Ru6'
_cell_volume   446.21944300
_cell_formula_units_Z   2
loop_
 _symmetry_equiv_pos_site_id
 _symmetry_equiv_pos_as_xyz
  1  'x, y, z'
loop_
 _atom_site_type_symbol
 _atom_site_label
 _atom_site_symmetry_multiplicity
 _atom_site_fract_x
 _atom_site_fract_y
 _atom_site_fract_z
 _atom_site_occupancy
  Er  Er0  1  0.779575  0.782301  0.777663  1
  Er  Er1  1  0.318427  0.568394  0.752389  1
  Er  Er2  1  0.749665  0.317748  0.569481  1
  Er  Er3  1  0.568964  0.747647  0.315479  1
  Er  Er4  1  0.715130  0.500681  0.997214  1
  Er  Er5  1  0.998754  0.719282  0.504910  1
  Er  Er6  1  0.499548  0.994352  0.716049  1
  Er  Er7  1  0.252662  0.185080  0.930940  1
  Th  Th8  1  0.940750  0.252589  0.192774  1
  Th  Th9  1  0.191279  0.938165  0.250342  1
  Ga  Ga10  1  0.419456  0.415552  0.412882  1
  Ga  Ga11  1  0.092833  0.493391  0.993467  1
  Ga  Ga12  1  0.997161  0.091732  0.506476  1
  Ga  Ga13  1  0.499484  0.004100  0.090513  1
  Ru  Ru14  1  0.868095  0.118054  0.748072  1
  Ru  Ru15  1  0.752632  0.886320  0.121543  1
  Ru  Ru16  1  0.123056  0.754277  0.887912  1
  Ru  Ru17  1  0.237310  0.613143  0.369568  1
  Ru  Ru18  1  0.365878  0.235880  0.611865  1
  Ru  Ru19  1  0.629343  0.381311  0.250462  1
