# generated using pymatgen
data_PrDySe2
_symmetry_space_group_name_H-M   'P 1'
_cell_length_a   7.35346691
_cell_length_b   7.35346699
_cell_length_c   7.35346777
_cell_angle_alpha   32.59167949
_cell_angle_beta   32.59167720
_cell_angle_gamma   32.59167718
_symmetry_Int_Tables_number   1
_chemical_formula_structural   PrDySe2
_chemical_formula_sum   'Pr1 Dy1 Se2'
_cell_volume   102.60053806
_cell_formula_units_Z   1
loop_
 _symmetry_equiv_pos_site_id
 _symmetry_equiv_pos_as_xyz
  1  'x, y, z'
loop_
 _atom_site_type_symbol
 _atom_site_label
 _atom_site_symmetry_multiplicity
 _atom_site_fract_x
 _atom_site_fract_y
 _atom_site_fract_z
 _atom_site_occupancy
  Pr  Pr0  1  0.000000  0.000000  0.000000  1
  Dy  Dy1  1  0.500000  0.500000  0.500000  1
  Se  Se2  1  0.244480  0.244480  0.244480  1
  Se  Se3  1  0.755520  0.755520  0.755520  1
