# generated using pymatgen
data_ErTm3(Si2Pt3)2
_symmetry_space_group_name_H-M   'P 1'
_cell_length_a   4.15741700
_cell_length_b   6.62728063
_cell_length_c   8.90006984
_cell_angle_alpha   90.04985794
_cell_angle_beta   90.00000000
_cell_angle_gamma   90.00000000
_symmetry_Int_Tables_number   1
_chemical_formula_structural   ErTm3(Si2Pt3)2
_chemical_formula_sum   'Er1 Tm3 Si4 Pt6'
_cell_volume   245.21791686
_cell_formula_units_Z   1
loop_
 _symmetry_equiv_pos_site_id
 _symmetry_equiv_pos_as_xyz
  1  'x, y, z'
loop_
 _atom_site_type_symbol
 _atom_site_label
 _atom_site_symmetry_multiplicity
 _atom_site_fract_x
 _atom_site_fract_y
 _atom_site_fract_z
 _atom_site_occupancy
  Er  Er0  1  0.000000  0.888392  0.329268  1
  Tm  Tm1  1  0.000000  0.111690  0.670913  1
  Tm  Tm2  1  0.000000  0.388225  0.170650  1
  Tm  Tm3  1  0.000000  0.611593  0.829372  1
  Si  Si4  1  0.500000  0.573744  0.355269  1
  Si  Si5  1  0.500000  0.425855  0.644901  1
  Si  Si6  1  0.500000  0.074378  0.144385  1
  Si  Si7  1  0.500000  0.925880  0.855182  1
  Pt  Pt8  1  0.500000  0.693576  0.089264  1
  Pt  Pt9  1  0.500000  0.306527  0.910433  1
  Pt  Pt10  1  0.500000  0.194028  0.410797  1
  Pt  Pt11  1  0.500000  0.806571  0.589732  1
  Pt  Pt12  1  0.000000  0.499515  0.500194  1
  Pt  Pt13  1  0.000000  0.000026  0.999640  1
