# generated using pymatgen
data_SrNi9Sb2P3
_symmetry_space_group_name_H-M   'P 1'
_cell_length_a   6.81564608
_cell_length_b   6.81995299
_cell_length_c   11.22190500
_cell_angle_alpha   90.00000000
_cell_angle_beta   90.00000000
_cell_angle_gamma   119.96134459
_symmetry_Int_Tables_number   1
_chemical_formula_structural   SrNi9Sb2P3
_chemical_formula_sum   'Sr2 Ni18 Sb4 P6'
_cell_volume   451.91282322
_cell_formula_units_Z   2
loop_
 _symmetry_equiv_pos_site_id
 _symmetry_equiv_pos_as_xyz
  1  'x, y, z'
loop_
 _atom_site_type_symbol
 _atom_site_label
 _atom_site_symmetry_multiplicity
 _atom_site_fract_x
 _atom_site_fract_y
 _atom_site_fract_z
 _atom_site_occupancy
  Sr  Sr0  1  0.000000  0.000000  0.500000  1
  Sr  Sr1  1  0.000000  0.000000  0.000000  1
  Ni  Ni2  1  0.459172  0.918308  0.875462  1
  Ni  Ni3  1  0.918346  0.459158  0.124565  1
  Ni  Ni4  1  0.540828  0.081692  0.124538  1
  Ni  Ni5  1  0.081654  0.540842  0.624565  1
  Ni  Ni6  1  0.194079  0.388177  0.250000  1
  Ni  Ni7  1  0.805969  0.193961  0.750000  1
  Ni  Ni8  1  0.388059  0.193982  0.750000  1
  Ni  Ni9  1  0.611941  0.806018  0.250000  1
  Ni  Ni10  1  0.194031  0.806039  0.250000  1
  Ni  Ni11  1  0.805921  0.611823  0.750000  1
  Ni  Ni12  1  0.459172  0.918308  0.624538  1
  Ni  Ni13  1  0.540799  0.459149  0.375444  1
  Ni  Ni14  1  0.918346  0.459158  0.375435  1
  Ni  Ni15  1  0.081654  0.540842  0.875435  1
  Ni  Ni16  1  0.459201  0.540851  0.875444  1
  Ni  Ni17  1  0.540828  0.081692  0.375462  1
  Ni  Ni18  1  0.540799  0.459149  0.124556  1
  Ni  Ni19  1  0.459201  0.540851  0.624556  1
  Sb  Sb20  1  0.333287  0.666694  0.439140  1
  Sb  Sb21  1  0.666713  0.333306  0.939140  1
  Sb  Sb22  1  0.666713  0.333306  0.560860  1
  Sb  Sb23  1  0.333287  0.666694  0.060860  1
  P  P24  1  0.169214  0.338556  0.750000  1
  P  P25  1  0.830645  0.169275  0.250000  1
  P  P26  1  0.169355  0.830725  0.750000  1
  P  P27  1  0.830786  0.661444  0.250000  1
  P  P28  1  0.338670  0.169250  0.250000  1
  P  P29  1  0.661330  0.830750  0.750000  1
