# generated using pymatgen
data_Ta2Pb4W2O13
_symmetry_space_group_name_H-M   'P 1'
_cell_length_a   7.58407311
_cell_length_b   7.58407296
_cell_length_c   7.58407412
_cell_angle_alpha   119.34016625
_cell_angle_beta   120.55257071
_cell_angle_gamma   90.09611820
_symmetry_Int_Tables_number   1
_chemical_formula_structural   Ta2Pb4W2O13
_chemical_formula_sum   'Ta2 Pb4 W2 O13'
_cell_volume   308.66201729
_cell_formula_units_Z   1
loop_
 _symmetry_equiv_pos_site_id
 _symmetry_equiv_pos_as_xyz
  1  'x, y, z'
loop_
 _atom_site_type_symbol
 _atom_site_label
 _atom_site_symmetry_multiplicity
 _atom_site_fract_x
 _atom_site_fract_y
 _atom_site_fract_z
 _atom_site_occupancy
  Ta  Ta0  1  0.749171  0.998853  0.249681  1
  Ta  Ta1  1  0.749171  0.499491  0.750319  1
  Pb  Pb2  1  0.753326  0.999381  0.753945  1
  Pb  Pb3  1  0.245436  0.999381  0.246055  1
  Pb  Pb4  1  0.249563  0.500968  0.251404  1
  Pb  Pb5  1  0.249563  0.998159  0.748596  1
  W  W6  1  0.250207  0.499724  0.750483  1
  W  W7  1  0.749241  0.499724  0.249517  1
  O  O8  1  0.079198  0.579198  0.500000  1
  O  O9  1  0.690673  0.190673  0.500000  1
  O  O10  1  0.067999  0.170340  0.487898  1
  O  O11  1  0.682442  0.580100  0.512102  1
  O  O12  1  0.682442  0.170340  0.102341  1
  O  O13  1  0.067999  0.580100  0.897659  1
  O  O14  1  0.423160  0.423160  0.000000  1
  O  O15  1  0.809022  0.809022  0.000000  1
  O  O16  1  0.435428  0.825524  0.011841  1
  O  O17  1  0.813683  0.423587  0.988159  1
  O  O18  1  0.813683  0.825524  0.390096  1
  O  O19  1  0.435428  0.423587  0.609904  1
  O  O20  1  0.378161  0.878161  0.500000  1
