# generated using pymatgen
data_Sr2PrAg5S6
_symmetry_space_group_name_H-M   'P 1'
_cell_length_a   4.14549500
_cell_length_b   7.25189704
_cell_length_c   11.28831455
_cell_angle_alpha   95.73288237
_cell_angle_beta   90.00000000
_cell_angle_gamma   106.60795911
_symmetry_Int_Tables_number   1
_chemical_formula_structural   Sr2PrAg5S6
_chemical_formula_sum   'Sr2 Pr1 Ag5 S6'
_cell_volume   323.42862591
_cell_formula_units_Z   1
loop_
 _symmetry_equiv_pos_site_id
 _symmetry_equiv_pos_as_xyz
  1  'x, y, z'
loop_
 _atom_site_type_symbol
 _atom_site_label
 _atom_site_symmetry_multiplicity
 _atom_site_fract_x
 _atom_site_fract_y
 _atom_site_fract_z
 _atom_site_occupancy
  Sr  Sr0  1  0.252176  0.504352  0.699455  1
  Sr  Sr1  1  0.747824  0.495648  0.300545  1
  Pr  Pr2  1  0.500000  0.000000  0.500000  1
  Ag  Ag3  1  0.016566  0.033133  0.256182  1
  Ag  Ag4  1  0.983434  0.966867  0.743818  1
  Ag  Ag5  1  0.348755  0.697512  0.036277  1
  Ag  Ag6  1  0.651245  0.302488  0.963723  1
  Ag  Ag7  1  0.000000  0.000000  0.000000  1
  S  S8  1  0.136049  0.272097  0.448559  1
  S  S9  1  0.863951  0.727903  0.551441  1
  S  S10  1  0.158194  0.316387  0.112054  1
  S  S11  1  0.841806  0.683613  0.887946  1
  S  S12  1  0.402508  0.805015  0.261979  1
  S  S13  1  0.597492  0.194985  0.738021  1
