# generated using pymatgen
data_Pr6NdTh(ZnRh)8
_symmetry_space_group_name_H-M   'P 1'
_cell_length_a   4.02089100
_cell_length_b   7.41037341
_cell_length_c   16.70687501
_cell_angle_alpha   89.68417692
_cell_angle_beta   90.00000000
_cell_angle_gamma   90.00000000
_symmetry_Int_Tables_number   1
_chemical_formula_structural   Pr6NdTh(ZnRh)8
_chemical_formula_sum   'Pr6 Nd1 Th1 Zn8 Rh8'
_cell_volume   497.79555967
_cell_formula_units_Z   1
loop_
 _symmetry_equiv_pos_site_id
 _symmetry_equiv_pos_as_xyz
  1  'x, y, z'
loop_
 _atom_site_type_symbol
 _atom_site_label
 _atom_site_symmetry_multiplicity
 _atom_site_fract_x
 _atom_site_fract_y
 _atom_site_fract_z
 _atom_site_occupancy
  Pr  Pr0  1  0.750000  0.949598  0.283157  1
  Pr  Pr1  1  0.750000  0.827614  0.059349  1
  Pr  Pr2  1  0.250000  0.169834  0.938978  1
  Pr  Pr3  1  0.250000  0.548154  0.783760  1
  Pr  Pr4  1  0.750000  0.333328  0.440889  1
  Pr  Pr5  1  0.250000  0.672201  0.561269  1
  Nd  Nd6  1  0.250000  0.048476  0.716051  1
  Th  Th7  1  0.750000  0.448739  0.216738  1
  Zn  Zn8  1  0.250000  0.002036  0.440152  1
  Zn  Zn9  1  0.750000  0.500974  0.940079  1
  Zn  Zn10  1  0.750000  0.003211  0.560460  1
  Zn  Zn11  1  0.250000  0.626408  0.351511  1
  Zn  Zn12  1  0.750000  0.375738  0.651152  1
  Zn  Zn13  1  0.750000  0.877163  0.848904  1
  Zn  Zn14  1  0.250000  0.497551  0.057537  1
  Zn  Zn15  1  0.250000  0.119439  0.150815  1
  Rh  Rh16  1  0.250000  0.246007  0.565810  1
  Rh  Rh17  1  0.750000  0.259035  0.069727  1
  Rh  Rh18  1  0.250000  0.254681  0.306101  1
  Rh  Rh19  1  0.750000  0.254344  0.813972  1
  Rh  Rh20  1  0.250000  0.746473  0.934074  1
  Rh  Rh21  1  0.750000  0.756769  0.686967  1
  Rh  Rh22  1  0.750000  0.761293  0.434609  1
  Rh  Rh23  1  0.250000  0.720936  0.187939  1
