# generated using pymatgen
data_GdTm15(Ga3Fe)2
_symmetry_space_group_name_H-M   'P 1'
_cell_length_a   9.89196200
_cell_length_b   9.89196117
_cell_length_c   6.84426400
_cell_angle_alpha   90.00000000
_cell_angle_beta   90.00000000
_cell_angle_gamma   119.99999610
_symmetry_Int_Tables_number   1
_chemical_formula_structural   GdTm15(Ga3Fe)2
_chemical_formula_sum   'Gd1 Tm15 Ga6 Fe2'
_cell_volume   579.99232132
_cell_formula_units_Z   1
loop_
 _symmetry_equiv_pos_site_id
 _symmetry_equiv_pos_as_xyz
  1  'x, y, z'
loop_
 _atom_site_type_symbol
 _atom_site_label
 _atom_site_symmetry_multiplicity
 _atom_site_fract_x
 _atom_site_fract_y
 _atom_site_fract_z
 _atom_site_occupancy
  Gd  Gd0  1  0.000000  0.000000  0.730071  1
  Tm  Tm1  1  0.173873  0.826127  0.510205  1
  Tm  Tm2  1  0.652255  0.826127  0.510205  1
  Tm  Tm3  1  0.173873  0.347745  0.510205  1
  Tm  Tm4  1  0.826143  0.173857  0.011195  1
  Tm  Tm5  1  0.347714  0.173857  0.011195  1
  Tm  Tm6  1  0.826143  0.652286  0.011195  1
  Tm  Tm7  1  0.333333  0.666667  0.829503  1
  Tm  Tm8  1  0.666667  0.333333  0.328702  1
  Tm  Tm9  1  0.463500  0.536500  0.207251  1
  Tm  Tm10  1  0.072998  0.536500  0.207251  1
  Tm  Tm11  1  0.463500  0.927002  0.207251  1
  Tm  Tm12  1  0.536446  0.463554  0.706874  1
  Tm  Tm13  1  0.927108  0.463554  0.706874  1
  Tm  Tm14  1  0.536446  0.072892  0.706874  1
  Tm  Tm15  1  0.000000  0.000000  0.231976  1
  Ga  Ga16  1  0.164254  0.835746  0.961488  1
  Ga  Ga17  1  0.671491  0.835746  0.961488  1
  Ga  Ga18  1  0.164254  0.328509  0.961488  1
  Ga  Ga19  1  0.835871  0.164129  0.458180  1
  Ga  Ga20  1  0.328258  0.164129  0.458180  1
  Ga  Ga21  1  0.835871  0.671742  0.458180  1
  Fe  Fe22  1  0.333333  0.666667  0.444899  1
  Fe  Fe23  1  0.666667  0.333333  0.943307  1
