# generated using pymatgen
data_YSc9(Si5Ir2)4
_symmetry_space_group_name_H-M   'P 1'
_cell_length_a   12.41649543
_cell_length_b   12.41649543
_cell_length_c   4.11875100
_cell_angle_alpha   90.00000000
_cell_angle_beta   90.00000000
_cell_angle_gamma   90.12532954
_symmetry_Int_Tables_number   1
_chemical_formula_structural   YSc9(Si5Ir2)4
_chemical_formula_sum   'Y1 Sc9 Si20 Ir8'
_cell_volume   634.98368106
_cell_formula_units_Z   1
loop_
 _symmetry_equiv_pos_site_id
 _symmetry_equiv_pos_as_xyz
  1  'x, y, z'
loop_
 _atom_site_type_symbol
 _atom_site_label
 _atom_site_symmetry_multiplicity
 _atom_site_fract_x
 _atom_site_fract_y
 _atom_site_fract_z
 _atom_site_occupancy
  Y  Y0  1  0.115548  0.615548  0.500000  1
  Sc  Sc1  1  0.884458  0.384458  0.500000  1
  Sc  Sc2  1  0.615558  0.884435  0.500000  1
  Sc  Sc3  1  0.384435  0.115558  0.500000  1
  Sc  Sc4  1  0.674034  0.174034  0.500000  1
  Sc  Sc5  1  0.326907  0.826907  0.500000  1
  Sc  Sc6  1  0.174227  0.325005  0.500000  1
  Sc  Sc7  1  0.825005  0.674227  0.500000  1
  Sc  Sc8  1  0.999911  0.000403  0.000000  1
  Sc  Sc9  1  0.500403  0.499911  0.000000  1
  Si  Si10  1  0.566353  0.066353  0.000000  1
  Si  Si11  1  0.434035  0.934035  0.000000  1
  Si  Si12  1  0.066068  0.432075  0.000000  1
  Si  Si13  1  0.932075  0.566068  0.000000  1
  Si  Si14  1  0.199945  0.165353  0.000000  1
  Si  Si15  1  0.798885  0.834828  0.000000  1
  Si  Si16  1  0.166082  0.801548  0.000000  1
  Si  Si17  1  0.700020  0.334116  0.000000  1
  Si  Si18  1  0.834116  0.200020  0.000000  1
  Si  Si19  1  0.301548  0.666082  0.000000  1
  Si  Si20  1  0.665353  0.699945  0.000000  1
  Si  Si21  1  0.334828  0.298885  0.000000  1
  Si  Si22  1  0.005619  0.151573  0.500000  1
  Si  Si23  1  0.992735  0.849700  0.500000  1
  Si  Si24  1  0.152408  0.994211  0.500000  1
  Si  Si25  1  0.506343  0.347574  0.500000  1
  Si  Si26  1  0.847574  0.006343  0.500000  1
  Si  Si27  1  0.494211  0.652408  0.500000  1
  Si  Si28  1  0.651573  0.505619  0.500000  1
  Si  Si29  1  0.349700  0.492735  0.500000  1
  Ir  Ir30  1  0.019306  0.245368  0.000000  1
  Ir  Ir31  1  0.979017  0.755556  0.000000  1
  Ir  Ir32  1  0.246967  0.981049  0.000000  1
  Ir  Ir33  1  0.519616  0.253162  0.000000  1
  Ir  Ir34  1  0.753162  0.019616  0.000000  1
  Ir  Ir35  1  0.481049  0.746967  0.000000  1
  Ir  Ir36  1  0.745368  0.519306  0.000000  1
  Ir  Ir37  1  0.255556  0.479017  0.000000  1
