# generated using pymatgen
data_Nd11In9Ru4
_symmetry_space_group_name_H-M   'P 1'
_cell_length_a   13.31287476
_cell_length_b   13.30680825
_cell_length_c   3.88937600
_cell_angle_alpha   90.00000000
_cell_angle_beta   90.00000000
_cell_angle_gamma   112.24281899
_symmetry_Int_Tables_number   1
_chemical_formula_structural   Nd11In9Ru4
_chemical_formula_sum   'Nd11 In9 Ru4'
_cell_volume   637.73957648
_cell_formula_units_Z   1
loop_
 _symmetry_equiv_pos_site_id
 _symmetry_equiv_pos_as_xyz
  1  'x, y, z'
loop_
 _atom_site_type_symbol
 _atom_site_label
 _atom_site_symmetry_multiplicity
 _atom_site_fract_x
 _atom_site_fract_y
 _atom_site_fract_z
 _atom_site_occupancy
  Nd  Nd0  1  0.081334  0.418600  0.000000  1
  Nd  Nd1  1  0.918666  0.581400  0.000000  1
  Nd  Nd2  1  0.418564  0.081180  0.000000  1
  Nd  Nd3  1  0.581436  0.918820  0.000000  1
  Nd  Nd4  1  0.625489  0.374612  0.000000  1
  Nd  Nd5  1  0.374511  0.625388  0.000000  1
  Nd  Nd6  1  0.838784  0.161554  0.000000  1
  Nd  Nd7  1  0.161216  0.838446  0.000000  1
  Nd  Nd8  1  0.000000  0.000000  0.000000  1
  Nd  Nd9  1  0.312824  0.312526  0.000000  1
  Nd  Nd10  1  0.687176  0.687474  0.000000  1
  In  In11  1  0.838317  0.367234  0.500000  1
  In  In12  1  0.161683  0.632766  0.500000  1
  In  In13  1  0.367572  0.839207  0.500000  1
  In  In14  1  0.632428  0.160793  0.500000  1
  In  In15  1  0.078793  0.220692  0.500000  1
  In  In16  1  0.921207  0.779308  0.500000  1
  In  In17  1  0.220722  0.078458  0.500000  1
  In  In18  1  0.779278  0.921542  0.500000  1
  In  In19  1  0.500000  0.500000  0.500000  1
  Ru  Ru20  1  0.446489  0.249702  0.500000  1
  Ru  Ru21  1  0.553511  0.750298  0.500000  1
  Ru  Ru22  1  0.249515  0.446073  0.500000  1
  Ru  Ru23  1  0.750485  0.553927  0.500000  1
