# generated using pymatgen
data_NaLa5PrIrBr12
_symmetry_space_group_name_H-M   'P 1'
_cell_length_a   9.54070176
_cell_length_b   9.88202483
_cell_length_c   9.86969427
_cell_angle_alpha   107.69671801
_cell_angle_beta   107.25820203
_cell_angle_gamma   107.17481105
_symmetry_Int_Tables_number   1
_chemical_formula_structural   NaLa5PrIrBr12
_chemical_formula_sum   'Na1 La5 Pr1 Ir1 Br12'
_cell_volume   766.83933487
_cell_formula_units_Z   1
loop_
 _symmetry_equiv_pos_site_id
 _symmetry_equiv_pos_as_xyz
  1  'x, y, z'
loop_
 _atom_site_type_symbol
 _atom_site_label
 _atom_site_symmetry_multiplicity
 _atom_site_fract_x
 _atom_site_fract_y
 _atom_site_fract_z
 _atom_site_occupancy
  Na  Na0  1  0.499884  0.499990  0.499874  1
  La  La1  1  0.303240  0.028780  0.107206  1
  La  La2  1  0.030838  0.121540  0.330514  1
  La  La3  1  0.969542  0.879750  0.669861  1
  La  La4  1  0.696782  0.971397  0.892737  1
  La  La5  1  0.877802  0.669479  0.967750  1
  Pr  Pr6  1  0.121536  0.327842  0.032475  1
  Ir  Ir7  1  0.000087  0.000304  0.000028  1
  Br  Br8  1  0.214172  0.685307  0.071779  1
  Br  Br9  1  0.459325  0.372093  0.162919  1
  Br  Br10  1  0.680153  0.069649  0.212189  1
  Br  Br11  1  0.929637  0.789550  0.314607  1
  Br  Br12  1  0.158917  0.453609  0.368290  1
  Br  Br13  1  0.373271  0.162373  0.453689  1
  Br  Br14  1  0.626771  0.837691  0.546352  1
  Br  Br15  1  0.841107  0.546552  0.630660  1
  Br  Br16  1  0.070691  0.211318  0.686341  1
  Br  Br17  1  0.319874  0.930400  0.787803  1
  Br  Br18  1  0.539142  0.628102  0.836352  1
  Br  Br19  1  0.787231  0.314277  0.928577  1
