# generated using pymatgen
data_Ti7Co8Si14Tc
_symmetry_space_group_name_H-M   'P 1'
_cell_length_a   9.14232044
_cell_length_b   9.14227922
_cell_length_c   9.16937884
_cell_angle_alpha   94.18125369
_cell_angle_beta   94.15809284
_cell_angle_gamma   148.66522547
_symmetry_Int_Tables_number   1
_chemical_formula_structural   Ti7Co8Si14Tc
_chemical_formula_sum   'Ti7 Co8 Si14 Tc1'
_cell_volume   383.83466451
_cell_formula_units_Z   1
loop_
 _symmetry_equiv_pos_site_id
 _symmetry_equiv_pos_as_xyz
  1  'x, y, z'
loop_
 _atom_site_type_symbol
 _atom_site_label
 _atom_site_symmetry_multiplicity
 _atom_site_fract_x
 _atom_site_fract_y
 _atom_site_fract_z
 _atom_site_occupancy
  Ti  Ti0  1  0.866618  0.866712  0.733238  1
  Ti  Ti1  1  0.863676  0.134407  0.998181  1
  Ti  Ti2  1  0.134535  0.863791  0.998277  1
  Ti  Ti3  1  0.500514  0.691514  0.191974  1
  Ti  Ti4  1  0.500215  0.309393  0.809679  1
  Ti  Ti5  1  0.309409  0.500182  0.809579  1
  Ti  Ti6  1  0.691410  0.500432  0.191886  1
  Co  Co7  1  0.399569  0.899566  0.799297  1
  Co  Co8  1  0.100293  0.600313  0.200699  1
  Co  Co9  1  0.101023  0.900368  0.499081  1
  Co  Co10  1  0.397866  0.598538  0.499100  1
  Co  Co11  1  0.598701  0.398016  0.499074  1
  Co  Co12  1  0.900558  0.101208  0.499080  1
  Co  Co13  1  0.899730  0.399717  0.799266  1
  Co  Co14  1  0.600388  0.100409  0.200678  1
  Si  Si15  1  0.293884  0.293945  0.587800  1
  Si  Si16  1  0.706737  0.706758  0.413578  1
  Si  Si17  1  0.705406  0.294488  0.999886  1
  Si  Si18  1  0.294479  0.705350  0.999844  1
  Si  Si19  1  0.001856  0.291042  0.292926  1
  Si  Si20  1  0.999206  0.706116  0.705294  1
  Si  Si21  1  0.706089  0.999181  0.705255  1
  Si  Si22  1  0.291036  0.001853  0.292846  1
  Si  Si23  1  0.500077  0.905200  0.405185  1
  Si  Si24  1  0.500490  0.094132  0.594657  1
  Si  Si25  1  0.094065  0.500463  0.594540  1
  Si  Si26  1  0.905206  0.499974  0.405223  1
  Si  Si27  1  0.751759  0.751753  0.003167  1
  Si  Si28  1  0.251407  0.251404  0.003167  1
  Tc  Tc29  1  0.133798  0.133779  0.267542  1
