# generated using pymatgen
data_LaEr7Np4O24
_symmetry_space_group_name_H-M   'P 1'
_cell_length_a   5.53940800
_cell_length_b   7.84713940
_cell_length_c   11.82443336
_cell_angle_alpha   73.69065738
_cell_angle_beta   90.00000000
_cell_angle_gamma   90.00000000
_symmetry_Int_Tables_number   1
_chemical_formula_structural   LaEr7Np4O24
_chemical_formula_sum   'La1 Er7 Np4 O24'
_cell_volume   493.30723568
_cell_formula_units_Z   1
loop_
 _symmetry_equiv_pos_site_id
 _symmetry_equiv_pos_as_xyz
  1  'x, y, z'
loop_
 _atom_site_type_symbol
 _atom_site_label
 _atom_site_symmetry_multiplicity
 _atom_site_fract_x
 _atom_site_fract_y
 _atom_site_fract_z
 _atom_site_occupancy
  La  La0  1  0.695627  0.500000  0.250000  1
  Er  Er1  1  0.187274  0.202816  0.422343  1
  Er  Er2  1  0.187274  0.797184  0.077657  1
  Er  Er3  1  0.814734  0.793939  0.580271  1
  Er  Er4  1  0.814734  0.206061  0.919729  1
  Er  Er5  1  0.300757  0.500000  0.750000  1
  Er  Er6  1  0.747352  0.000000  0.250000  1
  Er  Er7  1  0.254218  0.000000  0.750000  1
  Np  Np8  1  0.255665  0.274158  0.112188  1
  Np  Np9  1  0.255665  0.725842  0.387812  1
  Np  Np10  1  0.743060  0.723082  0.883965  1
  Np  Np11  1  0.743060  0.276918  0.616035  1
  O  O12  1  0.449951  0.195668  0.274352  1
  O  O13  1  0.449951  0.804332  0.225648  1
  O  O14  1  0.549335  0.803501  0.724542  1
  O  O15  1  0.549335  0.196499  0.775458  1
  O  O16  1  0.043928  0.053551  0.101158  1
  O  O17  1  0.043928  0.946449  0.398842  1
  O  O18  1  0.955537  0.947575  0.894395  1
  O  O19  1  0.955537  0.052425  0.605605  1
  O  O20  1  0.970889  0.274536  0.234340  1
  O  O21  1  0.970889  0.725464  0.265660  1
  O  O22  1  0.037216  0.712722  0.766623  1
  O  O23  1  0.037216  0.287278  0.733377  1
  O  O24  1  0.880841  0.368751  0.450321  1
  O  O25  1  0.880841  0.631249  0.049679  1
  O  O26  1  0.126125  0.630661  0.556571  1
  O  O27  1  0.126125  0.369339  0.943429  1
  O  O28  1  0.611482  0.518380  0.618535  1
  O  O29  1  0.611482  0.481620  0.881465  1
  O  O30  1  0.371351  0.481449  0.387922  1
  O  O31  1  0.371351  0.518551  0.112078  1
  O  O32  1  0.443680  0.151538  0.569292  1
  O  O33  1  0.443680  0.848462  0.930708  1
  O  O34  1  0.559955  0.848482  0.431579  1
  O  O35  1  0.559955  0.151518  0.068421  1
