# generated using pymatgen
data_Nd6Al24IrOs6Rh
_symmetry_space_group_name_H-M   'P 1'
_cell_length_a   8.89511723
_cell_length_b   8.89511656
_cell_length_c   9.67189278
_cell_angle_alpha   90.03957793
_cell_angle_beta   89.96042118
_cell_angle_gamma   119.30979320
_symmetry_Int_Tables_number   1
_chemical_formula_structural   Nd6Al24IrOs6Rh
_chemical_formula_sum   'Nd6 Al24 Ir1 Os6 Rh1'
_cell_volume   667.30437603
_cell_formula_units_Z   1
loop_
 _symmetry_equiv_pos_site_id
 _symmetry_equiv_pos_as_xyz
  1  'x, y, z'
loop_
 _atom_site_type_symbol
 _atom_site_label
 _atom_site_symmetry_multiplicity
 _atom_site_fract_x
 _atom_site_fract_y
 _atom_site_fract_z
 _atom_site_occupancy
  Nd  Nd0  1  0.185203  0.383601  0.249822  1
  Nd  Nd1  1  0.814797  0.616399  0.750178  1
  Nd  Nd2  1  0.616399  0.814797  0.249822  1
  Nd  Nd3  1  0.383601  0.185203  0.750178  1
  Nd  Nd4  1  0.192552  0.807448  0.249375  1
  Nd  Nd5  1  0.807448  0.192552  0.750625  1
  Al  Al6  1  0.332768  0.667232  0.014491  1
  Al  Al7  1  0.667232  0.332768  0.985509  1
  Al  Al8  1  0.667487  0.332513  0.514616  1
  Al  Al9  1  0.332513  0.667487  0.485384  1
  Al  Al10  1  0.161841  0.324312  0.576202  1
  Al  Al11  1  0.838159  0.675688  0.423798  1
  Al  Al12  1  0.675688  0.838159  0.576202  1
  Al  Al13  1  0.837171  0.675160  0.075491  1
  Al  Al14  1  0.324312  0.161841  0.423798  1
  Al  Al15  1  0.162829  0.324840  0.924509  1
  Al  Al16  1  0.164406  0.835594  0.573575  1
  Al  Al17  1  0.324840  0.162829  0.075491  1
  Al  Al18  1  0.835594  0.164406  0.426425  1
  Al  Al19  1  0.675160  0.837171  0.924509  1
  Al  Al20  1  0.835691  0.164309  0.073674  1
  Al  Al21  1  0.164309  0.835691  0.926326  1
  Al  Al22  1  0.560326  0.126876  0.250035  1
  Al  Al23  1  0.439674  0.873124  0.749965  1
  Al  Al24  1  0.873124  0.439674  0.250035  1
  Al  Al25  1  0.126876  0.560326  0.749965  1
  Al  Al26  1  0.559792  0.440208  0.249972  1
  Al  Al27  1  0.440208  0.559792  0.750028  1
  Al  Al28  1  0.998654  0.001346  0.249967  1
  Al  Al29  1  0.001346  0.998654  0.750033  1
  Ir  Ir30  1  0.500000  0.500000  0.000000  1
  Os  Os31  1  0.500000  0.000000  0.000000  1
  Os  Os32  1  0.000000  0.500000  0.000000  1
  Os  Os33  1  0.500000  0.000000  0.500000  1
  Os  Os34  1  0.000000  0.500000  0.500000  1
  Os  Os35  1  0.000000  0.000000  0.000000  1
  Os  Os36  1  0.000000  0.000000  0.500000  1
  Rh  Rh37  1  0.500000  0.500000  0.500000  1
