# generated using pymatgen
data_Dy12Co4BiRu
_symmetry_space_group_name_H-M   'P 1'
_cell_length_a   8.32906196
_cell_length_b   8.32906229
_cell_length_c   8.32906189
_cell_angle_alpha   111.00597720
_cell_angle_beta   110.50895927
_cell_angle_gamma   106.92866678
_symmetry_Int_Tables_number   1
_chemical_formula_structural   Dy12Co4BiRu
_chemical_formula_sum   'Dy12 Co4 Bi1 Ru1'
_cell_volume   444.13960406
_cell_formula_units_Z   1
loop_
 _symmetry_equiv_pos_site_id
 _symmetry_equiv_pos_as_xyz
  1  'x, y, z'
loop_
 _atom_site_type_symbol
 _atom_site_label
 _atom_site_symmetry_multiplicity
 _atom_site_fract_x
 _atom_site_fract_y
 _atom_site_fract_z
 _atom_site_occupancy
  Dy  Dy0  1  0.817787  0.714325  0.532112  1
  Dy  Dy1  1  0.182213  0.285675  0.467888  1
  Dy  Dy2  1  0.182213  0.714325  0.896537  1
  Dy  Dy3  1  0.817787  0.285675  0.103463  1
  Dy  Dy4  1  0.688044  0.379822  0.691778  1
  Dy  Dy5  1  0.311956  0.620178  0.308222  1
  Dy  Dy6  1  0.688044  0.996265  0.308222  1
  Dy  Dy7  1  0.311956  0.003735  0.691778  1
  Dy  Dy8  1  0.593133  0.789235  0.803899  1
  Dy  Dy9  1  0.406867  0.210765  0.196101  1
  Dy  Dy10  1  0.985336  0.789235  0.196101  1
  Dy  Dy11  1  0.014664  0.210765  0.803899  1
  Co  Co12  1  0.624148  0.000000  0.624148  1
  Co  Co13  1  0.375852  0.000000  0.375852  1
  Co  Co14  1  0.111156  0.611156  0.500000  1
  Co  Co15  1  0.888844  0.388844  0.500000  1
  Bi  Bi16  1  0.500000  0.500000  0.000000  1
  Ru  Ru17  1  0.000000  0.000000  0.000000  1
