# generated using pymatgen
data_PmPd2Pt3
_symmetry_space_group_name_H-M   'P 1'
_cell_length_a   5.37129300
_cell_length_b   5.37129197
_cell_length_c   4.47244800
_cell_angle_alpha   90.00000000
_cell_angle_beta   90.00000000
_cell_angle_gamma   60.00033511
_symmetry_Int_Tables_number   1
_chemical_formula_structural   PmPd2Pt3
_chemical_formula_sum   'Pm1 Pd2 Pt3'
_cell_volume   111.74677585
_cell_formula_units_Z   1
loop_
 _symmetry_equiv_pos_site_id
 _symmetry_equiv_pos_as_xyz
  1  'x, y, z'
loop_
 _atom_site_type_symbol
 _atom_site_label
 _atom_site_symmetry_multiplicity
 _atom_site_fract_x
 _atom_site_fract_y
 _atom_site_fract_z
 _atom_site_occupancy
  Pm  Pm0  1  0.999999  0.000001  0.000000  1
  Pd  Pd1  1  0.333332  0.333335  0.000000  1
  Pd  Pd2  1  0.666665  0.666668  0.000000  1
  Pt  Pt3  1  0.500472  0.000001  0.499999  1
  Pt  Pt4  1  0.999999  0.499527  0.499999  1
  Pt  Pt5  1  0.499527  0.500472  0.499999  1
