# generated using pymatgen
data_CeMgSiRh2
_symmetry_space_group_name_H-M   'P 1'
_cell_length_a   4.05270600
_cell_length_b   4.05270600
_cell_length_c   11.32685600
_cell_angle_alpha   90.00000000
_cell_angle_beta   90.00000000
_cell_angle_gamma   90.00000000
_symmetry_Int_Tables_number   1
_chemical_formula_structural   CeMgSiRh2
_chemical_formula_sum   'Ce2 Mg2 Si2 Rh4'
_cell_volume   186.03710731
_cell_formula_units_Z   2
loop_
 _symmetry_equiv_pos_site_id
 _symmetry_equiv_pos_as_xyz
  1  'x, y, z'
loop_
 _atom_site_type_symbol
 _atom_site_label
 _atom_site_symmetry_multiplicity
 _atom_site_fract_x
 _atom_site_fract_y
 _atom_site_fract_z
 _atom_site_occupancy
  Ce  Ce0  1  0.000000  0.500000  0.235592  1
  Ce  Ce1  1  0.500000  0.000000  0.764408  1
  Mg  Mg2  1  0.500000  0.500000  0.500000  1
  Mg  Mg3  1  0.000000  0.000000  0.500000  1
  Si  Si4  1  0.500000  0.000000  0.113563  1
  Si  Si5  1  0.000000  0.500000  0.886437  1
  Rh  Rh6  1  0.000000  0.000000  0.000000  1
  Rh  Rh7  1  0.000000  0.500000  0.674055  1
  Rh  Rh8  1  0.500000  0.000000  0.325945  1
  Rh  Rh9  1  0.500000  0.500000  0.000000  1
