# generated using pymatgen
data_Y11ThPdRh3
_symmetry_space_group_name_H-M   'P 1'
_cell_length_a   6.40651917
_cell_length_b   7.15393903
_cell_length_c   9.67155900
_cell_angle_alpha   90.00000000
_cell_angle_beta   90.00000000
_cell_angle_gamma   89.38186247
_symmetry_Int_Tables_number   1
_chemical_formula_structural   Y11ThPdRh3
_chemical_formula_sum   'Y11 Th1 Pd1 Rh3'
_cell_volume   443.23962152
_cell_formula_units_Z   1
loop_
 _symmetry_equiv_pos_site_id
 _symmetry_equiv_pos_as_xyz
  1  'x, y, z'
loop_
 _atom_site_type_symbol
 _atom_site_label
 _atom_site_symmetry_multiplicity
 _atom_site_fract_x
 _atom_site_fract_y
 _atom_site_fract_z
 _atom_site_occupancy
  Y  Y0  1  0.356119  0.970986  0.750000  1
  Y  Y1  1  0.134232  0.463136  0.750000  1
  Y  Y2  1  0.860350  0.534743  0.250000  1
  Y  Y3  1  0.169849  0.177092  0.062884  1
  Y  Y4  1  0.830669  0.824275  0.936411  1
  Y  Y5  1  0.674054  0.321248  0.936575  1
  Y  Y6  1  0.830669  0.824275  0.563589  1
  Y  Y7  1  0.329073  0.678225  0.066694  1
  Y  Y8  1  0.169849  0.177092  0.437116  1
  Y  Y9  1  0.329073  0.678225  0.433306  1
  Y  Y10  1  0.674054  0.321248  0.563425  1
  Th  Th11  1  0.649171  0.042265  0.250000  1
  Pd  Pd12  1  0.554557  0.616172  0.750000  1
  Rh  Rh13  1  0.450031  0.369836  0.250000  1
  Rh  Rh14  1  0.944017  0.116550  0.750000  1
  Rh  Rh15  1  0.044233  0.884633  0.250000  1
