# generated using pymatgen
data_Tm4Co14Si9(PRu2)3
_symmetry_space_group_name_H-M   'P 1'
_cell_length_a   3.74635500
_cell_length_b   10.58403082
_cell_length_c   11.97220734
_cell_angle_alpha   89.90251576
_cell_angle_beta   90.00000000
_cell_angle_gamma   90.00000000
_symmetry_Int_Tables_number   1
_chemical_formula_structural   Tm4Co14Si9(PRu2)3
_chemical_formula_sum   'Tm4 Co14 Si9 P3 Ru6'
_cell_volume   474.71573273
_cell_formula_units_Z   1
loop_
 _symmetry_equiv_pos_site_id
 _symmetry_equiv_pos_as_xyz
  1  'x, y, z'
loop_
 _atom_site_type_symbol
 _atom_site_label
 _atom_site_symmetry_multiplicity
 _atom_site_fract_x
 _atom_site_fract_y
 _atom_site_fract_z
 _atom_site_occupancy
  Tm  Tm0  1  0.250000  0.582201  0.705579  1
  Tm  Tm1  1  0.250000  0.917817  0.203563  1
  Tm  Tm2  1  0.750000  0.419593  0.295231  1
  Tm  Tm3  1  0.750000  0.081921  0.792633  1
  Co  Co4  1  0.750000  0.597596  0.509306  1
  Co  Co5  1  0.750000  0.905581  0.010903  1
  Co  Co6  1  0.250000  0.215692  0.175666  1
  Co  Co7  1  0.250000  0.282212  0.676259  1
  Co  Co8  1  0.750000  0.785761  0.826428  1
  Co  Co9  1  0.750000  0.715479  0.325485  1
  Co  Co10  1  0.250000  0.884486  0.701856  1
  Co  Co11  1  0.250000  0.616305  0.202633  1
  Co  Co12  1  0.750000  0.112556  0.296217  1
  Co  Co13  1  0.750000  0.385994  0.801762  1
  Co  Co14  1  0.250000  0.469274  0.933108  1
  Co  Co15  1  0.250000  0.029631  0.429793  1
  Co  Co16  1  0.750000  0.533798  0.070017  1
  Co  Co17  1  0.750000  0.965549  0.568159  1
  Si  Si18  1  0.250000  0.417813  0.113505  1
  Si  Si19  1  0.250000  0.082588  0.610613  1
  Si  Si20  1  0.750000  0.583235  0.888647  1
  Si  Si21  1  0.750000  0.916531  0.386854  1
  Si  Si22  1  0.250000  0.273201  0.866919  1
  Si  Si23  1  0.250000  0.227085  0.366406  1
  Si  Si24  1  0.750000  0.729977  0.133181  1
  Si  Si25  1  0.750000  0.769843  0.633493  1
  Si  Si26  1  0.750000  0.398126  0.610814  1
  P  P27  1  0.250000  0.605172  0.388970  1
  P  P28  1  0.250000  0.896796  0.888074  1
  P  P29  1  0.750000  0.100194  0.110697  1
  Ru  Ru30  1  0.250000  0.708652  0.988724  1
  Ru  Ru31  1  0.250000  0.792892  0.488842  1
  Ru  Ru32  1  0.750000  0.294985  0.014595  1
  Ru  Ru33  1  0.750000  0.201156  0.510203  1
  Ru  Ru34  1  0.250000  0.413056  0.486029  1
  Ru  Ru35  1  0.250000  0.087254  0.988829  1
