# generated using pymatgen
data_MnNi2Sb12Ru
_symmetry_space_group_name_H-M   'P 1'
_cell_length_a   8.01810723
_cell_length_b   8.00208133
_cell_length_c   9.27665994
_cell_angle_alpha   55.05877831
_cell_angle_beta   54.94109277
_cell_angle_gamma   70.95688615
_symmetry_Int_Tables_number   1
_chemical_formula_structural   MnNi2Sb12Ru
_chemical_formula_sum   'Mn1 Ni2 Sb12 Ru1'
_cell_volume   399.38393091
_cell_formula_units_Z   1
loop_
 _symmetry_equiv_pos_site_id
 _symmetry_equiv_pos_as_xyz
  1  'x, y, z'
loop_
 _atom_site_type_symbol
 _atom_site_label
 _atom_site_symmetry_multiplicity
 _atom_site_fract_x
 _atom_site_fract_y
 _atom_site_fract_z
 _atom_site_occupancy
  Mn  Mn0  1  0.000000  0.500000  0.000000  1
  Ni  Ni1  1  0.000000  0.500000  0.500000  1
  Ni  Ni2  1  0.500000  0.000000  0.500000  1
  Sb  Sb3  1  0.155319  0.159645  0.178373  1
  Sb  Sb4  1  0.844681  0.840355  0.821627  1
  Sb  Sb5  1  0.841795  0.841892  0.496737  1
  Sb  Sb6  1  0.158205  0.158108  0.503263  1
  Sb  Sb7  1  0.821089  0.504137  0.336938  1
  Sb  Sb8  1  0.178911  0.495863  0.663062  1
  Sb  Sb9  1  0.506634  0.820036  0.337989  1
  Sb  Sb10  1  0.493366  0.179964  0.662011  1
  Sb  Sb11  1  0.665583  0.340136  0.840512  1
  Sb  Sb12  1  0.334417  0.659864  0.159488  1
  Sb  Sb13  1  0.662612  0.337407  0.158348  1
  Sb  Sb14  1  0.337388  0.662593  0.841652  1
  Ru  Ru15  1  0.500000  0.000000  0.000000  1
