# generated using pymatgen
data_LaThMgZn4Sn
_symmetry_space_group_name_H-M   'P 1'
_cell_length_a   8.83856194
_cell_length_b   8.83856248
_cell_length_c   9.24191600
_cell_angle_alpha   90.00000000
_cell_angle_beta   90.00000000
_cell_angle_gamma   150.49623805
_symmetry_Int_Tables_number   1
_chemical_formula_structural   LaThMgZn4Sn
_chemical_formula_sum   'La2 Th2 Mg2 Zn8 Sn2'
_cell_volume   355.56129776
_cell_formula_units_Z   2
loop_
 _symmetry_equiv_pos_site_id
 _symmetry_equiv_pos_as_xyz
  1  'x, y, z'
loop_
 _atom_site_type_symbol
 _atom_site_label
 _atom_site_symmetry_multiplicity
 _atom_site_fract_x
 _atom_site_fract_y
 _atom_site_fract_z
 _atom_site_occupancy
  La  La0  1  0.000000  0.000000  0.500000  1
  La  La1  1  0.000000  0.000000  0.000000  1
  Th  Th2  1  0.205925  0.794075  0.250000  1
  Th  Th3  1  0.794075  0.205925  0.750000  1
  Mg  Mg4  1  0.398611  0.601389  0.250000  1
  Mg  Mg5  1  0.601389  0.398611  0.750000  1
  Zn  Zn6  1  0.813985  0.186015  0.392151  1
  Zn  Zn7  1  0.186015  0.813985  0.607849  1
  Zn  Zn8  1  0.813985  0.186015  0.107849  1
  Zn  Zn9  1  0.186015  0.813985  0.892151  1
  Zn  Zn10  1  0.662693  0.337307  0.478741  1
  Zn  Zn11  1  0.337307  0.662693  0.521259  1
  Zn  Zn12  1  0.662693  0.337307  0.021259  1
  Zn  Zn13  1  0.337307  0.662693  0.978741  1
  Sn  Sn14  1  0.562533  0.437467  0.250000  1
  Sn  Sn15  1  0.437467  0.562533  0.750000  1
