# generated using pymatgen
data_Lu8Al2IrRu
_symmetry_space_group_name_H-M   'P 1'
_cell_length_a   9.33460986
_cell_length_b   9.33461010
_cell_length_c   9.34288500
_cell_angle_alpha   59.97067483
_cell_angle_beta   59.97067398
_cell_angle_gamma   59.92078298
_symmetry_Int_Tables_number   1
_chemical_formula_structural   Lu8Al2IrRu
_chemical_formula_sum   'Lu16 Al4 Ir2 Ru2'
_cell_volume   575.04954489
_cell_formula_units_Z   2
loop_
 _symmetry_equiv_pos_site_id
 _symmetry_equiv_pos_as_xyz
  1  'x, y, z'
loop_
 _atom_site_type_symbol
 _atom_site_label
 _atom_site_symmetry_multiplicity
 _atom_site_fract_x
 _atom_site_fract_y
 _atom_site_fract_z
 _atom_site_occupancy
  Lu  Lu0  1  0.352144  0.352144  0.353899  1
  Lu  Lu1  1  0.352144  0.352144  0.941811  1
  Lu  Lu2  1  0.348993  0.947890  0.351558  1
  Lu  Lu3  1  0.947890  0.348993  0.351558  1
  Lu  Lu4  1  0.806702  0.193708  0.196056  1
  Lu  Lu5  1  0.193708  0.806702  0.803535  1
  Lu  Lu6  1  0.193708  0.806702  0.196056  1
  Lu  Lu7  1  0.806702  0.193708  0.803535  1
  Lu  Lu8  1  0.194447  0.194447  0.805553  1
  Lu  Lu9  1  0.804162  0.804162  0.195838  1
  Lu  Lu10  1  0.938045  0.559223  0.562389  1
  Lu  Lu11  1  0.559223  0.938045  0.940342  1
  Lu  Lu12  1  0.559223  0.938045  0.562389  1
  Lu  Lu13  1  0.938045  0.559223  0.940342  1
  Lu  Lu14  1  0.560286  0.560286  0.939714  1
  Lu  Lu15  1  0.937586  0.937586  0.562414  1
  Al  Al16  1  0.578407  0.578407  0.576454  1
  Al  Al17  1  0.578407  0.578407  0.266731  1
  Al  Al18  1  0.579932  0.264521  0.577774  1
  Al  Al19  1  0.264521  0.579932  0.577774  1
  Ir  Ir20  1  0.143270  0.577096  0.139817  1
  Ir  Ir21  1  0.577096  0.143270  0.139817  1
  Ru  Ru22  1  0.142677  0.142677  0.137457  1
  Ru  Ru23  1  0.142677  0.142677  0.577186  1
