# generated using pymatgen
data_Tm8Sc4Co4TcPb
_symmetry_space_group_name_H-M   'P 1'
_cell_length_a   8.05363705
_cell_length_b   8.05363779
_cell_length_c   8.05363727
_cell_angle_alpha   110.97785291
_cell_angle_beta   111.44105494
_cell_angle_gamma   106.04838664
_symmetry_Int_Tables_number   1
_chemical_formula_structural   Tm8Sc4Co4TcPb
_chemical_formula_sum   'Tm8 Sc4 Co4 Tc1 Pb1'
_cell_volume   401.04370868
_cell_formula_units_Z   1
loop_
 _symmetry_equiv_pos_site_id
 _symmetry_equiv_pos_as_xyz
  1  'x, y, z'
loop_
 _atom_site_type_symbol
 _atom_site_label
 _atom_site_symmetry_multiplicity
 _atom_site_fract_x
 _atom_site_fract_y
 _atom_site_fract_z
 _atom_site_occupancy
  Tm  Tm0  1  0.186076  0.277972  0.464048  1
  Tm  Tm1  1  0.813924  0.722028  0.535952  1
  Tm  Tm2  1  0.186076  0.722028  0.908103  1
  Tm  Tm3  1  0.813924  0.277972  0.091897  1
  Tm  Tm4  1  0.310237  0.614636  0.304398  1
  Tm  Tm5  1  0.689763  0.385364  0.695602  1
  Tm  Tm6  1  0.310237  0.005839  0.695602  1
  Tm  Tm7  1  0.689763  0.994161  0.304398  1
  Sc  Sc8  1  0.412196  0.216929  0.195268  1
  Sc  Sc9  1  0.587804  0.783071  0.804732  1
  Sc  Sc10  1  0.021660  0.216929  0.804732  1
  Sc  Sc11  1  0.978340  0.783071  0.195268  1
  Co  Co12  1  0.370931  0.000000  0.370931  1
  Co  Co13  1  0.629069  0.000000  0.629069  1
  Co  Co14  1  0.112353  0.612353  0.500000  1
  Co  Co15  1  0.887647  0.387647  0.500000  1
  Tc  Tc16  1  0.000000  0.000000  0.000000  1
  Pb  Pb17  1  0.500000  0.500000  0.000000  1
