# generated using pymatgen
data_Sm4SnI6
_symmetry_space_group_name_H-M   'P 1'
_cell_length_a   4.40310800
_cell_length_b   14.55203300
_cell_length_c   15.36396200
_cell_angle_alpha   90.00000000
_cell_angle_beta   90.00000000
_cell_angle_gamma   90.00000000
_symmetry_Int_Tables_number   1
_chemical_formula_structural   Sm4SnI6
_chemical_formula_sum   'Sm8 Sn2 I12'
_cell_volume   984.43315790
_cell_formula_units_Z   2
loop_
 _symmetry_equiv_pos_site_id
 _symmetry_equiv_pos_as_xyz
  1  'x, y, z'
loop_
 _atom_site_type_symbol
 _atom_site_label
 _atom_site_symmetry_multiplicity
 _atom_site_fract_x
 _atom_site_fract_y
 _atom_site_fract_z
 _atom_site_occupancy
  Sm  Sm0  1  0.500000  0.118557  0.341151  1
  Sm  Sm1  1  0.500000  0.881443  0.658849  1
  Sm  Sm2  1  0.500000  0.618557  0.158849  1
  Sm  Sm3  1  0.500000  0.381443  0.841151  1
  Sm  Sm4  1  0.000000  0.118579  0.578878  1
  Sm  Sm5  1  0.000000  0.881421  0.421122  1
  Sm  Sm6  1  0.000000  0.618579  0.921122  1
  Sm  Sm7  1  0.000000  0.381421  0.078878  1
  Sn  Sn8  1  0.500000  0.000000  0.500000  1
  Sn  Sn9  1  0.500000  0.500000  0.000000  1
  I  I10  1  0.500000  0.243973  0.161918  1
  I  I11  1  0.500000  0.756027  0.838082  1
  I  I12  1  0.500000  0.743973  0.338082  1
  I  I13  1  0.500000  0.256027  0.661918  1
  I  I14  1  0.000000  0.255738  0.412076  1
  I  I15  1  0.000000  0.744262  0.587924  1
  I  I16  1  0.000000  0.755738  0.087924  1
  I  I17  1  0.000000  0.244262  0.912076  1
  I  I18  1  0.000000  0.000809  0.242908  1
  I  I19  1  0.000000  0.999191  0.757092  1
  I  I20  1  0.000000  0.500809  0.257092  1
  I  I21  1  0.000000  0.499191  0.742908  1
