# generated using pymatgen
data_KTeAuO6
_symmetry_space_group_name_H-M   'P 1'
_cell_length_a   5.31292200
_cell_length_b   5.31292164
_cell_length_c   6.20012700
_cell_angle_alpha   90.00000000
_cell_angle_beta   90.00000000
_cell_angle_gamma   120.00000227
_symmetry_Int_Tables_number   1
_chemical_formula_structural   KTeAuO6
_chemical_formula_sum   'K1 Te1 Au1 O6'
_cell_volume   151.56469764
_cell_formula_units_Z   1
loop_
 _symmetry_equiv_pos_site_id
 _symmetry_equiv_pos_as_xyz
  1  'x, y, z'
loop_
 _atom_site_type_symbol
 _atom_site_label
 _atom_site_symmetry_multiplicity
 _atom_site_fract_x
 _atom_site_fract_y
 _atom_site_fract_z
 _atom_site_occupancy
  K  K0  1  0.000000  0.000000  0.000000  1
  Te  Te1  1  0.666667  0.333333  0.500000  1
  Au  Au2  1  0.333333  0.666667  0.500000  1
  O  O3  1  0.377111  0.011505  0.678450  1
  O  O4  1  0.988495  0.365606  0.678450  1
  O  O5  1  0.634394  0.622889  0.678450  1
  O  O6  1  0.988495  0.622889  0.321550  1
  O  O7  1  0.634394  0.011505  0.321550  1
  O  O8  1  0.377111  0.365606  0.321550  1
