# generated using pymatgen
data_Tb2Dy2PBr6
_symmetry_space_group_name_H-M   'P 1'
_cell_length_a   4.01507600
_cell_length_b   13.18017500
_cell_length_c   13.88975500
_cell_angle_alpha   90.00000000
_cell_angle_beta   90.00000000
_cell_angle_gamma   90.00000000
_symmetry_Int_Tables_number   1
_chemical_formula_structural   Tb2Dy2PBr6
_chemical_formula_sum   'Tb4 Dy4 P2 Br12'
_cell_volume   735.03756073
_cell_formula_units_Z   2
loop_
 _symmetry_equiv_pos_site_id
 _symmetry_equiv_pos_as_xyz
  1  'x, y, z'
loop_
 _atom_site_type_symbol
 _atom_site_label
 _atom_site_symmetry_multiplicity
 _atom_site_fract_x
 _atom_site_fract_y
 _atom_site_fract_z
 _atom_site_occupancy
  Tb  Tb0  1  0.000000  0.115259  0.576624  1
  Tb  Tb1  1  0.000000  0.884741  0.423376  1
  Tb  Tb2  1  0.000000  0.615259  0.923376  1
  Tb  Tb3  1  0.000000  0.384741  0.076624  1
  Dy  Dy4  1  0.500000  0.117084  0.343184  1
  Dy  Dy5  1  0.500000  0.882916  0.656816  1
  Dy  Dy6  1  0.500000  0.617084  0.156816  1
  Dy  Dy7  1  0.500000  0.382916  0.843184  1
  P  P8  1  0.500000  0.000000  0.500000  1
  P  P9  1  0.500000  0.500000  0.000000  1
  Br  Br10  1  0.500000  0.242614  0.163312  1
  Br  Br11  1  0.500000  0.757386  0.836688  1
  Br  Br12  1  0.500000  0.742614  0.336688  1
  Br  Br13  1  0.500000  0.257386  0.663312  1
  Br  Br14  1  0.000000  0.256255  0.412009  1
  Br  Br15  1  0.000000  0.743745  0.587991  1
  Br  Br16  1  0.000000  0.756255  0.087991  1
  Br  Br17  1  0.000000  0.243745  0.912009  1
  Br  Br18  1  0.000000  0.001077  0.242519  1
  Br  Br19  1  0.000000  0.998923  0.757481  1
  Br  Br20  1  0.000000  0.501077  0.257481  1
  Br  Br21  1  0.000000  0.498923  0.742519  1
