# generated using pymatgen
data_Er2Tm2Tc3Os5
_symmetry_space_group_name_H-M   'P 1'
_cell_length_a   5.28109700
_cell_length_b   5.28007609
_cell_length_c   8.87413800
_cell_angle_alpha   90.00197494
_cell_angle_beta   89.99761317
_cell_angle_gamma   119.99798219
_symmetry_Int_Tables_number   1
_chemical_formula_structural   Er2Tm2Tc3Os5
_chemical_formula_sum   'Er2 Tm2 Tc3 Os5'
_cell_volume   214.30384607
_cell_formula_units_Z   1
loop_
 _symmetry_equiv_pos_site_id
 _symmetry_equiv_pos_as_xyz
  1  'x, y, z'
loop_
 _atom_site_type_symbol
 _atom_site_label
 _atom_site_symmetry_multiplicity
 _atom_site_fract_x
 _atom_site_fract_y
 _atom_site_fract_z
 _atom_site_occupancy
  Er  Er0  1  0.668702  0.334348  0.936721  1
  Er  Er1  1  0.335807  0.667924  0.064375  1
  Tm  Tm2  1  0.335790  0.667896  0.435778  1
  Tm  Tm3  1  0.668652  0.334326  0.563280  1
  Tc  Tc4  1  0.168253  0.339913  0.749541  1
  Tc  Tc5  1  0.168237  0.828331  0.749541  1
  Tc  Tc6  1  0.334609  0.167319  0.250483  1
  Os  Os7  1  0.823179  0.651538  0.250258  1
  Os  Os8  1  0.649900  0.824952  0.749691  1
  Os  Os9  1  0.011940  0.005953  0.000226  1
  Os  Os10  1  0.823140  0.171621  0.250276  1
  Os  Os11  1  0.011792  0.005882  0.499830  1
