# generated using pymatgen
data_Nd2SmCd(Mo2O7)2
_symmetry_space_group_name_H-M   'P 1'
_cell_length_a   7.37698828
_cell_length_b   7.56620077
_cell_length_c   7.54005203
_cell_angle_alpha   120.37683568
_cell_angle_beta   119.99433751
_cell_angle_gamma   90.35095878
_symmetry_Int_Tables_number   1
_chemical_formula_structural   Nd2SmCd(Mo2O7)2
_chemical_formula_sum   'Nd2 Sm1 Cd1 Mo4 O14'
_cell_volume   294.96833826
_cell_formula_units_Z   1
loop_
 _symmetry_equiv_pos_site_id
 _symmetry_equiv_pos_as_xyz
  1  'x, y, z'
loop_
 _atom_site_type_symbol
 _atom_site_label
 _atom_site_symmetry_multiplicity
 _atom_site_fract_x
 _atom_site_fract_y
 _atom_site_fract_z
 _atom_site_occupancy
  Nd  Nd0  1  0.375000  0.625000  0.750000  1
  Nd  Nd1  1  0.375000  0.125000  0.750000  1
  Sm  Sm2  1  0.375000  0.625000  0.250000  1
  Cd  Cd3  1  0.875000  0.625000  0.250000  1
  Mo  Mo4  1  0.875000  0.625000  0.750000  1
  Mo  Mo5  1  0.375000  0.125000  0.250000  1
  Mo  Mo6  1  0.875000  0.125000  0.250000  1
  Mo  Mo7  1  0.875000  0.125000  0.750000  1
  O  O8  1  0.789208  0.184114  0.985075  1
  O  O9  1  0.538957  0.463166  0.488808  1
  O  O10  1  0.205492  0.212374  0.001756  1
  O  O11  1  0.955344  0.450697  0.502666  1
  O  O12  1  0.800162  0.809448  0.600922  1
  O  O13  1  0.529347  0.038294  0.073802  1
  O  O14  1  0.238738  0.744094  0.489443  1
  O  O15  1  0.949838  0.440552  0.899078  1
  O  O16  1  0.960792  0.065886  0.514925  1
  O  O17  1  0.544508  0.037626  0.498244  1
  O  O18  1  0.220653  0.211706  0.426198  1
  O  O19  1  0.511262  0.505906  0.010557  1
  O  O20  1  0.794656  0.799303  0.997334  1
  O  O21  1  0.211043  0.786834  0.011192  1
