# generated using pymatgen
data_Na2Ni9As7Ru3
_symmetry_space_group_name_H-M   'P 1'
_cell_length_a   9.49359300
_cell_length_b   9.49359350
_cell_length_c   3.77624500
_cell_angle_alpha   90.00000000
_cell_angle_beta   90.00000000
_cell_angle_gamma   120.00000174
_symmetry_Int_Tables_number   1
_chemical_formula_structural   Na2Ni9As7Ru3
_chemical_formula_sum   'Na2 Ni9 As7 Ru3'
_cell_volume   294.74878834
_cell_formula_units_Z   1
loop_
 _symmetry_equiv_pos_site_id
 _symmetry_equiv_pos_as_xyz
  1  'x, y, z'
loop_
 _atom_site_type_symbol
 _atom_site_label
 _atom_site_symmetry_multiplicity
 _atom_site_fract_x
 _atom_site_fract_y
 _atom_site_fract_z
 _atom_site_occupancy
  Na  Na0  1  0.333333  0.666667  0.000000  1
  Na  Na1  1  0.666667  0.333333  0.500000  1
  Ni  Ni2  1  0.121394  0.285131  0.000000  1
  Ni  Ni3  1  0.714869  0.836263  0.000000  1
  Ni  Ni4  1  0.163737  0.878606  0.000000  1
  Ni  Ni5  1  0.430502  0.375330  0.000000  1
  Ni  Ni6  1  0.624670  0.055173  0.000000  1
  Ni  Ni7  1  0.944827  0.569498  0.000000  1
  Ni  Ni8  1  0.049460  0.434959  0.500000  1
  Ni  Ni9  1  0.565041  0.614501  0.500000  1
  Ni  Ni10  1  0.385499  0.950540  0.500000  1
  As  As11  1  0.290774  0.410754  0.500000  1
  As  As12  1  0.589246  0.880020  0.500000  1
  As  As13  1  0.119980  0.709226  0.500000  1
  As  As14  1  0.414701  0.121840  0.000000  1
  As  As15  1  0.878160  0.292861  0.000000  1
  As  As16  1  0.707139  0.585299  0.000000  1
  As  As17  1  0.000000  0.000000  0.000000  1
  Ru  Ru18  1  0.212375  0.118285  0.500000  1
  Ru  Ru19  1  0.881715  0.094090  0.500000  1
  Ru  Ru20  1  0.905910  0.787625  0.500000  1
