# generated using pymatgen
data_Ho8Er4InCo4Cu
_symmetry_space_group_name_H-M   'P 1'
_cell_length_a   8.24899189
_cell_length_b   8.24913462
_cell_length_c   8.24899242
_cell_angle_alpha   111.09914698
_cell_angle_beta   110.75053592
_cell_angle_gamma   106.60105400
_symmetry_Int_Tables_number   1
_chemical_formula_structural   Ho8Er4InCo4Cu
_chemical_formula_sum   'Ho8 Er4 In1 Co4 Cu1'
_cell_volume   431.29549353
_cell_formula_units_Z   1
loop_
 _symmetry_equiv_pos_site_id
 _symmetry_equiv_pos_as_xyz
  1  'x, y, z'
loop_
 _atom_site_type_symbol
 _atom_site_label
 _atom_site_symmetry_multiplicity
 _atom_site_fract_x
 _atom_site_fract_y
 _atom_site_fract_z
 _atom_site_occupancy
  Ho  Ho0  1  0.185702  0.290028  0.475727  1
  Ho  Ho1  1  0.814298  0.709972  0.524273  1
  Ho  Ho2  1  0.185699  0.709972  0.895673  1
  Ho  Ho3  1  0.814301  0.290028  0.104327  1
  Ho  Ho4  1  0.417404  0.218365  0.199046  1
  Ho  Ho5  1  0.582596  0.781635  0.800954  1
  Ho  Ho6  1  0.019319  0.218365  0.800961  1
  Ho  Ho7  1  0.980681  0.781635  0.199039  1
  Er  Er8  1  0.316068  0.621208  0.305140  1
  Er  Er9  1  0.683932  0.378792  0.694860  1
  Er  Er10  1  0.316055  0.010930  0.694878  1
  Er  Er11  1  0.683945  0.989070  0.305122  1
  In  In12  1  0.500000  0.500000  0.000000  1
  Co  Co13  1  0.112909  0.612912  0.500003  1
  Co  Co14  1  0.887091  0.387088  0.499997  1
  Co  Co15  1  0.376122  0.000000  0.376122  1
  Co  Co16  1  0.623878  0.000000  0.623878  1
  Cu  Cu17  1  0.000000  0.000000  0.000000  1
