# generated using pymatgen
data_Ti4In(Re5Tc3)3
_symmetry_space_group_name_H-M   'P 1'
_cell_length_a   8.37134437
_cell_length_b   8.37134426
_cell_length_c   8.37134411
_cell_angle_alpha   109.48037977
_cell_angle_beta   109.48037798
_cell_angle_gamma   109.48038068
_symmetry_Int_Tables_number   1
_chemical_formula_structural   Ti4In(Re5Tc3)3
_chemical_formula_sum   'Ti4 In1 Re15 Tc9'
_cell_volume   451.45696524
_cell_formula_units_Z   1
loop_
 _symmetry_equiv_pos_site_id
 _symmetry_equiv_pos_as_xyz
  1  'x, y, z'
loop_
 _atom_site_type_symbol
 _atom_site_label
 _atom_site_symmetry_multiplicity
 _atom_site_fract_x
 _atom_site_fract_y
 _atom_site_fract_z
 _atom_site_occupancy
  Ti  Ti0  1  0.632461  0.000007  0.000007  1
  Ti  Ti1  1  0.000007  0.632461  0.000007  1
  Ti  Ti2  1  0.000007  0.000007  0.632461  1
  Ti  Ti3  1  0.367351  0.367351  0.367351  1
  In  In4  1  0.999962  0.999962  0.999962  1
  Re  Re5  1  0.601635  0.601635  0.282014  1
  Re  Re6  1  0.282014  0.601635  0.601635  1
  Re  Re7  1  0.601635  0.282014  0.601635  1
  Re  Re8  1  0.377150  0.194452  0.000150  1
  Re  Re9  1  0.182782  0.805696  0.805696  1
  Re  Re10  1  0.377150  0.000150  0.194452  1
  Re  Re11  1  0.194452  0.377150  0.000150  1
  Re  Re12  1  0.000150  0.377150  0.194452  1
  Re  Re13  1  0.805696  0.182782  0.805696  1
  Re  Re14  1  0.805696  0.805696  0.182782  1
  Re  Re15  1  0.000150  0.194452  0.377150  1
  Re  Re16  1  0.194452  0.000150  0.377150  1
  Re  Re17  1  0.622833  0.622833  0.816913  1
  Re  Re18  1  0.816913  0.622833  0.622833  1
  Re  Re19  1  0.622833  0.816913  0.622833  1
  Tc  Tc20  1  0.398421  0.680514  0.000099  1
  Tc  Tc21  1  0.717920  0.319343  0.319343  1
  Tc  Tc22  1  0.398421  0.000099  0.680514  1
  Tc  Tc23  1  0.680514  0.398421  0.000099  1
  Tc  Tc24  1  0.000099  0.398421  0.680514  1
  Tc  Tc25  1  0.319343  0.717920  0.319343  1
  Tc  Tc26  1  0.319343  0.319343  0.717920  1
  Tc  Tc27  1  0.000099  0.680514  0.398421  1
  Tc  Tc28  1  0.680514  0.000099  0.398421  1
