# generated using pymatgen
data_TbEr2Sn3Ir2Pd
_symmetry_space_group_name_H-M   'P 1'
_cell_length_a   7.57282531
_cell_length_b   7.58560144
_cell_length_c   3.89096700
_cell_angle_alpha   90.00000000
_cell_angle_beta   90.00000000
_cell_angle_gamma   120.11392047
_symmetry_Int_Tables_number   1
_chemical_formula_structural   TbEr2Sn3Ir2Pd
_chemical_formula_sum   'Tb1 Er2 Sn3 Ir2 Pd1'
_cell_volume   193.34656015
_cell_formula_units_Z   1
loop_
 _symmetry_equiv_pos_site_id
 _symmetry_equiv_pos_as_xyz
  1  'x, y, z'
loop_
 _atom_site_type_symbol
 _atom_site_label
 _atom_site_symmetry_multiplicity
 _atom_site_fract_x
 _atom_site_fract_y
 _atom_site_fract_z
 _atom_site_occupancy
  Tb  Tb0  1  0.396748  0.409142  0.500000  1
  Er  Er1  1  0.591376  0.987000  0.500000  1
  Er  Er2  1  0.013227  0.604820  0.500000  1
  Sn  Sn3  1  0.741136  0.738193  0.000000  1
  Sn  Sn4  1  0.262374  0.001921  0.000000  1
  Sn  Sn5  1  0.995821  0.259166  0.000000  1
  Ir  Ir6  1  0.332521  0.668753  0.000000  1
  Ir  Ir7  1  0.998312  0.998240  0.500000  1
  Pd  Pd8  1  0.668487  0.332766  0.000000  1
