# generated using pymatgen
data_Pr6Ho3ErPb6
_symmetry_space_group_name_H-M   'P 1'
_cell_length_a   9.30272700
_cell_length_b   9.30272646
_cell_length_c   6.79191500
_cell_angle_alpha   90.00000000
_cell_angle_beta   90.00000000
_cell_angle_gamma   120.00000546
_symmetry_Int_Tables_number   1
_chemical_formula_structural   Pr6Ho3ErPb6
_chemical_formula_sum   'Pr6 Ho3 Er1 Pb6'
_cell_volume   509.02999874
_cell_formula_units_Z   1
loop_
 _symmetry_equiv_pos_site_id
 _symmetry_equiv_pos_as_xyz
  1  'x, y, z'
loop_
 _atom_site_type_symbol
 _atom_site_label
 _atom_site_symmetry_multiplicity
 _atom_site_fract_x
 _atom_site_fract_y
 _atom_site_fract_z
 _atom_site_occupancy
  Pr  Pr0  1  0.239836  0.999971  0.249973  1
  Pr  Pr1  1  0.239836  0.239865  0.750027  1
  Pr  Pr2  1  0.000029  0.760164  0.750027  1
  Pr  Pr3  1  0.000029  0.239865  0.249973  1
  Pr  Pr4  1  0.760135  0.760164  0.249973  1
  Pr  Pr5  1  0.760135  0.999971  0.750027  1
  Ho  Ho6  1  0.666667  0.333333  0.500000  1
  Ho  Ho7  1  0.666667  0.333333  0.000000  1
  Ho  Ho8  1  0.333333  0.666667  0.500000  1
  Er  Er9  1  0.333333  0.666667  0.000000  1
  Pb  Pb10  1  0.600745  0.999913  0.249933  1
  Pb  Pb11  1  0.600745  0.600833  0.750067  1
  Pb  Pb12  1  0.000087  0.399255  0.750067  1
  Pb  Pb13  1  0.000087  0.600833  0.249933  1
  Pb  Pb14  1  0.399167  0.399255  0.249933  1
  Pb  Pb15  1  0.399167  0.999913  0.750067  1
