# generated using pymatgen
data_Y3TiGa2Ir3
_symmetry_space_group_name_H-M   'P 1'
_cell_length_a   7.03699971
_cell_length_b   7.03699807
_cell_length_c   4.17168600
_cell_angle_alpha   90.00000000
_cell_angle_beta   90.00000000
_cell_angle_gamma   121.14959465
_symmetry_Int_Tables_number   1
_chemical_formula_structural   Y3TiGa2Ir3
_chemical_formula_sum   'Y3 Ti1 Ga2 Ir3'
_cell_volume   176.79453424
_cell_formula_units_Z   1
loop_
 _symmetry_equiv_pos_site_id
 _symmetry_equiv_pos_as_xyz
  1  'x, y, z'
loop_
 _atom_site_type_symbol
 _atom_site_label
 _atom_site_symmetry_multiplicity
 _atom_site_fract_x
 _atom_site_fract_y
 _atom_site_fract_z
 _atom_site_occupancy
  Y  Y0  1  0.399321  0.399321  0.500000  1
  Y  Y1  1  0.581839  0.008752  0.500000  1
  Y  Y2  1  0.008752  0.581839  0.500000  1
  Ti  Ti3  1  0.769534  0.769534  0.000000  1
  Ga  Ga4  1  0.242951  0.997319  0.000000  1
  Ga  Ga5  1  0.997319  0.242951  0.000000  1
  Ir  Ir6  1  0.667343  0.350627  0.000000  1
  Ir  Ir7  1  0.350627  0.667343  0.000000  1
  Ir  Ir8  1  0.982315  0.982315  0.500000  1
