# generated using pymatgen
data_Li2CdPb3O8
_symmetry_space_group_name_H-M   'P 1'
_cell_length_a   6.40073640
_cell_length_b   6.40073697
_cell_length_c   6.40073787
_cell_angle_alpha   63.11465136
_cell_angle_beta   63.11464694
_cell_angle_gamma   63.11463760
_symmetry_Int_Tables_number   1
_chemical_formula_structural   Li2CdPb3O8
_chemical_formula_sum   'Li2 Cd1 Pb3 O8'
_cell_volume   198.23816594
_cell_formula_units_Z   1
loop_
 _symmetry_equiv_pos_site_id
 _symmetry_equiv_pos_as_xyz
  1  'x, y, z'
loop_
 _atom_site_type_symbol
 _atom_site_label
 _atom_site_symmetry_multiplicity
 _atom_site_fract_x
 _atom_site_fract_y
 _atom_site_fract_z
 _atom_site_occupancy
  Li  Li0  1  0.625791  0.625791  0.625791  1
  Li  Li1  1  0.242903  0.242903  0.242903  1
  Cd  Cd2  1  0.017259  0.017259  0.017259  1
  Pb  Pb3  1  0.623779  0.130275  0.623779  1
  Pb  Pb4  1  0.130275  0.623779  0.623779  1
  Pb  Pb5  1  0.623779  0.623779  0.130275  1
  O  O6  1  0.869750  0.869750  0.869750  1
  O  O7  1  0.858980  0.419530  0.858980  1
  O  O8  1  0.419530  0.858980  0.858980  1
  O  O9  1  0.858980  0.858980  0.419530  1
  O  O10  1  0.377198  0.377198  0.377198  1
  O  O11  1  0.377555  0.846669  0.377555  1
  O  O12  1  0.846669  0.377555  0.377555  1
  O  O13  1  0.377555  0.377555  0.846669  1
