# generated using pymatgen
data_Tb4Y3Er(ReB6)4
_symmetry_space_group_name_H-M   'P 1'
_cell_length_a   3.68950700
_cell_length_b   9.18759203
_cell_length_c   11.57850804
_cell_angle_alpha   90.00910997
_cell_angle_beta   90.00000000
_cell_angle_gamma   90.00000000
_symmetry_Int_Tables_number   1
_chemical_formula_structural   Tb4Y3Er(ReB6)4
_chemical_formula_sum   'Tb4 Y3 Er1 Re4 B24'
_cell_volume   392.48461444
_cell_formula_units_Z   1
loop_
 _symmetry_equiv_pos_site_id
 _symmetry_equiv_pos_as_xyz
  1  'x, y, z'
loop_
 _atom_site_type_symbol
 _atom_site_label
 _atom_site_symmetry_multiplicity
 _atom_site_fract_x
 _atom_site_fract_y
 _atom_site_fract_z
 _atom_site_occupancy
  Tb  Tb0  1  0.000000  0.323781  0.413954  1
  Tb  Tb1  1  0.000000  0.676204  0.586287  1
  Tb  Tb2  1  0.000000  0.823524  0.085942  1
  Tb  Tb3  1  0.000000  0.176472  0.913880  1
  Y  Y4  1  0.000000  0.943168  0.370056  1
  Y  Y5  1  0.000000  0.056842  0.630123  1
  Y  Y6  1  0.000000  0.443338  0.129472  1
  Er  Er7  1  0.000000  0.556950  0.869692  1
  Re  Re8  1  0.000000  0.638609  0.320796  1
  Re  Re9  1  0.000000  0.361865  0.679738  1
  Re  Re10  1  0.000000  0.138715  0.179040  1
  Re  Re11  1  0.000000  0.860388  0.820912  1
  B  B12  1  0.500000  0.553533  0.432642  1
  B  B13  1  0.500000  0.446529  0.567607  1
  B  B14  1  0.500000  0.053482  0.067348  1
  B  B15  1  0.500000  0.946210  0.932543  1
  B  B16  1  0.500000  0.748806  0.418211  1
  B  B17  1  0.500000  0.251320  0.581881  1
  B  B18  1  0.500000  0.248872  0.081735  1
  B  B19  1  0.500000  0.750271  0.918095  1
  B  B20  1  0.500000  0.791813  0.265477  1
  B  B21  1  0.500000  0.208483  0.734599  1
  B  B22  1  0.500000  0.291891  0.234467  1
  B  B23  1  0.500000  0.707481  0.765843  1
  B  B24  1  0.500000  0.631062  0.185758  1
  B  B25  1  0.500000  0.369687  0.814475  1
  B  B26  1  0.500000  0.131120  0.314133  1
  B  B27  1  0.500000  0.868673  0.686022  1
  B  B28  1  0.500000  0.982780  0.211792  1
  B  B29  1  0.500000  0.017071  0.788281  1
  B  B30  1  0.500000  0.482756  0.288155  1
  B  B31  1  0.500000  0.517554  0.712431  1
  B  B32  1  0.500000  0.599736  0.027057  1
  B  B33  1  0.500000  0.400999  0.971476  1
  B  B34  1  0.500000  0.100144  0.472077  1
  B  B35  1  0.500000  0.899870  0.528003  1
