# generated using pymatgen
data_Rb4Ba(AsSe4)2
_symmetry_space_group_name_H-M   'P 1'
_cell_length_a   12.45732411
_cell_length_b   12.45732397
_cell_length_c   12.45732376
_cell_angle_alpha   133.51443273
_cell_angle_beta   128.60075599
_cell_angle_gamma   71.79443427
_symmetry_Int_Tables_number   1
_chemical_formula_structural   Rb4Ba(AsSe4)2
_chemical_formula_sum   'Rb8 Ba2 As4 Se16'
_cell_volume   1071.98181082
_cell_formula_units_Z   2
loop_
 _symmetry_equiv_pos_site_id
 _symmetry_equiv_pos_as_xyz
  1  'x, y, z'
loop_
 _atom_site_type_symbol
 _atom_site_label
 _atom_site_symmetry_multiplicity
 _atom_site_fract_x
 _atom_site_fract_y
 _atom_site_fract_z
 _atom_site_occupancy
  Rb  Rb0  1  0.414611  0.300261  0.885650  1
  Rb  Rb1  1  0.585389  0.699739  0.114350  1
  Rb  Rb2  1  0.914611  0.528961  0.614350  1
  Rb  Rb3  1  0.085389  0.471039  0.385650  1
  Rb  Rb4  1  0.485778  0.235778  0.250000  1
  Rb  Rb5  1  0.014222  0.764222  0.250000  1
  Rb  Rb6  1  0.514222  0.764222  0.750000  1
  Rb  Rb7  1  0.985778  0.235778  0.750000  1
  Ba  Ba8  1  0.250000  0.000000  0.250000  1
  Ba  Ba9  1  0.750000  0.000000  0.750000  1
  As  As10  1  0.873507  0.080401  0.206895  1
  As  As11  1  0.126493  0.919599  0.793105  1
  As  As12  1  0.373507  0.666612  0.293105  1
  As  As13  1  0.626493  0.333388  0.706895  1
  Se  Se14  1  0.240080  0.981860  0.741780  1
  Se  Se15  1  0.759920  0.018140  0.258220  1
  Se  Se16  1  0.740080  0.498301  0.758220  1
  Se  Se17  1  0.259920  0.501699  0.241780  1
  Se  Se18  1  0.247713  0.774215  0.876264  1
  Se  Se19  1  0.102049  0.225785  0.473498  1
  Se  Se20  1  0.397951  0.371449  0.623736  1
  Se  Se21  1  0.252287  0.628551  0.026502  1
  Se  Se22  1  0.752287  0.225785  0.123736  1
  Se  Se23  1  0.897951  0.774215  0.526502  1
  Se  Se24  1  0.602049  0.628551  0.376264  1
  Se  Se25  1  0.747713  0.371449  0.973498  1
  Se  Se26  1  0.392235  0.923893  0.531658  1
  Se  Se27  1  0.607765  0.076107  0.468342  1
  Se  Se28  1  0.892235  0.860577  0.968342  1
  Se  Se29  1  0.107765  0.139423  0.031658  1
