# generated using pymatgen
data_Ca2DyUN4
_symmetry_space_group_name_H-M   'P 1'
_cell_length_a   6.08782524
_cell_length_b   6.09026238
_cell_length_c   4.88681527
_cell_angle_alpha   66.38523170
_cell_angle_beta   66.36660460
_cell_angle_gamma   47.29783859
_symmetry_Int_Tables_number   1
_chemical_formula_structural   Ca2DyUN4
_chemical_formula_sum   'Ca2 Dy1 U1 N4'
_cell_volume   119.73397057
_cell_formula_units_Z   1
loop_
 _symmetry_equiv_pos_site_id
 _symmetry_equiv_pos_as_xyz
  1  'x, y, z'
loop_
 _atom_site_type_symbol
 _atom_site_label
 _atom_site_symmetry_multiplicity
 _atom_site_fract_x
 _atom_site_fract_y
 _atom_site_fract_z
 _atom_site_occupancy
  Ca  Ca0  1  0.247285  0.252689  0.252714  1
  Ca  Ca1  1  0.497106  0.502896  0.502892  1
  Dy  Dy2  1  0.747097  0.752865  0.752907  1
  U  U3  1  0.996812  0.003269  0.003162  1
  N  N4  1  0.987305  0.993352  0.513177  1
  N  N5  1  0.208865  0.214986  0.790908  1
  N  N6  1  0.506225  0.513091  0.993348  1
  N  N7  1  0.785241  0.790919  0.214957  1
