# generated using pymatgen
data_NdHo3(Si3Rh)2
_symmetry_space_group_name_H-M   'P 1'
_cell_length_a   8.18955300
_cell_length_b   8.18955330
_cell_length_c   7.99208500
_cell_angle_alpha   90.00000000
_cell_angle_beta   90.00000000
_cell_angle_gamma   120.00000283
_symmetry_Int_Tables_number   1
_chemical_formula_structural   NdHo3(Si3Rh)2
_chemical_formula_sum   'Nd2 Ho6 Si12 Rh4'
_cell_volume   464.20640138
_cell_formula_units_Z   2
loop_
 _symmetry_equiv_pos_site_id
 _symmetry_equiv_pos_as_xyz
  1  'x, y, z'
loop_
 _atom_site_type_symbol
 _atom_site_label
 _atom_site_symmetry_multiplicity
 _atom_site_fract_x
 _atom_site_fract_y
 _atom_site_fract_z
 _atom_site_occupancy
  Nd  Nd0  1  0.000000  0.000000  0.250000  1
  Nd  Nd1  1  0.000000  0.000000  0.750000  1
  Ho  Ho2  1  0.508867  0.491133  0.250000  1
  Ho  Ho3  1  0.508867  0.017734  0.250000  1
  Ho  Ho4  1  0.982266  0.491133  0.250000  1
  Ho  Ho5  1  0.491133  0.508867  0.750000  1
  Ho  Ho6  1  0.491133  0.982266  0.750000  1
  Ho  Ho7  1  0.017734  0.508867  0.750000  1
  Si  Si8  1  0.168324  0.831676  0.500222  1
  Si  Si9  1  0.168324  0.336647  0.500222  1
  Si  Si10  1  0.663353  0.831676  0.500222  1
  Si  Si11  1  0.831676  0.168324  0.499778  1
  Si  Si12  1  0.831676  0.663353  0.499778  1
  Si  Si13  1  0.336647  0.168324  0.499778  1
  Si  Si14  1  0.831676  0.168324  0.000222  1
  Si  Si15  1  0.831676  0.663353  0.000222  1
  Si  Si16  1  0.336647  0.168324  0.000222  1
  Si  Si17  1  0.168324  0.831676  0.999778  1
  Si  Si18  1  0.168324  0.336647  0.999778  1
  Si  Si19  1  0.663353  0.831676  0.999778  1
  Rh  Rh20  1  0.333333  0.666667  0.465889  1
  Rh  Rh21  1  0.666667  0.333333  0.534111  1
  Rh  Rh22  1  0.666667  0.333333  0.965889  1
  Rh  Rh23  1  0.333333  0.666667  0.034111  1
