# generated using pymatgen
data_LaPa2F12
_symmetry_space_group_name_H-M   'P 1'
_cell_length_a   8.51796979
_cell_length_b   8.51796927
_cell_length_c   8.53682442
_cell_angle_alpha   63.26490764
_cell_angle_beta   63.26490651
_cell_angle_gamma   80.40479184
_symmetry_Int_Tables_number   1
_chemical_formula_structural   LaPa2F12
_chemical_formula_sum   'La2 Pa4 F24'
_cell_volume   493.54816399
_cell_formula_units_Z   2
loop_
 _symmetry_equiv_pos_site_id
 _symmetry_equiv_pos_as_xyz
  1  'x, y, z'
loop_
 _atom_site_type_symbol
 _atom_site_label
 _atom_site_symmetry_multiplicity
 _atom_site_fract_x
 _atom_site_fract_y
 _atom_site_fract_z
 _atom_site_occupancy
  La  La0  1  0.787384  0.212616  0.250000  1
  La  La1  1  0.212616  0.787384  0.750000  1
  Pa  Pa2  1  0.634208  0.776845  0.167211  1
  Pa  Pa3  1  0.776845  0.634208  0.667211  1
  Pa  Pa4  1  0.365792  0.223155  0.832789  1
  Pa  Pa5  1  0.223155  0.365792  0.332789  1
  F  F6  1  0.741005  0.683495  0.395835  1
  F  F7  1  0.586042  0.192604  0.583501  1
  F  F8  1  0.729038  0.507911  0.221390  1
  F  F9  1  0.316505  0.258995  0.104165  1
  F  F10  1  0.079910  0.173479  0.034068  1
  F  F11  1  0.192604  0.586042  0.083501  1
  F  F12  1  0.413958  0.807396  0.416499  1
  F  F13  1  0.395364  0.604636  0.250000  1
  F  F14  1  0.604636  0.395364  0.750000  1
  F  F15  1  0.507911  0.729038  0.721390  1
  F  F16  1  0.826521  0.920090  0.465932  1
  F  F17  1  0.173479  0.079910  0.534068  1
  F  F18  1  0.270962  0.492089  0.778610  1
  F  F19  1  0.258995  0.316505  0.604165  1
  F  F20  1  0.716715  0.021467  0.149720  1
  F  F21  1  0.000000  0.500000  0.500000  1
  F  F22  1  0.978533  0.283285  0.350280  1
  F  F23  1  0.807396  0.413958  0.916499  1
  F  F24  1  0.492089  0.270962  0.278610  1
  F  F25  1  0.920090  0.826521  0.965932  1
  F  F26  1  0.283285  0.978533  0.850280  1
  F  F27  1  0.683495  0.741005  0.895835  1
  F  F28  1  0.021467  0.716715  0.649720  1
  F  F29  1  0.500000  0.000000  0.000000  1
