# generated using pymatgen
data_Tb11Cd9IrPd3
_symmetry_space_group_name_H-M   'P 1'
_cell_length_a   13.18036485
_cell_length_b   13.22112364
_cell_length_c   3.72375200
_cell_angle_alpha   90.00000000
_cell_angle_beta   90.00000000
_cell_angle_gamma   113.09795977
_symmetry_Int_Tables_number   1
_chemical_formula_structural   Tb11Cd9IrPd3
_chemical_formula_sum   'Tb11 Cd9 Ir1 Pd3'
_cell_volume   596.87955018
_cell_formula_units_Z   1
loop_
 _symmetry_equiv_pos_site_id
 _symmetry_equiv_pos_as_xyz
  1  'x, y, z'
loop_
 _atom_site_type_symbol
 _atom_site_label
 _atom_site_symmetry_multiplicity
 _atom_site_fract_x
 _atom_site_fract_y
 _atom_site_fract_z
 _atom_site_occupancy
  Tb  Tb0  1  0.416719  0.079948  0.000000  1
  Tb  Tb1  1  0.584395  0.925998  0.000000  1
  Tb  Tb2  1  0.074193  0.416097  0.000000  1
  Tb  Tb3  1  0.924997  0.584488  0.000000  1
  Tb  Tb4  1  0.162985  0.837855  0.000000  1
  Tb  Tb5  1  0.836553  0.162030  0.000000  1
  Tb  Tb6  1  0.372344  0.627459  0.000000  1
  Tb  Tb7  1  0.622095  0.368167  0.000000  1
  Tb  Tb8  1  0.311770  0.304308  0.000000  1
  Tb  Tb9  1  0.693251  0.693014  0.000000  1
  Tb  Tb10  1  0.000773  0.999997  0.000000  1
  Cd  Cd11  1  0.366299  0.842476  0.500000  1
  Cd  Cd12  1  0.634583  0.157010  0.500000  1
  Cd  Cd13  1  0.842792  0.365385  0.500000  1
  Cd  Cd14  1  0.157243  0.633574  0.500000  1
  Cd  Cd15  1  0.214043  0.068722  0.500000  1
  Cd  Cd16  1  0.785959  0.931002  0.500000  1
  Cd  Cd17  1  0.068752  0.214428  0.500000  1
  Cd  Cd18  1  0.930876  0.786190  0.500000  1
  Cd  Cd19  1  0.499876  0.500351  0.500000  1
  Ir  Ir20  1  0.450135  0.250017  0.500000  1
  Pd  Pd21  1  0.549300  0.750377  0.500000  1
  Pd  Pd22  1  0.250053  0.451534  0.500000  1
  Pd  Pd23  1  0.750013  0.549574  0.500000  1
