# generated using pymatgen
data_SrPrPt4
_symmetry_space_group_name_H-M   'P 1'
_cell_length_a   5.56204588
_cell_length_b   5.56204545
_cell_length_c   5.56204600
_cell_angle_alpha   59.99999672
_cell_angle_beta   59.99999931
_cell_angle_gamma   60.00000038
_symmetry_Int_Tables_number   1
_chemical_formula_structural   SrPrPt4
_chemical_formula_sum   'Sr1 Pr1 Pt4'
_cell_volume   121.67144539
_cell_formula_units_Z   1
loop_
 _symmetry_equiv_pos_site_id
 _symmetry_equiv_pos_as_xyz
  1  'x, y, z'
loop_
 _atom_site_type_symbol
 _atom_site_label
 _atom_site_symmetry_multiplicity
 _atom_site_fract_x
 _atom_site_fract_y
 _atom_site_fract_z
 _atom_site_occupancy
  Sr  Sr0  1  0.750000  0.750000  0.750000  1
  Pr  Pr1  1  0.500000  0.500000  0.500000  1
  Pt  Pt2  1  0.124938  0.625185  0.124938  1
  Pt  Pt3  1  0.124938  0.124938  0.625185  1
  Pt  Pt4  1  0.625185  0.124938  0.124938  1
  Pt  Pt5  1  0.124938  0.124938  0.124938  1
