# generated using pymatgen
data_YbHoSc3Si7Pt9
_symmetry_space_group_name_H-M   'P 1'
_cell_length_a   10.08509100
_cell_length_b   10.08509211
_cell_length_c   3.95075400
_cell_angle_alpha   90.00000000
_cell_angle_beta   90.00000000
_cell_angle_gamma   119.99999963
_symmetry_Int_Tables_number   1
_chemical_formula_structural   YbHoSc3Si7Pt9
_chemical_formula_sum   'Yb1 Ho1 Sc3 Si7 Pt9'
_cell_volume   347.99284310
_cell_formula_units_Z   1
loop_
 _symmetry_equiv_pos_site_id
 _symmetry_equiv_pos_as_xyz
  1  'x, y, z'
loop_
 _atom_site_type_symbol
 _atom_site_label
 _atom_site_symmetry_multiplicity
 _atom_site_fract_x
 _atom_site_fract_y
 _atom_site_fract_z
 _atom_site_occupancy
  Yb  Yb0  1  0.000000  0.000000  0.000000  1
  Ho  Ho1  1  0.333333  0.666667  0.500000  1
  Sc  Sc2  1  0.894657  0.457535  0.500000  1
  Sc  Sc3  1  0.562880  0.105343  0.500000  1
  Sc  Sc4  1  0.542465  0.437120  0.500000  1
  Si  Si5  1  0.243958  0.193599  0.500000  1
  Si  Si6  1  0.806401  0.050360  0.500000  1
  Si  Si7  1  0.949640  0.756042  0.500000  1
  Si  Si8  1  0.556370  0.647193  0.000000  1
  Si  Si9  1  0.352807  0.909176  0.000000  1
  Si  Si10  1  0.090824  0.443630  0.000000  1
  Si  Si11  1  0.666667  0.333333  0.000000  1
  Pt  Pt12  1  0.219290  0.935536  0.500000  1
  Pt  Pt13  1  0.064464  0.283755  0.500000  1
  Pt  Pt14  1  0.716245  0.780710  0.500000  1
  Pt  Pt15  1  0.314380  0.412924  0.000000  1
  Pt  Pt16  1  0.587076  0.901456  0.000000  1
  Pt  Pt17  1  0.098544  0.685620  0.000000  1
  Pt  Pt18  1  0.384849  0.173032  0.000000  1
  Pt  Pt19  1  0.826968  0.211818  0.000000  1
  Pt  Pt20  1  0.788182  0.615151  0.000000  1
