# generated using pymatgen
data_SrFe2(P6Ir)2
_symmetry_space_group_name_H-M   'P 1'
_cell_length_a   6.90602190
_cell_length_b   6.93508737
_cell_length_c   6.93508809
_cell_angle_alpha   109.68192226
_cell_angle_beta   109.42934213
_cell_angle_gamma   109.47217885
_symmetry_Int_Tables_number   1
_chemical_formula_structural   SrFe2(P6Ir)2
_chemical_formula_sum   'Sr1 Fe2 P12 Ir2'
_cell_volume   255.14956282
_cell_formula_units_Z   1
loop_
 _symmetry_equiv_pos_site_id
 _symmetry_equiv_pos_as_xyz
  1  'x, y, z'
loop_
 _atom_site_type_symbol
 _atom_site_label
 _atom_site_symmetry_multiplicity
 _atom_site_fract_x
 _atom_site_fract_y
 _atom_site_fract_z
 _atom_site_occupancy
  Sr  Sr0  1  0.000000  0.000000  0.000000  1
  Fe  Fe1  1  0.000000  0.500000  0.000000  1
  Fe  Fe2  1  0.000000  0.000000  0.500000  1
  P  P3  1  0.135661  0.791163  0.635491  1
  P  P4  1  0.135661  0.500170  0.344498  1
  P  P5  1  0.864339  0.499830  0.655502  1
  P  P6  1  0.344567  0.135605  0.500439  1
  P  P7  1  0.801658  0.651267  0.150391  1
  P  P8  1  0.864339  0.208837  0.364509  1
  P  P9  1  0.655433  0.155873  0.791037  1
  P  P10  1  0.498582  0.638904  0.859678  1
  P  P11  1  0.655433  0.864395  0.499561  1
  P  P12  1  0.501418  0.361096  0.140322  1
  P  P13  1  0.344567  0.844127  0.208963  1
  P  P14  1  0.198342  0.348733  0.849609  1
  Ir  Ir15  1  0.500000  0.000000  0.000000  1
  Ir  Ir16  1  0.500000  0.500000  0.500000  1
