# generated using pymatgen
data_Nd3ThHgIr
_symmetry_space_group_name_H-M   'P 1'
_cell_length_a   9.96984558
_cell_length_b   9.96984518
_cell_length_c   9.96984600
_cell_angle_alpha   60.00000390
_cell_angle_beta   60.00000524
_cell_angle_gamma   60.00000599
_symmetry_Int_Tables_number   1
_chemical_formula_structural   Nd3ThHgIr
_chemical_formula_sum   'Nd12 Th4 Hg4 Ir4'
_cell_volume   700.72941356
_cell_formula_units_Z   4
loop_
 _symmetry_equiv_pos_site_id
 _symmetry_equiv_pos_as_xyz
  1  'x, y, z'
loop_
 _atom_site_type_symbol
 _atom_site_label
 _atom_site_symmetry_multiplicity
 _atom_site_fract_x
 _atom_site_fract_y
 _atom_site_fract_z
 _atom_site_occupancy
  Nd  Nd0  1  0.058532  0.441468  0.441468  1
  Nd  Nd1  1  0.441468  0.058532  0.058532  1
  Nd  Nd2  1  0.441468  0.058532  0.441468  1
  Nd  Nd3  1  0.058532  0.441468  0.058532  1
  Nd  Nd4  1  0.441468  0.441468  0.058532  1
  Nd  Nd5  1  0.058532  0.058532  0.441468  1
  Nd  Nd6  1  0.188354  0.811646  0.811646  1
  Nd  Nd7  1  0.811646  0.188354  0.188354  1
  Nd  Nd8  1  0.811646  0.188354  0.811646  1
  Nd  Nd9  1  0.188354  0.811646  0.188354  1
  Nd  Nd10  1  0.811646  0.811646  0.188354  1
  Nd  Nd11  1  0.188354  0.188354  0.811646  1
  Th  Th12  1  0.597826  0.597826  0.597826  1
  Th  Th13  1  0.597826  0.597826  0.206522  1
  Th  Th14  1  0.597826  0.206522  0.597826  1
  Th  Th15  1  0.206522  0.597826  0.597826  1
  Hg  Hg16  1  0.834477  0.834477  0.834477  1
  Hg  Hg17  1  0.834477  0.834477  0.496569  1
  Hg  Hg18  1  0.834477  0.496569  0.834477  1
  Hg  Hg19  1  0.496569  0.834477  0.834477  1
  Ir  Ir20  1  0.395663  0.395663  0.395663  1
  Ir  Ir21  1  0.395663  0.395663  0.813012  1
  Ir  Ir22  1  0.395663  0.813012  0.395663  1
  Ir  Ir23  1  0.813012  0.395663  0.395663  1
