# generated using pymatgen
data_Ho6P5S
_symmetry_space_group_name_H-M   'P 1'
_cell_length_a   3.96722769
_cell_length_b   9.75971841
_cell_length_c   7.93273397
_cell_angle_alpha   90.05218274
_cell_angle_beta   59.99812499
_cell_angle_gamma   89.97923258
_symmetry_Int_Tables_number   1
_chemical_formula_structural   Ho6P5S
_chemical_formula_sum   'Ho6 P5 S1'
_cell_volume   265.99247835
_cell_formula_units_Z   1
loop_
 _symmetry_equiv_pos_site_id
 _symmetry_equiv_pos_as_xyz
  1  'x, y, z'
loop_
 _atom_site_type_symbol
 _atom_site_label
 _atom_site_symmetry_multiplicity
 _atom_site_fract_x
 _atom_site_fract_y
 _atom_site_fract_z
 _atom_site_occupancy
  Ho  Ho0  1  0.938056  0.895587  0.654095  1
  Ho  Ho1  1  0.271735  0.234297  0.324456  1
  Ho  Ho2  1  0.606574  0.564946  0.988692  1
  Ho  Ho3  1  0.278599  0.237791  0.817491  1
  Ho  Ho4  1  0.606315  0.564998  0.488668  1
  Ho  Ho5  1  0.930869  0.892259  0.161028  1
  P  P6  1  0.270646  0.731999  0.322512  1
  P  P7  1  0.940416  0.398005  0.655368  1
  P  P8  1  0.604651  0.064934  0.489380  1
  P  P9  1  0.941728  0.396322  0.154170  1
  P  P10  1  0.269590  0.733608  0.823879  1
  S  S11  1  0.604329  0.064984  0.989355  1
