# generated using pymatgen
data_Ho6Mn5NbO18
_symmetry_space_group_name_H-M   'P 1'
_cell_length_a   6.23200442
_cell_length_b   6.22444072
_cell_length_c   11.81713970
_cell_angle_alpha   90.28868808
_cell_angle_beta   89.42328973
_cell_angle_gamma   120.04021585
_symmetry_Int_Tables_number   1
_chemical_formula_structural   Ho6Mn5NbO18
_chemical_formula_sum   'Ho6 Mn5 Nb1 O18'
_cell_volume   396.80117786
_cell_formula_units_Z   1
loop_
 _symmetry_equiv_pos_site_id
 _symmetry_equiv_pos_as_xyz
  1  'x, y, z'
loop_
 _atom_site_type_symbol
 _atom_site_label
 _atom_site_symmetry_multiplicity
 _atom_site_fract_x
 _atom_site_fract_y
 _atom_site_fract_z
 _atom_site_occupancy
  Ho  Ho0  1  0.666099  0.341580  0.223732  1
  Ho  Ho1  1  0.328399  0.660956  0.739648  1
  Ho  Ho2  1  0.667444  0.339044  0.739648  1
  Ho  Ho3  1  0.324519  0.658420  0.223732  1
  Ho  Ho4  1  0.007725  0.000000  0.777840  1
  Ho  Ho5  1  0.005892  0.000000  0.266442  1
  Mn  Mn6  1  0.667354  0.669368  0.999380  1
  Mn  Mn7  1  0.997987  0.330632  0.999380  1
  Mn  Mn8  1  0.999845  0.666144  0.497742  1
  Mn  Mn9  1  0.333701  0.333856  0.497742  1
  Mn  Mn10  1  0.334535  0.000000  0.999661  1
  Nb  Nb11  1  0.665265  0.000000  0.499204  1
  O  O12  1  0.667325  0.335195  0.020380  1
  O  O13  1  0.360043  0.694096  0.520697  1
  O  O14  1  0.665948  0.305904  0.520697  1
  O  O15  1  0.332129  0.664805  0.020380  1
  O  O16  1  0.001969  0.000000  0.973742  1
  O  O17  1  0.971909  0.000000  0.472845  1
  O  O18  1  0.362609  0.000000  0.838399  1
  O  O19  1  0.355208  0.355695  0.324543  1
  O  O20  1  0.999512  0.644305  0.324543  1
  O  O21  1  0.998994  0.358268  0.838757  1
  O  O22  1  0.640727  0.641732  0.838757  1
  O  O23  1  0.634099  0.000000  0.331697  1
  O  O24  1  0.308240  0.000000  0.160540  1
  O  O25  1  0.313664  0.313148  0.672434  1
  O  O26  1  0.000516  0.686852  0.672434  1
  O  O27  1  0.995691  0.301602  0.160481  1
  O  O28  1  0.694089  0.698398  0.160481  1
  O  O29  1  0.698561  0.000000  0.670046  1
