# generated using pymatgen
data_Y2Pa2PdPt3
_symmetry_space_group_name_H-M   'P 1'
_cell_length_a   4.51674300
_cell_length_b   5.68556485
_cell_length_c   6.96016778
_cell_angle_alpha   89.51061519
_cell_angle_beta   90.00000000
_cell_angle_gamma   90.00000000
_symmetry_Int_Tables_number   1
_chemical_formula_structural   Y2Pa2PdPt3
_chemical_formula_sum   'Y2 Pa2 Pd1 Pt3'
_cell_volume   178.73222601
_cell_formula_units_Z   1
loop_
 _symmetry_equiv_pos_site_id
 _symmetry_equiv_pos_as_xyz
  1  'x, y, z'
loop_
 _atom_site_type_symbol
 _atom_site_label
 _atom_site_symmetry_multiplicity
 _atom_site_fract_x
 _atom_site_fract_y
 _atom_site_fract_z
 _atom_site_occupancy
  Y  Y0  1  0.750000  0.349424  0.816267  1
  Y  Y1  1  0.750000  0.152771  0.321065  1
  Pa  Pa2  1  0.250000  0.650902  0.186301  1
  Pa  Pa3  1  0.250000  0.850076  0.682876  1
  Pd  Pd4  1  0.250000  0.151910  0.044472  1
  Pt  Pt5  1  0.750000  0.831652  0.953335  1
  Pt  Pt6  1  0.750000  0.671353  0.450760  1
  Pt  Pt7  1  0.250000  0.341915  0.544922  1
