# generated using pymatgen
data_Pr4Ti5V3O20
_symmetry_space_group_name_H-M   'P 1'
_cell_length_a   5.90325400
_cell_length_b   7.74965963
_cell_length_c   8.85200568
_cell_angle_alpha   89.95437946
_cell_angle_beta   90.00000000
_cell_angle_gamma   90.00000000
_symmetry_Int_Tables_number   1
_chemical_formula_structural   Pr4Ti5V3O20
_chemical_formula_sum   'Pr4 Ti5 V3 O20'
_cell_volume   404.96327958
_cell_formula_units_Z   1
loop_
 _symmetry_equiv_pos_site_id
 _symmetry_equiv_pos_as_xyz
  1  'x, y, z'
loop_
 _atom_site_type_symbol
 _atom_site_label
 _atom_site_symmetry_multiplicity
 _atom_site_fract_x
 _atom_site_fract_y
 _atom_site_fract_z
 _atom_site_occupancy
  Pr  Pr0  1  0.997059  0.360528  0.672369  1
  Pr  Pr1  1  0.997059  0.639472  0.327631  1
  Pr  Pr2  1  0.998376  0.857393  0.829121  1
  Pr  Pr3  1  0.998376  0.142607  0.170879  1
  Ti  Ti4  1  0.502752  0.117819  0.857970  1
  Ti  Ti5  1  0.502752  0.882181  0.142030  1
  Ti  Ti6  1  0.498383  0.616803  0.642438  1
  Ti  Ti7  1  0.498383  0.383197  0.357562  1
  Ti  Ti8  1  0.239745  0.000000  0.500000  1
  V  V9  1  0.250559  0.500000  0.000000  1
  V  V10  1  0.743754  0.000000  0.500000  1
  V  V11  1  0.751382  0.500000  0.000000  1
  O  O12  1  0.258533  0.901195  0.291077  1
  O  O13  1  0.258533  0.098805  0.708923  1
  O  O14  1  0.745606  0.396989  0.216458  1
  O  O15  1  0.745606  0.603011  0.783542  1
  O  O16  1  0.744598  0.105617  0.720420  1
  O  O17  1  0.744598  0.894383  0.279580  1
  O  O18  1  0.253769  0.598772  0.786599  1
  O  O19  1  0.253769  0.401228  0.213401  1
  O  O20  1  0.502568  0.336052  0.927091  1
  O  O21  1  0.502568  0.663948  0.072909  1
  O  O22  1  0.492411  0.834058  0.576638  1
  O  O23  1  0.492411  0.165942  0.423362  1
  O  O24  1  0.282527  0.000000  0.000000  1
  O  O25  1  0.714169  0.500000  0.500000  1
  O  O26  1  0.712830  0.000000  0.000000  1
  O  O27  1  0.283117  0.500000  0.500000  1
  O  O28  1  0.017191  0.164637  0.446240  1
  O  O29  1  0.017191  0.835363  0.553760  1
  O  O30  1  0.999712  0.664569  0.054570  1
  O  O31  1  0.999712  0.335431  0.945430  1
