# generated using pymatgen
data_Nd2Al9CoPtRh
_symmetry_space_group_name_H-M   'P 1'
_cell_length_a   7.61469528
_cell_length_b   7.61469429
_cell_length_c   9.59316397
_cell_angle_alpha   89.79772921
_cell_angle_beta   89.79773560
_cell_angle_gamma   119.56796335
_symmetry_Int_Tables_number   1
_chemical_formula_structural   Nd2Al9CoPtRh
_chemical_formula_sum   'Nd4 Al18 Co2 Pt2 Rh2'
_cell_volume   483.79468842
_cell_formula_units_Z   2
loop_
 _symmetry_equiv_pos_site_id
 _symmetry_equiv_pos_as_xyz
  1  'x, y, z'
loop_
 _atom_site_type_symbol
 _atom_site_label
 _atom_site_symmetry_multiplicity
 _atom_site_fract_x
 _atom_site_fract_y
 _atom_site_fract_z
 _atom_site_occupancy
  Nd  Nd0  1  0.004495  0.329733  0.749945  1
  Nd  Nd1  1  0.330137  0.005651  0.749587  1
  Nd  Nd2  1  0.994349  0.669863  0.250413  1
  Nd  Nd3  1  0.670267  0.995505  0.250055  1
  Al  Al4  1  0.657069  0.992978  0.927292  1
  Al  Al5  1  0.995981  0.670581  0.572586  1
  Al  Al6  1  0.128256  0.128930  0.256488  1
  Al  Al7  1  0.659521  0.663167  0.046702  1
  Al  Al8  1  0.329441  0.326845  0.546065  1
  Al  Al9  1  0.336833  0.340479  0.953298  1
  Al  Al10  1  0.673155  0.670559  0.453935  1
  Al  Al11  1  0.337377  0.995455  0.072976  1
  Al  Al12  1  0.998437  0.326627  0.427967  1
  Al  Al13  1  0.339422  0.547791  0.242295  1
  Al  Al14  1  0.007022  0.342931  0.072708  1
  Al  Al15  1  0.545899  0.340088  0.250005  1
  Al  Al16  1  0.659912  0.454101  0.749995  1
  Al  Al17  1  0.871070  0.871744  0.743512  1
  Al  Al18  1  0.004545  0.662623  0.927024  1
  Al  Al19  1  0.673373  0.001563  0.572033  1
  Al  Al20  1  0.329419  0.004019  0.427414  1
  Al  Al21  1  0.452209  0.660578  0.757705  1
  Co  Co22  1  0.000120  0.999880  0.500000  1
  Co  Co23  1  0.330184  0.669816  0.000000  1
  Pt  Pt24  1  0.328812  0.671188  0.500000  1
  Pt  Pt25  1  0.000289  0.999711  0.000000  1
  Rh  Rh26  1  0.670937  0.329063  0.500000  1
  Rh  Rh27  1  0.671464  0.328536  0.000000  1
