# generated using pymatgen
data_Zr3Sc4MoRu8
_symmetry_space_group_name_H-M   'P 1'
_cell_length_a   6.42395100
_cell_length_b   4.56064300
_cell_length_c   9.14763300
_cell_angle_alpha   90.00000000
_cell_angle_beta   89.99999374
_cell_angle_gamma   90.00000000
_symmetry_Int_Tables_number   1
_chemical_formula_structural   Zr3Sc4MoRu8
_chemical_formula_sum   'Zr3 Sc4 Mo1 Ru8'
_cell_volume   268.00137970
_cell_formula_units_Z   1
loop_
 _symmetry_equiv_pos_site_id
 _symmetry_equiv_pos_as_xyz
  1  'x, y, z'
loop_
 _atom_site_type_symbol
 _atom_site_label
 _atom_site_symmetry_multiplicity
 _atom_site_fract_x
 _atom_site_fract_y
 _atom_site_fract_z
 _atom_site_occupancy
  Zr  Zr0  1  0.249895  0.750000  0.374474  1
  Zr  Zr1  1  0.750084  0.250000  0.625022  1
  Zr  Zr2  1  0.250077  0.750000  0.875547  1
  Sc  Sc3  1  0.249939  0.250000  0.125004  1
  Sc  Sc4  1  0.749881  0.750000  0.372831  1
  Sc  Sc5  1  0.250124  0.250000  0.624997  1
  Sc  Sc6  1  0.750081  0.750000  0.877209  1
  Mo  Mo7  1  0.749935  0.250000  0.125014  1
  Ru  Ru8  1  0.511432  0.750000  0.124993  1
  Ru  Ru9  1  0.988404  0.750000  0.124988  1
  Ru  Ru10  1  0.506008  0.250000  0.366488  1
  Ru  Ru11  1  0.993826  0.250000  0.366479  1
  Ru  Ru12  1  0.999979  0.750000  0.625009  1
  Ru  Ru13  1  0.500164  0.750000  0.625002  1
  Ru  Ru14  1  0.994057  0.250000  0.883457  1
  Ru  Ru15  1  0.506111  0.250000  0.883487  1
