# generated using pymatgen
data_Dy7LuSc11Si16W
_symmetry_space_group_name_H-M   'P 1'
_cell_length_a   7.06641862
_cell_length_b   7.31250530
_cell_length_c   13.86851302
_cell_angle_alpha   90.13249025
_cell_angle_beta   89.64032249
_cell_angle_gamma   89.64462528
_symmetry_Int_Tables_number   1
_chemical_formula_structural   Dy7LuSc11Si16W
_chemical_formula_sum   'Dy7 Lu1 Sc11 Si16 W1'
_cell_volume   716.60088915
_cell_formula_units_Z   1
loop_
 _symmetry_equiv_pos_site_id
 _symmetry_equiv_pos_as_xyz
  1  'x, y, z'
loop_
 _atom_site_type_symbol
 _atom_site_label
 _atom_site_symmetry_multiplicity
 _atom_site_fract_x
 _atom_site_fract_y
 _atom_site_fract_z
 _atom_site_occupancy
  Dy  Dy0  1  0.989170  0.826046  0.899096  1
  Dy  Dy1  1  0.486985  0.677310  0.899570  1
  Dy  Dy2  1  0.992923  0.829784  0.595819  1
  Dy  Dy3  1  0.513295  0.323508  0.096656  1
  Dy  Dy4  1  0.010381  0.174881  0.404021  1
  Dy  Dy5  1  0.507334  0.324141  0.409316  1
  Dy  Dy6  1  0.487625  0.675573  0.596346  1
  Lu  Lu7  1  0.011924  0.174928  0.097642  1
  Sc  Sc8  1  0.162830  0.495154  0.745146  1
  Sc  Sc9  1  0.838359  0.497397  0.251496  1
  Sc  Sc10  1  0.337363  0.003081  0.251810  1
  Sc  Sc11  1  0.658025  0.001784  0.747306  1
  Sc  Sc12  1  0.666323  0.825784  0.378772  1
  Sc  Sc13  1  0.168394  0.677905  0.378091  1
  Sc  Sc14  1  0.669948  0.824871  0.124436  1
  Sc  Sc15  1  0.832307  0.323578  0.623640  1
  Sc  Sc16  1  0.332230  0.176444  0.875132  1
  Sc  Sc17  1  0.829964  0.322406  0.871928  1
  Sc  Sc18  1  0.170265  0.677101  0.125614  1
  Si  Si19  1  0.042223  0.121066  0.745007  1
  Si  Si20  1  0.964617  0.885864  0.251077  1
  Si  Si21  1  0.467198  0.617736  0.250748  1
  Si  Si22  1  0.530211  0.374163  0.745779  1
  Si  Si23  1  0.287265  0.880816  0.745900  1
  Si  Si24  1  0.712829  0.126835  0.250219  1
  Si  Si25  1  0.214738  0.372677  0.250123  1
  Si  Si26  1  0.784241  0.624354  0.746897  1
  Si  Si27  1  0.175529  0.450879  0.541078  1
  Si  Si28  1  0.842668  0.532439  0.460651  1
  Si  Si29  1  0.334080  0.969634  0.470961  1
  Si  Si30  1  0.845692  0.533662  0.039305  1
  Si  Si31  1  0.646165  0.035721  0.545135  1
  Si  Si32  1  0.153767  0.465360  0.959358  1
  Si  Si33  1  0.660850  0.035968  0.958779  1
  Si  Si34  1  0.339732  0.964297  0.038904  1
  W  W35  1  0.332549  0.176852  0.628246  1
