# generated using pymatgen
data_Tb4ErLu3Pt4
_symmetry_space_group_name_H-M   'P 1'
_cell_length_a   4.75501600
_cell_length_b   7.11353565
_cell_length_c   8.70450446
_cell_angle_alpha   90.05767726
_cell_angle_beta   90.00000000
_cell_angle_gamma   90.00000000
_symmetry_Int_Tables_number   1
_chemical_formula_structural   Tb4ErLu3Pt4
_chemical_formula_sum   'Tb4 Er1 Lu3 Pt4'
_cell_volume   294.42950383
_cell_formula_units_Z   1
loop_
 _symmetry_equiv_pos_site_id
 _symmetry_equiv_pos_as_xyz
  1  'x, y, z'
loop_
 _atom_site_type_symbol
 _atom_site_label
 _atom_site_symmetry_multiplicity
 _atom_site_fract_x
 _atom_site_fract_y
 _atom_site_fract_z
 _atom_site_occupancy
  Tb  Tb0  1  0.750000  0.507408  0.830682  1
  Tb  Tb1  1  0.250000  0.490268  0.170731  1
  Tb  Tb2  1  0.750000  0.009342  0.668316  1
  Tb  Tb3  1  0.250000  0.991752  0.330342  1
  Er  Er4  1  0.250000  0.857353  0.919697  1
  Lu  Lu5  1  0.750000  0.641916  0.420520  1
  Lu  Lu6  1  0.250000  0.358175  0.579512  1
  Lu  Lu7  1  0.750000  0.142843  0.080347  1
  Pt  Pt8  1  0.750000  0.246458  0.408100  1
  Pt  Pt9  1  0.250000  0.753634  0.589296  1
  Pt  Pt10  1  0.750000  0.744794  0.093897  1
  Pt  Pt11  1  0.250000  0.256055  0.908562  1
