# generated using pymatgen
data_DyErCo2(SiRh)4
_symmetry_space_group_name_H-M   'P 1'
_cell_length_a   6.46354554
_cell_length_b   6.59298650
_cell_length_c   6.46354665
_cell_angle_alpha   131.19053227
_cell_angle_beta   113.50577271
_cell_angle_gamma   86.03143405
_symmetry_Int_Tables_number   1
_chemical_formula_structural   DyErCo2(SiRh)4
_chemical_formula_sum   'Dy1 Er1 Co2 Si4 Rh4'
_cell_volume   182.45247048
_cell_formula_units_Z   1
loop_
 _symmetry_equiv_pos_site_id
 _symmetry_equiv_pos_as_xyz
  1  'x, y, z'
loop_
 _atom_site_type_symbol
 _atom_site_label
 _atom_site_symmetry_multiplicity
 _atom_site_fract_x
 _atom_site_fract_y
 _atom_site_fract_z
 _atom_site_occupancy
  Dy  Dy0  1  0.754294  0.038818  0.284525  1
  Er  Er1  1  0.245553  0.959238  0.713684  1
  Co  Co2  1  0.220298  0.501826  0.720480  1
  Co  Co3  1  0.781346  0.501826  0.281528  1
  Si  Si4  1  0.575696  0.386345  0.810649  1
  Si  Si5  1  0.926067  0.713955  0.787888  1
  Si  Si6  1  0.424646  0.613663  0.189017  1
  Si  Si7  1  0.074137  0.285952  0.211815  1
  Rh  Rh8  1  0.499203  0.498994  0.498239  1
  Rh  Rh9  1  0.000756  0.498994  0.999791  1
  Rh  Rh10  1  0.716435  0.000194  0.718625  1
  Rh  Rh11  1  0.281569  0.000194  0.283759  1
