# generated using pymatgen
data_CaNd5SmFeI12
_symmetry_space_group_name_H-M   'P 1'
_cell_length_a   10.04056808
_cell_length_b   9.93427546
_cell_length_c   9.96099800
_cell_angle_alpha   107.08666126
_cell_angle_beta   106.79298163
_cell_angle_gamma   107.19922205
_symmetry_Int_Tables_number   1
_chemical_formula_structural   CaNd5SmFeI12
_chemical_formula_sum   'Ca1 Nd5 Sm1 Fe1 I12'
_cell_volume   826.84978532
_cell_formula_units_Z   1
loop_
 _symmetry_equiv_pos_site_id
 _symmetry_equiv_pos_as_xyz
  1  'x, y, z'
loop_
 _atom_site_type_symbol
 _atom_site_label
 _atom_site_symmetry_multiplicity
 _atom_site_fract_x
 _atom_site_fract_y
 _atom_site_fract_z
 _atom_site_occupancy
  Ca  Ca0  1  0.499160  0.501284  0.500364  1
  Nd  Nd1  1  0.096005  0.293318  0.025987  1
  Nd  Nd2  1  0.025975  0.095912  0.292320  1
  Nd  Nd3  1  0.308421  0.026351  0.101401  1
  Nd  Nd4  1  0.902403  0.705869  0.973375  1
  Nd  Nd5  1  0.975675  0.903587  0.707765  1
  Sm  Sm6  1  0.696547  0.973510  0.899650  1
  Fe  Fe7  1  0.000566  0.999490  0.999903  1
  I  I8  1  0.460267  0.384290  0.156519  1
  I  I9  1  0.157376  0.462337  0.383557  1
  I  I10  1  0.381293  0.156582  0.462156  1
  I  I11  1  0.538963  0.620436  0.844684  1
  I  I12  1  0.840315  0.537035  0.615900  1
  I  I13  1  0.620195  0.847033  0.542156  1
  I  I14  1  0.773064  0.314794  0.926923  1
  I  I15  1  0.926104  0.772852  0.316597  1
  I  I16  1  0.319617  0.927884  0.773465  1
  I  I17  1  0.222577  0.679632  0.071252  1
  I  I18  1  0.072472  0.226410  0.682856  1
  I  I19  1  0.683007  0.071396  0.223169  1
