# generated using pymatgen
data_KSb12(IrOs)2
_symmetry_space_group_name_H-M   'P 1'
_cell_length_a   8.18383358
_cell_length_b   8.18383339
_cell_length_c   8.17441531
_cell_angle_alpha   109.52182325
_cell_angle_beta   109.43668747
_cell_angle_gamma   109.50181341
_symmetry_Int_Tables_number   1
_chemical_formula_structural   KSb12(IrOs)2
_chemical_formula_sum   'K1 Sb12 Ir2 Os2'
_cell_volume   421.20918134
_cell_formula_units_Z   1
loop_
 _symmetry_equiv_pos_site_id
 _symmetry_equiv_pos_as_xyz
  1  'x, y, z'
loop_
 _atom_site_type_symbol
 _atom_site_label
 _atom_site_symmetry_multiplicity
 _atom_site_fract_x
 _atom_site_fract_y
 _atom_site_fract_z
 _atom_site_occupancy
  K  K0  1  0.000000  0.000000  0.000000  1
  Sb  Sb1  1  0.154899  0.814072  0.656614  1
  Sb  Sb2  1  0.845101  0.185928  0.343386  1
  Sb  Sb3  1  0.842542  0.501716  0.656614  1
  Sb  Sb4  1  0.157458  0.498284  0.343386  1
  Sb  Sb5  1  0.814385  0.659357  0.157754  1
  Sb  Sb6  1  0.185615  0.340643  0.842246  1
  Sb  Sb7  1  0.501603  0.656631  0.842246  1
  Sb  Sb8  1  0.498397  0.343369  0.157754  1
  Sb  Sb9  1  0.656982  0.155692  0.812674  1
  Sb  Sb10  1  0.343018  0.844308  0.187326  1
  Sb  Sb11  1  0.659186  0.842606  0.501792  1
  Sb  Sb12  1  0.340814  0.157394  0.498208  1
  Ir  Ir13  1  0.500000  0.000000  0.000000  1
  Ir  Ir14  1  0.000000  0.500000  0.000000  1
  Os  Os15  1  0.000000  0.000000  0.500000  1
  Os  Os16  1  0.500000  0.500000  0.500000  1
