# generated using pymatgen
data_TbSm3Ti4(Co4P3)4
_symmetry_space_group_name_H-M   'P 1'
_cell_length_a   3.68396200
_cell_length_b   10.53189829
_cell_length_c   12.01571833
_cell_angle_alpha   90.02687811
_cell_angle_beta   90.00000000
_cell_angle_gamma   90.00000000
_symmetry_Int_Tables_number   1
_chemical_formula_structural   TbSm3Ti4(Co4P3)4
_chemical_formula_sum   'Tb1 Sm3 Ti4 Co16 P12'
_cell_volume   466.19916303
_cell_formula_units_Z   1
loop_
 _symmetry_equiv_pos_site_id
 _symmetry_equiv_pos_as_xyz
  1  'x, y, z'
loop_
 _atom_site_type_symbol
 _atom_site_label
 _atom_site_symmetry_multiplicity
 _atom_site_fract_x
 _atom_site_fract_y
 _atom_site_fract_z
 _atom_site_occupancy
  Tb  Tb0  1  0.750000  0.082148  0.794380  1
  Sm  Sm1  1  0.250000  0.582126  0.705403  1
  Sm  Sm2  1  0.250000  0.917771  0.205351  1
  Sm  Sm3  1  0.750000  0.417753  0.294655  1
  Ti  Ti4  1  0.250000  0.702001  0.990362  1
  Ti  Ti5  1  0.250000  0.798781  0.491362  1
  Ti  Ti6  1  0.750000  0.298375  0.008256  1
  Ti  Ti7  1  0.750000  0.201071  0.509439  1
  Co  Co8  1  0.250000  0.405995  0.491199  1
  Co  Co9  1  0.250000  0.094438  0.989189  1
  Co  Co10  1  0.750000  0.593831  0.508993  1
  Co  Co11  1  0.750000  0.906876  0.008447  1
  Co  Co12  1  0.250000  0.221319  0.174864  1
  Co  Co13  1  0.250000  0.277373  0.675598  1
  Co  Co14  1  0.750000  0.778686  0.824896  1
  Co  Co15  1  0.750000  0.721849  0.324807  1
  Co  Co16  1  0.250000  0.885844  0.700630  1
  Co  Co17  1  0.250000  0.615547  0.199663  1
  Co  Co18  1  0.750000  0.115488  0.300507  1
  Co  Co19  1  0.750000  0.383515  0.800145  1
  Co  Co20  1  0.250000  0.463960  0.933108  1
  Co  Co21  1  0.250000  0.035333  0.434394  1
  Co  Co22  1  0.750000  0.535092  0.066274  1
  Co  Co23  1  0.750000  0.965286  0.567401  1
  P  P24  1  0.250000  0.421483  0.113813  1
  P  P25  1  0.250000  0.078311  0.615576  1
  P  P26  1  0.750000  0.577965  0.885831  1
  P  P27  1  0.750000  0.921904  0.386467  1
  P  P28  1  0.250000  0.269901  0.861715  1
  P  P29  1  0.250000  0.227912  0.362225  1
  P  P30  1  0.750000  0.728019  0.137727  1
  P  P31  1  0.750000  0.772221  0.638195  1
  P  P32  1  0.250000  0.595004  0.391608  1
  P  P33  1  0.250000  0.906843  0.890819  1
  P  P34  1  0.750000  0.404980  0.608415  1
  P  P35  1  0.750000  0.095003  0.108284  1
