# generated using pymatgen
data_Pa4Zn4Ir3Pt
_symmetry_space_group_name_H-M   'P 1'
_cell_length_a   4.13916400
_cell_length_b   6.85451794
_cell_length_c   8.21093106
_cell_angle_alpha   90.26734210
_cell_angle_beta   90.00000000
_cell_angle_gamma   90.00000000
_symmetry_Int_Tables_number   1
_chemical_formula_structural   Pa4Zn4Ir3Pt
_chemical_formula_sum   'Pa4 Zn4 Ir3 Pt1'
_cell_volume   232.95778559
_cell_formula_units_Z   1
loop_
 _symmetry_equiv_pos_site_id
 _symmetry_equiv_pos_as_xyz
  1  'x, y, z'
loop_
 _atom_site_type_symbol
 _atom_site_label
 _atom_site_symmetry_multiplicity
 _atom_site_fract_x
 _atom_site_fract_y
 _atom_site_fract_z
 _atom_site_occupancy
  Pa  Pa0  1  0.750000  0.460734  0.807386  1
  Pa  Pa1  1  0.250000  0.038881  0.316275  1
  Pa  Pa2  1  0.750000  0.957788  0.688936  1
  Pa  Pa3  1  0.250000  0.548628  0.189050  1
  Zn  Zn4  1  0.250000  0.631606  0.558501  1
  Zn  Zn5  1  0.250000  0.130818  0.941663  1
  Zn  Zn6  1  0.750000  0.368242  0.439892  1
  Zn  Zn7  1  0.750000  0.867601  0.060243  1
  Ir  Ir8  1  0.250000  0.735209  0.876337  1
  Ir  Ir9  1  0.250000  0.235214  0.623722  1
  Ir  Ir10  1  0.750000  0.762865  0.378149  1
  Pt  Pt11  1  0.750000  0.262414  0.119845  1
