# generated using pymatgen
data_Tb3Er2In3S
_symmetry_space_group_name_H-M   'P 1'
_cell_length_a   9.01637500
_cell_length_b   9.01637406
_cell_length_c   6.56015400
_cell_angle_alpha   90.00000000
_cell_angle_beta   90.00000000
_cell_angle_gamma   119.99999979
_symmetry_Int_Tables_number   1
_chemical_formula_structural   Tb3Er2In3S
_chemical_formula_sum   'Tb6 Er4 In6 S2'
_cell_volume   461.85808880
_cell_formula_units_Z   2
loop_
 _symmetry_equiv_pos_site_id
 _symmetry_equiv_pos_as_xyz
  1  'x, y, z'
loop_
 _atom_site_type_symbol
 _atom_site_label
 _atom_site_symmetry_multiplicity
 _atom_site_fract_x
 _atom_site_fract_y
 _atom_site_fract_z
 _atom_site_occupancy
  Tb  Tb0  1  0.755475  0.755475  0.250000  1
  Tb  Tb1  1  0.000000  0.755475  0.750000  1
  Tb  Tb2  1  0.755475  0.000000  0.750000  1
  Tb  Tb3  1  0.244525  0.244525  0.750000  1
  Tb  Tb4  1  0.000000  0.244525  0.250000  1
  Tb  Tb5  1  0.244525  0.000000  0.250000  1
  Er  Er6  1  0.333333  0.666667  0.500000  1
  Er  Er7  1  0.666667  0.333333  0.500000  1
  Er  Er8  1  0.333333  0.666667  0.000000  1
  Er  Er9  1  0.666667  0.333333  0.000000  1
  In  In10  1  0.400426  0.000000  0.750000  1
  In  In11  1  0.000000  0.599574  0.250000  1
  In  In12  1  0.599574  0.000000  0.250000  1
  In  In13  1  0.000000  0.400426  0.750000  1
  In  In14  1  0.400426  0.400426  0.250000  1
  In  In15  1  0.599574  0.599574  0.750000  1
  S  S16  1  0.000000  0.000000  0.500000  1
  S  S17  1  0.000000  0.000000  0.000000  1
