# generated using pymatgen
data_NdErZn5Sn
_symmetry_space_group_name_H-M   'P 1'
_cell_length_a   8.44227519
_cell_length_b   8.44227423
_cell_length_c   9.01623600
_cell_angle_alpha   90.00000000
_cell_angle_beta   90.00000000
_cell_angle_gamma   149.77805994
_symmetry_Int_Tables_number   1
_chemical_formula_structural   NdErZn5Sn
_chemical_formula_sum   'Nd2 Er2 Zn10 Sn2'
_cell_volume   323.45587855
_cell_formula_units_Z   2
loop_
 _symmetry_equiv_pos_site_id
 _symmetry_equiv_pos_as_xyz
  1  'x, y, z'
loop_
 _atom_site_type_symbol
 _atom_site_label
 _atom_site_symmetry_multiplicity
 _atom_site_fract_x
 _atom_site_fract_y
 _atom_site_fract_z
 _atom_site_occupancy
  Nd  Nd0  1  0.000000  0.000000  0.500000  1
  Nd  Nd1  1  0.000000  0.000000  0.000000  1
  Er  Er2  1  0.204670  0.795330  0.250000  1
  Er  Er3  1  0.795330  0.204670  0.750000  1
  Zn  Zn4  1  0.812208  0.187792  0.390726  1
  Zn  Zn5  1  0.187792  0.812208  0.609274  1
  Zn  Zn6  1  0.812208  0.187792  0.109274  1
  Zn  Zn7  1  0.187792  0.812208  0.890726  1
  Zn  Zn8  1  0.657678  0.342322  0.482075  1
  Zn  Zn9  1  0.342322  0.657678  0.517925  1
  Zn  Zn10  1  0.657678  0.342322  0.017925  1
  Zn  Zn11  1  0.342322  0.657678  0.982075  1
  Zn  Zn12  1  0.393402  0.606598  0.250000  1
  Zn  Zn13  1  0.606598  0.393402  0.750000  1
  Sn  Sn14  1  0.556411  0.443589  0.250000  1
  Sn  Sn15  1  0.443589  0.556411  0.750000  1
