# generated using pymatgen
data_Sc3NiSn3Ru5
_symmetry_space_group_name_H-M   'P 1'
_cell_length_a   4.51281500
_cell_length_b   6.43474800
_cell_length_c   13.51742600
_cell_angle_alpha   90.00000000
_cell_angle_beta   90.00134685
_cell_angle_gamma   90.00000000
_symmetry_Int_Tables_number   1
_chemical_formula_structural   Sc3NiSn3Ru5
_chemical_formula_sum   'Sc6 Ni2 Sn6 Ru10'
_cell_volume   392.53019904
_cell_formula_units_Z   2
loop_
 _symmetry_equiv_pos_site_id
 _symmetry_equiv_pos_as_xyz
  1  'x, y, z'
loop_
 _atom_site_type_symbol
 _atom_site_label
 _atom_site_symmetry_multiplicity
 _atom_site_fract_x
 _atom_site_fract_y
 _atom_site_fract_z
 _atom_site_occupancy
  Sc  Sc0  1  0.000000  0.000000  0.000000  1
  Sc  Sc1  1  0.499911  0.500001  0.166883  1
  Sc  Sc2  1  0.999912  0.000000  0.333207  1
  Sc  Sc3  1  0.500001  0.500001  0.500000  1
  Sc  Sc4  1  0.000088  0.000000  0.666792  1
  Sc  Sc5  1  0.500088  0.500001  0.833118  1
  Ni  Ni6  1  0.500001  0.246485  0.000000  1
  Ni  Ni7  1  0.500001  0.753515  0.000000  1
  Sn  Sn8  1  0.000000  0.500001  0.000000  1
  Sn  Sn9  1  0.499907  0.000000  0.165699  1
  Sn  Sn10  1  0.999943  0.500001  0.332942  1
  Sn  Sn11  1  0.500001  0.000000  0.500000  1
  Sn  Sn12  1  0.000053  0.500001  0.667057  1
  Sn  Sn13  1  0.500092  0.000000  0.834302  1
  Ru  Ru14  1  0.999893  0.250063  0.161878  1
  Ru  Ru15  1  0.999893  0.749937  0.161878  1
  Ru  Ru16  1  0.499883  0.251188  0.330446  1
  Ru  Ru17  1  0.499883  0.748811  0.330446  1
  Ru  Ru18  1  0.000000  0.249197  0.500000  1
  Ru  Ru19  1  0.000000  0.750806  0.500000  1
  Ru  Ru20  1  0.500116  0.251188  0.669553  1
  Ru  Ru21  1  0.500116  0.748811  0.669553  1
  Ru  Ru22  1  0.000107  0.250063  0.838122  1
  Ru  Ru23  1  0.000107  0.749937  0.838122  1
