# generated using pymatgen
data_Ho16In4IrPd2Pt
_symmetry_space_group_name_H-M   'P 1'
_cell_length_a   9.64484316
_cell_length_b   9.67581306
_cell_length_c   9.68108787
_cell_angle_alpha   60.20016922
_cell_angle_beta   60.12377696
_cell_angle_gamma   60.10583578
_symmetry_Int_Tables_number   1
_chemical_formula_structural   Ho16In4IrPd2Pt
_chemical_formula_sum   'Ho16 In4 Ir1 Pd2 Pt1'
_cell_volume   640.91170378
_cell_formula_units_Z   1
loop_
 _symmetry_equiv_pos_site_id
 _symmetry_equiv_pos_as_xyz
  1  'x, y, z'
loop_
 _atom_site_type_symbol
 _atom_site_label
 _atom_site_symmetry_multiplicity
 _atom_site_fract_x
 _atom_site_fract_y
 _atom_site_fract_z
 _atom_site_occupancy
  Ho  Ho0  1  0.440180  0.435854  0.061030  1
  Ho  Ho1  1  0.647298  0.646371  0.059033  1
  Ho  Ho2  1  0.184971  0.808906  0.193994  1
  Ho  Ho3  1  0.062935  0.435854  0.061030  1
  Ho  Ho4  1  0.190534  0.809167  0.809765  1
  Ho  Ho5  1  0.064081  0.437341  0.434497  1
  Ho  Ho6  1  0.810771  0.185977  0.192482  1
  Ho  Ho7  1  0.653536  0.651022  0.646330  1
  Ho  Ho8  1  0.811094  0.191283  0.808483  1
  Ho  Ho9  1  0.189140  0.191283  0.808483  1
  Ho  Ho10  1  0.049113  0.651022  0.646330  1
  Ho  Ho11  1  0.438084  0.062307  0.061525  1
  Ho  Ho12  1  0.061693  0.060475  0.434821  1
  Ho  Ho13  1  0.649587  0.056596  0.644232  1
  Ho  Ho14  1  0.812129  0.808906  0.193994  1
  Ho  Ho15  1  0.443010  0.060475  0.434821  1
  In  In16  1  0.415734  0.417233  0.417143  1
  In  In17  1  0.416534  0.418125  0.748810  1
  In  In18  1  0.416662  0.748520  0.418157  1
  In  In19  1  0.749893  0.417233  0.417143  1
  Ir  Ir20  1  0.855057  0.861214  0.428671  1
  Pd  Pd21  1  0.429788  0.858113  0.858730  1
  Pd  Pd22  1  0.853367  0.858113  0.858730  1
  Pt  Pt23  1  0.854810  0.428613  0.861766  1
