# generated using pymatgen
data_Zr2MnCo(TeO6)2
_symmetry_space_group_name_H-M   'P 1'
_cell_length_a   5.04338261
_cell_length_b   4.97635653
_cell_length_c   9.04752100
_cell_angle_alpha   89.99969830
_cell_angle_beta   90.00016192
_cell_angle_gamma   90.05457570
_symmetry_Int_Tables_number   1
_chemical_formula_structural   Zr2MnCo(TeO6)2
_chemical_formula_sum   'Zr2 Mn1 Co1 Te2 O12'
_cell_volume   227.07159313
_cell_formula_units_Z   1
loop_
 _symmetry_equiv_pos_site_id
 _symmetry_equiv_pos_as_xyz
  1  'x, y, z'
loop_
 _atom_site_type_symbol
 _atom_site_label
 _atom_site_symmetry_multiplicity
 _atom_site_fract_x
 _atom_site_fract_y
 _atom_site_fract_z
 _atom_site_occupancy
  Zr  Zr0  1  0.499997  0.000001  0.116054  1
  Zr  Zr1  1  0.000001  0.499999  0.884175  1
  Mn  Mn2  1  0.500002  0.499999  0.488109  1
  Co  Co3  1  0.000001  0.000001  0.509470  1
  Te  Te4  1  0.999997  0.500000  0.248186  1
  Te  Te5  1  0.500002  0.999999  0.751810  1
  O  O6  1  0.824972  0.303272  0.083451  1
  O  O7  1  0.175026  0.696726  0.083450  1
  O  O8  1  0.292370  0.246569  0.249562  1
  O  O9  1  0.707626  0.753431  0.249562  1
  O  O10  1  0.817579  0.287295  0.392719  1
  O  O11  1  0.182416  0.712712  0.392717  1
  O  O12  1  0.299609  0.195445  0.607312  1
  O  O13  1  0.700397  0.804554  0.607315  1
  O  O14  1  0.773386  0.273481  0.750810  1
  O  O15  1  0.226618  0.726515  0.750810  1
  O  O16  1  0.317779  0.189108  0.917242  1
  O  O17  1  0.682222  0.810890  0.917242  1
