# generated using pymatgen
data_Cs8TmBi3Br20
_symmetry_space_group_name_H-M   'P 1'
_cell_length_a   8.05036600
_cell_length_b   10.44057341
_cell_length_c   16.30033951
_cell_angle_alpha   89.74585105
_cell_angle_beta   90.00000000
_cell_angle_gamma   90.00000000
_symmetry_Int_Tables_number   1
_chemical_formula_structural   Cs8TmBi3Br20
_chemical_formula_sum   'Cs8 Tm1 Bi3 Br20'
_cell_volume   1370.03718406
_cell_formula_units_Z   1
loop_
 _symmetry_equiv_pos_site_id
 _symmetry_equiv_pos_as_xyz
  1  'x, y, z'
loop_
 _atom_site_type_symbol
 _atom_site_label
 _atom_site_symmetry_multiplicity
 _atom_site_fract_x
 _atom_site_fract_y
 _atom_site_fract_z
 _atom_site_occupancy
  Cs  Cs0  1  0.250000  0.667302  0.916295  1
  Cs  Cs1  1  0.750000  0.329133  0.078432  1
  Cs  Cs2  1  0.750000  0.829855  0.418561  1
  Cs  Cs3  1  0.250000  0.168812  0.584654  1
  Cs  Cs4  1  0.250000  0.975150  0.202896  1
  Cs  Cs5  1  0.750000  0.029784  0.798671  1
  Cs  Cs6  1  0.750000  0.521465  0.705659  1
  Cs  Cs7  1  0.250000  0.472357  0.297252  1
  Tm  Tm8  1  0.250000  0.181968  0.935408  1
  Bi  Bi9  1  0.250000  0.684912  0.565930  1
  Bi  Bi10  1  0.750000  0.315845  0.433889  1
  Bi  Bi11  1  0.750000  0.818248  0.065201  1
  Br  Br12  1  0.250000  0.528529  0.708099  1
  Br  Br13  1  0.750000  0.470664  0.290629  1
  Br  Br14  1  0.750000  0.972685  0.207281  1
  Br  Br15  1  0.250000  0.032202  0.798030  1
  Br  Br16  1  0.507986  0.840980  0.619614  1
  Br  Br17  1  0.491522  0.159212  0.380409  1
  Br  Br18  1  0.493386  0.662085  0.118527  1
  Br  Br19  1  0.008478  0.159212  0.380409  1
  Br  Br20  1  0.501097  0.334519  0.883126  1
  Br  Br21  1  0.992014  0.840980  0.619614  1
  Br  Br22  1  0.998903  0.334519  0.883126  1
  Br  Br23  1  0.006614  0.662085  0.118527  1
  Br  Br24  1  0.250000  0.795740  0.398573  1
  Br  Br25  1  0.750000  0.203461  0.600325  1
  Br  Br26  1  0.750000  0.706930  0.899943  1
  Br  Br27  1  0.250000  0.289600  0.093015  1
  Br  Br28  1  0.000040  0.499940  0.499280  1
  Br  Br29  1  0.008611  0.005943  0.999672  1
  Br  Br30  1  0.499960  0.499940  0.499280  1
  Br  Br31  1  0.491389  0.005943  0.999672  1
