# generated using pymatgen
data_Zr8ZnRh3
_symmetry_space_group_name_H-M   'P 1'
_cell_length_a   3.32986800
_cell_length_b   3.32986800
_cell_length_c   21.47353500
_cell_angle_alpha   90.00000000
_cell_angle_beta   90.00000000
_cell_angle_gamma   90.00000000
_symmetry_Int_Tables_number   1
_chemical_formula_structural   Zr8ZnRh3
_chemical_formula_sum   'Zr8 Zn1 Rh3'
_cell_volume   238.09900482
_cell_formula_units_Z   1
loop_
 _symmetry_equiv_pos_site_id
 _symmetry_equiv_pos_as_xyz
  1  'x, y, z'
loop_
 _atom_site_type_symbol
 _atom_site_label
 _atom_site_symmetry_multiplicity
 _atom_site_fract_x
 _atom_site_fract_y
 _atom_site_fract_z
 _atom_site_occupancy
  Zr  Zr0  1  0.500000  0.500000  0.080461  1
  Zr  Zr1  1  0.000000  0.000000  0.328970  1
  Zr  Zr2  1  0.500000  0.500000  0.576725  1
  Zr  Zr3  1  0.000000  0.000000  0.824075  1
  Zr  Zr4  1  0.000000  0.000000  0.175925  1
  Zr  Zr5  1  0.500000  0.500000  0.423275  1
  Zr  Zr6  1  0.000000  0.000000  0.671030  1
  Zr  Zr7  1  0.500000  0.500000  0.919539  1
  Zn  Zn8  1  0.000000  0.000000  0.000000  1
  Rh  Rh9  1  0.500000  0.500000  0.251840  1
  Rh  Rh10  1  0.000000  0.000000  0.500000  1
  Rh  Rh11  1  0.500000  0.500000  0.748160  1
