# generated using pymatgen
data_Hf18Ta5Ga2Re3
_symmetry_space_group_name_H-M   'P 1'
_cell_length_a   8.70281908
_cell_length_b   8.76562423
_cell_length_c   8.80748000
_cell_angle_alpha   90.00000000
_cell_angle_beta   90.00000000
_cell_angle_gamma   120.24639776
_symmetry_Int_Tables_number   1
_chemical_formula_structural   Hf18Ta5Ga2Re3
_chemical_formula_sum   'Hf18 Ta5 Ga2 Re3'
_cell_volume   580.41876210
_cell_formula_units_Z   1
loop_
 _symmetry_equiv_pos_site_id
 _symmetry_equiv_pos_as_xyz
  1  'x, y, z'
loop_
 _atom_site_type_symbol
 _atom_site_label
 _atom_site_symmetry_multiplicity
 _atom_site_fract_x
 _atom_site_fract_y
 _atom_site_fract_z
 _atom_site_occupancy
  Hf  Hf0  1  0.802322  0.605318  0.546716  1
  Hf  Hf1  1  0.802085  0.197215  0.546515  1
  Hf  Hf2  1  0.391732  0.195851  0.543954  1
  Hf  Hf3  1  0.196437  0.392616  0.449771  1
  Hf  Hf4  1  0.196649  0.803587  0.449977  1
  Hf  Hf5  1  0.607647  0.803825  0.451500  1
  Hf  Hf6  1  0.196437  0.392616  0.050229  1
  Hf  Hf7  1  0.196649  0.803587  0.050023  1
  Hf  Hf8  1  0.607647  0.803825  0.048500  1
  Hf  Hf9  1  0.802322  0.605318  0.953284  1
  Hf  Hf10  1  0.802085  0.197215  0.953485  1
  Hf  Hf11  1  0.391732  0.195851  0.956046  1
  Hf  Hf12  1  0.461051  0.924014  0.750000  1
  Hf  Hf13  1  0.460973  0.537087  0.750000  1
  Hf  Hf14  1  0.076684  0.538335  0.750000  1
  Hf  Hf15  1  0.535564  0.077070  0.250000  1
  Hf  Hf16  1  0.535670  0.458477  0.250000  1
  Hf  Hf17  1  0.923592  0.461797  0.250000  1
  Ta  Ta18  1  0.110473  0.221467  0.750000  1
  Ta  Ta19  1  0.110612  0.889022  0.750000  1
  Ta  Ta20  1  0.777223  0.888695  0.750000  1
  Ta  Ta21  1  0.895463  0.781389  0.250000  1
  Ta  Ta22  1  0.895204  0.113977  0.250000  1
  Ga  Ga23  1  0.664834  0.332560  0.750000  1
  Ga  Ga24  1  0.333145  0.666428  0.250000  1
  Re  Re25  1  0.224663  0.112286  0.250000  1
  Re  Re26  1  0.000553  0.000286  0.500335  1
  Re  Re27  1  0.000553  0.000286  0.999665  1
