# generated using pymatgen
data_SrZr4Si12Ir19
_symmetry_space_group_name_H-M   'P 1'
_cell_length_a   12.79698100
_cell_length_b   12.79698206
_cell_length_c   3.94182400
_cell_angle_alpha   90.00000000
_cell_angle_beta   90.00000000
_cell_angle_gamma   120.00000501
_symmetry_Int_Tables_number   1
_chemical_formula_structural   SrZr4Si12Ir19
_chemical_formula_sum   'Sr1 Zr4 Si12 Ir19'
_cell_volume   559.04005441
_cell_formula_units_Z   1
loop_
 _symmetry_equiv_pos_site_id
 _symmetry_equiv_pos_as_xyz
  1  'x, y, z'
loop_
 _atom_site_type_symbol
 _atom_site_label
 _atom_site_symmetry_multiplicity
 _atom_site_fract_x
 _atom_site_fract_y
 _atom_site_fract_z
 _atom_site_occupancy
  Sr  Sr0  1  0.666667  0.333333  0.000000  1
  Zr  Zr1  1  0.000504  0.815049  0.500000  1
  Zr  Zr2  1  0.184951  0.185455  0.500000  1
  Zr  Zr3  1  0.814545  0.999496  0.500000  1
  Zr  Zr4  1  0.333333  0.666667  0.000000  1
  Si  Si5  1  0.002849  0.178759  0.000000  1
  Si  Si6  1  0.821241  0.824089  0.000000  1
  Si  Si7  1  0.175911  0.997151  0.000000  1
  Si  Si8  1  0.517782  0.687638  0.500000  1
  Si  Si9  1  0.312362  0.830144  0.500000  1
  Si  Si10  1  0.169856  0.482218  0.500000  1
  Si  Si11  1  0.479230  0.164151  0.500000  1
  Si  Si12  1  0.684922  0.520770  0.500000  1
  Si  Si13  1  0.835849  0.315078  0.500000  1
  Si  Si14  1  0.999148  0.633548  0.000000  1
  Si  Si15  1  0.366452  0.365601  0.000000  1
  Si  Si16  1  0.634399  0.000852  0.000000  1
  Ir  Ir17  1  0.002679  0.280860  0.500000  1
  Ir  Ir18  1  0.719140  0.721819  0.500000  1
  Ir  Ir19  1  0.278181  0.997321  0.500000  1
  Ir  Ir20  1  0.624923  0.808587  0.000000  1
  Ir  Ir21  1  0.191413  0.816335  0.000000  1
  Ir  Ir22  1  0.183665  0.375077  0.000000  1
  Ir  Ir23  1  0.367577  0.178244  0.000000  1
  Ir  Ir24  1  0.810667  0.632423  0.000000  1
  Ir  Ir25  1  0.821756  0.189333  0.000000  1
  Ir  Ir26  1  0.508612  0.869132  0.500000  1
  Ir  Ir27  1  0.130868  0.639480  0.500000  1
  Ir  Ir28  1  0.360520  0.491388  0.500000  1
  Ir  Ir29  1  0.480059  0.357864  0.500000  1
  Ir  Ir30  1  0.877805  0.519941  0.500000  1
  Ir  Ir31  1  0.642136  0.122195  0.500000  1
  Ir  Ir32  1  0.000000  0.000000  0.000000  1
  Ir  Ir33  1  0.000554  0.446709  0.000000  1
  Ir  Ir34  1  0.553291  0.553846  0.000000  1
  Ir  Ir35  1  0.446154  0.999446  0.000000  1
