# generated using pymatgen
data_Sr8Sb4H2O
_symmetry_space_group_name_H-M   'P 1'
_cell_length_a   4.94978631
_cell_length_b   4.94978628
_cell_length_c   18.28166521
_cell_angle_alpha   97.78034167
_cell_angle_beta   97.78034300
_cell_angle_gamma   90.00000294
_symmetry_Int_Tables_number   1
_chemical_formula_structural   Sr8Sb4H2O
_chemical_formula_sum   'Sr8 Sb4 H2 O1'
_cell_volume   439.62258346
_cell_formula_units_Z   1
loop_
 _symmetry_equiv_pos_site_id
 _symmetry_equiv_pos_as_xyz
  1  'x, y, z'
loop_
 _atom_site_type_symbol
 _atom_site_label
 _atom_site_symmetry_multiplicity
 _atom_site_fract_x
 _atom_site_fract_y
 _atom_site_fract_z
 _atom_site_occupancy
  Sr  Sr0  1  0.500000  0.000000  0.000000  1
  Sr  Sr1  1  0.000000  0.500000  0.000000  1
  Sr  Sr2  1  0.084072  0.084072  0.168145  1
  Sr  Sr3  1  0.660306  0.660306  0.320613  1
  Sr  Sr4  1  0.750000  0.250000  0.500000  1
  Sr  Sr5  1  0.250000  0.750000  0.500000  1
  Sr  Sr6  1  0.339693  0.339693  0.679387  1
  Sr  Sr7  1  0.915928  0.915928  0.831856  1
  Sb  Sb8  1  0.567404  0.567404  0.134809  1
  Sb  Sb9  1  0.179520  0.179520  0.359040  1
  Sb  Sb10  1  0.820479  0.820479  0.640960  1
  Sb  Sb11  1  0.432596  0.432596  0.865191  1
  H  H12  1  0.728879  0.728879  0.457760  1
  H  H13  1  0.271121  0.271121  0.542240  1
  O  O14  1  0.000000  0.000000  0.000000  1
