# generated using pymatgen
data_Ir2Os3RuW2
_symmetry_space_group_name_H-M   'P 1'
_cell_length_a   5.57086600
_cell_length_b   5.55340708
_cell_length_c   4.40171200
_cell_angle_alpha   90.00000000
_cell_angle_beta   90.00000000
_cell_angle_gamma   120.15281193
_symmetry_Int_Tables_number   1
_chemical_formula_structural   Ir2Os3RuW2
_chemical_formula_sum   'Ir2 Os3 Ru1 W2'
_cell_volume   117.75074783
_cell_formula_units_Z   1
loop_
 _symmetry_equiv_pos_site_id
 _symmetry_equiv_pos_as_xyz
  1  'x, y, z'
loop_
 _atom_site_type_symbol
 _atom_site_label
 _atom_site_symmetry_multiplicity
 _atom_site_fract_x
 _atom_site_fract_y
 _atom_site_fract_z
 _atom_site_occupancy
  Ir  Ir0  1  0.336386  0.668445  0.750000  1
  Ir  Ir1  1  0.665464  0.329996  0.250000  1
  Os  Os2  1  0.672430  0.839892  0.250000  1
  Os  Os3  1  0.167089  0.838791  0.250000  1
  Os  Os4  1  0.329555  0.162824  0.750000  1
  Ru  Ru5  1  0.833112  0.161575  0.750000  1
  W  W6  1  0.161475  0.325704  0.250000  1
  W  W7  1  0.834488  0.672773  0.750000  1
