# generated using pymatgen
data_Ca7Tb(AgPb)4
_symmetry_space_group_name_H-M   'P 1'
_cell_length_a   7.64034000
_cell_length_b   5.37763500
_cell_length_c   10.76303500
_cell_angle_alpha   90.00000000
_cell_angle_beta   89.99753512
_cell_angle_gamma   90.00000000
_symmetry_Int_Tables_number   1
_chemical_formula_structural   Ca7Tb(AgPb)4
_chemical_formula_sum   'Ca7 Tb1 Ag4 Pb4'
_cell_volume   442.22038612
_cell_formula_units_Z   1
loop_
 _symmetry_equiv_pos_site_id
 _symmetry_equiv_pos_as_xyz
  1  'x, y, z'
loop_
 _atom_site_type_symbol
 _atom_site_label
 _atom_site_symmetry_multiplicity
 _atom_site_fract_x
 _atom_site_fract_y
 _atom_site_fract_z
 _atom_site_occupancy
  Ca  Ca0  1  0.497046  0.750000  0.125088  1
  Ca  Ca1  1  0.000489  0.249999  0.378215  1
  Ca  Ca2  1  0.499847  0.249999  0.374435  1
  Ca  Ca3  1  0.502186  0.750000  0.625015  1
  Ca  Ca4  1  0.001677  0.750000  0.625076  1
  Ca  Ca5  1  0.499727  0.249999  0.875453  1
  Ca  Ca6  1  0.000305  0.249999  0.871652  1
  Tb  Tb7  1  0.998831  0.750000  0.125022  1
  Ag  Ag8  1  0.758532  0.249999  0.124875  1
  Ag  Ag9  1  0.245327  0.750000  0.370157  1
  Ag  Ag10  1  0.750058  0.249999  0.624831  1
  Ag  Ag11  1  0.245232  0.750000  0.880132  1
  Pb  Pb12  1  0.243227  0.249999  0.124910  1
  Pb  Pb13  1  0.752355  0.750000  0.373068  1
  Pb  Pb14  1  0.252927  0.249999  0.624911  1
  Pb  Pb15  1  0.752234  0.750000  0.877163  1
