# generated using pymatgen
data_Ba6Tb2Np3O18
_symmetry_space_group_name_H-M   'P 1'
_cell_length_a   6.13010757
_cell_length_b   6.13010653
_cell_length_c   15.33155700
_cell_angle_alpha   90.00000000
_cell_angle_beta   78.46784412
_cell_angle_gamma   120.00001726
_symmetry_Int_Tables_number   1
_chemical_formula_structural   Ba6Tb2Np3O18
_chemical_formula_sum   'Ba6 Tb2 Np3 O18'
_cell_volume   485.46901853
_cell_formula_units_Z   1
loop_
 _symmetry_equiv_pos_site_id
 _symmetry_equiv_pos_as_xyz
  1  'x, y, z'
loop_
 _atom_site_type_symbol
 _atom_site_label
 _atom_site_symmetry_multiplicity
 _atom_site_fract_x
 _atom_site_fract_y
 _atom_site_fract_z
 _atom_site_occupancy
  Ba  Ba0  1  0.272421  0.636210  0.091370  1
  Ba  Ba1  1  0.817532  0.908765  0.273703  1
  Ba  Ba2  1  0.367954  0.183977  0.448071  1
  Ba  Ba3  1  0.632045  0.816022  0.551930  1
  Ba  Ba4  1  0.182468  0.091235  0.726297  1
  Ba  Ba5  1  0.727579  0.363790  0.908630  1
  Tb  Tb6  1  0.551102  0.275551  0.173346  1
  Tb  Tb7  1  0.448898  0.724449  0.826653  1
  Np  Np8  1  0.000000  0.000000  0.000000  1
  Np  Np9  1  0.105615  0.552807  0.341578  1
  Np  Np10  1  0.894385  0.447193  0.658422  1
  O  O11  1  0.270730  0.135365  0.078553  1
  O  O12  1  0.786081  0.135366  0.078553  1
  O  O13  1  0.786082  0.650716  0.078553  1
  O  O14  1  0.322192  0.425606  0.252202  1
  O  O15  1  0.851214  0.425607  0.252202  1
  O  O16  1  0.322190  0.896584  0.252202  1
  O  O17  1  0.894683  0.199886  0.410521  1
  O  O18  1  0.894683  0.694795  0.410521  1
  O  O19  1  0.389593  0.694796  0.410521  1
  O  O20  1  0.105318  0.305203  0.589479  1
  O  O21  1  0.610407  0.305204  0.589479  1
  O  O22  1  0.105318  0.800113  0.589479  1
  O  O23  1  0.677808  0.103416  0.747798  1
  O  O24  1  0.148787  0.574392  0.747798  1
  O  O25  1  0.677809  0.574393  0.747798  1
  O  O26  1  0.213917  0.349283  0.921447  1
  O  O27  1  0.213917  0.864635  0.921447  1
  O  O28  1  0.729270  0.864635  0.921447  1
