# generated using pymatgen
data_Eu4GaPd4Pb
_symmetry_space_group_name_H-M   'P 1'
_cell_length_a   5.84242334
_cell_length_b   5.84242412
_cell_length_c   8.38647264
_cell_angle_alpha   77.95679111
_cell_angle_beta   77.95678880
_cell_angle_gamma   60.09526678
_symmetry_Int_Tables_number   1
_chemical_formula_structural   Eu4GaPd4Pb
_chemical_formula_sum   'Eu4 Ga1 Pd4 Pb1'
_cell_volume   240.83197753
_cell_formula_units_Z   1
loop_
 _symmetry_equiv_pos_site_id
 _symmetry_equiv_pos_as_xyz
  1  'x, y, z'
loop_
 _atom_site_type_symbol
 _atom_site_label
 _atom_site_symmetry_multiplicity
 _atom_site_fract_x
 _atom_site_fract_y
 _atom_site_fract_z
 _atom_site_occupancy
  Eu  Eu0  1  0.790317  0.506202  0.349588  1
  Eu  Eu1  1  0.493798  0.209683  0.150412  1
  Eu  Eu2  1  0.207312  0.495077  0.646363  1
  Eu  Eu3  1  0.504923  0.792688  0.853637  1
  Ga  Ga4  1  0.135580  0.864420  0.250000  1
  Pd  Pd5  1  0.010830  0.731238  0.016359  1
  Pd  Pd6  1  0.268762  0.989170  0.483641  1
  Pd  Pd7  1  0.008933  0.261883  0.013723  1
  Pd  Pd8  1  0.738117  0.991067  0.486277  1
  Pb  Pb9  1  0.841427  0.158573  0.750000  1
