# generated using pymatgen
data_Ho4PdPt3
_symmetry_space_group_name_H-M   'P 1'
_cell_length_a   4.49578500
_cell_length_b   5.59138094
_cell_length_c   7.00011916
_cell_angle_alpha   89.84785178
_cell_angle_beta   90.00000000
_cell_angle_gamma   90.00000000
_symmetry_Int_Tables_number   1
_chemical_formula_structural   Ho4PdPt3
_chemical_formula_sum   'Ho4 Pd1 Pt3'
_cell_volume   175.96590079
_cell_formula_units_Z   1
loop_
 _symmetry_equiv_pos_site_id
 _symmetry_equiv_pos_as_xyz
  1  'x, y, z'
loop_
 _atom_site_type_symbol
 _atom_site_label
 _atom_site_symmetry_multiplicity
 _atom_site_fract_x
 _atom_site_fract_y
 _atom_site_fract_z
 _atom_site_occupancy
  Ho  Ho0  1  0.250000  0.357831  0.682421  1
  Ho  Ho1  1  0.250000  0.142300  0.181213  1
  Ho  Ho2  1  0.750000  0.638753  0.314972  1
  Ho  Ho3  1  0.750000  0.861174  0.822034  1
  Pd  Pd4  1  0.250000  0.846012  0.543719  1
  Pt  Pt5  1  0.250000  0.657520  0.044304  1
  Pt  Pt6  1  0.750000  0.151531  0.456934  1
  Pt  Pt7  1  0.750000  0.344879  0.954404  1
