# generated using pymatgen
data_Tb4DyIr3
_symmetry_space_group_name_H-M   'P 1'
_cell_length_a   10.95055500
_cell_length_b   10.95055500
_cell_length_c   6.37859400
_cell_angle_alpha   90.00000000
_cell_angle_beta   90.00000000
_cell_angle_gamma   90.00000000
_symmetry_Int_Tables_number   1
_chemical_formula_structural   Tb4DyIr3
_chemical_formula_sum   'Tb16 Dy4 Ir12'
_cell_volume   764.88689767
_cell_formula_units_Z   4
loop_
 _symmetry_equiv_pos_site_id
 _symmetry_equiv_pos_as_xyz
  1  'x, y, z'
loop_
 _atom_site_type_symbol
 _atom_site_label
 _atom_site_symmetry_multiplicity
 _atom_site_fract_x
 _atom_site_fract_y
 _atom_site_fract_z
 _atom_site_occupancy
  Tb  Tb0  1  0.291239  0.088507  0.378200  1
  Tb  Tb1  1  0.291239  0.911493  0.878200  1
  Tb  Tb2  1  0.708761  0.088507  0.878200  1
  Tb  Tb3  1  0.708761  0.911493  0.378200  1
  Tb  Tb4  1  0.588507  0.791239  0.878200  1
  Tb  Tb5  1  0.588507  0.208761  0.378200  1
  Tb  Tb6  1  0.411493  0.791239  0.378200  1
  Tb  Tb7  1  0.411493  0.208761  0.878200  1
  Tb  Tb8  1  0.208761  0.411493  0.621800  1
  Tb  Tb9  1  0.208761  0.588507  0.121800  1
  Tb  Tb10  1  0.791239  0.411493  0.121800  1
  Tb  Tb11  1  0.791239  0.588507  0.621800  1
  Tb  Tb12  1  0.911493  0.708761  0.121800  1
  Tb  Tb13  1  0.911493  0.291239  0.621800  1
  Tb  Tb14  1  0.088507  0.708761  0.621800  1
  Tb  Tb15  1  0.088507  0.291239  0.121800  1
  Dy  Dy16  1  0.000000  0.000000  0.500000  1
  Dy  Dy17  1  0.000000  0.000000  0.000000  1
  Dy  Dy18  1  0.500000  0.500000  0.000000  1
  Dy  Dy19  1  0.500000  0.500000  0.500000  1
  Ir  Ir20  1  0.846626  0.153374  0.250000  1
  Ir  Ir21  1  0.846626  0.846626  0.750000  1
  Ir  Ir22  1  0.153374  0.153374  0.750000  1
  Ir  Ir23  1  0.153374  0.846626  0.250000  1
  Ir  Ir24  1  0.653374  0.346626  0.750000  1
  Ir  Ir25  1  0.653374  0.653374  0.250000  1
  Ir  Ir26  1  0.346626  0.346626  0.250000  1
  Ir  Ir27  1  0.346626  0.653374  0.750000  1
  Ir  Ir28  1  0.500000  0.000000  0.123562  1
  Ir  Ir29  1  0.500000  0.000000  0.623562  1
  Ir  Ir30  1  0.000000  0.500000  0.876438  1
  Ir  Ir31  1  0.000000  0.500000  0.376438  1
