# generated using pymatgen
data_KRb(SnAu)6
_symmetry_space_group_name_H-M   'P 1'
_cell_length_a   4.73401200
_cell_length_b   8.02531200
_cell_length_c   9.47774600
_cell_angle_alpha   90.00000000
_cell_angle_beta   90.00000000
_cell_angle_gamma   90.00000000
_symmetry_Int_Tables_number   1
_chemical_formula_structural   KRb(SnAu)6
_chemical_formula_sum   'K1 Rb1 Sn6 Au6'
_cell_volume   360.07779920
_cell_formula_units_Z   1
loop_
 _symmetry_equiv_pos_site_id
 _symmetry_equiv_pos_as_xyz
  1  'x, y, z'
loop_
 _atom_site_type_symbol
 _atom_site_label
 _atom_site_symmetry_multiplicity
 _atom_site_fract_x
 _atom_site_fract_y
 _atom_site_fract_z
 _atom_site_occupancy
  K  K0  1  0.500000  0.000000  0.738210  1
  Rb  Rb1  1  0.000000  0.500000  0.258620  1
  Sn  Sn2  1  0.500000  0.197604  0.119449  1
  Sn  Sn3  1  0.500000  0.802396  0.119449  1
  Sn  Sn4  1  0.000000  0.699505  0.879556  1
  Sn  Sn5  1  0.000000  0.300495  0.879556  1
  Sn  Sn6  1  0.000000  0.000000  0.387158  1
  Sn  Sn7  1  0.500000  0.500000  0.612745  1
  Au  Au8  1  0.500000  0.790387  0.418186  1
  Au  Au9  1  0.000000  0.000000  0.071783  1
  Au  Au10  1  0.500000  0.500000  0.926074  1
  Au  Au11  1  0.000000  0.715133  0.585514  1
  Au  Au12  1  0.000000  0.284867  0.585514  1
  Au  Au13  1  0.500000  0.209613  0.418186  1
