# generated using pymatgen
data_Cs5Pu2S4Cl9
_symmetry_space_group_name_H-M   'P 1'
_cell_length_a   10.91117940
_cell_length_b   10.91123819
_cell_length_c   10.91117930
_cell_angle_alpha   139.71320562
_cell_angle_beta   121.19706774
_cell_angle_gamma   73.69185225
_symmetry_Int_Tables_number   1
_chemical_formula_structural   Cs5Pu2S4Cl9
_chemical_formula_sum   'Cs5 Pu2 S4 Cl9'
_cell_volume   702.98510959
_cell_formula_units_Z   1
loop_
 _symmetry_equiv_pos_site_id
 _symmetry_equiv_pos_as_xyz
  1  'x, y, z'
loop_
 _atom_site_type_symbol
 _atom_site_label
 _atom_site_symmetry_multiplicity
 _atom_site_fract_x
 _atom_site_fract_y
 _atom_site_fract_z
 _atom_site_occupancy
  Cs  Cs0  1  0.435411  0.659639  0.775771  1
  Cs  Cs1  1  0.883867  0.659639  0.224228  1
  Cs  Cs2  1  0.500000  0.000000  0.500000  1
  Cs  Cs3  1  0.564589  0.340361  0.224229  1
  Cs  Cs4  1  0.116133  0.340361  0.775772  1
  Pu  Pu5  1  0.109438  0.109431  0.999994  1
  Pu  Pu6  1  0.890562  0.890569  0.000006  1
  S  S7  1  0.095449  0.766566  0.862015  1
  S  S8  1  0.904551  0.766566  0.671118  1
  S  S9  1  0.904551  0.233434  0.137985  1
  S  S10  1  0.095449  0.233434  0.328882  1
  Cl  Cl11  1  0.216260  0.965479  0.749218  1
  Cl  Cl12  1  0.611173  0.865472  0.745702  1
  Cl  Cl13  1  0.783740  0.034521  0.250782  1
  Cl  Cl14  1  0.388827  0.134528  0.254298  1
  Cl  Cl15  1  0.119771  0.865472  0.254299  1
  Cl  Cl16  1  0.216258  0.467034  0.250776  1
  Cl  Cl17  1  0.783742  0.532966  0.749224  1
  Cl  Cl18  1  0.880229  0.134528  0.745701  1
  Cl  Cl19  1  0.500000  0.500000  0.000000  1
