# generated using pymatgen
data_PaGaCu5
_symmetry_space_group_name_H-M   'P 1'
_cell_length_a   5.00861400
_cell_length_b   8.06139200
_cell_length_c   10.16038700
_cell_angle_alpha   90.00000000
_cell_angle_beta   90.00000000
_cell_angle_gamma   90.00000000
_symmetry_Int_Tables_number   1
_chemical_formula_structural   PaGaCu5
_chemical_formula_sum   'Pa4 Ga4 Cu20'
_cell_volume   410.23985811
_cell_formula_units_Z   4
loop_
 _symmetry_equiv_pos_site_id
 _symmetry_equiv_pos_as_xyz
  1  'x, y, z'
loop_
 _atom_site_type_symbol
 _atom_site_label
 _atom_site_symmetry_multiplicity
 _atom_site_fract_x
 _atom_site_fract_y
 _atom_site_fract_z
 _atom_site_occupancy
  Pa  Pa0  1  0.250000  0.755116  0.059810  1
  Pa  Pa1  1  0.750000  0.244884  0.940190  1
  Pa  Pa2  1  0.750000  0.744884  0.559810  1
  Pa  Pa3  1  0.250000  0.255116  0.440190  1
  Ga  Ga4  1  0.250000  0.641526  0.356901  1
  Ga  Ga5  1  0.750000  0.358474  0.643099  1
  Ga  Ga6  1  0.750000  0.858474  0.856901  1
  Ga  Ga7  1  0.250000  0.141526  0.143099  1
  Cu  Cu8  1  0.250000  0.820139  0.753562  1
  Cu  Cu9  1  0.750000  0.179861  0.246438  1
  Cu  Cu10  1  0.750000  0.679861  0.253562  1
  Cu  Cu11  1  0.250000  0.320139  0.746438  1
  Cu  Cu12  1  0.505401  0.568526  0.807617  1
  Cu  Cu13  1  0.494599  0.431474  0.192383  1
  Cu  Cu14  1  0.494599  0.931474  0.307617  1
  Cu  Cu15  1  0.005401  0.431474  0.192383  1
  Cu  Cu16  1  0.505401  0.068526  0.692383  1
  Cu  Cu17  1  0.994599  0.568526  0.807617  1
  Cu  Cu18  1  0.994599  0.068526  0.692383  1
  Cu  Cu19  1  0.005401  0.931474  0.307617  1
  Cu  Cu20  1  0.250000  0.567655  0.592480  1
  Cu  Cu21  1  0.750000  0.432345  0.407520  1
  Cu  Cu22  1  0.750000  0.932345  0.092480  1
  Cu  Cu23  1  0.250000  0.067655  0.907520  1
  Cu  Cu24  1  0.250000  0.910152  0.517201  1
  Cu  Cu25  1  0.750000  0.089848  0.482799  1
  Cu  Cu26  1  0.750000  0.589848  0.017201  1
  Cu  Cu27  1  0.250000  0.410152  0.982799  1
