# generated using pymatgen
data_Y3Al8ZnNi6
_symmetry_space_group_name_H-M   'P 1'
_cell_length_a   9.06910589
_cell_length_b   9.03012382
_cell_length_c   4.10306000
_cell_angle_alpha   90.00000000
_cell_angle_beta   90.00000000
_cell_angle_gamma   119.85792304
_symmetry_Int_Tables_number   1
_chemical_formula_structural   Y3Al8ZnNi6
_chemical_formula_sum   'Y3 Al8 Zn1 Ni6'
_cell_volume   291.41819345
_cell_formula_units_Z   1
loop_
 _symmetry_equiv_pos_site_id
 _symmetry_equiv_pos_as_xyz
  1  'x, y, z'
loop_
 _atom_site_type_symbol
 _atom_site_label
 _atom_site_symmetry_multiplicity
 _atom_site_fract_x
 _atom_site_fract_y
 _atom_site_fract_z
 _atom_site_occupancy
  Y  Y0  1  0.330678  0.664352  0.500000  1
  Y  Y1  1  0.669322  0.333673  0.500000  1
  Y  Y2  1  0.000000  0.003585  0.000000  1
  Al  Al3  1  0.000000  0.496825  0.000000  1
  Al  Al4  1  0.501921  0.500264  0.000000  1
  Al  Al5  1  0.498079  0.998344  0.000000  1
  Al  Al6  1  0.705086  0.001630  0.500000  1
  Al  Al7  1  0.703674  0.703623  0.500000  1
  Al  Al8  1  0.296326  0.999949  0.500000  1
  Al  Al9  1  0.000000  0.702541  0.500000  1
  Al  Al10  1  0.294914  0.296544  0.500000  1
  Zn  Zn11  1  0.000000  0.297318  0.500000  1
  Ni  Ni12  1  0.811975  0.179437  0.000000  1
  Ni  Ni13  1  0.819227  0.636616  0.000000  1
  Ni  Ni14  1  0.180773  0.817387  0.000000  1
  Ni  Ni15  1  0.637095  0.818772  0.000000  1
  Ni  Ni16  1  0.362905  0.181678  0.000000  1
  Ni  Ni17  1  0.188025  0.367462  0.000000  1
