# generated using pymatgen
data_YTa4Nb(B2Ru5)2
_symmetry_space_group_name_H-M   'P 1'
_cell_length_a   9.51958447
_cell_length_b   9.51958436
_cell_length_c   3.05324700
_cell_angle_alpha   90.00000000
_cell_angle_beta   90.00000000
_cell_angle_gamma   90.47022287
_symmetry_Int_Tables_number   1
_chemical_formula_structural   YTa4Nb(B2Ru5)2
_chemical_formula_sum   'Y1 Ta4 Nb1 B4 Ru10'
_cell_volume   276.68351977
_cell_formula_units_Z   1
loop_
 _symmetry_equiv_pos_site_id
 _symmetry_equiv_pos_as_xyz
  1  'x, y, z'
loop_
 _atom_site_type_symbol
 _atom_site_label
 _atom_site_symmetry_multiplicity
 _atom_site_fract_x
 _atom_site_fract_y
 _atom_site_fract_z
 _atom_site_occupancy
  Y  Y0  1  0.824504  0.675496  0.000000  1
  Ta  Ta1  1  0.324487  0.823641  0.000000  1
  Ta  Ta2  1  0.676359  0.175513  0.000000  1
  Ta  Ta3  1  0.501384  0.500659  0.000000  1
  Ta  Ta4  1  0.999341  0.998616  0.000000  1
  Nb  Nb5  1  0.178408  0.321592  0.000000  1
  B  B6  1  0.618036  0.881964  0.000000  1
  B  B7  1  0.376675  0.123325  0.000000  1
  B  B8  1  0.123658  0.619239  0.000000  1
  B  B9  1  0.880761  0.376342  0.000000  1
  Ru  Ru10  1  0.557640  0.725047  0.500000  1
  Ru  Ru11  1  0.428040  0.283050  0.500000  1
  Ru  Ru12  1  0.082665  0.782785  0.500000  1
  Ru  Ru13  1  0.929810  0.215544  0.500000  1
  Ru  Ru14  1  0.284456  0.570190  0.500000  1
  Ru  Ru15  1  0.717215  0.417335  0.500000  1
  Ru  Ru16  1  0.216950  0.071960  0.500000  1
  Ru  Ru17  1  0.774953  0.942360  0.500000  1
  Ru  Ru18  1  0.495785  0.004215  0.500000  1
  Ru  Ru19  1  0.008873  0.491127  0.500000  1
