# generated using pymatgen
data_Np8Tc(B8W)3
_symmetry_space_group_name_H-M   'P 1'
_cell_length_a   3.64961700
_cell_length_b   9.27437549
_cell_length_c   11.32789900
_cell_angle_alpha   90.01745732
_cell_angle_beta   90.00000000
_cell_angle_gamma   90.00000000
_symmetry_Int_Tables_number   1
_chemical_formula_structural   Np8Tc(B8W)3
_chemical_formula_sum   'Np8 Tc1 B24 W3'
_cell_volume   383.42578381
_cell_formula_units_Z   1
loop_
 _symmetry_equiv_pos_site_id
 _symmetry_equiv_pos_as_xyz
  1  'x, y, z'
loop_
 _atom_site_type_symbol
 _atom_site_label
 _atom_site_symmetry_multiplicity
 _atom_site_fract_x
 _atom_site_fract_y
 _atom_site_fract_z
 _atom_site_occupancy
  Np  Np0  1  0.000000  0.338373  0.407305  1
  Np  Np1  1  0.000000  0.662240  0.593334  1
  Np  Np2  1  0.000000  0.838563  0.091814  1
  Np  Np3  1  0.000000  0.162068  0.907185  1
  Np  Np4  1  0.000000  0.958533  0.399471  1
  Np  Np5  1  0.000000  0.040789  0.600081  1
  Np  Np6  1  0.000000  0.458557  0.100297  1
  Np  Np7  1  0.000000  0.541569  0.900298  1
  Tc  Tc8  1  0.000000  0.646124  0.319417  1
  B  B9  1  0.500000  0.552214  0.431439  1
  B  B10  1  0.500000  0.448870  0.567046  1
  B  B11  1  0.500000  0.051560  0.067480  1
  B  B12  1  0.500000  0.948700  0.932478  1
  B  B13  1  0.500000  0.743488  0.423013  1
  B  B14  1  0.500000  0.255208  0.575382  1
  B  B15  1  0.500000  0.245064  0.075799  1
  B  B16  1  0.500000  0.755111  0.924710  1
  B  B17  1  0.500000  0.804547  0.274012  1
  B  B18  1  0.500000  0.194120  0.725986  1
  B  B19  1  0.500000  0.306378  0.226590  1
  B  B20  1  0.500000  0.693889  0.773974  1
  B  B21  1  0.500000  0.645840  0.188537  1
  B  B22  1  0.500000  0.354208  0.813126  1
  B  B23  1  0.500000  0.145930  0.313111  1
  B  B24  1  0.500000  0.853753  0.686693  1
  B  B25  1  0.500000  0.986927  0.220600  1
  B  B26  1  0.500000  0.012508  0.778990  1
  B  B27  1  0.500000  0.489038  0.280099  1
  B  B28  1  0.500000  0.512624  0.720721  1
  B  B29  1  0.500000  0.641795  0.040199  1
  B  B30  1  0.500000  0.358792  0.960893  1
  B  B31  1  0.500000  0.141410  0.460762  1
  B  B32  1  0.500000  0.857471  0.538502  1
  W  W33  1  0.000000  0.353763  0.680284  1
  W  W34  1  0.000000  0.146679  0.180972  1
  W  W35  1  0.000000  0.853300  0.819397  1
