# generated using pymatgen
data_K2I11
_symmetry_space_group_name_H-M   'P 1'
_cell_length_a   13.20647479
_cell_length_b   13.20647644
_cell_length_c   9.12527328
_cell_angle_alpha   90.35241090
_cell_angle_beta   90.35239303
_cell_angle_gamma   152.52835711
_symmetry_Int_Tables_number   1
_chemical_formula_structural   K2I11
_chemical_formula_sum   'K2 I11'
_cell_volume   733.94995634
_cell_formula_units_Z   1
loop_
 _symmetry_equiv_pos_site_id
 _symmetry_equiv_pos_as_xyz
  1  'x, y, z'
loop_
 _atom_site_type_symbol
 _atom_site_label
 _atom_site_symmetry_multiplicity
 _atom_site_fract_x
 _atom_site_fract_y
 _atom_site_fract_z
 _atom_site_occupancy
  K  K0  1  0.621638  0.863686  0.542997  1
  K  K1  1  0.863686  0.621638  0.542997  1
  I  I2  1  0.868868  0.868868  0.035053  1
  I  I3  1  0.054657  0.385554  0.802077  1
  I  I4  1  0.385554  0.054657  0.802077  1
  I  I5  1  0.864119  0.864119  0.358780  1
  I  I6  1  0.911797  0.911797  0.710158  1
  I  I7  1  0.559183  0.874141  0.132587  1
  I  I8  1  0.874141  0.559183  0.132587  1
  I  I9  1  0.063137  0.412275  0.475093  1
  I  I10  1  0.412275  0.063137  0.475093  1
  I  I11  1  0.375822  0.059509  0.127425  1
  I  I12  1  0.059509  0.375822  0.127425  1
