# generated using pymatgen
data_YEr5TcPd
_symmetry_space_group_name_H-M   'P 1'
_cell_length_a   6.35036669
_cell_length_b   7.34123647
_cell_length_c   9.14661400
_cell_angle_alpha   90.00000000
_cell_angle_beta   90.00000000
_cell_angle_gamma   89.92045535
_symmetry_Int_Tables_number   1
_chemical_formula_structural   YEr5TcPd
_chemical_formula_sum   'Y2 Er10 Tc2 Pd2'
_cell_volume   426.41055879
_cell_formula_units_Z   2
loop_
 _symmetry_equiv_pos_site_id
 _symmetry_equiv_pos_as_xyz
  1  'x, y, z'
loop_
 _atom_site_type_symbol
 _atom_site_label
 _atom_site_symmetry_multiplicity
 _atom_site_fract_x
 _atom_site_fract_y
 _atom_site_fract_z
 _atom_site_occupancy
  Y  Y0  1  0.122559  0.469726  0.750000  1
  Y  Y1  1  0.877441  0.530274  0.250000  1
  Er  Er2  1  0.628189  0.038389  0.250000  1
  Er  Er3  1  0.371811  0.961611  0.750000  1
  Er  Er4  1  0.177944  0.185153  0.064444  1
  Er  Er5  1  0.822056  0.814847  0.935556  1
  Er  Er6  1  0.660476  0.326099  0.940424  1
  Er  Er7  1  0.822056  0.814847  0.564444  1
  Er  Er8  1  0.339524  0.673901  0.059576  1
  Er  Er9  1  0.177944  0.185153  0.435556  1
  Er  Er10  1  0.339524  0.673901  0.440424  1
  Er  Er11  1  0.660476  0.326099  0.559576  1
  Tc  Tc12  1  0.464093  0.382017  0.250000  1
  Tc  Tc13  1  0.535907  0.617983  0.750000  1
  Pd  Pd14  1  0.948712  0.110799  0.750000  1
  Pd  Pd15  1  0.051288  0.889201  0.250000  1
