# generated using pymatgen
data_La2Eu8Sb6SeBr
_symmetry_space_group_name_H-M   'P 1'
_cell_length_a   9.50099100
_cell_length_b   9.50099076
_cell_length_c   7.23830100
_cell_angle_alpha   90.00000000
_cell_angle_beta   90.00000000
_cell_angle_gamma   120.00000432
_symmetry_Int_Tables_number   1
_chemical_formula_structural   La2Eu8Sb6SeBr
_chemical_formula_sum   'La2 Eu8 Sb6 Se1 Br1'
_cell_volume   565.85486503
_cell_formula_units_Z   1
loop_
 _symmetry_equiv_pos_site_id
 _symmetry_equiv_pos_as_xyz
  1  'x, y, z'
loop_
 _atom_site_type_symbol
 _atom_site_label
 _atom_site_symmetry_multiplicity
 _atom_site_fract_x
 _atom_site_fract_y
 _atom_site_fract_z
 _atom_site_occupancy
  La  La0  1  0.333333  0.666667  0.500000  1
  La  La1  1  0.666667  0.333333  0.000000  1
  Eu  Eu2  1  0.254917  0.999991  0.261773  1
  Eu  Eu3  1  0.000009  0.745083  0.738227  1
  Eu  Eu4  1  0.745074  0.745083  0.261773  1
  Eu  Eu5  1  0.254917  0.254926  0.738227  1
  Eu  Eu6  1  0.745074  0.999991  0.738227  1
  Eu  Eu7  1  0.000009  0.254926  0.261773  1
  Eu  Eu8  1  0.666667  0.333333  0.500000  1
  Eu  Eu9  1  0.333333  0.666667  0.000000  1
  Sb  Sb10  1  0.604244  0.604125  0.749819  1
  Sb  Sb11  1  0.999881  0.604125  0.250181  1
  Sb  Sb12  1  0.604244  0.000119  0.250181  1
  Sb  Sb13  1  0.395875  0.000119  0.749819  1
  Sb  Sb14  1  0.999881  0.395756  0.749819  1
  Sb  Sb15  1  0.395875  0.395756  0.250181  1
  Se  Se16  1  0.000000  0.000000  0.500000  1
  Br  Br17  1  0.000000  0.000000  0.000000  1
