# generated using pymatgen
data_PrCd5Au3
_symmetry_space_group_name_H-M   'P 1'
_cell_length_a   4.41361600
_cell_length_b   12.84953000
_cell_length_c   14.48442900
_cell_angle_alpha   90.00000000
_cell_angle_beta   90.00000000
_cell_angle_gamma   90.00000000
_symmetry_Int_Tables_number   1
_chemical_formula_structural   PrCd5Au3
_chemical_formula_sum   'Pr4 Cd20 Au12'
_cell_volume   821.45384598
_cell_formula_units_Z   4
loop_
 _symmetry_equiv_pos_site_id
 _symmetry_equiv_pos_as_xyz
  1  'x, y, z'
loop_
 _atom_site_type_symbol
 _atom_site_label
 _atom_site_symmetry_multiplicity
 _atom_site_fract_x
 _atom_site_fract_y
 _atom_site_fract_z
 _atom_site_occupancy
  Pr  Pr0  1  0.250000  0.897840  0.294240  1
  Pr  Pr1  1  0.750000  0.102160  0.705760  1
  Pr  Pr2  1  0.750000  0.397840  0.205760  1
  Pr  Pr3  1  0.250000  0.602160  0.794240  1
  Cd  Cd4  1  0.250000  0.412812  0.995253  1
  Cd  Cd5  1  0.750000  0.587188  0.004747  1
  Cd  Cd6  1  0.750000  0.912812  0.504747  1
  Cd  Cd7  1  0.250000  0.087188  0.495253  1
  Cd  Cd8  1  0.250000  0.608374  0.323151  1
  Cd  Cd9  1  0.750000  0.391626  0.676849  1
  Cd  Cd10  1  0.750000  0.108374  0.176849  1
  Cd  Cd11  1  0.250000  0.891626  0.823151  1
  Cd  Cd12  1  0.250000  0.017253  0.063488  1
  Cd  Cd13  1  0.750000  0.982747  0.936512  1
  Cd  Cd14  1  0.750000  0.517253  0.436512  1
  Cd  Cd15  1  0.250000  0.482747  0.563488  1
  Cd  Cd16  1  0.250000  0.772975  0.030318  1
  Cd  Cd17  1  0.750000  0.227025  0.969682  1
  Cd  Cd18  1  0.750000  0.272975  0.469682  1
  Cd  Cd19  1  0.250000  0.727025  0.530318  1
  Cd  Cd20  1  0.250000  0.188708  0.300008  1
  Cd  Cd21  1  0.750000  0.811292  0.699992  1
  Cd  Cd22  1  0.750000  0.688708  0.199992  1
  Cd  Cd23  1  0.250000  0.311292  0.800008  1
  Au  Au24  1  0.250000  0.570420  0.130789  1
  Au  Au25  1  0.750000  0.429580  0.869211  1
  Au  Au26  1  0.750000  0.070420  0.369211  1
  Au  Au27  1  0.250000  0.929580  0.630789  1
  Au  Au28  1  0.250000  0.236626  0.108056  1
  Au  Au29  1  0.750000  0.763374  0.891944  1
  Au  Au30  1  0.750000  0.736626  0.391944  1
  Au  Au31  1  0.250000  0.263374  0.608056  1
  Au  Au32  1  0.250000  0.388222  0.371757  1
  Au  Au33  1  0.750000  0.611778  0.628243  1
  Au  Au34  1  0.750000  0.888222  0.128243  1
  Au  Au35  1  0.250000  0.111778  0.871757  1
