# generated using pymatgen
data_Al8Os3PtRh4
_symmetry_space_group_name_H-M   'P 1'
_cell_length_a   6.06466800
_cell_length_b   4.25056800
_cell_length_c   8.52393100
_cell_angle_alpha   90.00000000
_cell_angle_beta   90.00006195
_cell_angle_gamma   90.00000000
_symmetry_Int_Tables_number   1
_chemical_formula_structural   Al8Os3PtRh4
_chemical_formula_sum   'Al8 Os3 Pt1 Rh4'
_cell_volume   219.73231183
_cell_formula_units_Z   1
loop_
 _symmetry_equiv_pos_site_id
 _symmetry_equiv_pos_as_xyz
  1  'x, y, z'
loop_
 _atom_site_type_symbol
 _atom_site_label
 _atom_site_symmetry_multiplicity
 _atom_site_fract_x
 _atom_site_fract_y
 _atom_site_fract_z
 _atom_site_occupancy
  Al  Al0  1  0.009874  0.750000  0.124978  1
  Al  Al1  1  0.490125  0.750000  0.125001  1
  Al  Al2  1  0.005501  0.250001  0.379763  1
  Al  Al3  1  0.494493  0.250001  0.379783  1
  Al  Al4  1  0.499010  0.750000  0.624981  1
  Al  Al5  1  0.001002  0.750000  0.625002  1
  Al  Al6  1  0.494493  0.250001  0.870236  1
  Al  Al7  1  0.005506  0.250001  0.870257  1
  Os  Os8  1  0.249988  0.750000  0.374350  1
  Os  Os9  1  0.750010  0.250001  0.625010  1
  Os  Os10  1  0.250006  0.750000  0.875640  1
  Pt  Pt11  1  0.749992  0.250001  0.125007  1
  Rh  Rh12  1  0.250017  0.250001  0.125008  1
  Rh  Rh13  1  0.750004  0.750000  0.370073  1
  Rh  Rh14  1  0.249988  0.250001  0.625003  1
  Rh  Rh15  1  0.749990  0.750000  0.879908  1
