# generated using pymatgen
data_Nd10CuGe(BiPb2)2
_symmetry_space_group_name_H-M   'P 1'
_cell_length_a   9.60602601
_cell_length_b   9.60602532
_cell_length_c   6.88030700
_cell_angle_alpha   89.99692405
_cell_angle_beta   89.99692206
_cell_angle_gamma   119.99676043
_symmetry_Int_Tables_number   1
_chemical_formula_structural   Nd10CuGe(BiPb2)2
_chemical_formula_sum   'Nd10 Cu1 Ge1 Bi2 Pb4'
_cell_volume   549.84478173
_cell_formula_units_Z   1
loop_
 _symmetry_equiv_pos_site_id
 _symmetry_equiv_pos_as_xyz
  1  'x, y, z'
loop_
 _atom_site_type_symbol
 _atom_site_label
 _atom_site_symmetry_multiplicity
 _atom_site_fract_x
 _atom_site_fract_y
 _atom_site_fract_z
 _atom_site_occupancy
  Nd  Nd0  1  0.666843  0.334284  0.998480  1
  Nd  Nd1  1  0.334284  0.666843  0.998480  1
  Nd  Nd2  1  0.336349  0.666150  0.502404  1
  Nd  Nd3  1  0.666150  0.336349  0.502404  1
  Nd  Nd4  1  0.748030  0.748030  0.757947  1
  Nd  Nd5  1  0.251258  0.999970  0.756810  1
  Nd  Nd6  1  0.999970  0.251258  0.756810  1
  Nd  Nd7  1  0.250101  0.250101  0.243222  1
  Nd  Nd8  1  0.749282  0.997760  0.243015  1
  Nd  Nd9  1  0.997760  0.749282  0.243015  1
  Cu  Cu10  1  0.998909  0.998909  0.502713  1
  Ge  Ge11  1  0.000184  0.000184  0.998680  1
  Bi  Bi12  1  0.392230  0.000387  0.249066  1
  Bi  Bi13  1  0.000387  0.392230  0.249066  1
  Pb  Pb14  1  0.391205  0.391205  0.749918  1
  Pb  Pb15  1  0.609466  0.001017  0.749543  1
  Pb  Pb16  1  0.001017  0.609466  0.749543  1
  Pb  Pb17  1  0.606574  0.606574  0.248883  1
