# generated using pymatgen
data_Zr7Nb(As2Se)2
_symmetry_space_group_name_H-M   'P 1'
_cell_length_a   7.79726400
_cell_length_b   7.79726429
_cell_length_c   19.84403100
_cell_angle_alpha   90.00000000
_cell_angle_beta   90.00000000
_cell_angle_gamma   152.67813226
_symmetry_Int_Tables_number   1
_chemical_formula_structural   Zr7Nb(As2Se)2
_chemical_formula_sum   'Zr14 Nb2 As8 Se4'
_cell_volume   553.75334160
_cell_formula_units_Z   2
loop_
 _symmetry_equiv_pos_site_id
 _symmetry_equiv_pos_as_xyz
  1  'x, y, z'
loop_
 _atom_site_type_symbol
 _atom_site_label
 _atom_site_symmetry_multiplicity
 _atom_site_fract_x
 _atom_site_fract_y
 _atom_site_fract_z
 _atom_site_occupancy
  Zr  Zr0  1  0.734868  0.265135  0.157776  1
  Zr  Zr1  1  0.265132  0.734865  0.842224  1
  Zr  Zr2  1  0.265132  0.734865  0.657776  1
  Zr  Zr3  1  0.734868  0.265135  0.342224  1
  Zr  Zr4  1  0.532010  0.467996  0.116205  1
  Zr  Zr5  1  0.467990  0.532004  0.883795  1
  Zr  Zr6  1  0.467990  0.532004  0.616205  1
  Zr  Zr7  1  0.532010  0.467996  0.383795  1
  Zr  Zr8  1  0.667056  0.332939  0.971216  1
  Zr  Zr9  1  0.332944  0.667061  0.028784  1
  Zr  Zr10  1  0.332944  0.667061  0.471216  1
  Zr  Zr11  1  0.667056  0.332939  0.528784  1
  Zr  Zr12  1  0.057089  0.942910  0.750000  1
  Zr  Zr13  1  0.942911  0.057090  0.250000  1
  Nb  Nb14  1  0.000000  0.000000  0.000000  1
  Nb  Nb15  1  0.000000  0.000000  0.500000  1
  As  As16  1  0.901483  0.098524  0.116556  1
  As  As17  1  0.098517  0.901476  0.883444  1
  As  As18  1  0.098517  0.901476  0.616556  1
  As  As19  1  0.901483  0.098524  0.383444  1
  As  As20  1  0.842847  0.157153  0.926155  1
  As  As21  1  0.157153  0.842847  0.073845  1
  As  As22  1  0.157153  0.842847  0.426155  1
  As  As23  1  0.842847  0.157153  0.573845  1
  Se  Se24  1  0.698261  0.301742  0.750000  1
  Se  Se25  1  0.301739  0.698258  0.250000  1
  Se  Se26  1  0.419191  0.580808  0.750000  1
  Se  Se27  1  0.580809  0.419192  0.250000  1
