# generated using pymatgen
data_Ba2Co5Ni13(Ge2P3)2
_symmetry_space_group_name_H-M   'P 1'
_cell_length_a   6.78656700
_cell_length_b   6.79517093
_cell_length_c   10.47119000
_cell_angle_alpha   90.00000000
_cell_angle_beta   90.00000000
_cell_angle_gamma   119.95812872
_symmetry_Int_Tables_number   1
_chemical_formula_structural   Ba2Co5Ni13(Ge2P3)2
_chemical_formula_sum   'Ba2 Co5 Ni13 Ge4 P6'
_cell_volume   418.36975641
_cell_formula_units_Z   1
loop_
 _symmetry_equiv_pos_site_id
 _symmetry_equiv_pos_as_xyz
  1  'x, y, z'
loop_
 _atom_site_type_symbol
 _atom_site_label
 _atom_site_symmetry_multiplicity
 _atom_site_fract_x
 _atom_site_fract_y
 _atom_site_fract_z
 _atom_site_occupancy
  Ba  Ba0  1  0.000399  0.000798  0.499955  1
  Ba  Ba1  1  0.000399  0.000798  0.000045  1
  Co  Co2  1  0.197936  0.395870  0.250000  1
  Co  Co3  1  0.802209  0.198655  0.750000  1
  Co  Co4  1  0.396445  0.198655  0.750000  1
  Co  Co5  1  0.604143  0.801871  0.250000  1
  Co  Co6  1  0.197729  0.801871  0.250000  1
  Ni  Ni7  1  0.458899  0.917797  0.881683  1
  Ni  Ni8  1  0.917335  0.458857  0.120807  1
  Ni  Ni9  1  0.541158  0.082317  0.122036  1
  Ni  Ni10  1  0.082157  0.541837  0.620079  1
  Ni  Ni11  1  0.802246  0.604492  0.750000  1
  Ni  Ni12  1  0.458899  0.917797  0.618317  1
  Ni  Ni13  1  0.541521  0.458857  0.379193  1
  Ni  Ni14  1  0.917335  0.458857  0.379193  1
  Ni  Ni15  1  0.082157  0.541837  0.879921  1
  Ni  Ni16  1  0.459681  0.541837  0.879921  1
  Ni  Ni17  1  0.541158  0.082317  0.377964  1
  Ni  Ni18  1  0.541521  0.458857  0.120807  1
  Ni  Ni19  1  0.459681  0.541837  0.620079  1
  Ge  Ge20  1  0.333148  0.666297  0.431066  1
  Ge  Ge21  1  0.664854  0.329707  0.933520  1
  Ge  Ge22  1  0.664854  0.329707  0.566480  1
  Ge  Ge23  1  0.333148  0.666297  0.068934  1
  P  P24  1  0.164073  0.328146  0.750000  1
  P  P25  1  0.837233  0.163182  0.250000  1
  P  P26  1  0.170067  0.836863  0.750000  1
  P  P27  1  0.836871  0.673743  0.250000  1
  P  P28  1  0.325949  0.163182  0.250000  1
  P  P29  1  0.666796  0.836863  0.750000  1
