# generated using pymatgen
data_TbLu3Cu2(Si2Ru)2
_symmetry_space_group_name_H-M   'P 1'
_cell_length_a   4.17752600
_cell_length_b   6.85923269
_cell_length_c   7.34002711
_cell_angle_alpha   90.91832641
_cell_angle_beta   90.00000000
_cell_angle_gamma   90.00000000
_symmetry_Int_Tables_number   1
_chemical_formula_structural   TbLu3Cu2(Si2Ru)2
_chemical_formula_sum   'Tb1 Lu3 Cu2 Si4 Ru2'
_cell_volume   210.29869410
_cell_formula_units_Z   1
loop_
 _symmetry_equiv_pos_site_id
 _symmetry_equiv_pos_as_xyz
  1  'x, y, z'
loop_
 _atom_site_type_symbol
 _atom_site_label
 _atom_site_symmetry_multiplicity
 _atom_site_fract_x
 _atom_site_fract_y
 _atom_site_fract_z
 _atom_site_occupancy
  Tb  Tb0  1  0.750000  0.503963  0.315384  1
  Lu  Lu1  1  0.250000  0.994942  0.798929  1
  Lu  Lu2  1  0.750000  0.003472  0.198437  1
  Lu  Lu3  1  0.250000  0.492311  0.692888  1
  Cu  Cu4  1  0.750000  0.838429  0.573748  1
  Cu  Cu5  1  0.250000  0.165821  0.426840  1
  Si  Si6  1  0.250000  0.295650  0.091212  1
  Si  Si7  1  0.750000  0.704756  0.904582  1
  Si  Si8  1  0.250000  0.795535  0.389870  1
  Si  Si9  1  0.750000  0.203691  0.612735  1
  Ru  Ru10  1  0.750000  0.345078  0.933645  1
  Ru  Ru11  1  0.250000  0.656350  0.061730  1
