# generated using pymatgen
data_LaNdSiNiI
_symmetry_space_group_name_H-M   'P 1'
_cell_length_a   4.16161800
_cell_length_b   4.16161671
_cell_length_c   8.59944100
_cell_angle_alpha   90.00000000
_cell_angle_beta   90.00000000
_cell_angle_gamma   119.99999433
_symmetry_Int_Tables_number   1
_chemical_formula_structural   LaNdSiNiI
_chemical_formula_sum   'La1 Nd1 Si1 Ni1 I1'
_cell_volume   128.98083077
_cell_formula_units_Z   1
loop_
 _symmetry_equiv_pos_site_id
 _symmetry_equiv_pos_as_xyz
  1  'x, y, z'
loop_
 _atom_site_type_symbol
 _atom_site_label
 _atom_site_symmetry_multiplicity
 _atom_site_fract_x
 _atom_site_fract_y
 _atom_site_fract_z
 _atom_site_occupancy
  La  La0  1  0.000000  0.000000  0.785626  1
  Nd  Nd1  1  0.000000  0.000000  0.216763  1
  Si  Si2  1  0.333333  0.666667  0.016285  1
  Ni  Ni3  1  0.666667  0.333333  0.987573  1
  I  I4  1  0.666667  0.333333  0.493754  1
