# generated using pymatgen
data_Sc2AlSi13Ir6
_symmetry_space_group_name_H-M   'P 1'
_cell_length_a   7.95951581
_cell_length_b   7.95951551
_cell_length_c   7.95951539
_cell_angle_alpha   57.12703489
_cell_angle_beta   57.12703635
_cell_angle_gamma   57.12703223
_symmetry_Int_Tables_number   1
_chemical_formula_structural   Sc2AlSi13Ir6
_chemical_formula_sum   'Sc2 Al1 Si13 Ir6'
_cell_volume   332.96439239
_cell_formula_units_Z   1
loop_
 _symmetry_equiv_pos_site_id
 _symmetry_equiv_pos_as_xyz
  1  'x, y, z'
loop_
 _atom_site_type_symbol
 _atom_site_label
 _atom_site_symmetry_multiplicity
 _atom_site_fract_x
 _atom_site_fract_y
 _atom_site_fract_z
 _atom_site_occupancy
  Sc  Sc0  1  0.999590  0.999590  0.999590  1
  Sc  Sc1  1  0.500410  0.500410  0.500410  1
  Al  Al2  1  0.750000  0.750000  0.750000  1
  Si  Si3  1  0.250000  0.250000  0.250000  1
  Si  Si4  1  0.850334  0.065060  0.671358  1
  Si  Si5  1  0.671358  0.850334  0.065060  1
  Si  Si6  1  0.065060  0.671358  0.850334  1
  Si  Si7  1  0.649666  0.828642  0.434940  1
  Si  Si8  1  0.434940  0.649666  0.828642  1
  Si  Si9  1  0.828642  0.434940  0.649666  1
  Si  Si10  1  0.170004  0.562616  0.355863  1
  Si  Si11  1  0.562616  0.355863  0.170004  1
  Si  Si12  1  0.355863  0.170004  0.562616  1
  Si  Si13  1  0.937384  0.329996  0.144137  1
  Si  Si14  1  0.329996  0.144137  0.937384  1
  Si  Si15  1  0.144137  0.937384  0.329996  1
  Ir  Ir16  1  0.082752  0.417248  0.750000  1
  Ir  Ir17  1  0.250000  0.925872  0.574128  1
  Ir  Ir18  1  0.574128  0.250000  0.925872  1
  Ir  Ir19  1  0.925872  0.574128  0.250000  1
  Ir  Ir20  1  0.417248  0.750000  0.082752  1
  Ir  Ir21  1  0.750000  0.082752  0.417248  1
