# generated using pymatgen
data_AcPtF7
_symmetry_space_group_name_H-M   'P 1'
_cell_length_a   5.86939600
_cell_length_b   9.55082461
_cell_length_c   12.72888992
_cell_angle_alpha   61.66392183
_cell_angle_beta   90.00000000
_cell_angle_gamma   90.00000000
_symmetry_Int_Tables_number   1
_chemical_formula_structural   AcPtF7
_chemical_formula_sum   'Ac4 Pt4 F28'
_cell_volume   628.05205930
_cell_formula_units_Z   4
loop_
 _symmetry_equiv_pos_site_id
 _symmetry_equiv_pos_as_xyz
  1  'x, y, z'
loop_
 _atom_site_type_symbol
 _atom_site_label
 _atom_site_symmetry_multiplicity
 _atom_site_fract_x
 _atom_site_fract_y
 _atom_site_fract_z
 _atom_site_occupancy
  Ac  Ac0  1  0.760069  0.808293  0.764388  1
  Ac  Ac1  1  0.260069  0.191707  0.735612  1
  Ac  Ac2  1  0.239931  0.191707  0.235612  1
  Ac  Ac3  1  0.739931  0.808293  0.264388  1
  Pt  Pt4  1  0.756500  0.273685  0.957188  1
  Pt  Pt5  1  0.256500  0.726315  0.542812  1
  Pt  Pt6  1  0.243500  0.726315  0.042812  1
  Pt  Pt7  1  0.743500  0.273685  0.457188  1
  F  F8  1  0.424551  0.708260  0.919372  1
  F  F9  1  0.924551  0.291740  0.580628  1
  F  F10  1  0.575449  0.291740  0.080628  1
  F  F11  1  0.075449  0.708260  0.419372  1
  F  F12  1  0.457919  0.281637  0.536038  1
  F  F13  1  0.957919  0.718363  0.963962  1
  F  F14  1  0.542081  0.718363  0.463962  1
  F  F15  1  0.042081  0.281637  0.036038  1
  F  F16  1  0.764874  0.507614  0.864463  1
  F  F17  1  0.264874  0.492386  0.635537  1
  F  F18  1  0.235126  0.492386  0.135537  1
  F  F19  1  0.735126  0.507614  0.364463  1
  F  F20  1  0.756956  0.039418  0.046225  1
  F  F21  1  0.256956  0.960582  0.453775  1
  F  F22  1  0.243044  0.960582  0.953775  1
  F  F23  1  0.743044  0.039418  0.546225  1
  F  F24  1  0.974728  0.728054  0.626227  1
  F  F25  1  0.474728  0.271946  0.873773  1
  F  F26  1  0.025272  0.271946  0.373773  1
  F  F27  1  0.525272  0.728054  0.126227  1
  F  F28  1  0.065903  0.740427  0.168866  1
  F  F29  1  0.565903  0.259573  0.331134  1
  F  F30  1  0.934097  0.259573  0.831134  1
  F  F31  1  0.434097  0.740427  0.668866  1
  F  F32  1  0.400688  0.965139  0.230409  1
  F  F33  1  0.900688  0.034861  0.269591  1
  F  F34  1  0.599312  0.034861  0.769591  1
  F  F35  1  0.099312  0.965139  0.730409  1
