# generated using pymatgen
data_Nd4Ti5Fe3O20
_symmetry_space_group_name_H-M   'P 1'
_cell_length_a   5.91054800
_cell_length_b   7.69263368
_cell_length_c   8.78184149
_cell_angle_alpha   90.16061796
_cell_angle_beta   90.00000000
_cell_angle_gamma   90.00000000
_symmetry_Int_Tables_number   1
_chemical_formula_structural   Nd4Ti5Fe3O20
_chemical_formula_sum   'Nd4 Ti5 Fe3 O20'
_cell_volume   399.28839499
_cell_formula_units_Z   1
loop_
 _symmetry_equiv_pos_site_id
 _symmetry_equiv_pos_as_xyz
  1  'x, y, z'
loop_
 _atom_site_type_symbol
 _atom_site_label
 _atom_site_symmetry_multiplicity
 _atom_site_fract_x
 _atom_site_fract_y
 _atom_site_fract_z
 _atom_site_occupancy
  Nd  Nd0  1  0.998048  0.363048  0.672348  1
  Nd  Nd1  1  0.998048  0.636952  0.327652  1
  Nd  Nd2  1  0.000262  0.858477  0.829360  1
  Nd  Nd3  1  0.000262  0.141523  0.170640  1
  Ti  Ti4  1  0.503902  0.119050  0.856528  1
  Ti  Ti5  1  0.503902  0.880950  0.143472  1
  Ti  Ti6  1  0.497394  0.618109  0.643826  1
  Ti  Ti7  1  0.497394  0.381891  0.356174  1
  Ti  Ti8  1  0.233434  0.000000  0.500000  1
  Fe  Fe9  1  0.247042  0.500000  0.000000  1
  Fe  Fe10  1  0.743110  0.000000  0.500000  1
  Fe  Fe11  1  0.753891  0.500000  0.000000  1
  O  O12  1  0.256286  0.897173  0.291497  1
  O  O13  1  0.256286  0.102827  0.708503  1
  O  O14  1  0.746350  0.394921  0.213279  1
  O  O15  1  0.746350  0.605079  0.786721  1
  O  O16  1  0.747605  0.107365  0.718125  1
  O  O17  1  0.747605  0.892635  0.281875  1
  O  O18  1  0.252503  0.601145  0.787323  1
  O  O19  1  0.252503  0.398855  0.212677  1
  O  O20  1  0.500772  0.338607  0.924233  1
  O  O21  1  0.500772  0.661393  0.075767  1
  O  O22  1  0.487720  0.836540  0.581731  1
  O  O23  1  0.487720  0.163460  0.418269  1
  O  O24  1  0.283968  0.000000  0.000000  1
  O  O25  1  0.715698  0.500000  0.500000  1
  O  O26  1  0.714612  0.000000  0.000000  1
  O  O27  1  0.283590  0.500000  0.500000  1
  O  O28  1  0.021032  0.169197  0.444773  1
  O  O29  1  0.021032  0.830803  0.555227  1
  O  O30  1  0.000454  0.666294  0.054628  1
  O  O31  1  0.000454  0.333706  0.945372  1
