# generated using pymatgen
data_Ac8Yb11TmSi16
_symmetry_space_group_name_H-M   'P 1'
_cell_length_a   7.70660023
_cell_length_b   8.14874446
_cell_length_c   15.55845600
_cell_angle_alpha   89.97896253
_cell_angle_beta   90.01387303
_cell_angle_gamma   89.97298404
_symmetry_Int_Tables_number   1
_chemical_formula_structural   Ac8Yb11TmSi16
_chemical_formula_sum   'Ac8 Yb11 Tm1 Si16'
_cell_volume   977.05707781
_cell_formula_units_Z   1
loop_
 _symmetry_equiv_pos_site_id
 _symmetry_equiv_pos_as_xyz
  1  'x, y, z'
loop_
 _atom_site_type_symbol
 _atom_site_label
 _atom_site_symmetry_multiplicity
 _atom_site_fract_x
 _atom_site_fract_y
 _atom_site_fract_z
 _atom_site_occupancy
  Ac  Ac0  1  0.024240  0.180340  0.401521  1
  Ac  Ac1  1  0.524936  0.319540  0.402523  1
  Ac  Ac2  1  0.472931  0.682446  0.901828  1
  Ac  Ac3  1  0.473548  0.682529  0.598190  1
  Ac  Ac4  1  0.974128  0.817517  0.597640  1
  Ac  Ac5  1  0.972758  0.817310  0.901561  1
  Ac  Ac6  1  0.526198  0.319212  0.098462  1
  Ac  Ac7  1  0.025004  0.182570  0.095752  1
  Yb  Yb8  1  0.320676  0.180616  0.623220  1
  Yb  Yb9  1  0.678851  0.819541  0.376344  1
  Yb  Yb10  1  0.645020  0.007638  0.749794  1
  Yb  Yb11  1  0.180867  0.680165  0.376533  1
  Yb  Yb12  1  0.820211  0.319872  0.877514  1
  Yb  Yb13  1  0.820861  0.319316  0.622927  1
  Yb  Yb14  1  0.857581  0.504851  0.251007  1
  Yb  Yb15  1  0.351931  0.996111  0.250465  1
  Yb  Yb16  1  0.320889  0.179187  0.879007  1
  Yb  Yb17  1  0.179574  0.681976  0.122175  1
  Yb  Yb18  1  0.144029  0.491719  0.749960  1
  Tm  Tm19  1  0.679394  0.818578  0.124130  1
  Si  Si20  1  0.258604  0.884100  0.750639  1
  Si  Si21  1  0.472934  0.603344  0.247113  1
  Si  Si22  1  0.032447  0.098780  0.750605  1
  Si  Si23  1  0.531997  0.400250  0.751105  1
  Si  Si24  1  0.140210  0.469034  0.536602  1
  Si  Si25  1  0.962248  0.896243  0.244691  1
  Si  Si26  1  0.738970  0.111751  0.246629  1
  Si  Si27  1  0.854624  0.537232  0.039097  1
  Si  Si28  1  0.368910  0.966756  0.041571  1
  Si  Si29  1  0.136037  0.471572  0.963256  1
  Si  Si30  1  0.639523  0.030517  0.536702  1
  Si  Si31  1  0.360313  0.970249  0.462055  1
  Si  Si32  1  0.861629  0.529790  0.461745  1
  Si  Si33  1  0.757607  0.616272  0.750411  1
  Si  Si34  1  0.244064  0.386862  0.248995  1
  Si  Si35  1  0.646254  0.026214  0.968230  1
