# generated using pymatgen
data_Ho4Tm(In2Cu)2
_symmetry_space_group_name_H-M   'P 1'
_cell_length_a   3.63324100
_cell_length_b   7.98794998
_cell_length_c   17.84540264
_cell_angle_alpha   89.99617085
_cell_angle_beta   90.00005725
_cell_angle_gamma   89.99990250
_symmetry_Int_Tables_number   1
_chemical_formula_structural   Ho4Tm(In2Cu)2
_chemical_formula_sum   'Ho8 Tm2 In8 Cu4'
_cell_volume   517.91190404
_cell_formula_units_Z   2
loop_
 _symmetry_equiv_pos_site_id
 _symmetry_equiv_pos_as_xyz
  1  'x, y, z'
loop_
 _atom_site_type_symbol
 _atom_site_label
 _atom_site_symmetry_multiplicity
 _atom_site_fract_x
 _atom_site_fract_y
 _atom_site_fract_z
 _atom_site_occupancy
  Ho  Ho0  1  0.000000  0.500000  0.500000  1
  Ho  Ho1  1  0.000000  0.000000  0.000000  1
  Ho  Ho2  1  0.000001  0.741574  0.280703  1
  Ho  Ho3  1  0.999999  0.258426  0.719297  1
  Ho  Ho4  1  0.000000  0.758952  0.779862  1
  Ho  Ho5  1  0.000000  0.241048  0.220138  1
  Ho  Ho6  1  0.000000  0.619786  0.083409  1
  Ho  Ho7  1  0.000000  0.380214  0.916591  1
  Tm  Tm8  1  0.000000  0.880297  0.583686  1
  Tm  Tm9  1  0.000000  0.119703  0.416314  1
  In  In10  1  0.500001  0.706895  0.931217  1
  In  In11  1  0.499999  0.293105  0.068783  1
  In  In12  1  0.499999  0.795442  0.432471  1
  In  In13  1  0.500001  0.204558  0.567529  1
  In  In14  1  0.500000  0.576105  0.650076  1
  In  In15  1  0.500000  0.423895  0.349924  1
  In  In16  1  0.500000  0.925589  0.150833  1
  In  In17  1  0.500000  0.074411  0.849167  1
  Cu  Cu18  1  0.500001  0.525779  0.197579  1
  Cu  Cu19  1  0.499999  0.474221  0.802421  1
  Cu  Cu20  1  0.500001  0.973435  0.696441  1
  Cu  Cu21  1  0.499999  0.026565  0.303559  1
