# generated using pymatgen
data_LaPr5(LuAu2)2
_symmetry_space_group_name_H-M   'P 1'
_cell_length_a   5.04385100
_cell_length_b   7.36475405
_cell_length_c   9.28922800
_cell_angle_alpha   90.00652719
_cell_angle_beta   90.00000000
_cell_angle_gamma   90.00000000
_symmetry_Int_Tables_number   1
_chemical_formula_structural   LaPr5(LuAu2)2
_chemical_formula_sum   'La1 Pr5 Lu2 Au4'
_cell_volume   345.06436851
_cell_formula_units_Z   1
loop_
 _symmetry_equiv_pos_site_id
 _symmetry_equiv_pos_as_xyz
  1  'x, y, z'
loop_
 _atom_site_type_symbol
 _atom_site_label
 _atom_site_symmetry_multiplicity
 _atom_site_fract_x
 _atom_site_fract_y
 _atom_site_fract_z
 _atom_site_occupancy
  La  La0  1  0.250000  0.347510  0.589041  1
  Pr  Pr1  1  0.250000  0.489297  0.175241  1
  Pr  Pr2  1  0.750000  0.510858  0.824203  1
  Pr  Pr3  1  0.250000  0.991485  0.323394  1
  Pr  Pr4  1  0.750000  0.007727  0.676904  1
  Pr  Pr5  1  0.750000  0.653306  0.411175  1
  Lu  Lu6  1  0.750000  0.147402  0.076605  1
  Lu  Lu7  1  0.250000  0.852550  0.923495  1
  Au  Au8  1  0.250000  0.239412  0.914084  1
  Au  Au9  1  0.750000  0.760623  0.085941  1
  Au  Au10  1  0.250000  0.757916  0.613117  1
  Au  Au11  1  0.750000  0.241913  0.386801  1
