# generated using pymatgen
data_Tb12Fe4AgBi
_symmetry_space_group_name_H-M   'P 1'
_cell_length_a   8.43068227
_cell_length_b   8.43068252
_cell_length_c   8.43068239
_cell_angle_alpha   111.36390212
_cell_angle_beta   110.10987720
_cell_angle_gamma   106.97104128
_symmetry_Int_Tables_number   1
_chemical_formula_structural   Tb12Fe4AgBi
_chemical_formula_sum   'Tb12 Fe4 Ag1 Bi1'
_cell_volume   460.56879741
_cell_formula_units_Z   1
loop_
 _symmetry_equiv_pos_site_id
 _symmetry_equiv_pos_as_xyz
  1  'x, y, z'
loop_
 _atom_site_type_symbol
 _atom_site_label
 _atom_site_symmetry_multiplicity
 _atom_site_fract_x
 _atom_site_fract_y
 _atom_site_fract_z
 _atom_site_occupancy
  Tb  Tb0  1  0.813017  0.707996  0.521012  1
  Tb  Tb1  1  0.186983  0.292004  0.478988  1
  Tb  Tb2  1  0.186983  0.707996  0.894979  1
  Tb  Tb3  1  0.813017  0.292004  0.105021  1
  Tb  Tb4  1  0.689751  0.386579  0.696828  1
  Tb  Tb5  1  0.310249  0.613421  0.303172  1
  Tb  Tb6  1  0.689751  0.992922  0.303172  1
  Tb  Tb7  1  0.310249  0.007078  0.696828  1
  Tb  Tb8  1  0.574124  0.786038  0.788087  1
  Tb  Tb9  1  0.425876  0.213962  0.211913  1
  Tb  Tb10  1  0.997950  0.786038  0.211913  1
  Tb  Tb11  1  0.002050  0.213962  0.788087  1
  Fe  Fe12  1  0.612086  0.000000  0.612086  1
  Fe  Fe13  1  0.387914  0.000000  0.387914  1
  Fe  Fe14  1  0.106326  0.606326  0.500000  1
  Fe  Fe15  1  0.893674  0.393674  0.500000  1
  Ag  Ag16  1  0.000000  0.000000  0.000000  1
  Bi  Bi17  1  0.500000  0.500000  0.000000  1
