# generated using pymatgen
data_Y3ErZr4F28
_symmetry_space_group_name_H-M   'P 1'
_cell_length_a   5.74797542
_cell_length_b   9.09475876
_cell_length_c   12.23329518
_cell_angle_alpha   62.40766847
_cell_angle_beta   90.02264700
_cell_angle_gamma   89.99810314
_symmetry_Int_Tables_number   1
_chemical_formula_structural   Y3ErZr4F28
_chemical_formula_sum   'Y3 Er1 Zr4 F28'
_cell_volume   566.77851171
_cell_formula_units_Z   1
loop_
 _symmetry_equiv_pos_site_id
 _symmetry_equiv_pos_as_xyz
  1  'x, y, z'
loop_
 _atom_site_type_symbol
 _atom_site_label
 _atom_site_symmetry_multiplicity
 _atom_site_fract_x
 _atom_site_fract_y
 _atom_site_fract_z
 _atom_site_occupancy
  Y  Y0  1  0.743339  0.815412  0.266291  1
  Y  Y1  1  0.243414  0.184493  0.233740  1
  Y  Y2  1  0.257008  0.183088  0.733888  1
  Er  Er3  1  0.756659  0.815526  0.766039  1
  Zr  Zr4  1  0.744539  0.274045  0.455147  1
  Zr  Zr5  1  0.244167  0.725658  0.044638  1
  Zr  Zr6  1  0.255072  0.725626  0.545667  1
  Zr  Zr7  1  0.755430  0.274955  0.954635  1
  F  F8  1  0.468489  0.712197  0.920541  1
  F  F9  1  0.967183  0.289422  0.578716  1
  F  F10  1  0.533419  0.288967  0.078820  1
  F  F11  1  0.034514  0.710482  0.421222  1
  F  F12  1  0.452881  0.281497  0.549300  1
  F  F13  1  0.951898  0.719924  0.949348  1
  F  F14  1  0.545844  0.718428  0.450869  1
  F  F15  1  0.046587  0.281218  0.049409  1
  F  F16  1  0.767673  0.527260  0.857589  1
  F  F17  1  0.267557  0.474120  0.641811  1
  F  F18  1  0.232952  0.474407  0.142508  1
  F  F19  1  0.732575  0.525492  0.357674  1
  F  F20  1  0.759938  0.023575  0.057419  1
  F  F21  1  0.259952  0.976744  0.442061  1
  F  F22  1  0.240101  0.977063  0.942219  1
  F  F23  1  0.739824  0.022520  0.559284  1
  F  F24  1  0.982318  0.734268  0.649833  1
  F  F25  1  0.483939  0.266685  0.850238  1
  F  F26  1  0.014672  0.266748  0.350005  1
  F  F27  1  0.514149  0.733230  0.150006  1
  F  F28  1  0.034741  0.745827  0.173237  1
  F  F29  1  0.533553  0.254275  0.327007  1
  F  F30  1  0.966703  0.253553  0.827146  1
  F  F31  1  0.468669  0.746811  0.673245  1
  F  F32  1  0.428092  0.972750  0.234811  1
  F  F33  1  0.927786  0.027437  0.265315  1
  F  F34  1  0.575031  0.025363  0.765307  1
  F  F35  1  0.069331  0.970938  0.735015  1
