# generated using pymatgen
data_Th10Pb6AuBr
_symmetry_space_group_name_H-M   'P 1'
_cell_length_a   9.75496000
_cell_length_b   9.75496072
_cell_length_c   6.60228700
_cell_angle_alpha   90.00000000
_cell_angle_beta   90.00000000
_cell_angle_gamma   119.99999757
_symmetry_Int_Tables_number   1
_chemical_formula_structural   Th10Pb6AuBr
_chemical_formula_sum   'Th10 Pb6 Au1 Br1'
_cell_volume   544.09665900
_cell_formula_units_Z   1
loop_
 _symmetry_equiv_pos_site_id
 _symmetry_equiv_pos_as_xyz
  1  'x, y, z'
loop_
 _atom_site_type_symbol
 _atom_site_label
 _atom_site_symmetry_multiplicity
 _atom_site_fract_x
 _atom_site_fract_y
 _atom_site_fract_z
 _atom_site_occupancy
  Th  Th0  1  0.666667  0.333333  0.000000  1
  Th  Th1  1  0.333333  0.666667  0.000000  1
  Th  Th2  1  0.333333  0.666667  0.500000  1
  Th  Th3  1  0.666667  0.333333  0.500000  1
  Th  Th4  1  0.725397  0.725397  0.758930  1
  Th  Th5  1  0.274603  0.000000  0.758930  1
  Th  Th6  1  0.000000  0.274603  0.758930  1
  Th  Th7  1  0.274603  0.274603  0.241070  1
  Th  Th8  1  0.725397  0.000000  0.241070  1
  Th  Th9  1  0.000000  0.725397  0.241070  1
  Pb  Pb10  1  0.380886  0.380886  0.747930  1
  Pb  Pb11  1  0.619114  0.000000  0.747930  1
  Pb  Pb12  1  0.000000  0.619114  0.747930  1
  Pb  Pb13  1  0.619114  0.619114  0.252070  1
  Pb  Pb14  1  0.380886  0.000000  0.252070  1
  Pb  Pb15  1  0.000000  0.380886  0.252070  1
  Au  Au16  1  0.000000  0.000000  0.000000  1
  Br  Br17  1  0.000000  0.000000  0.500000  1
