# generated using pymatgen
data_Tb13Dy3MgAg3Rh4
_symmetry_space_group_name_H-M   'P 1'
_cell_length_a   9.59376798
_cell_length_b   9.58881229
_cell_length_c   9.61913931
_cell_angle_alpha   60.09301951
_cell_angle_beta   60.11877200
_cell_angle_gamma   60.01409576
_symmetry_Int_Tables_number   1
_chemical_formula_structural   Tb13Dy3MgAg3Rh4
_chemical_formula_sum   'Tb13 Dy3 Mg1 Ag3 Rh4'
_cell_volume   626.77963713
_cell_formula_units_Z   1
loop_
 _symmetry_equiv_pos_site_id
 _symmetry_equiv_pos_as_xyz
  1  'x, y, z'
loop_
 _atom_site_type_symbol
 _atom_site_label
 _atom_site_symmetry_multiplicity
 _atom_site_fract_x
 _atom_site_fract_y
 _atom_site_fract_z
 _atom_site_occupancy
  Tb  Tb0  1  0.066013  0.434985  0.435890  1
  Tb  Tb1  1  0.649374  0.049375  0.650821  1
  Tb  Tb2  1  0.814083  0.812669  0.186805  1
  Tb  Tb3  1  0.435620  0.064642  0.064666  1
  Tb  Tb4  1  0.436154  0.435374  0.064045  1
  Tb  Tb5  1  0.189397  0.188042  0.811534  1
  Tb  Tb6  1  0.814326  0.186281  0.186811  1
  Tb  Tb7  1  0.066076  0.434896  0.063842  1
  Tb  Tb8  1  0.436430  0.063929  0.435192  1
  Tb  Tb9  1  0.061814  0.646003  0.646302  1
  Tb  Tb10  1  0.189697  0.810898  0.811084  1
  Tb  Tb11  1  0.650275  0.650917  0.048120  1
  Tb  Tb12  1  0.189936  0.810526  0.189238  1
  Dy  Dy13  1  0.066399  0.062645  0.435898  1
  Dy  Dy14  1  0.814280  0.186463  0.812904  1
  Dy  Dy15  1  0.649560  0.650752  0.651054  1
  Mg  Mg16  1  0.713359  0.429314  0.428596  1
  Ag  Ag17  1  0.417745  0.416081  0.750447  1
  Ag  Ag18  1  0.417556  0.416365  0.415278  1
  Ag  Ag19  1  0.417198  0.751153  0.415409  1
  Rh  Rh20  1  0.858807  0.428090  0.855068  1
  Rh  Rh21  1  0.427818  0.857089  0.856869  1
  Rh  Rh22  1  0.858486  0.855923  0.429040  1
  Rh  Rh23  1  0.859600  0.857586  0.855089  1
