# generated using pymatgen
data_La2Pa(ZnPt)3
_symmetry_space_group_name_H-M   'P 1'
_cell_length_a   7.55928631
_cell_length_b   7.55928589
_cell_length_c   3.91986600
_cell_angle_alpha   90.00000000
_cell_angle_beta   90.00000000
_cell_angle_gamma   120.19271050
_symmetry_Int_Tables_number   1
_chemical_formula_structural   La2Pa(ZnPt)3
_chemical_formula_sum   'La2 Pa1 Zn3 Pt3'
_cell_volume   193.60509911
_cell_formula_units_Z   1
loop_
 _symmetry_equiv_pos_site_id
 _symmetry_equiv_pos_as_xyz
  1  'x, y, z'
loop_
 _atom_site_type_symbol
 _atom_site_label
 _atom_site_symmetry_multiplicity
 _atom_site_fract_x
 _atom_site_fract_y
 _atom_site_fract_z
 _atom_site_occupancy
  La  La0  1  0.997961  0.590402  0.500000  1
  La  La1  1  0.590402  0.997961  0.500000  1
  Pa  Pa2  1  0.407737  0.407737  0.500000  1
  Zn  Zn3  1  0.761283  0.761283  0.000000  1
  Zn  Zn4  1  0.245615  0.997143  0.000000  1
  Zn  Zn5  1  0.997143  0.245615  0.000000  1
  Pt  Pt6  1  0.640231  0.338812  0.000000  1
  Pt  Pt7  1  0.338812  0.640231  0.000000  1
  Pt  Pt8  1  0.020817  0.020817  0.500000  1
