# generated using pymatgen
data_Ho4Er16(Bi3Sb)3
_symmetry_space_group_name_H-M   'P 1'
_cell_length_a   8.14511209
_cell_length_b   9.42111500
_cell_length_c   11.91784214
_cell_angle_alpha   90.00000000
_cell_angle_beta   90.01735736
_cell_angle_gamma   90.00000000
_symmetry_Int_Tables_number   1
_chemical_formula_structural   Ho4Er16(Bi3Sb)3
_chemical_formula_sum   'Ho4 Er16 Bi9 Sb3'
_cell_volume   914.52794178
_cell_formula_units_Z   1
loop_
 _symmetry_equiv_pos_site_id
 _symmetry_equiv_pos_as_xyz
  1  'x, y, z'
loop_
 _atom_site_type_symbol
 _atom_site_label
 _atom_site_symmetry_multiplicity
 _atom_site_fract_x
 _atom_site_fract_y
 _atom_site_fract_z
 _atom_site_occupancy
  Ho  Ho0  1  0.317753  0.250000  0.215974  1
  Ho  Ho1  1  0.812545  0.250000  0.280210  1
  Ho  Ho2  1  0.683587  0.750000  0.782564  1
  Ho  Ho3  1  0.183609  0.750000  0.717333  1
  Er  Er4  1  0.353934  0.750000  0.214148  1
  Er  Er5  1  0.853833  0.750000  0.285655  1
  Er  Er6  1  0.646279  0.250000  0.785842  1
  Er  Er7  1  0.147008  0.250000  0.717338  1
  Er  Er8  1  0.688550  0.563636  0.058112  1
  Er  Er9  1  0.189604  0.932918  0.441632  1
  Er  Er10  1  0.311454  0.063539  0.941958  1
  Er  Er11  1  0.808914  0.438481  0.559377  1
  Er  Er12  1  0.311454  0.436461  0.941958  1
  Er  Er13  1  0.808914  0.061519  0.559377  1
  Er  Er14  1  0.688550  0.936364  0.058112  1
  Er  Er15  1  0.189604  0.567082  0.441632  1
  Er  Er16  1  0.476803  0.250000  0.488714  1
  Er  Er17  1  0.973425  0.250000  0.011337  1
  Er  Er18  1  0.527287  0.750000  0.511614  1
  Er  Er19  1  0.026706  0.750000  0.988544  1
  Bi  Bi20  1  0.094581  0.250000  0.457543  1
  Bi  Bi21  1  0.566049  0.995557  0.325801  1
  Bi  Bi22  1  0.066228  0.504103  0.174205  1
  Bi  Bi23  1  0.433638  0.495654  0.674261  1
  Bi  Bi24  1  0.933710  0.004070  0.825863  1
  Bi  Bi25  1  0.433638  0.004346  0.674261  1
  Bi  Bi26  1  0.933710  0.495930  0.825863  1
  Bi  Bi27  1  0.566049  0.504443  0.325801  1
  Bi  Bi28  1  0.066228  0.995897  0.174205  1
  Sb  Sb29  1  0.405803  0.750000  0.958783  1
  Sb  Sb30  1  0.906040  0.750000  0.541070  1
  Sb  Sb31  1  0.594514  0.250000  0.040913  1
