# generated using pymatgen
data_DyEr2ZnGa7Ag3
_symmetry_space_group_name_H-M   'P 1'
_cell_length_a   4.32553918
_cell_length_b   8.31338177
_cell_length_c   8.31531668
_cell_angle_alpha   70.83758320
_cell_angle_beta   74.92432513
_cell_angle_gamma   74.92071802
_symmetry_Int_Tables_number   1
_chemical_formula_structural   DyEr2ZnGa7Ag3
_chemical_formula_sum   'Dy1 Er2 Zn1 Ga7 Ag3'
_cell_volume   267.67429699
_cell_formula_units_Z   1
loop_
 _symmetry_equiv_pos_site_id
 _symmetry_equiv_pos_as_xyz
  1  'x, y, z'
loop_
 _atom_site_type_symbol
 _atom_site_label
 _atom_site_symmetry_multiplicity
 _atom_site_fract_x
 _atom_site_fract_y
 _atom_site_fract_z
 _atom_site_occupancy
  Dy  Dy0  1  0.499294  0.500728  0.500684  1
  Er  Er1  1  0.200949  0.797681  0.800420  1
  Er  Er2  1  0.800318  0.201931  0.197433  1
  Zn  Zn3  1  0.357311  0.364181  0.921197  1
  Ga  Ga4  1  0.642548  0.640006  0.074899  1
  Ga  Ga5  1  0.355554  0.926726  0.362167  1
  Ga  Ga6  1  0.641589  0.075492  0.641329  1
  Ga  Ga7  1  0.163612  0.467633  0.205144  1
  Ga  Ga8  1  0.841602  0.526605  0.790189  1
  Ga  Ga9  1  0.158755  0.211775  0.470716  1
  Ga  Ga10  1  0.840243  0.788101  0.531411  1
  Ag  Ag11  1  0.498288  0.001523  0.001900  1
  Ag  Ag12  1  0.000251  0.802917  0.196583  1
  Ag  Ag13  1  0.999686  0.194699  0.805930  1
