# generated using pymatgen
data_Zr6Zn10Cu13Sn
_symmetry_space_group_name_H-M   'P 1'
_cell_length_a   8.64154550
_cell_length_b   8.64060841
_cell_length_c   8.64060900
_cell_angle_alpha   60.00010109
_cell_angle_beta   60.00363461
_cell_angle_gamma   60.00363805
_symmetry_Int_Tables_number   1
_chemical_formula_structural   Zr6Zn10Cu13Sn
_chemical_formula_sum   'Zr6 Zn10 Cu13 Sn1'
_cell_volume   456.23573571
_cell_formula_units_Z   1
loop_
 _symmetry_equiv_pos_site_id
 _symmetry_equiv_pos_as_xyz
  1  'x, y, z'
loop_
 _atom_site_type_symbol
 _atom_site_label
 _atom_site_symmetry_multiplicity
 _atom_site_fract_x
 _atom_site_fract_y
 _atom_site_fract_z
 _atom_site_occupancy
  Zr  Zr0  1  0.737069  0.263146  0.263146  1
  Zr  Zr1  1  0.261859  0.732541  0.732541  1
  Zr  Zr2  1  0.261860  0.732541  0.273057  1
  Zr  Zr3  1  0.737068  0.263146  0.736641  1
  Zr  Zr4  1  0.261860  0.273057  0.732541  1
  Zr  Zr5  1  0.737068  0.736641  0.263146  1
  Zn  Zn6  1  0.378223  0.873926  0.873926  1
  Zn  Zn7  1  0.338679  0.337228  0.337228  1
  Zn  Zn8  1  0.664295  0.657865  0.657865  1
  Zn  Zn9  1  0.338677  0.337226  0.986869  1
  Zn  Zn10  1  0.338677  0.986869  0.337226  1
  Zn  Zn11  1  0.664297  0.657867  0.019971  1
  Zn  Zn12  1  0.664297  0.019971  0.657867  1
  Zn  Zn13  1  0.987382  0.337539  0.337539  1
  Zn  Zn14  1  0.004859  0.665048  0.665048  1
  Zn  Zn15  1  0.993586  0.002138  0.002138  1
  Cu  Cu16  1  0.126364  0.125015  0.125015  1
  Cu  Cu17  1  0.873280  0.874252  0.874252  1
  Cu  Cu18  1  0.126363  0.125014  0.623609  1
  Cu  Cu19  1  0.126363  0.623609  0.125014  1
  Cu  Cu20  1  0.873281  0.874253  0.378213  1
  Cu  Cu21  1  0.873281  0.378213  0.874253  1
  Cu  Cu22  1  0.619287  0.126904  0.126904  1
  Cu  Cu23  1  0.500036  0.998757  0.998757  1
  Cu  Cu24  1  0.002026  0.499046  0.499046  1
  Cu  Cu25  1  0.002026  0.499046  0.999881  1
  Cu  Cu26  1  0.500036  0.998757  0.502450  1
  Cu  Cu27  1  0.002026  0.999881  0.499046  1
  Cu  Cu28  1  0.500036  0.502450  0.998757  1
  Sn  Sn29  1  0.505832  0.498056  0.498056  1
