# generated using pymatgen
data_Dy3AlPRu2
_symmetry_space_group_name_H-M   'P 1'
_cell_length_a   5.55983900
_cell_length_b   7.75523800
_cell_length_c   13.42219100
_cell_angle_alpha   90.00000000
_cell_angle_beta   90.00000000
_cell_angle_gamma   90.00000000
_symmetry_Int_Tables_number   1
_chemical_formula_structural   Dy3AlPRu2
_chemical_formula_sum   'Dy12 Al4 P4 Ru8'
_cell_volume   578.73634956
_cell_formula_units_Z   4
loop_
 _symmetry_equiv_pos_site_id
 _symmetry_equiv_pos_as_xyz
  1  'x, y, z'
loop_
 _atom_site_type_symbol
 _atom_site_label
 _atom_site_symmetry_multiplicity
 _atom_site_fract_x
 _atom_site_fract_y
 _atom_site_fract_z
 _atom_site_occupancy
  Dy  Dy0  1  0.150547  0.901808  0.602636  1
  Dy  Dy1  1  0.849453  0.098192  0.102636  1
  Dy  Dy2  1  0.150547  0.598192  0.397364  1
  Dy  Dy3  1  0.849453  0.401808  0.897364  1
  Dy  Dy4  1  0.849453  0.098192  0.397364  1
  Dy  Dy5  1  0.150547  0.901808  0.897364  1
  Dy  Dy6  1  0.849453  0.401808  0.602636  1
  Dy  Dy7  1  0.150547  0.598192  0.102636  1
  Dy  Dy8  1  0.366521  0.265363  0.750000  1
  Dy  Dy9  1  0.633479  0.734637  0.250000  1
  Dy  Dy10  1  0.366521  0.234637  0.250000  1
  Dy  Dy11  1  0.633479  0.765363  0.750000  1
  Al  Al12  1  0.378095  0.250000  0.500000  1
  Al  Al13  1  0.621905  0.750000  0.000000  1
  Al  Al14  1  0.621905  0.750000  0.500000  1
  Al  Al15  1  0.378095  0.250000  0.000000  1
  P  P16  1  0.870387  0.115772  0.750000  1
  P  P17  1  0.129613  0.884228  0.250000  1
  P  P18  1  0.870387  0.384228  0.250000  1
  P  P19  1  0.129613  0.615772  0.750000  1
  Ru  Ru20  1  0.648611  0.033314  0.595197  1
  Ru  Ru21  1  0.351389  0.966686  0.095197  1
  Ru  Ru22  1  0.648611  0.466686  0.404803  1
  Ru  Ru23  1  0.351389  0.533314  0.904803  1
  Ru  Ru24  1  0.351389  0.966686  0.404803  1
  Ru  Ru25  1  0.648611  0.033314  0.904803  1
  Ru  Ru26  1  0.351389  0.533314  0.595197  1
  Ru  Ru27  1  0.648611  0.466686  0.095197  1
