# generated using pymatgen
data_Ac(BeAs)3
_symmetry_space_group_name_H-M   'P 1'
_cell_length_a   3.92095700
_cell_length_b   11.20571200
_cell_length_c   12.06059700
_cell_angle_alpha   90.00000000
_cell_angle_beta   90.00000000
_cell_angle_gamma   90.00000000
_symmetry_Int_Tables_number   1
_chemical_formula_structural   Ac(BeAs)3
_chemical_formula_sum   'Ac4 Be12 As12'
_cell_volume   529.90783623
_cell_formula_units_Z   4
loop_
 _symmetry_equiv_pos_site_id
 _symmetry_equiv_pos_as_xyz
  1  'x, y, z'
loop_
 _atom_site_type_symbol
 _atom_site_label
 _atom_site_symmetry_multiplicity
 _atom_site_fract_x
 _atom_site_fract_y
 _atom_site_fract_z
 _atom_site_occupancy
  Ac  Ac0  1  0.750000  0.941831  0.337308  1
  Ac  Ac1  1  0.250000  0.441831  0.162692  1
  Ac  Ac2  1  0.750000  0.558169  0.837308  1
  Ac  Ac3  1  0.250000  0.058169  0.662692  1
  Be  Be4  1  0.750000  0.245956  0.452776  1
  Be  Be5  1  0.250000  0.745956  0.047224  1
  Be  Be6  1  0.750000  0.254044  0.952776  1
  Be  Be7  1  0.250000  0.754044  0.547224  1
  Be  Be8  1  0.750000  0.644484  0.288958  1
  Be  Be9  1  0.250000  0.144484  0.211042  1
  Be  Be10  1  0.750000  0.855516  0.788958  1
  Be  Be11  1  0.250000  0.355516  0.711042  1
  Be  Be12  1  0.750000  0.034950  0.062680  1
  Be  Be13  1  0.250000  0.534950  0.437320  1
  Be  Be14  1  0.750000  0.465050  0.562680  1
  Be  Be15  1  0.250000  0.965050  0.937320  1
  As  As16  1  0.750000  0.440519  0.373543  1
  As  As17  1  0.250000  0.940519  0.126457  1
  As  As18  1  0.750000  0.059481  0.873543  1
  As  As19  1  0.250000  0.559481  0.626457  1
  As  As20  1  0.750000  0.220351  0.142329  1
  As  As21  1  0.250000  0.720351  0.357671  1
  As  As22  1  0.750000  0.279649  0.642329  1
  As  As23  1  0.250000  0.779649  0.857671  1
  As  As24  1  0.750000  0.648768  0.095567  1
  As  As25  1  0.250000  0.148768  0.404433  1
  As  As26  1  0.750000  0.851232  0.595567  1
  As  As27  1  0.250000  0.351232  0.904433  1
