# generated using pymatgen
data_Sc5P12IrRu18
_symmetry_space_group_name_H-M   'P 1'
_cell_length_a   12.41688800
_cell_length_b   12.41688848
_cell_length_c   3.93330600
_cell_angle_alpha   90.00000000
_cell_angle_beta   90.00000000
_cell_angle_gamma   119.99999872
_symmetry_Int_Tables_number   1
_chemical_formula_structural   Sc5P12IrRu18
_chemical_formula_sum   'Sc5 P12 Ir1 Ru18'
_cell_volume   525.18693827
_cell_formula_units_Z   1
loop_
 _symmetry_equiv_pos_site_id
 _symmetry_equiv_pos_as_xyz
  1  'x, y, z'
loop_
 _atom_site_type_symbol
 _atom_site_label
 _atom_site_symmetry_multiplicity
 _atom_site_fract_x
 _atom_site_fract_y
 _atom_site_fract_z
 _atom_site_occupancy
  Sc  Sc0  1  0.333333  0.666667  0.000000  1
  Sc  Sc1  1  0.666667  0.333333  0.000000  1
  Sc  Sc2  1  0.814986  0.000000  0.500000  1
  Sc  Sc3  1  0.000000  0.814986  0.500000  1
  Sc  Sc4  1  0.185014  0.185014  0.500000  1
  P  P5  1  0.183017  0.000000  0.000000  1
  P  P6  1  0.000000  0.183017  0.000000  1
  P  P7  1  0.816983  0.816983  0.000000  1
  P  P8  1  0.171101  0.479117  0.500000  1
  P  P9  1  0.520883  0.691984  0.500000  1
  P  P10  1  0.308016  0.828899  0.500000  1
  P  P11  1  0.691984  0.520883  0.500000  1
  P  P12  1  0.828899  0.308016  0.500000  1
  P  P13  1  0.479117  0.171101  0.500000  1
  P  P14  1  0.629434  0.000000  0.000000  1
  P  P15  1  0.000000  0.629434  0.000000  1
  P  P16  1  0.370566  0.370566  0.000000  1
  Ir  Ir17  1  0.000000  0.000000  0.000000  1
  Ru  Ru18  1  0.445428  0.000000  0.000000  1
  Ru  Ru19  1  0.000000  0.445428  0.000000  1
  Ru  Ru20  1  0.554572  0.554572  0.000000  1
  Ru  Ru21  1  0.364332  0.492300  0.500000  1
  Ru  Ru22  1  0.507700  0.872032  0.500000  1
  Ru  Ru23  1  0.127968  0.635668  0.500000  1
  Ru  Ru24  1  0.872032  0.507700  0.500000  1
  Ru  Ru25  1  0.635668  0.127968  0.500000  1
  Ru  Ru26  1  0.492300  0.364332  0.500000  1
  Ru  Ru27  1  0.184980  0.375593  0.000000  1
  Ru  Ru28  1  0.624407  0.809388  0.000000  1
  Ru  Ru29  1  0.190612  0.815020  0.000000  1
  Ru  Ru30  1  0.809388  0.624407  0.000000  1
  Ru  Ru31  1  0.815020  0.190612  0.000000  1
  Ru  Ru32  1  0.375593  0.184980  0.000000  1
  Ru  Ru33  1  0.279593  0.000000  0.500000  1
  Ru  Ru34  1  0.000000  0.279593  0.500000  1
  Ru  Ru35  1  0.720407  0.720407  0.500000  1
