# generated using pymatgen
data_Y4Al18Os4PtRh
_symmetry_space_group_name_H-M   'P 1'
_cell_length_a   7.57153386
_cell_length_b   7.57153481
_cell_length_c   9.60210700
_cell_angle_alpha   90.00094961
_cell_angle_beta   90.00095271
_cell_angle_gamma   119.84634942
_symmetry_Int_Tables_number   1
_chemical_formula_structural   Y4Al18Os4PtRh
_chemical_formula_sum   'Y4 Al18 Os4 Pt1 Rh1'
_cell_volume   477.45813418
_cell_formula_units_Z   1
loop_
 _symmetry_equiv_pos_site_id
 _symmetry_equiv_pos_as_xyz
  1  'x, y, z'
loop_
 _atom_site_type_symbol
 _atom_site_label
 _atom_site_symmetry_multiplicity
 _atom_site_fract_x
 _atom_site_fract_y
 _atom_site_fract_z
 _atom_site_occupancy
  Y  Y0  1  0.996642  0.667332  0.250602  1
  Y  Y1  1  0.003358  0.332668  0.749398  1
  Y  Y2  1  0.667332  0.996642  0.250602  1
  Y  Y3  1  0.332668  0.003358  0.749398  1
  Al  Al4  1  0.130040  0.130040  0.252550  1
  Al  Al5  1  0.869960  0.869960  0.747450  1
  Al  Al6  1  0.002520  0.338387  0.071790  1
  Al  Al7  1  0.997480  0.661613  0.928210  1
  Al  Al8  1  0.997599  0.664496  0.571071  1
  Al  Al9  1  0.335504  0.002401  0.428929  1
  Al  Al10  1  0.002401  0.335504  0.428929  1
  Al  Al11  1  0.664496  0.997599  0.571071  1
  Al  Al12  1  0.661613  0.997480  0.928210  1
  Al  Al13  1  0.338387  0.002520  0.071790  1
  Al  Al14  1  0.337067  0.337067  0.549110  1
  Al  Al15  1  0.662933  0.662933  0.450890  1
  Al  Al16  1  0.660835  0.660835  0.049341  1
  Al  Al17  1  0.339165  0.339165  0.950659  1
  Al  Al18  1  0.336360  0.547211  0.250049  1
  Al  Al19  1  0.663640  0.452789  0.749951  1
  Al  Al20  1  0.547211  0.336360  0.250049  1
  Al  Al21  1  0.452789  0.663640  0.749951  1
  Os  Os22  1  0.672437  0.327563  0.000000  1
  Os  Os23  1  0.327563  0.672437  0.000000  1
  Os  Os24  1  0.327282  0.672718  0.500000  1
  Os  Os25  1  0.672718  0.327282  0.500000  1
  Pt  Pt26  1  0.000000  0.000000  0.000000  1
  Rh  Rh27  1  0.000000  0.000000  0.500000  1
