# generated using pymatgen
data_Ti4BeCo10SiB4
_symmetry_space_group_name_H-M   'P 1'
_cell_length_a   8.33976100
_cell_length_b   8.33976100
_cell_length_c   2.93307000
_cell_angle_alpha   90.00000000
_cell_angle_beta   90.00000000
_cell_angle_gamma   90.00000000
_symmetry_Int_Tables_number   1
_chemical_formula_structural   Ti4BeCo10SiB4
_chemical_formula_sum   'Ti4 Be1 Co10 Si1 B4'
_cell_volume   203.99975112
_cell_formula_units_Z   1
loop_
 _symmetry_equiv_pos_site_id
 _symmetry_equiv_pos_as_xyz
  1  'x, y, z'
loop_
 _atom_site_type_symbol
 _atom_site_label
 _atom_site_symmetry_multiplicity
 _atom_site_fract_x
 _atom_site_fract_y
 _atom_site_fract_z
 _atom_site_occupancy
  Ti  Ti0  1  0.822017  0.327175  0.000000  1
  Ti  Ti1  1  0.327175  0.177983  0.000000  1
  Ti  Ti2  1  0.672825  0.822017  0.000000  1
  Ti  Ti3  1  0.177983  0.672825  0.000000  1
  Be  Be4  1  0.500000  0.500000  0.000000  1
  Co  Co5  1  0.500000  0.000000  0.500000  1
  Co  Co6  1  0.000000  0.500000  0.500000  1
  Co  Co7  1  0.069566  0.214824  0.500000  1
  Co  Co8  1  0.214824  0.930434  0.500000  1
  Co  Co9  1  0.785176  0.069566  0.500000  1
  Co  Co10  1  0.930434  0.785176  0.500000  1
  Co  Co11  1  0.430880  0.712366  0.500000  1
  Co  Co12  1  0.569120  0.287634  0.500000  1
  Co  Co13  1  0.712366  0.569120  0.500000  1
  Co  Co14  1  0.287634  0.430880  0.500000  1
  Si  Si15  1  0.000000  0.000000  0.000000  1
  B  B16  1  0.619443  0.125446  0.000000  1
  B  B17  1  0.125446  0.380557  0.000000  1
  B  B18  1  0.874554  0.619443  0.000000  1
  B  B19  1  0.380557  0.874554  0.000000  1
