# generated using pymatgen
data_Cs2KV6F21
_symmetry_space_group_name_H-M   'P 1'
_cell_length_a   7.61788075
_cell_length_b   7.61788115
_cell_length_c   11.31248100
_cell_angle_alpha   70.34637321
_cell_angle_beta   70.34636415
_cell_angle_gamma   60.07411380
_symmetry_Int_Tables_number   1
_chemical_formula_structural   Cs2KV6F21
_chemical_formula_sum   'Cs2 K1 V6 F21'
_cell_volume   524.26399758
_cell_formula_units_Z   1
loop_
 _symmetry_equiv_pos_site_id
 _symmetry_equiv_pos_as_xyz
  1  'x, y, z'
loop_
 _atom_site_type_symbol
 _atom_site_label
 _atom_site_symmetry_multiplicity
 _atom_site_fract_x
 _atom_site_fract_y
 _atom_site_fract_z
 _atom_site_occupancy
  Cs  Cs0  1  0.129537  0.136669  0.601417  1
  Cs  Cs1  1  0.863331  0.870463  0.398583  1
  K  K2  1  0.507317  0.492683  0.500000  1
  V  V3  1  0.458063  0.916702  0.190417  1
  V  V4  1  0.083298  0.541937  0.809583  1
  V  V5  1  0.961060  0.414249  0.189023  1
  V  V6  1  0.458697  0.413849  0.189573  1
  V  V7  1  0.586151  0.541303  0.810427  1
  V  V8  1  0.585751  0.038940  0.810977  1
  F  F9  1  0.685059  0.571010  0.629046  1
  F  F10  1  0.428990  0.314941  0.370954  1
  F  F11  1  0.164952  0.497018  0.204035  1
  F  F12  1  0.502982  0.835048  0.795965  1
  F  F13  1  0.873121  0.449796  0.831857  1
  F  F14  1  0.516728  0.954762  0.000850  1
  F  F15  1  0.752100  0.338014  0.173890  1
  F  F16  1  0.118927  0.597009  0.627496  1
  F  F17  1  0.875394  0.836424  0.814347  1
  F  F18  1  0.754483  0.703206  0.193487  1
  F  F19  1  0.661986  0.247900  0.826110  1
  F  F20  1  0.490298  0.509702  0.000000  1
  F  F21  1  0.893778  0.339507  0.371144  1
  F  F22  1  0.299048  0.629847  0.786650  1
  F  F23  1  0.402991  0.881073  0.372504  1
  F  F24  1  0.296794  0.245517  0.806513  1
  F  F25  1  0.550204  0.126879  0.168143  1
  F  F26  1  0.370153  0.700952  0.213350  1
  F  F27  1  0.163576  0.124606  0.185653  1
  F  F28  1  0.045238  0.483272  0.999150  1
  F  F29  1  0.660493  0.106222  0.628856  1
