# generated using pymatgen
data_CeY2Ho2(FeB3)2
_symmetry_space_group_name_H-M   'P 1'
_cell_length_a   5.43806309
_cell_length_b   5.43806283
_cell_length_c   7.99280122
_cell_angle_alpha   70.11184804
_cell_angle_beta   70.11183949
_cell_angle_gamma   59.99999229
_symmetry_Int_Tables_number   1
_chemical_formula_structural   CeY2Ho2(FeB3)2
_chemical_formula_sum   'Ce1 Y2 Ho2 Fe2 B6'
_cell_volume   188.24606878
_cell_formula_units_Z   1
loop_
 _symmetry_equiv_pos_site_id
 _symmetry_equiv_pos_as_xyz
  1  'x, y, z'
loop_
 _atom_site_type_symbol
 _atom_site_label
 _atom_site_symmetry_multiplicity
 _atom_site_fract_x
 _atom_site_fract_y
 _atom_site_fract_z
 _atom_site_occupancy
  Ce  Ce0  1  0.000000  0.000000  0.000000  1
  Y  Y1  1  0.586585  0.586585  0.240248  1
  Y  Y2  1  0.413415  0.413415  0.759752  1
  Ho  Ho3  1  0.747674  0.747674  0.756980  1
  Ho  Ho4  1  0.252326  0.252326  0.243020  1
  Fe  Fe5  1  0.889872  0.889872  0.330382  1
  Fe  Fe6  1  0.110128  0.110128  0.669618  1
  B  B7  1  0.500000  0.166973  0.500000  1
  B  B8  1  0.833027  0.500000  0.500000  1
  B  B9  1  0.166973  0.833027  0.500000  1
  B  B10  1  0.166973  0.500000  0.500000  1
  B  B11  1  0.833027  0.166973  0.500000  1
  B  B12  1  0.500000  0.833027  0.500000  1
