# generated using pymatgen
data_LaNd2Er17Bi12
_symmetry_space_group_name_H-M   'P 1'
_cell_length_a   8.24454127
_cell_length_b   9.48889000
_cell_length_c   12.00584100
_cell_angle_alpha   90.00000000
_cell_angle_beta   90.04253815
_cell_angle_gamma   90.00000000
_symmetry_Int_Tables_number   1
_chemical_formula_structural   LaNd2Er17Bi12
_chemical_formula_sum   'La1 Nd2 Er17 Bi12'
_cell_volume   939.23523439
_cell_formula_units_Z   1
loop_
 _symmetry_equiv_pos_site_id
 _symmetry_equiv_pos_as_xyz
  1  'x, y, z'
loop_
 _atom_site_type_symbol
 _atom_site_label
 _atom_site_symmetry_multiplicity
 _atom_site_fract_x
 _atom_site_fract_y
 _atom_site_fract_z
 _atom_site_occupancy
  La  La0  1  0.684448  0.750000  0.779499  1
  Nd  Nd1  1  0.814954  0.250000  0.280372  1
  Nd  Nd2  1  0.184969  0.750000  0.719820  1
  Er  Er3  1  0.352269  0.750000  0.218549  1
  Er  Er4  1  0.853163  0.750000  0.281498  1
  Er  Er5  1  0.647060  0.250000  0.782809  1
  Er  Er6  1  0.148420  0.250000  0.716886  1
  Er  Er7  1  0.691972  0.564734  0.060595  1
  Er  Er8  1  0.191922  0.935465  0.439422  1
  Er  Er9  1  0.308472  0.064940  0.940459  1
  Er  Er10  1  0.808365  0.434763  0.559565  1
  Er  Er11  1  0.308472  0.435060  0.940459  1
  Er  Er12  1  0.808365  0.065237  0.559565  1
  Er  Er13  1  0.691972  0.935266  0.060595  1
  Er  Er14  1  0.191922  0.564535  0.439422  1
  Er  Er15  1  0.476075  0.250000  0.487745  1
  Er  Er16  1  0.977249  0.250000  0.013044  1
  Er  Er17  1  0.522887  0.750000  0.511090  1
  Er  Er18  1  0.023738  0.750000  0.989619  1
  Er  Er19  1  0.313641  0.250000  0.217398  1
  Bi  Bi20  1  0.402424  0.750000  0.964041  1
  Bi  Bi21  1  0.904517  0.750000  0.536329  1
  Bi  Bi22  1  0.592527  0.250000  0.040544  1
  Bi  Bi23  1  0.097914  0.250000  0.460330  1
  Bi  Bi24  1  0.562789  0.993329  0.326620  1
  Bi  Bi25  1  0.068741  0.506005  0.173391  1
  Bi  Bi26  1  0.433033  0.489818  0.671639  1
  Bi  Bi27  1  0.936578  0.010201  0.828518  1
  Bi  Bi28  1  0.433033  0.010182  0.671639  1
  Bi  Bi29  1  0.936578  0.489799  0.828518  1
  Bi  Bi30  1  0.562789  0.506671  0.326620  1
  Bi  Bi31  1  0.068741  0.993995  0.173391  1
