# generated using pymatgen
data_Ce3Ho(B2Os)4
_symmetry_space_group_name_H-M   'P 1'
_cell_length_a   5.36232600
_cell_length_b   5.89452415
_cell_length_c   6.49175077
_cell_angle_alpha   89.77002698
_cell_angle_beta   90.00000000
_cell_angle_gamma   90.00000000
_symmetry_Int_Tables_number   1
_chemical_formula_structural   Ce3Ho(B2Os)4
_chemical_formula_sum   'Ce3 Ho1 B8 Os4'
_cell_volume   205.19194314
_cell_formula_units_Z   1
loop_
 _symmetry_equiv_pos_site_id
 _symmetry_equiv_pos_as_xyz
  1  'x, y, z'
loop_
 _atom_site_type_symbol
 _atom_site_label
 _atom_site_symmetry_multiplicity
 _atom_site_fract_x
 _atom_site_fract_y
 _atom_site_fract_z
 _atom_site_occupancy
  Ce  Ce0  1  0.250000  0.003381  0.338842  1
  Ce  Ce1  1  0.250000  0.504332  0.164368  1
  Ce  Ce2  1  0.750000  0.994441  0.658141  1
  Ho  Ho3  1  0.750000  0.494738  0.838490  1
  B  B4  1  0.086112  0.370648  0.540113  1
  B  B5  1  0.415567  0.869026  0.961058  1
  B  B6  1  0.586524  0.627555  0.464324  1
  B  B7  1  0.914405  0.133082  0.035260  1
  B  B8  1  0.913476  0.627555  0.464324  1
  B  B9  1  0.585595  0.133082  0.035260  1
  B  B10  1  0.413888  0.370648  0.540113  1
  B  B11  1  0.084433  0.869026  0.961058  1
  Os  Os12  1  0.250000  0.184393  0.814354  1
  Os  Os13  1  0.250000  0.685821  0.686029  1
  Os  Os14  1  0.750000  0.818593  0.187878  1
  Os  Os15  1  0.750000  0.313682  0.310388  1
