# generated using pymatgen
data_Hf4Re3W5
_symmetry_space_group_name_H-M   'P 1'
_cell_length_a   5.35687000
_cell_length_b   5.34420931
_cell_length_c   8.75235100
_cell_angle_alpha   90.00000000
_cell_angle_beta   90.00000000
_cell_angle_gamma   120.07838610
_symmetry_Int_Tables_number   1
_chemical_formula_structural   Hf4Re3W5
_chemical_formula_sum   'Hf4 Re3 W5'
_cell_volume   216.82349746
_cell_formula_units_Z   1
loop_
 _symmetry_equiv_pos_site_id
 _symmetry_equiv_pos_as_xyz
  1  'x, y, z'
loop_
 _atom_site_type_symbol
 _atom_site_label
 _atom_site_symmetry_multiplicity
 _atom_site_fract_x
 _atom_site_fract_y
 _atom_site_fract_z
 _atom_site_occupancy
  Hf  Hf0  1  0.333047  0.666095  0.057445  1
  Hf  Hf1  1  0.666924  0.333848  0.559999  1
  Hf  Hf2  1  0.666924  0.333848  0.940001  1
  Hf  Hf3  1  0.333047  0.666095  0.442555  1
  Re  Re4  1  0.000381  0.000762  0.998900  1
  Re  Re5  1  0.000381  0.000762  0.501100  1
  Re  Re6  1  0.171150  0.342299  0.750000  1
  W  W7  1  0.829532  0.659065  0.250000  1
  W  W8  1  0.168959  0.829323  0.750000  1
  W  W9  1  0.660364  0.829323  0.750000  1
  W  W10  1  0.339021  0.169290  0.250000  1
  W  W11  1  0.830269  0.169290  0.250000  1
