# generated using pymatgen
data_Ho3Zn3Ga2Hg
_symmetry_space_group_name_H-M   'P 1'
_cell_length_a   7.04408000
_cell_length_b   7.04407980
_cell_length_c   4.34093600
_cell_angle_alpha   90.00000000
_cell_angle_beta   90.00000000
_cell_angle_gamma   120.00000092
_symmetry_Int_Tables_number   1
_chemical_formula_structural   Ho3Zn3Ga2Hg
_chemical_formula_sum   'Ho3 Zn3 Ga2 Hg1'
_cell_volume   186.53595622
_cell_formula_units_Z   1
loop_
 _symmetry_equiv_pos_site_id
 _symmetry_equiv_pos_as_xyz
  1  'x, y, z'
loop_
 _atom_site_type_symbol
 _atom_site_label
 _atom_site_symmetry_multiplicity
 _atom_site_fract_x
 _atom_site_fract_y
 _atom_site_fract_z
 _atom_site_occupancy
  Ho  Ho0  1  0.427835  0.427835  0.500000  1
  Ho  Ho1  1  0.572165  0.000000  0.500000  1
  Ho  Ho2  1  0.000000  0.572165  0.500000  1
  Zn  Zn3  1  0.745483  0.745483  0.000000  1
  Zn  Zn4  1  0.254517  0.000000  0.000000  1
  Zn  Zn5  1  0.000000  0.254517  0.000000  1
  Ga  Ga6  1  0.666667  0.333333  0.000000  1
  Ga  Ga7  1  0.333333  0.666667  0.000000  1
  Hg  Hg8  1  0.000000  0.000000  0.500000  1
