# generated using pymatgen
data_HoIO4
_symmetry_space_group_name_H-M   'P 1'
_cell_length_a   4.99649106
_cell_length_b   4.99649084
_cell_length_c   7.20886000
_cell_angle_alpha   90.00000000
_cell_angle_beta   90.00000000
_cell_angle_gamma   85.93892981
_symmetry_Int_Tables_number   1
_chemical_formula_structural   HoIO4
_chemical_formula_sum   'Ho2 I2 O8'
_cell_volume   179.51674883
_cell_formula_units_Z   2
loop_
 _symmetry_equiv_pos_site_id
 _symmetry_equiv_pos_as_xyz
  1  'x, y, z'
loop_
 _atom_site_type_symbol
 _atom_site_label
 _atom_site_symmetry_multiplicity
 _atom_site_fract_x
 _atom_site_fract_y
 _atom_site_fract_z
 _atom_site_occupancy
  Ho  Ho0  1  0.000000  0.000000  0.000000  1
  Ho  Ho1  1  0.000000  0.000000  0.500000  1
  I  I2  1  0.527895  0.527895  0.250001  1
  I  I3  1  0.472105  0.472105  0.750001  1
  O  O4  1  0.831258  0.235279  0.250001  1
  O  O5  1  0.235279  0.831258  0.250001  1
  O  O6  1  0.764720  0.168741  0.750001  1
  O  O7  1  0.168741  0.764720  0.750001  1
  O  O8  1  0.690443  0.690443  0.051164  1
  O  O9  1  0.690443  0.690443  0.448836  1
  O  O10  1  0.309557  0.309557  0.551164  1
  O  O11  1  0.309557  0.309557  0.948836  1
