# generated using pymatgen
data_Tb3(Si3Pd10)2
_symmetry_space_group_name_H-M   'P 1'
_cell_length_a   8.71947487
_cell_length_b   8.71947496
_cell_length_c   8.71947500
_cell_angle_alpha   60.00000364
_cell_angle_beta   60.00000331
_cell_angle_gamma   60.00000691
_symmetry_Int_Tables_number   1
_chemical_formula_structural   Tb3(Si3Pd10)2
_chemical_formula_sum   'Tb3 Si6 Pd20'
_cell_volume   468.76594108
_cell_formula_units_Z   1
loop_
 _symmetry_equiv_pos_site_id
 _symmetry_equiv_pos_as_xyz
  1  'x, y, z'
loop_
 _atom_site_type_symbol
 _atom_site_label
 _atom_site_symmetry_multiplicity
 _atom_site_fract_x
 _atom_site_fract_y
 _atom_site_fract_z
 _atom_site_occupancy
  Tb  Tb0  1  0.250000  0.250000  0.250000  1
  Tb  Tb1  1  0.750000  0.750000  0.750000  1
  Tb  Tb2  1  0.000000  0.000000  0.000000  1
  Si  Si3  1  0.732657  0.267342  0.267343  1
  Si  Si4  1  0.267342  0.732658  0.732657  1
  Si  Si5  1  0.267343  0.732657  0.267342  1
  Si  Si6  1  0.732657  0.267343  0.732657  1
  Si  Si7  1  0.267343  0.267343  0.732657  1
  Si  Si8  1  0.732657  0.732658  0.267343  1
  Pd  Pd9  1  0.383832  0.383832  0.383832  1
  Pd  Pd10  1  0.616168  0.616168  0.616168  1
  Pd  Pd11  1  0.383832  0.383832  0.848504  1
  Pd  Pd12  1  0.383832  0.848504  0.383832  1
  Pd  Pd13  1  0.616168  0.616168  0.151496  1
  Pd  Pd14  1  0.616168  0.151496  0.616168  1
  Pd  Pd15  1  0.848504  0.383832  0.383832  1
  Pd  Pd16  1  0.151496  0.616168  0.616168  1
  Pd  Pd17  1  0.345624  0.000000  0.000000  1
  Pd  Pd18  1  0.654376  0.000000  0.000000  1
  Pd  Pd19  1  0.000000  0.345624  0.654376  1
  Pd  Pd20  1  0.000000  0.654376  0.345624  1
  Pd  Pd21  1  0.000000  0.345624  0.000000  1
  Pd  Pd22  1  0.654376  0.000000  0.345624  1
  Pd  Pd23  1  0.000000  0.654376  0.000000  1
  Pd  Pd24  1  0.345624  0.000000  0.654376  1
  Pd  Pd25  1  0.000000  0.000000  0.345624  1
  Pd  Pd26  1  0.000000  0.000000  0.654376  1
  Pd  Pd27  1  0.654376  0.345624  0.000000  1
  Pd  Pd28  1  0.345624  0.654376  0.000000  1
