# generated using pymatgen
data_Gd2FeIr3
_symmetry_space_group_name_H-M   'P 1'
_cell_length_a   5.62563300
_cell_length_b   5.62563381
_cell_length_c   5.14770900
_cell_angle_alpha   123.12183008
_cell_angle_beta   90.00000000
_cell_angle_gamma   120.00000114
_symmetry_Int_Tables_number   1
_chemical_formula_structural   Gd2FeIr3
_chemical_formula_sum   'Gd2 Fe1 Ir3'
_cell_volume   109.45841372
_cell_formula_units_Z   1
loop_
 _symmetry_equiv_pos_site_id
 _symmetry_equiv_pos_as_xyz
  1  'x, y, z'
loop_
 _atom_site_type_symbol
 _atom_site_label
 _atom_site_symmetry_multiplicity
 _atom_site_fract_x
 _atom_site_fract_y
 _atom_site_fract_z
 _atom_site_occupancy
  Gd  Gd0  1  0.002479  0.004948  0.007436  1
  Gd  Gd1  1  0.747540  0.495070  0.242617  1
  Fe  Fe2  1  0.374968  0.749963  0.124916  1
  Ir  Ir3  1  0.374910  0.250077  0.624988  1
  Ir  Ir4  1  0.875190  0.250117  0.625027  1
  Ir  Ir5  1  0.374912  0.749821  0.625013  1
