# generated using pymatgen
data_Nd6ScCo17P12
_symmetry_space_group_name_H-M   'P 1'
_cell_length_a   3.78335700
_cell_length_b   10.74013700
_cell_length_c   12.53483200
_cell_angle_alpha   90.00000000
_cell_angle_beta   90.00000000
_cell_angle_gamma   90.00000000
_symmetry_Int_Tables_number   1
_chemical_formula_structural   Nd6ScCo17P12
_chemical_formula_sum   'Nd6 Sc1 Co17 P12'
_cell_volume   509.33751181
_cell_formula_units_Z   1
loop_
 _symmetry_equiv_pos_site_id
 _symmetry_equiv_pos_as_xyz
  1  'x, y, z'
loop_
 _atom_site_type_symbol
 _atom_site_label
 _atom_site_symmetry_multiplicity
 _atom_site_fract_x
 _atom_site_fract_y
 _atom_site_fract_z
 _atom_site_occupancy
  Nd  Nd0  1  0.000000  0.500000  0.527998  1
  Nd  Nd1  1  0.500000  0.000000  0.479116  1
  Nd  Nd2  1  0.500000  0.820085  0.207767  1
  Nd  Nd3  1  0.500000  0.179915  0.207767  1
  Nd  Nd4  1  0.000000  0.683445  0.795032  1
  Nd  Nd5  1  0.000000  0.316555  0.795032  1
  Sc  Sc6  1  0.500000  0.500000  0.150800  1
  Co  Co7  1  0.000000  0.000000  0.838575  1
  Co  Co8  1  0.500000  0.500000  0.704905  1
  Co  Co9  1  0.000000  0.000000  0.294120  1
  Co  Co10  1  0.000000  0.500000  0.984513  1
  Co  Co11  1  0.500000  0.000000  0.011768  1
  Co  Co12  1  0.500000  0.326562  0.990182  1
  Co  Co13  1  0.500000  0.673438  0.990182  1
  Co  Co14  1  0.000000  0.161305  0.000301  1
  Co  Co15  1  0.000000  0.838695  0.000301  1
  Co  Co16  1  0.500000  0.294931  0.434225  1
  Co  Co17  1  0.500000  0.705069  0.434225  1
  Co  Co18  1  0.000000  0.201788  0.570899  1
  Co  Co19  1  0.000000  0.798212  0.570899  1
  Co  Co20  1  0.500000  0.882657  0.709146  1
  Co  Co21  1  0.500000  0.117343  0.709146  1
  Co  Co22  1  0.000000  0.619896  0.299514  1
  Co  Co23  1  0.000000  0.380104  0.299514  1
  P  P24  1  0.500000  0.500000  0.885834  1
  P  P25  1  0.000000  0.000000  0.112463  1
  P  P26  1  0.500000  0.500000  0.354084  1
  P  P27  1  0.000000  0.000000  0.659480  1
  P  P28  1  0.500000  0.303772  0.615968  1
  P  P29  1  0.500000  0.696228  0.615968  1
  P  P30  1  0.000000  0.193427  0.388610  1
  P  P31  1  0.000000  0.806573  0.388610  1
  P  P32  1  0.500000  0.853677  0.890848  1
  P  P33  1  0.500000  0.146323  0.890848  1
  P  P34  1  0.000000  0.662064  0.095681  1
  P  P35  1  0.000000  0.337936  0.095681  1
