# generated using pymatgen
data_Er5Zr5(Si5Ir2)4
_symmetry_space_group_name_H-M   'P 1'
_cell_length_a   12.50528800
_cell_length_b   12.50528800
_cell_length_c   4.16500600
_cell_angle_alpha   90.00000000
_cell_angle_beta   90.00000000
_cell_angle_gamma   90.00000000
_symmetry_Int_Tables_number   1
_chemical_formula_structural   Er5Zr5(Si5Ir2)4
_chemical_formula_sum   'Er5 Zr5 Si20 Ir8'
_cell_volume   651.33291776
_cell_formula_units_Z   1
loop_
 _symmetry_equiv_pos_site_id
 _symmetry_equiv_pos_as_xyz
  1  'x, y, z'
loop_
 _atom_site_type_symbol
 _atom_site_label
 _atom_site_symmetry_multiplicity
 _atom_site_fract_x
 _atom_site_fract_y
 _atom_site_fract_z
 _atom_site_occupancy
  Er  Er0  1  0.000000  0.000000  0.000000  1
  Er  Er1  1  0.884338  0.384317  0.500000  1
  Er  Er2  1  0.115662  0.615683  0.500000  1
  Er  Er3  1  0.384317  0.115662  0.500000  1
  Er  Er4  1  0.615683  0.884338  0.500000  1
  Zr  Zr5  1  0.500000  0.500000  0.000000  1
  Zr  Zr6  1  0.673847  0.175221  0.500000  1
  Zr  Zr7  1  0.326153  0.824779  0.500000  1
  Zr  Zr8  1  0.175221  0.326153  0.500000  1
  Zr  Zr9  1  0.824779  0.673847  0.500000  1
  Si  Si10  1  0.566037  0.067167  0.000000  1
  Si  Si11  1  0.433963  0.932833  0.000000  1
  Si  Si12  1  0.067167  0.433963  0.000000  1
  Si  Si13  1  0.932833  0.566037  0.000000  1
  Si  Si14  1  0.665602  0.700300  0.000000  1
  Si  Si15  1  0.334398  0.299700  0.000000  1
  Si  Si16  1  0.164709  0.801067  0.000000  1
  Si  Si17  1  0.835291  0.198933  0.000000  1
  Si  Si18  1  0.299700  0.665602  0.000000  1
  Si  Si19  1  0.700300  0.334398  0.000000  1
  Si  Si20  1  0.198933  0.164709  0.000000  1
  Si  Si21  1  0.801067  0.835291  0.000000  1
  Si  Si22  1  0.652749  0.507473  0.500000  1
  Si  Si23  1  0.347251  0.492527  0.500000  1
  Si  Si24  1  0.156589  0.993046  0.500000  1
  Si  Si25  1  0.843411  0.006954  0.500000  1
  Si  Si26  1  0.492527  0.652749  0.500000  1
  Si  Si27  1  0.507473  0.347251  0.500000  1
  Si  Si28  1  0.006954  0.156589  0.500000  1
  Si  Si29  1  0.993046  0.843411  0.500000  1
  Ir  Ir30  1  0.743403  0.520240  0.000000  1
  Ir  Ir31  1  0.256597  0.479760  0.000000  1
  Ir  Ir32  1  0.246064  0.979702  0.000000  1
  Ir  Ir33  1  0.753936  0.020298  0.000000  1
  Ir  Ir34  1  0.479760  0.743403  0.000000  1
  Ir  Ir35  1  0.520240  0.256597  0.000000  1
  Ir  Ir36  1  0.020298  0.246064  0.000000  1
  Ir  Ir37  1  0.979702  0.753936  0.000000  1
