# generated using pymatgen
data_Li2ErLu2Si3Pd
_symmetry_space_group_name_H-M   'P 1'
_cell_length_a   6.94710623
_cell_length_b   6.83845366
_cell_length_c   4.07524800
_cell_angle_alpha   90.00000000
_cell_angle_beta   90.00000000
_cell_angle_gamma   119.87993572
_symmetry_Int_Tables_number   1
_chemical_formula_structural   Li2ErLu2Si3Pd
_chemical_formula_sum   'Li2 Er1 Lu2 Si3 Pd1'
_cell_volume   167.86906906
_cell_formula_units_Z   1
loop_
 _symmetry_equiv_pos_site_id
 _symmetry_equiv_pos_as_xyz
  1  'x, y, z'
loop_
 _atom_site_type_symbol
 _atom_site_label
 _atom_site_symmetry_multiplicity
 _atom_site_fract_x
 _atom_site_fract_y
 _atom_site_fract_z
 _atom_site_occupancy
  Li  Li0  1  0.763046  0.770261  0.000000  1
  Li  Li1  1  0.235094  0.005594  0.000000  1
  Er  Er2  1  0.423284  0.420501  0.500000  1
  Lu  Lu3  1  0.578672  0.998229  0.500000  1
  Lu  Lu4  1  0.001067  0.569639  0.500000  1
  Si  Si5  1  0.674731  0.330553  0.000000  1
  Si  Si6  1  0.326504  0.659834  0.000000  1
  Si  Si7  1  0.996598  0.007048  0.500000  1
  Pd  Pd8  1  0.001003  0.238342  0.000000  1
