# generated using pymatgen
data_Sr7Ca2Fe(PO4)7
_symmetry_space_group_name_H-M   'P 1'
_cell_length_a   9.02889673
_cell_length_b   9.02889603
_cell_length_c   18.07099046
_cell_angle_alpha   71.97781853
_cell_angle_beta   71.97781950
_cell_angle_gamma   72.30329978
_symmetry_Int_Tables_number   1
_chemical_formula_structural   Sr7Ca2Fe(PO4)7
_chemical_formula_sum   'Sr14 Ca4 Fe2 P14 O56'
_cell_volume   1296.34472423
_cell_formula_units_Z   2
loop_
 _symmetry_equiv_pos_site_id
 _symmetry_equiv_pos_as_xyz
  1  'x, y, z'
loop_
 _atom_site_type_symbol
 _atom_site_label
 _atom_site_symmetry_multiplicity
 _atom_site_fract_x
 _atom_site_fract_y
 _atom_site_fract_z
 _atom_site_occupancy
  Sr  Sr0  1  0.716825  0.714383  0.588451  1
  Sr  Sr1  1  0.284165  0.280641  0.912045  1
  Sr  Sr2  1  0.280641  0.284165  0.412045  1
  Sr  Sr3  1  0.714383  0.716825  0.088451  1
  Sr  Sr4  1  0.269643  0.841828  0.139435  1
  Sr  Sr5  1  0.155158  0.731414  0.359823  1
  Sr  Sr6  1  0.731414  0.155158  0.859823  1
  Sr  Sr7  1  0.841828  0.269643  0.639435  1
  Sr  Sr8  1  0.497680  0.038058  0.746606  1
  Sr  Sr9  1  0.967356  0.500283  0.751117  1
  Sr  Sr10  1  0.500283  0.967356  0.251117  1
  Sr  Sr11  1  0.038058  0.497680  0.246606  1
  Sr  Sr12  1  0.506061  0.503856  0.486527  1
  Sr  Sr13  1  0.503856  0.506061  0.986527  1
  Ca  Ca14  1  0.278201  0.827197  0.633305  1
  Ca  Ca15  1  0.171308  0.721915  0.865219  1
  Ca  Ca16  1  0.721915  0.171308  0.365219  1
  Ca  Ca17  1  0.827197  0.278201  0.133305  1
  Fe  Fe18  1  0.999382  0.999035  0.500011  1
  Fe  Fe19  1  0.999035  0.999382  0.000011  1
  P  P20  1  0.105314  0.590367  0.055546  1
  P  P21  1  0.410636  0.894768  0.443400  1
  P  P22  1  0.894768  0.410636  0.943400  1
  P  P23  1  0.590367  0.105314  0.555546  1
  P  P24  1  0.881182  0.902063  0.204769  1
  P  P25  1  0.097419  0.118393  0.294766  1
  P  P26  1  0.118393  0.097419  0.794766  1
  P  P27  1  0.902063  0.881182  0.704769  1
  P  P28  1  0.115529  0.593115  0.552032  1
  P  P29  1  0.406170  0.886204  0.947272  1
  P  P30  1  0.886204  0.406170  0.447272  1
  P  P31  1  0.593115  0.115529  0.052032  1
  P  P32  1  0.480383  0.521061  0.252135  1
  P  P33  1  0.521061  0.480383  0.752135  1
  O  O34  1  0.497052  0.783552  0.509001  1
  O  O35  1  0.214954  0.505115  0.989149  1
  O  O36  1  0.505115  0.214954  0.489149  1
  O  O37  1  0.783552  0.497052  0.009001  1
  O  O38  1  0.412188  0.528811  0.830809  1
  O  O39  1  0.463244  0.600703  0.678589  1
  O  O40  1  0.600703  0.463244  0.178589  1
  O  O41  1  0.528811  0.412188  0.330809  1
  O  O42  1  0.021441  0.762155  0.508737  1
  O  O43  1  0.237365  0.979224  0.990741  1
  O  O44  1  0.979224  0.237365  0.490741  1
  O  O45  1  0.762155  0.021441  0.008737  1
  O  O46  1  0.026409  0.497752  0.886164  1
  O  O47  1  0.502050  0.974430  0.612574  1
  O  O48  1  0.974430  0.502050  0.112574  1
  O  O49  1  0.497752  0.026409  0.386164  1
  O  O50  1  0.013502  0.499463  0.392637  1
  O  O51  1  0.499686  0.987687  0.106167  1
  O  O52  1  0.987687  0.499686  0.606167  1
  O  O53  1  0.499463  0.013502  0.892637  1
  O  O54  1  0.791324  0.010720  0.749337  1
  O  O55  1  0.989148  0.207169  0.749876  1
  O  O56  1  0.207169  0.989148  0.249876  1
  O  O57  1  0.010720  0.791324  0.249337  1
  O  O58  1  0.518926  0.301927  0.764366  1
  O  O59  1  0.702183  0.476991  0.735985  1
  O  O60  1  0.476991  0.702183  0.235985  1
  O  O61  1  0.301927  0.518926  0.264366  1
  O  O62  1  0.973496  0.988603  0.119172  1
  O  O63  1  0.010933  0.026058  0.380347  1
  O  O64  1  0.026058  0.010933  0.880347  1
  O  O65  1  0.988603  0.973496  0.619172  1
  O  O66  1  0.489923  0.772886  0.014200  1
  O  O67  1  0.226236  0.510810  0.483992  1
  O  O68  1  0.510810  0.226236  0.983992  1
  O  O69  1  0.772886  0.489923  0.514200  1
  O  O70  1  0.215886  0.201349  0.803991  1
  O  O71  1  0.799579  0.782390  0.695529  1
  O  O72  1  0.782390  0.799579  0.195529  1
  O  O73  1  0.201349  0.215886  0.303991  1
  O  O74  1  0.792539  0.391332  0.893519  1
  O  O75  1  0.611274  0.206823  0.604892  1
  O  O76  1  0.206823  0.611274  0.104892  1
  O  O77  1  0.391332  0.792539  0.393519  1
  O  O78  1  0.770345  0.037664  0.245689  1
  O  O79  1  0.961862  0.230313  0.254217  1
  O  O80  1  0.230313  0.961862  0.754217  1
  O  O81  1  0.037664  0.770345  0.745689  1
  O  O82  1  0.786902  0.383832  0.397634  1
  O  O83  1  0.615294  0.215130  0.101209  1
  O  O84  1  0.215130  0.615294  0.601209  1
  O  O85  1  0.383832  0.786902  0.897634  1
  O  O86  1  0.017011  0.760355  0.010507  1
  O  O87  1  0.240306  0.981504  0.488407  1
  O  O88  1  0.981504  0.240306  0.988407  1
  O  O89  1  0.760355  0.017011  0.510507  1
