# generated using pymatgen
data_Ce3Lu13(ZnCo)4
_symmetry_space_group_name_H-M   'P 1'
_cell_length_a   9.25991839
_cell_length_b   9.25099822
_cell_length_c   9.25099700
_cell_angle_alpha   60.00000079
_cell_angle_beta   60.03186169
_cell_angle_gamma   60.03186615
_symmetry_Int_Tables_number   1
_chemical_formula_structural   Ce3Lu13(ZnCo)4
_chemical_formula_sum   'Ce3 Lu13 Zn4 Co4'
_cell_volume   560.63253797
_cell_formula_units_Z   1
loop_
 _symmetry_equiv_pos_site_id
 _symmetry_equiv_pos_as_xyz
  1  'x, y, z'
loop_
 _atom_site_type_symbol
 _atom_site_label
 _atom_site_symmetry_multiplicity
 _atom_site_fract_x
 _atom_site_fract_y
 _atom_site_fract_z
 _atom_site_occupancy
  Ce  Ce0  1  0.343695  0.349410  0.349410  1
  Ce  Ce1  1  0.343695  0.349410  0.957482  1
  Ce  Ce2  1  0.343695  0.957482  0.349410  1
  Lu  Lu3  1  0.941081  0.352973  0.352973  1
  Lu  Lu4  1  0.812171  0.188925  0.188925  1
  Lu  Lu5  1  0.190450  0.810928  0.810928  1
  Lu  Lu6  1  0.190450  0.810928  0.187694  1
  Lu  Lu7  1  0.812171  0.188925  0.809980  1
  Lu  Lu8  1  0.190450  0.187694  0.810928  1
  Lu  Lu9  1  0.812171  0.809980  0.188925  1
  Lu  Lu10  1  0.936068  0.564239  0.564239  1
  Lu  Lu11  1  0.563241  0.936296  0.936296  1
  Lu  Lu12  1  0.563241  0.936296  0.564168  1
  Lu  Lu13  1  0.936068  0.564239  0.935452  1
  Lu  Lu14  1  0.563241  0.564168  0.936296  1
  Lu  Lu15  1  0.936068  0.935452  0.564239  1
  Zn  Zn16  1  0.579964  0.578571  0.578571  1
  Zn  Zn17  1  0.579964  0.578571  0.262892  1
  Zn  Zn18  1  0.579964  0.262892  0.578571  1
  Zn  Zn19  1  0.259530  0.580157  0.580157  1
  Co  Co20  1  0.152156  0.140729  0.140729  1
  Co  Co21  1  0.152156  0.140729  0.566385  1
  Co  Co22  1  0.152156  0.566385  0.140729  1
  Co  Co23  1  0.566143  0.144619  0.144619  1
