# generated using pymatgen
data_Ho8Fe(B8Ir)3
_symmetry_space_group_name_H-M   'P 1'
_cell_length_a   3.61252400
_cell_length_b   9.15546413
_cell_length_c   11.47112585
_cell_angle_alpha   89.95770130
_cell_angle_beta   90.00000000
_cell_angle_gamma   90.00000000
_symmetry_Int_Tables_number   1
_chemical_formula_structural   Ho8Fe(B8Ir)3
_chemical_formula_sum   'Ho8 Fe1 B24 Ir3'
_cell_volume   379.39974323
_cell_formula_units_Z   1
loop_
 _symmetry_equiv_pos_site_id
 _symmetry_equiv_pos_as_xyz
  1  'x, y, z'
loop_
 _atom_site_type_symbol
 _atom_site_label
 _atom_site_symmetry_multiplicity
 _atom_site_fract_x
 _atom_site_fract_y
 _atom_site_fract_z
 _atom_site_occupancy
  Ho  Ho0  1  0.000000  0.320774  0.413719  1
  Ho  Ho1  1  0.000000  0.680833  0.589619  1
  Ho  Ho2  1  0.000000  0.822468  0.082839  1
  Ho  Ho3  1  0.000000  0.174816  0.911968  1
  Ho  Ho4  1  0.000000  0.944114  0.374495  1
  Ho  Ho5  1  0.000000  0.052190  0.629154  1
  Ho  Ho6  1  0.000000  0.444543  0.124749  1
  Ho  Ho7  1  0.000000  0.560365  0.873728  1
  Fe  Fe8  1  0.000000  0.861985  0.821303  1
  B  B9  1  0.500000  0.553418  0.434675  1
  B  B10  1  0.500000  0.446469  0.566110  1
  B  B11  1  0.500000  0.052896  0.064913  1
  B  B12  1  0.500000  0.945376  0.931985  1
  B  B13  1  0.500000  0.749137  0.421617  1
  B  B14  1  0.500000  0.249841  0.579586  1
  B  B15  1  0.500000  0.248718  0.078161  1
  B  B16  1  0.500000  0.754114  0.918447  1
  B  B17  1  0.500000  0.793124  0.265171  1
  B  B18  1  0.500000  0.206465  0.734472  1
  B  B19  1  0.500000  0.293357  0.234633  1
  B  B20  1  0.500000  0.709662  0.766719  1
  B  B21  1  0.500000  0.632927  0.183707  1
  B  B22  1  0.500000  0.367765  0.815751  1
  B  B23  1  0.500000  0.132663  0.315909  1
  B  B24  1  0.500000  0.867328  0.686916  1
  B  B25  1  0.500000  0.981968  0.212907  1
  B  B26  1  0.500000  0.013657  0.787705  1
  B  B27  1  0.500000  0.482037  0.286268  1
  B  B28  1  0.500000  0.518318  0.713894  1
  B  B29  1  0.500000  0.612799  0.030329  1
  B  B30  1  0.500000  0.388290  0.968831  1
  B  B31  1  0.500000  0.110593  0.470059  1
  B  B32  1  0.500000  0.888558  0.531029  1
  Ir  Ir33  1  0.000000  0.637886  0.321681  1
  Ir  Ir34  1  0.000000  0.362063  0.678851  1
  Ir  Ir35  1  0.000000  0.138485  0.178098  1
