# generated using pymatgen
data_La9Nd7(CdOs)4
_symmetry_space_group_name_H-M   'P 1'
_cell_length_a   10.03766633
_cell_length_b   10.03766684
_cell_length_c   10.05563400
_cell_angle_alpha   59.94077705
_cell_angle_beta   59.94077538
_cell_angle_gamma   60.30826722
_symmetry_Int_Tables_number   1
_chemical_formula_structural   La9Nd7(CdOs)4
_chemical_formula_sum   'La9 Nd7 Cd4 Os4'
_cell_volume   717.41491494
_cell_formula_units_Z   1
loop_
 _symmetry_equiv_pos_site_id
 _symmetry_equiv_pos_as_xyz
  1  'x, y, z'
loop_
 _atom_site_type_symbol
 _atom_site_label
 _atom_site_symmetry_multiplicity
 _atom_site_fract_x
 _atom_site_fract_y
 _atom_site_fract_z
 _atom_site_occupancy
  La  La0  1  0.345355  0.345355  0.346539  1
  La  La1  1  0.345355  0.345355  0.962750  1
  La  La2  1  0.346530  0.963970  0.344750  1
  La  La3  1  0.963970  0.346530  0.344750  1
  La  La4  1  0.809378  0.189195  0.189991  1
  La  La5  1  0.189195  0.809378  0.811438  1
  La  La6  1  0.189195  0.809378  0.189991  1
  La  La7  1  0.809378  0.189195  0.811438  1
  La  La8  1  0.190108  0.190108  0.809892  1
  Nd  Nd9  1  0.807586  0.807586  0.192414  1
  Nd  Nd10  1  0.936711  0.563239  0.562009  1
  Nd  Nd11  1  0.563239  0.936711  0.938040  1
  Nd  Nd12  1  0.563239  0.936711  0.562009  1
  Nd  Nd13  1  0.936711  0.563239  0.938040  1
  Nd  Nd14  1  0.561593  0.561593  0.938407  1
  Nd  Nd15  1  0.939636  0.939636  0.560364  1
  Cd  Cd16  1  0.580755  0.580755  0.578287  1
  Cd  Cd17  1  0.580755  0.580755  0.260201  1
  Cd  Cd18  1  0.580067  0.259999  0.579967  1
  Cd  Cd19  1  0.259999  0.580067  0.579967  1
  Os  Os20  1  0.136155  0.136155  0.138773  1
  Os  Os21  1  0.136155  0.136155  0.588918  1
  Os  Os22  1  0.142072  0.586862  0.135533  1
  Os  Os23  1  0.586862  0.142072  0.135533  1
