# generated using pymatgen
data_Dy4Pa3Co6Sn23
_symmetry_space_group_name_H-M   'P 1'
_cell_length_a   9.65895759
_cell_length_b   9.65895793
_cell_length_c   10.03237574
_cell_angle_alpha   90.61200479
_cell_angle_beta   89.38799367
_cell_angle_gamma   119.73007999
_symmetry_Int_Tables_number   1
_chemical_formula_structural   Dy4Pa3Co6Sn23
_chemical_formula_sum   'Dy4 Pa3 Co6 Sn23'
_cell_volume   812.71195856
_cell_formula_units_Z   1
loop_
 _symmetry_equiv_pos_site_id
 _symmetry_equiv_pos_as_xyz
  1  'x, y, z'
loop_
 _atom_site_type_symbol
 _atom_site_label
 _atom_site_symmetry_multiplicity
 _atom_site_fract_x
 _atom_site_fract_y
 _atom_site_fract_z
 _atom_site_occupancy
  Dy  Dy0  1  0.476031  0.954306  0.306878  1
  Dy  Dy1  1  0.523969  0.045694  0.693122  1
  Dy  Dy2  1  0.045694  0.523969  0.306878  1
  Dy  Dy3  1  0.954306  0.476031  0.693122  1
  Pa  Pa4  1  0.000000  0.000000  0.000000  1
  Pa  Pa5  1  0.480852  0.519148  0.303483  1
  Pa  Pa6  1  0.519148  0.480852  0.696517  1
  Co  Co7  1  0.832902  0.167098  0.194336  1
  Co  Co8  1  0.167098  0.832902  0.805664  1
  Co  Co9  1  0.820668  0.657505  0.201357  1
  Co  Co10  1  0.179332  0.342495  0.798643  1
  Co  Co11  1  0.342495  0.179332  0.201357  1
  Co  Co12  1  0.657505  0.820668  0.798643  1
  Sn  Sn13  1  0.345674  0.998790  0.003217  1
  Sn  Sn14  1  0.654326  0.001210  0.996783  1
  Sn  Sn15  1  0.998790  0.345674  0.996783  1
  Sn  Sn16  1  0.001210  0.654326  0.003217  1
  Sn  Sn17  1  0.654669  0.654669  0.000000  1
  Sn  Sn18  1  0.345331  0.345331  0.000000  1
  Sn  Sn19  1  0.330637  0.669363  0.817492  1
  Sn  Sn20  1  0.669363  0.330637  0.182508  1
  Sn  Sn21  1  0.000000  0.000000  0.500000  1
  Sn  Sn22  1  0.783235  0.216765  0.450871  1
  Sn  Sn23  1  0.216765  0.783235  0.549129  1
  Sn  Sn24  1  0.782460  0.561994  0.455841  1
  Sn  Sn25  1  0.217540  0.438006  0.544159  1
  Sn  Sn26  1  0.438006  0.217540  0.455841  1
  Sn  Sn27  1  0.561994  0.782460  0.544159  1
  Sn  Sn28  1  0.334838  0.665162  0.115616  1
  Sn  Sn29  1  0.665162  0.334838  0.884384  1
  Sn  Sn30  1  0.116297  0.883703  0.269078  1
  Sn  Sn31  1  0.883703  0.116297  0.730922  1
  Sn  Sn32  1  0.115346  0.235524  0.272960  1
  Sn  Sn33  1  0.884654  0.764476  0.727040  1
  Sn  Sn34  1  0.764476  0.884654  0.272960  1
  Sn  Sn35  1  0.235524  0.115346  0.727040  1
