# generated using pymatgen
data_TmLu7Re2(B12Rh)2
_symmetry_space_group_name_H-M   'P 1'
_cell_length_a   3.61825800
_cell_length_b   9.04131073
_cell_length_c   11.42177401
_cell_angle_alpha   90.39024914
_cell_angle_beta   90.00000000
_cell_angle_gamma   90.00000000
_symmetry_Int_Tables_number   1
_chemical_formula_structural   TmLu7Re2(B12Rh)2
_chemical_formula_sum   'Tm1 Lu7 Re2 B24 Rh2'
_cell_volume   373.64090512
_cell_formula_units_Z   1
loop_
 _symmetry_equiv_pos_site_id
 _symmetry_equiv_pos_as_xyz
  1  'x, y, z'
loop_
 _atom_site_type_symbol
 _atom_site_label
 _atom_site_symmetry_multiplicity
 _atom_site_fract_x
 _atom_site_fract_y
 _atom_site_fract_z
 _atom_site_occupancy
  Tm  Tm0  1  0.000000  0.317305  0.410908  1
  Lu  Lu1  1  0.000000  0.683234  0.589279  1
  Lu  Lu2  1  0.000000  0.825594  0.082328  1
  Lu  Lu3  1  0.000000  0.174379  0.917617  1
  Lu  Lu4  1  0.000000  0.945362  0.372060  1
  Lu  Lu5  1  0.000000  0.054423  0.627989  1
  Lu  Lu6  1  0.000000  0.442440  0.126373  1
  Lu  Lu7  1  0.000000  0.557598  0.873559  1
  Re  Re8  1  0.000000  0.138616  0.179634  1
  Re  Re9  1  0.000000  0.861135  0.820159  1
  B  B10  1  0.500000  0.554570  0.435015  1
  B  B11  1  0.500000  0.445845  0.565242  1
  B  B12  1  0.500000  0.052747  0.066666  1
  B  B13  1  0.500000  0.947197  0.933255  1
  B  B14  1  0.500000  0.750022  0.421952  1
  B  B15  1  0.500000  0.249877  0.578457  1
  B  B16  1  0.500000  0.249665  0.080448  1
  B  B17  1  0.500000  0.750328  0.919454  1
  B  B18  1  0.500000  0.792175  0.264558  1
  B  B19  1  0.500000  0.207802  0.735490  1
  B  B20  1  0.500000  0.293886  0.235214  1
  B  B21  1  0.500000  0.705974  0.764521  1
  B  B22  1  0.500000  0.632188  0.182556  1
  B  B23  1  0.500000  0.367866  0.817422  1
  B  B24  1  0.500000  0.131251  0.315651  1
  B  B25  1  0.500000  0.868473  0.684183  1
  B  B26  1  0.500000  0.981456  0.213126  1
  B  B27  1  0.500000  0.018426  0.786842  1
  B  B28  1  0.500000  0.482763  0.287581  1
  B  B29  1  0.500000  0.517598  0.712267  1
  B  B30  1  0.500000  0.604434  0.028952  1
  B  B31  1  0.500000  0.395604  0.971002  1
  B  B32  1  0.500000  0.105051  0.471727  1
  B  B33  1  0.500000  0.894496  0.528411  1
  Rh  Rh34  1  0.000000  0.638358  0.321196  1
  Rh  Rh35  1  0.000000  0.361866  0.678906  1
