# generated using pymatgen
data_TbDy3B16MoW3
_symmetry_space_group_name_H-M   'P 1'
_cell_length_a   3.62784300
_cell_length_b   6.04443401
_cell_length_c   11.67861915
_cell_angle_alpha   90.01163371
_cell_angle_beta   90.00000000
_cell_angle_gamma   90.00000000
_symmetry_Int_Tables_number   1
_chemical_formula_structural   TbDy3B16MoW3
_chemical_formula_sum   'Tb1 Dy3 B16 Mo1 W3'
_cell_volume   256.09176387
_cell_formula_units_Z   1
loop_
 _symmetry_equiv_pos_site_id
 _symmetry_equiv_pos_as_xyz
  1  'x, y, z'
loop_
 _atom_site_type_symbol
 _atom_site_label
 _atom_site_symmetry_multiplicity
 _atom_site_fract_x
 _atom_site_fract_y
 _atom_site_fract_z
 _atom_site_occupancy
  Tb  Tb0  1  0.000000  0.127182  0.149641  1
  Dy  Dy1  1  0.000000  0.873096  0.850239  1
  Dy  Dy2  1  0.000000  0.627028  0.350343  1
  Dy  Dy3  1  0.000000  0.372954  0.649902  1
  B  B4  1  0.500000  0.476437  0.193417  1
  B  B5  1  0.500000  0.523058  0.806671  1
  B  B6  1  0.500000  0.976505  0.306784  1
  B  B7  1  0.500000  0.023621  0.693422  1
  B  B8  1  0.500000  0.287329  0.313753  1
  B  B9  1  0.500000  0.712628  0.686444  1
  B  B10  1  0.500000  0.787123  0.186410  1
  B  B11  1  0.500000  0.213267  0.813929  1
  B  B12  1  0.500000  0.366515  0.468079  1
  B  B13  1  0.500000  0.633507  0.531959  1
  B  B14  1  0.500000  0.866696  0.031714  1
  B  B15  1  0.500000  0.133687  0.967816  1
  B  B16  1  0.500000  0.386072  0.047193  1
  B  B17  1  0.500000  0.613663  0.952359  1
  B  B18  1  0.500000  0.886109  0.452607  1
  B  B19  1  0.500000  0.113868  0.547457  1
  Mo  Mo20  1  0.000000  0.369546  0.915915  1
  W  W21  1  0.000000  0.130872  0.415562  1
  W  W22  1  0.000000  0.869009  0.584450  1
  W  W23  1  0.000000  0.630227  0.083933  1
