# generated using pymatgen
data_TbErB24
_symmetry_space_group_name_H-M   'P 1'
_cell_length_a   5.29681500
_cell_length_b   5.29681410
_cell_length_c   9.17333101
_cell_angle_alpha   73.21941798
_cell_angle_beta   90.00000000
_cell_angle_gamma   119.99999938
_symmetry_Int_Tables_number   1
_chemical_formula_structural   TbErB24
_chemical_formula_sum   'Tb1 Er1 B24'
_cell_volume   210.13815637
_cell_formula_units_Z   1
loop_
 _symmetry_equiv_pos_site_id
 _symmetry_equiv_pos_as_xyz
  1  'x, y, z'
loop_
 _atom_site_type_symbol
 _atom_site_label
 _atom_site_symmetry_multiplicity
 _atom_site_fract_x
 _atom_site_fract_y
 _atom_site_fract_z
 _atom_site_occupancy
  Tb  Tb0  1  0.000000  0.000000  0.000000  1
  Er  Er1  1  0.500000  0.000000  0.500000  1
  B  B2  1  0.911797  0.499544  0.250357  1
  B  B3  1  0.412252  0.500456  0.749643  1
  B  B4  1  0.081137  0.500054  0.418808  1
  B  B5  1  0.581111  0.500351  0.918538  1
  B  B6  1  0.250099  0.837847  0.250357  1
  B  B7  1  0.749901  0.838104  0.749643  1
  B  B8  1  0.081137  0.162274  0.418808  1
  B  B9  1  0.581111  0.162223  0.918538  1
  B  B10  1  0.911797  0.161896  0.250357  1
  B  B11  1  0.412252  0.162153  0.749643  1
  B  B12  1  0.250099  0.161896  0.250357  1
  B  B13  1  0.749901  0.162153  0.749643  1
  B  B14  1  0.418889  0.837777  0.081462  1
  B  B15  1  0.918863  0.837726  0.581192  1
  B  B16  1  0.418889  0.499649  0.081462  1
  B  B17  1  0.918863  0.499946  0.581192  1
  B  B18  1  0.080760  0.499649  0.081462  1
  B  B19  1  0.581083  0.499946  0.581192  1
  B  B20  1  0.587748  0.499544  0.250357  1
  B  B21  1  0.088203  0.500456  0.749643  1
  B  B22  1  0.587748  0.837847  0.250357  1
  B  B23  1  0.088203  0.838104  0.749643  1
  B  B24  1  0.418917  0.500054  0.418808  1
  B  B25  1  0.919240  0.500351  0.918538  1
