# generated using pymatgen
data_Pm4Ni3SbO12
_symmetry_space_group_name_H-M   'P 1'
_cell_length_a   5.43545771
_cell_length_b   5.70749251
_cell_length_c   7.91729613
_cell_angle_alpha   90.37601459
_cell_angle_beta   89.66283080
_cell_angle_gamma   90.49446462
_symmetry_Int_Tables_number   1
_chemical_formula_structural   Pm4Ni3SbO12
_chemical_formula_sum   'Pm4 Ni3 Sb1 O12'
_cell_volume   245.59835822
_cell_formula_units_Z   1
loop_
 _symmetry_equiv_pos_site_id
 _symmetry_equiv_pos_as_xyz
  1  'x, y, z'
loop_
 _atom_site_type_symbol
 _atom_site_label
 _atom_site_symmetry_multiplicity
 _atom_site_fract_x
 _atom_site_fract_y
 _atom_site_fract_z
 _atom_site_occupancy
  Pm  Pm0  1  0.978839  0.073029  0.266674  1
  Pm  Pm1  1  0.512587  0.556987  0.267720  1
  Pm  Pm2  1  0.487413  0.443014  0.732279  1
  Pm  Pm3  1  0.021162  0.926971  0.733325  1
  Ni  Ni4  1  0.000000  0.500000  0.000000  1
  Ni  Ni5  1  0.499999  0.000000  0.500000  1
  Ni  Ni6  1  0.000000  0.500000  0.500000  1
  Sb  Sb7  1  0.499999  0.000000  0.000000  1
  O  O8  1  0.690022  0.290430  0.064824  1
  O  O9  1  0.792286  0.806630  0.060913  1
  O  O10  1  0.097695  0.469210  0.250372  1
  O  O11  1  0.391419  0.965552  0.240581  1
  O  O12  1  0.693310  0.294966  0.456242  1
  O  O13  1  0.793269  0.805338  0.454745  1
  O  O14  1  0.206729  0.194662  0.545255  1
  O  O15  1  0.306691  0.705035  0.543758  1
  O  O16  1  0.608582  0.034449  0.759418  1
  O  O17  1  0.902305  0.530792  0.749627  1
  O  O18  1  0.207712  0.193370  0.939087  1
  O  O19  1  0.309979  0.709571  0.935176  1
