# generated using pymatgen
data_Eu3SeO7
_symmetry_space_group_name_H-M   'P 1'
_cell_length_a   6.60068059
_cell_length_b   6.56693501
_cell_length_c   7.60945497
_cell_angle_alpha   90.07010610
_cell_angle_beta   90.09186341
_cell_angle_gamma   110.19772845
_symmetry_Int_Tables_number   1
_chemical_formula_structural   Eu3SeO7
_chemical_formula_sum   'Eu6 Se2 O14'
_cell_volume   309.55728774
_cell_formula_units_Z   2
loop_
 _symmetry_equiv_pos_site_id
 _symmetry_equiv_pos_as_xyz
  1  'x, y, z'
loop_
 _atom_site_type_symbol
 _atom_site_label
 _atom_site_symmetry_multiplicity
 _atom_site_fract_x
 _atom_site_fract_y
 _atom_site_fract_z
 _atom_site_occupancy
  Eu  Eu0  1  0.482413  0.938003  0.749958  1
  Eu  Eu1  1  0.517587  0.061997  0.250042  1
  Eu  Eu2  1  0.937289  0.482755  0.749993  1
  Eu  Eu3  1  0.062711  0.517245  0.250007  1
  Eu  Eu4  1  0.000000  0.000000  0.500000  1
  Eu  Eu5  1  0.000000  0.000000  0.000000  1
  Se  Se6  1  0.500000  0.500000  0.500000  1
  Se  Se7  1  0.500000  0.500000  0.000000  1
  O  O8  1  0.575734  0.576204  0.749936  1
  O  O9  1  0.424266  0.423796  0.250064  1
  O  O10  1  0.846736  0.114100  0.749793  1
  O  O11  1  0.153264  0.885900  0.250207  1
  O  O12  1  0.114988  0.846929  0.749865  1
  O  O13  1  0.885012  0.153071  0.250135  1
  O  O14  1  0.447688  0.208850  0.968870  1
  O  O15  1  0.552225  0.791043  0.468965  1
  O  O16  1  0.209827  0.447230  0.969289  1
  O  O17  1  0.790063  0.552792  0.469386  1
  O  O18  1  0.447775  0.208957  0.531035  1
  O  O19  1  0.552312  0.791150  0.031130  1
  O  O20  1  0.790173  0.552770  0.030711  1
  O  O21  1  0.209937  0.447208  0.530614  1
