# generated using pymatgen
data_Lu12Co4SnPt
_symmetry_space_group_name_H-M   'P 1'
_cell_length_a   8.11437748
_cell_length_b   8.11437827
_cell_length_c   8.11437753
_cell_angle_alpha   111.13402299
_cell_angle_beta   111.03635422
_cell_angle_gamma   106.28939438
_symmetry_Int_Tables_number   1
_chemical_formula_structural   Lu12Co4SnPt
_chemical_formula_sum   'Lu12 Co4 Sn1 Pt1'
_cell_volume   410.34098759
_cell_formula_units_Z   1
loop_
 _symmetry_equiv_pos_site_id
 _symmetry_equiv_pos_as_xyz
  1  'x, y, z'
loop_
 _atom_site_type_symbol
 _atom_site_label
 _atom_site_symmetry_multiplicity
 _atom_site_fract_x
 _atom_site_fract_y
 _atom_site_fract_z
 _atom_site_occupancy
  Lu  Lu0  1  0.420373  0.221348  0.199024  1
  Lu  Lu1  1  0.579627  0.778652  0.800976  1
  Lu  Lu2  1  0.022323  0.221348  0.800976  1
  Lu  Lu3  1  0.977677  0.778652  0.199024  1
  Lu  Lu4  1  0.185019  0.285361  0.470381  1
  Lu  Lu5  1  0.814981  0.714639  0.529619  1
  Lu  Lu6  1  0.185019  0.714639  0.899657  1
  Lu  Lu7  1  0.814981  0.285361  0.100343  1
  Lu  Lu8  1  0.315922  0.622938  0.307015  1
  Lu  Lu9  1  0.684078  0.377062  0.692985  1
  Lu  Lu10  1  0.315922  0.008907  0.692985  1
  Lu  Lu11  1  0.684078  0.991093  0.307015  1
  Co  Co12  1  0.371125  0.000000  0.371125  1
  Co  Co13  1  0.628875  0.000000  0.628875  1
  Co  Co14  1  0.113436  0.613436  0.500000  1
  Co  Co15  1  0.886564  0.386564  0.500000  1
  Sn  Sn16  1  0.500000  0.500000  0.000000  1
  Pt  Pt17  1  0.000000  0.000000  0.000000  1
