# generated using pymatgen
data_NdSbAsRh3
_symmetry_space_group_name_H-M   'P 1'
_cell_length_a   4.13145200
_cell_length_b   8.65700508
_cell_length_c   10.25709790
_cell_angle_alpha   106.65311204
_cell_angle_beta   90.00000000
_cell_angle_gamma   103.80503403
_symmetry_Int_Tables_number   1
_chemical_formula_structural   NdSbAsRh3
_chemical_formula_sum   'Nd3 Sb3 As3 Rh9'
_cell_volume   340.39255294
_cell_formula_units_Z   3
loop_
 _symmetry_equiv_pos_site_id
 _symmetry_equiv_pos_as_xyz
  1  'x, y, z'
loop_
 _atom_site_type_symbol
 _atom_site_label
 _atom_site_symmetry_multiplicity
 _atom_site_fract_x
 _atom_site_fract_y
 _atom_site_fract_z
 _atom_site_occupancy
  Nd  Nd0  1  0.852205  0.704410  0.313697  1
  Nd  Nd1  1  0.153294  0.306589  0.679698  1
  Nd  Nd2  1  0.997663  0.995325  0.012701  1
  Sb  Sb3  1  0.802809  0.605619  0.869021  1
  Sb  Sb4  1  0.199441  0.398883  0.132898  1
  Sb  Sb5  1  0.535271  0.070542  0.780386  1
  As  As6  1  0.466241  0.932483  0.226945  1
  As  As7  1  0.637703  0.275407  0.452079  1
  As  As8  1  0.360238  0.720474  0.542452  1
  Rh  Rh9  1  0.950604  0.901208  0.655152  1
  Rh  Rh10  1  0.043879  0.087758  0.334332  1
  Rh  Rh11  1  0.778404  0.556807  0.598777  1
  Rh  Rh12  1  0.218881  0.437763  0.399395  1
  Rh  Rh13  1  0.374015  0.748031  0.783877  1
  Rh  Rh14  1  0.620972  0.241943  0.211848  1
  Rh  Rh15  1  0.498368  0.996735  0.494483  1
  Rh  Rh16  1  0.677338  0.354677  0.964290  1
  Rh  Rh17  1  0.332673  0.665347  0.047969  1
