# generated using pymatgen
data_Y14Ho2In3HgRh4
_symmetry_space_group_name_H-M   'P 1'
_cell_length_a   9.67650968
_cell_length_b   9.69113431
_cell_length_c   9.67650913
_cell_angle_alpha   59.93210616
_cell_angle_beta   59.87279360
_cell_angle_gamma   59.93210374
_symmetry_Int_Tables_number   1
_chemical_formula_structural   Y14Ho2In3HgRh4
_chemical_formula_sum   'Y14 Ho2 In3 Hg1 Rh4'
_cell_volume   640.37182097
_cell_formula_units_Z   1
loop_
 _symmetry_equiv_pos_site_id
 _symmetry_equiv_pos_as_xyz
  1  'x, y, z'
loop_
 _atom_site_type_symbol
 _atom_site_label
 _atom_site_symmetry_multiplicity
 _atom_site_fract_x
 _atom_site_fract_y
 _atom_site_fract_z
 _atom_site_occupancy
  Y  Y0  1  0.188954  0.188443  0.811382  1
  Y  Y1  1  0.602198  0.602320  0.197120  1
  Y  Y2  1  0.440350  0.058797  0.440350  1
  Y  Y3  1  0.440139  0.440232  0.058722  1
  Y  Y4  1  0.812552  0.185572  0.812552  1
  Y  Y5  1  0.188310  0.811855  0.188310  1
  Y  Y6  1  0.436925  0.060771  0.060327  1
  Y  Y7  1  0.185399  0.813055  0.812882  1
  Y  Y8  1  0.060756  0.436767  0.060756  1
  Y  Y9  1  0.812882  0.813055  0.185399  1
  Y  Y10  1  0.197120  0.602320  0.602198  1
  Y  Y11  1  0.058722  0.440232  0.440139  1
  Y  Y12  1  0.060327  0.060771  0.436925  1
  Y  Y13  1  0.811382  0.188443  0.188954  1
  Ho  Ho14  1  0.601376  0.199587  0.601376  1
  Ho  Ho15  1  0.597764  0.597854  0.597764  1
  In  In16  1  0.831971  0.832194  0.502838  1
  In  In17  1  0.502838  0.832194  0.831971  1
  In  In18  1  0.832094  0.502681  0.832094  1
  Hg  Hg19  1  0.835860  0.836174  0.835860  1
  Rh  Rh20  1  0.392811  0.822046  0.392811  1
  Rh  Rh21  1  0.394635  0.391705  0.394635  1
  Rh  Rh22  1  0.820302  0.391467  0.394334  1
  Rh  Rh23  1  0.394334  0.391467  0.820302  1
