# generated using pymatgen
data_Mg2ScTa7B20
_symmetry_space_group_name_H-M   'P 1'
_cell_length_a   6.15665298
_cell_length_b   7.02916095
_cell_length_c   7.44742961
_cell_angle_alpha   94.39890862
_cell_angle_beta   101.99979916
_cell_angle_gamma   115.90773633
_symmetry_Int_Tables_number   1
_chemical_formula_structural   Mg2ScTa7B20
_chemical_formula_sum   'Mg2 Sc1 Ta7 B20'
_cell_volume   278.38116093
_cell_formula_units_Z   1
loop_
 _symmetry_equiv_pos_site_id
 _symmetry_equiv_pos_as_xyz
  1  'x, y, z'
loop_
 _atom_site_type_symbol
 _atom_site_label
 _atom_site_symmetry_multiplicity
 _atom_site_fract_x
 _atom_site_fract_y
 _atom_site_fract_z
 _atom_site_occupancy
  Mg  Mg0  1  0.496674  0.997174  0.997757  1
  Mg  Mg1  1  0.004447  0.606006  0.804353  1
  Sc  Sc2  1  0.999691  0.997992  0.999866  1
  Ta  Ta3  1  0.498087  0.794713  0.399986  1
  Ta  Ta4  1  0.998264  0.395932  0.202875  1
  Ta  Ta5  1  0.503249  0.205131  0.598288  1
  Ta  Ta6  1  0.000504  0.801845  0.399350  1
  Ta  Ta7  1  0.500139  0.601629  0.799052  1
  Ta  Ta8  1  0.498352  0.396502  0.200216  1
  Ta  Ta9  1  0.000841  0.204421  0.599385  1
  B  B10  1  0.334113  0.232350  0.867982  1
  B  B11  1  0.331734  0.631873  0.067578  1
  B  B12  1  0.166335  0.367263  0.932518  1
  B  B13  1  0.334017  0.031439  0.265102  1
  B  B14  1  0.167417  0.764939  0.133747  1
  B  B15  1  0.832439  0.233784  0.865534  1
  B  B16  1  0.166167  0.165484  0.331868  1
  B  B17  1  0.833725  0.631604  0.066555  1
  B  B18  1  0.333323  0.433603  0.466218  1
  B  B19  1  0.666802  0.366192  0.933731  1
  B  B20  1  0.830377  0.031127  0.265065  1
  B  B21  1  0.664917  0.766248  0.131859  1
  B  B22  1  0.332972  0.835186  0.666313  1
  B  B23  1  0.166889  0.568271  0.536381  1
  B  B24  1  0.665681  0.164707  0.333576  1
  B  B25  1  0.834871  0.435386  0.469035  1
  B  B26  1  0.167554  0.967976  0.730691  1
  B  B27  1  0.834874  0.834248  0.667070  1
  B  B28  1  0.668997  0.568006  0.535196  1
  B  B29  1  0.666548  0.968964  0.732853  1
