# generated using pymatgen
data_Ho8Mn(B8Ir)3
_symmetry_space_group_name_H-M   'P 1'
_cell_length_a   3.61974200
_cell_length_b   9.14835674
_cell_length_c   11.47047200
_cell_angle_alpha   90.02347726
_cell_angle_beta   90.00000000
_cell_angle_gamma   90.00000000
_symmetry_Int_Tables_number   1
_chemical_formula_structural   Ho8Mn(B8Ir)3
_chemical_formula_sum   'Ho8 Mn1 B24 Ir3'
_cell_volume   379.84110544
_cell_formula_units_Z   1
loop_
 _symmetry_equiv_pos_site_id
 _symmetry_equiv_pos_as_xyz
  1  'x, y, z'
loop_
 _atom_site_type_symbol
 _atom_site_label
 _atom_site_symmetry_multiplicity
 _atom_site_fract_x
 _atom_site_fract_y
 _atom_site_fract_z
 _atom_site_occupancy
  Ho  Ho0  1  0.000000  0.320942  0.413849  1
  Ho  Ho1  1  0.000000  0.682675  0.591206  1
  Ho  Ho2  1  0.000000  0.822434  0.081167  1
  Ho  Ho3  1  0.000000  0.173230  0.911383  1
  Ho  Ho4  1  0.000000  0.944063  0.373998  1
  Ho  Ho5  1  0.000000  0.051485  0.628918  1
  Ho  Ho6  1  0.000000  0.444243  0.124879  1
  Ho  Ho7  1  0.000000  0.560359  0.874326  1
  Mn  Mn8  1  0.000000  0.861737  0.821798  1
  B  B9  1  0.500000  0.553056  0.434196  1
  B  B10  1  0.500000  0.447718  0.566859  1
  B  B11  1  0.500000  0.052782  0.065177  1
  B  B12  1  0.500000  0.945806  0.931534  1
  B  B13  1  0.500000  0.749554  0.421238  1
  B  B14  1  0.500000  0.249856  0.579692  1
  B  B15  1  0.500000  0.248276  0.078039  1
  B  B16  1  0.500000  0.754636  0.918404  1
  B  B17  1  0.500000  0.792669  0.265525  1
  B  B18  1  0.500000  0.206868  0.733904  1
  B  B19  1  0.500000  0.293096  0.234652  1
  B  B20  1  0.500000  0.710241  0.767121  1
  B  B21  1  0.500000  0.632305  0.184237  1
  B  B22  1  0.500000  0.367863  0.815481  1
  B  B23  1  0.500000  0.132877  0.315581  1
  B  B24  1  0.500000  0.867705  0.687270  1
  B  B25  1  0.500000  0.981862  0.212282  1
  B  B26  1  0.500000  0.013690  0.787772  1
  B  B27  1  0.500000  0.481418  0.286820  1
  B  B28  1  0.500000  0.518579  0.713982  1
  B  B29  1  0.500000  0.612522  0.031082  1
  B  B30  1  0.500000  0.387493  0.968775  1
  B  B31  1  0.500000  0.110445  0.469785  1
  B  B32  1  0.500000  0.889203  0.530438  1
  Ir  Ir33  1  0.000000  0.637754  0.322350  1
  Ir  Ir34  1  0.000000  0.362650  0.678074  1
  Ir  Ir35  1  0.000000  0.137910  0.178205  1
