# generated using pymatgen
data_Dy4PtAu
_symmetry_space_group_name_H-M   'P 1'
_cell_length_a   4.88565400
_cell_length_b   7.15124500
_cell_length_c   8.90492000
_cell_angle_alpha   90.00000000
_cell_angle_beta   90.00000000
_cell_angle_gamma   90.00000000
_symmetry_Int_Tables_number   1
_chemical_formula_structural   Dy4PtAu
_chemical_formula_sum   'Dy8 Pt2 Au2'
_cell_volume   311.12462524
_cell_formula_units_Z   2
loop_
 _symmetry_equiv_pos_site_id
 _symmetry_equiv_pos_as_xyz
  1  'x, y, z'
loop_
 _atom_site_type_symbol
 _atom_site_label
 _atom_site_symmetry_multiplicity
 _atom_site_fract_x
 _atom_site_fract_y
 _atom_site_fract_z
 _atom_site_occupancy
  Dy  Dy0  1  0.250000  0.149632  0.925889  1
  Dy  Dy1  1  0.250000  0.649632  0.574111  1
  Dy  Dy2  1  0.750000  0.855661  0.089622  1
  Dy  Dy3  1  0.750000  0.355661  0.410378  1
  Dy  Dy4  1  0.250000  0.005485  0.329703  1
  Dy  Dy5  1  0.250000  0.505485  0.170297  1
  Dy  Dy6  1  0.750000  0.984702  0.671046  1
  Dy  Dy7  1  0.750000  0.484702  0.828954  1
  Pt  Pt8  1  0.750000  0.760233  0.408449  1
  Pt  Pt9  1  0.750000  0.260233  0.091551  1
  Au  Au10  1  0.250000  0.244287  0.599454  1
  Au  Au11  1  0.250000  0.744287  0.900546  1
