# generated using pymatgen
data_DyLu2In3CuAg2
_symmetry_space_group_name_H-M   'P 1'
_cell_length_a   7.74998772
_cell_length_b   7.74998792
_cell_length_c   3.83245500
_cell_angle_alpha   90.00000000
_cell_angle_beta   90.00000000
_cell_angle_gamma   120.25854633
_symmetry_Int_Tables_number   1
_chemical_formula_structural   DyLu2In3CuAg2
_chemical_formula_sum   'Dy1 Lu2 In3 Cu1 Ag2'
_cell_volume   198.82563118
_cell_formula_units_Z   1
loop_
 _symmetry_equiv_pos_site_id
 _symmetry_equiv_pos_as_xyz
  1  'x, y, z'
loop_
 _atom_site_type_symbol
 _atom_site_label
 _atom_site_symmetry_multiplicity
 _atom_site_fract_x
 _atom_site_fract_y
 _atom_site_fract_z
 _atom_site_occupancy
  Dy  Dy0  1  0.598398  0.598398  0.500000  1
  Lu  Lu1  1  0.400480  0.999897  0.500000  1
  Lu  Lu2  1  0.999897  0.400480  0.500000  1
  In  In3  1  0.749834  0.001207  0.000000  1
  In  In4  1  0.001207  0.749834  0.000000  1
  In  In5  1  0.250479  0.250479  0.000000  1
  Cu  Cu6  1  0.000702  0.000702  0.500000  1
  Ag  Ag7  1  0.331299  0.667706  0.000000  1
  Ag  Ag8  1  0.667706  0.331299  0.000000  1
