# generated using pymatgen
data_LiLa8Co2Hg
_symmetry_space_group_name_H-M   'P 1'
_cell_length_a   9.95757968
_cell_length_b   9.95757984
_cell_length_c   10.05996000
_cell_angle_alpha   59.65929954
_cell_angle_beta   59.65929901
_cell_angle_gamma   59.77960690
_symmetry_Int_Tables_number   1
_chemical_formula_structural   LiLa8Co2Hg
_chemical_formula_sum   'Li2 La16 Co4 Hg2'
_cell_volume   700.50620373
_cell_formula_units_Z   2
loop_
 _symmetry_equiv_pos_site_id
 _symmetry_equiv_pos_as_xyz
  1  'x, y, z'
loop_
 _atom_site_type_symbol
 _atom_site_label
 _atom_site_symmetry_multiplicity
 _atom_site_fract_x
 _atom_site_fract_y
 _atom_site_fract_z
 _atom_site_occupancy
  Li  Li0  1  0.816312  0.816312  0.826135  1
  Li  Li1  1  0.816312  0.816312  0.541241  1
  La  La2  1  0.594784  0.594784  0.595086  1
  La  La3  1  0.594784  0.594784  0.215346  1
  La  La4  1  0.596963  0.215255  0.593891  1
  La  La5  1  0.215255  0.596963  0.593891  1
  La  La6  1  0.062554  0.439651  0.438457  1
  La  La7  1  0.439651  0.062554  0.059339  1
  La  La8  1  0.439651  0.062554  0.438457  1
  La  La9  1  0.062554  0.439651  0.059339  1
  La  La10  1  0.445018  0.445018  0.054982  1
  La  La11  1  0.067451  0.067451  0.432549  1
  La  La12  1  0.189404  0.809694  0.810549  1
  La  La13  1  0.809694  0.189404  0.190352  1
  La  La14  1  0.809694  0.189404  0.810549  1
  La  La15  1  0.189404  0.809694  0.190352  1
  La  La16  1  0.813131  0.813131  0.186869  1
  La  La17  1  0.191279  0.191279  0.808721  1
  Co  Co18  1  0.391074  0.391074  0.390123  1
  Co  Co19  1  0.391074  0.391074  0.827731  1
  Co  Co20  1  0.390241  0.832391  0.388685  1
  Co  Co21  1  0.832391  0.390241  0.388685  1
  Hg  Hg22  1  0.836926  0.504400  0.829337  1
  Hg  Hg23  1  0.504400  0.836926  0.829337  1
