# generated using pymatgen
data_Y4ReOsC4
_symmetry_space_group_name_H-M   'P 1'
_cell_length_a   5.13281000
_cell_length_b   6.54911254
_cell_length_c   9.84874946
_cell_angle_alpha   89.79247269
_cell_angle_beta   90.00000000
_cell_angle_gamma   90.00000000
_symmetry_Int_Tables_number   1
_chemical_formula_structural   Y4ReOsC4
_chemical_formula_sum   'Y8 Re2 Os2 C8'
_cell_volume   331.06699161
_cell_formula_units_Z   2
loop_
 _symmetry_equiv_pos_site_id
 _symmetry_equiv_pos_as_xyz
  1  'x, y, z'
loop_
 _atom_site_type_symbol
 _atom_site_label
 _atom_site_symmetry_multiplicity
 _atom_site_fract_x
 _atom_site_fract_y
 _atom_site_fract_z
 _atom_site_occupancy
  Y  Y0  1  0.250000  0.679312  0.554691  1
  Y  Y1  1  0.750000  0.320688  0.445309  1
  Y  Y2  1  0.750000  0.819661  0.055192  1
  Y  Y3  1  0.250000  0.180339  0.944808  1
  Y  Y4  1  0.250000  0.531744  0.215622  1
  Y  Y5  1  0.750000  0.468256  0.784378  1
  Y  Y6  1  0.750000  0.969988  0.714246  1
  Y  Y7  1  0.250000  0.030012  0.285754  1
  Re  Re8  1  0.250000  0.723204  0.864689  1
  Re  Re9  1  0.750000  0.276796  0.135311  1
  Os  Os10  1  0.750000  0.775523  0.364199  1
  Os  Os11  1  0.250000  0.224477  0.635801  1
  C  C12  1  0.250000  0.457086  0.759891  1
  C  C13  1  0.750000  0.542914  0.240109  1
  C  C14  1  0.750000  0.042448  0.258677  1
  C  C15  1  0.250000  0.957552  0.741323  1
  C  C16  1  0.250000  0.821879  0.049962  1
  C  C17  1  0.750000  0.178121  0.950038  1
  C  C18  1  0.750000  0.677248  0.549038  1
  C  C19  1  0.250000  0.322752  0.450962  1
