# generated using pymatgen
data_Tb12Pr8Sn13Au3
_symmetry_space_group_name_H-M   'P 1'
_cell_length_a   7.88716000
_cell_length_b   8.48677541
_cell_length_c   15.64411700
_cell_angle_alpha   90.00000000
_cell_angle_beta   90.00000000
_cell_angle_gamma   89.91467851
_symmetry_Int_Tables_number   1
_chemical_formula_structural   Tb12Pr8Sn13Au3
_chemical_formula_sum   'Tb12 Pr8 Sn13 Au3'
_cell_volume   1047.16214541
_cell_formula_units_Z   1
loop_
 _symmetry_equiv_pos_site_id
 _symmetry_equiv_pos_as_xyz
  1  'x, y, z'
loop_
 _atom_site_type_symbol
 _atom_site_label
 _atom_site_symmetry_multiplicity
 _atom_site_fract_x
 _atom_site_fract_y
 _atom_site_fract_z
 _atom_site_occupancy
  Tb  Tb0  1  0.334257  0.829277  0.869041  1
  Tb  Tb1  1  0.833692  0.669239  0.630481  1
  Tb  Tb2  1  0.654830  0.171823  0.374476  1
  Tb  Tb3  1  0.173901  0.333833  0.125048  1
  Tb  Tb4  1  0.654830  0.171823  0.125524  1
  Tb  Tb5  1  0.173901  0.333833  0.374952  1
  Tb  Tb6  1  0.334257  0.829277  0.630959  1
  Tb  Tb7  1  0.833692  0.669239  0.869519  1
  Tb  Tb8  1  0.186565  0.494861  0.750000  1
  Tb  Tb9  1  0.686122  0.005468  0.750000  1
  Tb  Tb10  1  0.810848  0.500508  0.250000  1
  Tb  Tb11  1  0.326109  0.995755  0.250000  1
  Pr  Pr12  1  0.502199  0.316892  0.906574  1
  Pr  Pr13  1  0.001155  0.185807  0.594132  1
  Pr  Pr14  1  0.498581  0.684349  0.410900  1
  Pr  Pr15  1  0.998581  0.816993  0.093278  1
  Pr  Pr16  1  0.498581  0.684349  0.089100  1
  Pr  Pr17  1  0.998581  0.816993  0.406722  1
  Pr  Pr18  1  0.502199  0.316892  0.593426  1
  Pr  Pr19  1  0.001155  0.185807  0.905868  1
  Sn  Sn20  1  0.318993  0.035658  0.037763  1
  Sn  Sn21  1  0.821806  0.463463  0.459167  1
  Sn  Sn22  1  0.683361  0.963213  0.541695  1
  Sn  Sn23  1  0.179876  0.536998  0.957767  1
  Sn  Sn24  1  0.683361  0.963213  0.958305  1
  Sn  Sn25  1  0.179876  0.536998  0.542233  1
  Sn  Sn26  1  0.318993  0.035658  0.462237  1
  Sn  Sn27  1  0.821806  0.463463  0.040833  1
  Sn  Sn28  1  0.960974  0.122417  0.250000  1
  Sn  Sn29  1  0.296065  0.133459  0.750000  1
  Sn  Sn30  1  0.794893  0.366241  0.750000  1
  Sn  Sn31  1  0.698125  0.860725  0.250000  1
  Sn  Sn32  1  0.206043  0.636005  0.250000  1
  Au  Au33  1  0.537594  0.622503  0.750000  1
  Au  Au34  1  0.035951  0.876685  0.750000  1
  Au  Au35  1  0.458244  0.370286  0.250000  1
