# generated using pymatgen
data_LiLu2(B3Ir4)2
_symmetry_space_group_name_H-M   'P 1'
_cell_length_a   9.94605026
_cell_length_b   9.11501881
_cell_length_c   5.57878900
_cell_angle_alpha   81.35750174
_cell_angle_beta   64.96374198
_cell_angle_gamma   33.67875983
_symmetry_Int_Tables_number   1
_chemical_formula_structural   LiLu2(B3Ir4)2
_chemical_formula_sum   'Li1 Lu2 B6 Ir8'
_cell_volume   232.69358038
_cell_formula_units_Z   1
loop_
 _symmetry_equiv_pos_site_id
 _symmetry_equiv_pos_as_xyz
  1  'x, y, z'
loop_
 _atom_site_type_symbol
 _atom_site_label
 _atom_site_symmetry_multiplicity
 _atom_site_fract_x
 _atom_site_fract_y
 _atom_site_fract_z
 _atom_site_occupancy
  Li  Li0  1  0.682491  0.682491  0.317509  1
  Lu  Lu1  1  0.321557  0.321557  0.678443  1
  Lu  Lu2  1  0.509431  0.509431  0.490569  1
  B  B3  1  0.672320  0.974841  0.025159  1
  B  B4  1  0.974841  0.672320  0.327680  1
  B  B5  1  0.324980  0.019673  0.980327  1
  B  B6  1  0.019673  0.324980  0.675020  1
  B  B7  1  0.169739  0.829367  0.170633  1
  B  B8  1  0.829367  0.169739  0.830261  1
  Ir  Ir9  1  0.585964  0.585964  0.914036  1
  Ir  Ir10  1  0.912759  0.912759  0.087241  1
  Ir  Ir11  1  0.414437  0.414437  0.085563  1
  Ir  Ir12  1  0.085964  0.085964  0.414036  1
  Ir  Ir13  1  0.914437  0.914437  0.585563  1
  Ir  Ir14  1  0.248449  0.248449  0.251551  1
  Ir  Ir15  1  0.085140  0.085140  0.914860  1
  Ir  Ir16  1  0.748449  0.748449  0.751551  1
