# generated using pymatgen
data_Sm2TaReH18
_symmetry_space_group_name_H-M   'P 1'
_cell_length_a   4.79887100
_cell_length_b   4.79887108
_cell_length_c   9.03596000
_cell_angle_alpha   90.00000000
_cell_angle_beta   90.00000000
_cell_angle_gamma   120.00000634
_symmetry_Int_Tables_number   1
_chemical_formula_structural   Sm2TaReH18
_chemical_formula_sum   'Sm2 Ta1 Re1 H18'
_cell_volume   180.21173271
_cell_formula_units_Z   1
loop_
 _symmetry_equiv_pos_site_id
 _symmetry_equiv_pos_as_xyz
  1  'x, y, z'
loop_
 _atom_site_type_symbol
 _atom_site_label
 _atom_site_symmetry_multiplicity
 _atom_site_fract_x
 _atom_site_fract_y
 _atom_site_fract_z
 _atom_site_occupancy
  Sm  Sm0  1  0.000000  0.000000  0.026680  1
  Sm  Sm1  1  0.000000  0.000000  0.473320  1
  Ta  Ta2  1  0.333333  0.666667  0.250000  1
  Re  Re3  1  0.666667  0.333333  0.750000  1
  H  H4  1  0.487392  0.512608  0.399769  1
  H  H5  1  0.487392  0.974784  0.399769  1
  H  H6  1  0.025216  0.512608  0.399769  1
  H  H7  1  0.959888  0.479944  0.882374  1
  H  H8  1  0.121198  0.242397  0.250000  1
  H  H9  1  0.866912  0.133088  0.750000  1
  H  H10  1  0.266176  0.133088  0.750000  1
  H  H11  1  0.757603  0.878802  0.250000  1
  H  H12  1  0.121198  0.878802  0.250000  1
  H  H13  1  0.866912  0.733824  0.750000  1
  H  H14  1  0.487392  0.974784  0.100231  1
  H  H15  1  0.520056  0.479944  0.617626  1
  H  H16  1  0.959888  0.479944  0.617626  1
  H  H17  1  0.025216  0.512608  0.100231  1
  H  H18  1  0.487392  0.512608  0.100231  1
  H  H19  1  0.520056  0.040112  0.882374  1
  H  H20  1  0.520056  0.479944  0.882374  1
  H  H21  1  0.520056  0.040112  0.617626  1
