# generated using pymatgen
data_CsO4
_symmetry_space_group_name_H-M   'P 1'
_cell_length_a   5.44396160
_cell_length_b   4.87668148
_cell_length_c   6.19074981
_cell_angle_alpha   129.68762705
_cell_angle_beta   125.55447676
_cell_angle_gamma   67.67504887
_symmetry_Int_Tables_number   1
_chemical_formula_structural   CsO4
_chemical_formula_sum   'Cs1 O4'
_cell_volume   102.88768295
_cell_formula_units_Z   1
loop_
 _symmetry_equiv_pos_site_id
 _symmetry_equiv_pos_as_xyz
  1  'x, y, z'
loop_
 _atom_site_type_symbol
 _atom_site_label
 _atom_site_symmetry_multiplicity
 _atom_site_fract_x
 _atom_site_fract_y
 _atom_site_fract_z
 _atom_site_occupancy
  Cs  Cs0  1  0.471717  0.149862  0.954481  1
  O  O1  1  0.708895  0.954025  0.476253  1
  O  O2  1  0.706945  0.296892  0.651800  1
  O  O3  1  0.234590  0.963977  0.235223  1
  O  O4  1  0.238796  0.306961  0.414029  1
