# generated using pymatgen
data_Tb4PrNd(RuBr3)2
_symmetry_space_group_name_H-M   'P 1'
_cell_length_a   4.18273200
_cell_length_b   8.66203480
_cell_length_c   12.04613404
_cell_angle_alpha   86.59790896
_cell_angle_beta   90.00000000
_cell_angle_gamma   90.00000000
_symmetry_Int_Tables_number   1
_chemical_formula_structural   Tb4PrNd(RuBr3)2
_chemical_formula_sum   'Tb4 Pr1 Nd1 Ru2 Br6'
_cell_volume   435.67396298
_cell_formula_units_Z   1
loop_
 _symmetry_equiv_pos_site_id
 _symmetry_equiv_pos_as_xyz
  1  'x, y, z'
loop_
 _atom_site_type_symbol
 _atom_site_label
 _atom_site_symmetry_multiplicity
 _atom_site_fract_x
 _atom_site_fract_y
 _atom_site_fract_z
 _atom_site_occupancy
  Tb  Tb0  1  0.750000  0.721819  0.605389  1
  Tb  Tb1  1  0.250000  0.868548  0.371493  1
  Tb  Tb2  1  0.750000  0.129670  0.631714  1
  Tb  Tb3  1  0.250000  0.887101  0.824917  1
  Pr  Pr4  1  0.750000  0.106133  0.167578  1
  Nd  Nd5  1  0.250000  0.287388  0.397543  1
  Ru  Ru6  1  0.250000  0.936935  0.598071  1
  Ru  Ru7  1  0.750000  0.061962  0.404173  1
  Br  Br8  1  0.250000  0.428651  0.633665  1
  Br  Br9  1  0.750000  0.582741  0.373030  1
  Br  Br10  1  0.250000  0.861966  0.105403  1
  Br  Br11  1  0.750000  0.117216  0.889687  1
  Br  Br12  1  0.250000  0.356044  0.139586  1
  Br  Br13  1  0.750000  0.653826  0.857752  1
