# generated using pymatgen
data_Ba3Fe5CoP6
_symmetry_space_group_name_H-M   'P 1'
_cell_length_a   8.67577959
_cell_length_b   8.67619109
_cell_length_c   8.67619123
_cell_angle_alpha   154.71421935
_cell_angle_beta   87.76190180
_cell_angle_gamma   97.75100487
_symmetry_Int_Tables_number   1
_chemical_formula_structural   Ba3Fe5CoP6
_chemical_formula_sum   'Ba3 Fe5 Co1 P6'
_cell_volume   271.05047466
_cell_formula_units_Z   1
loop_
 _symmetry_equiv_pos_site_id
 _symmetry_equiv_pos_as_xyz
  1  'x, y, z'
loop_
 _atom_site_type_symbol
 _atom_site_label
 _atom_site_symmetry_multiplicity
 _atom_site_fract_x
 _atom_site_fract_y
 _atom_site_fract_z
 _atom_site_occupancy
  Ba  Ba0  1  0.332535  0.332288  0.000247  1
  Ba  Ba1  1  0.666397  0.666957  0.999439  1
  Ba  Ba2  1  0.000668  0.000688  0.999980  1
  Fe  Fe3  1  0.584201  0.834318  0.749882  1
  Fe  Fe4  1  0.249461  0.499109  0.750352  1
  Fe  Fe5  1  0.750763  0.501492  0.249271  1
  Fe  Fe6  1  0.081704  0.831904  0.249800  1
  Fe  Fe7  1  0.417918  0.166624  0.251296  1
  Co  Co8  1  0.916100  0.166610  0.749488  1
  P  P9  1  0.328482  0.666524  0.661959  1
  P  P10  1  0.674127  0.334584  0.339543  1
  P  P11  1  0.994078  0.334295  0.659783  1
  P  P12  1  0.339004  0.998938  0.340066  1
  P  P13  1  0.006083  0.666495  0.339587  1
  P  P14  1  0.658480  0.999173  0.659306  1
