# generated using pymatgen
data_Mg2Ta3B10
_symmetry_space_group_name_H-M   'P 1'
_cell_length_a   6.13058613
_cell_length_b   7.00633431
_cell_length_c   7.47707118
_cell_angle_alpha   94.71529405
_cell_angle_beta   101.89076583
_cell_angle_gamma   115.82786086
_symmetry_Int_Tables_number   1
_chemical_formula_structural   Mg2Ta3B10
_chemical_formula_sum   'Mg4 Ta6 B20'
_cell_volume   277.43303547
_cell_formula_units_Z   2
loop_
 _symmetry_equiv_pos_site_id
 _symmetry_equiv_pos_as_xyz
  1  'x, y, z'
loop_
 _atom_site_type_symbol
 _atom_site_label
 _atom_site_symmetry_multiplicity
 _atom_site_fract_x
 _atom_site_fract_y
 _atom_site_fract_z
 _atom_site_occupancy
  Mg  Mg0  1  0.997910  0.998696  0.995844  1
  Mg  Mg1  1  0.498358  0.997452  0.997564  1
  Mg  Mg2  1  0.000558  0.201889  0.604289  1
  Mg  Mg3  1  0.004193  0.604784  0.803232  1
  Ta  Ta4  1  0.500125  0.799224  0.402899  1
  Ta  Ta5  1  0.999419  0.398052  0.202052  1
  Ta  Ta6  1  0.500414  0.205577  0.596148  1
  Ta  Ta7  1  0.999523  0.799451  0.399098  1
  Ta  Ta8  1  0.501643  0.601467  0.797439  1
  Ta  Ta9  1  0.498352  0.395360  0.200357  1
  B  B10  1  0.334617  0.234794  0.867070  1
  B  B11  1  0.332492  0.631520  0.066269  1
  B  B12  1  0.166887  0.366858  0.934584  1
  B  B13  1  0.331804  0.031716  0.265067  1
  B  B14  1  0.165795  0.764268  0.134537  1
  B  B15  1  0.832850  0.233731  0.867442  1
  B  B16  1  0.164428  0.165545  0.333305  1
  B  B17  1  0.833516  0.633176  0.064747  1
  B  B18  1  0.331206  0.432000  0.467600  1
  B  B19  1  0.666525  0.366130  0.934282  1
  B  B20  1  0.830807  0.028989  0.267207  1
  B  B21  1  0.666129  0.766418  0.131366  1
  B  B22  1  0.333738  0.835225  0.669164  1
  B  B23  1  0.166656  0.566796  0.535511  1
  B  B24  1  0.666859  0.164732  0.335039  1
  B  B25  1  0.835417  0.433018  0.469093  1
  B  B26  1  0.169150  0.969843  0.727533  1
  B  B27  1  0.834445  0.835542  0.664546  1
  B  B28  1  0.670010  0.568976  0.534741  1
  B  B29  1  0.666174  0.968768  0.731976  1
