# generated using pymatgen
data_SrY6Sn23Ir5Pt
_symmetry_space_group_name_H-M   'P 1'
_cell_length_a   9.93730300
_cell_length_b   9.92746866
_cell_length_c   10.13387655
_cell_angle_alpha   90.05533296
_cell_angle_beta   90.00000000
_cell_angle_gamma   120.03278483
_symmetry_Int_Tables_number   1
_chemical_formula_structural   SrY6Sn23Ir5Pt
_chemical_formula_sum   'Sr1 Y6 Sn23 Ir5 Pt1'
_cell_volume   865.50475606
_cell_formula_units_Z   1
loop_
 _symmetry_equiv_pos_site_id
 _symmetry_equiv_pos_as_xyz
  1  'x, y, z'
loop_
 _atom_site_type_symbol
 _atom_site_label
 _atom_site_symmetry_multiplicity
 _atom_site_fract_x
 _atom_site_fract_y
 _atom_site_fract_z
 _atom_site_occupancy
  Sr  Sr0  1  0.000977  0.001954  0.999076  1
  Y  Y1  1  0.039864  0.519613  0.307573  1
  Y  Y2  1  0.480324  0.960646  0.306974  1
  Y  Y3  1  0.479748  0.519613  0.307573  1
  Y  Y4  1  0.962366  0.480495  0.693520  1
  Y  Y5  1  0.519451  0.038902  0.693739  1
  Y  Y6  1  0.518129  0.480495  0.693520  1
  Sn  Sn7  1  0.999556  0.999111  0.498622  1
  Sn  Sn8  1  0.122238  0.883133  0.285937  1
  Sn  Sn9  1  0.760893  0.883133  0.285937  1
  Sn  Sn10  1  0.118739  0.237478  0.284810  1
  Sn  Sn11  1  0.881519  0.118534  0.715399  1
  Sn  Sn12  1  0.237017  0.118534  0.715399  1
  Sn  Sn13  1  0.881451  0.762900  0.715662  1
  Sn  Sn14  1  0.352774  0.999962  0.999926  1
  Sn  Sn15  1  0.644706  0.646919  0.997514  1
  Sn  Sn16  1  0.000130  0.352409  0.000037  1
  Sn  Sn17  1  0.352280  0.352409  0.000037  1
  Sn  Sn18  1  0.002212  0.646919  0.997514  1
  Sn  Sn19  1  0.647187  0.999962  0.999926  1
  Sn  Sn20  1  0.775942  0.551882  0.459608  1
  Sn  Sn21  1  0.777392  0.222628  0.457720  1
  Sn  Sn22  1  0.445236  0.222628  0.457720  1
  Sn  Sn23  1  0.222821  0.445642  0.542415  1
  Sn  Sn24  1  0.223607  0.777192  0.543011  1
  Sn  Sn25  1  0.553585  0.777192  0.543011  1
  Sn  Sn26  1  0.664388  0.328776  0.173465  1
  Sn  Sn27  1  0.333394  0.666789  0.826891  1
  Sn  Sn28  1  0.667356  0.334712  0.877759  1
  Sn  Sn29  1  0.333536  0.667075  0.122492  1
  Ir  Ir30  1  0.171254  0.830098  0.798382  1
  Ir  Ir31  1  0.658843  0.830098  0.798382  1
  Ir  Ir32  1  0.170552  0.341104  0.798891  1
  Ir  Ir33  1  0.829831  0.171693  0.200681  1
  Ir  Ir34  1  0.341862  0.171693  0.200681  1
  Pt  Pt35  1  0.828840  0.657681  0.200192  1
