# generated using pymatgen
data_Er9Si4TcB16
_symmetry_space_group_name_H-M   'P 1'
_cell_length_a   7.11139400
_cell_length_b   7.11139400
_cell_length_c   7.76903500
_cell_angle_alpha   90.00000000
_cell_angle_beta   90.00000000
_cell_angle_gamma   90.00000000
_symmetry_Int_Tables_number   1
_chemical_formula_structural   Er9Si4TcB16
_chemical_formula_sum   'Er9 Si4 Tc1 B16'
_cell_volume   392.89505242
_cell_formula_units_Z   1
loop_
 _symmetry_equiv_pos_site_id
 _symmetry_equiv_pos_as_xyz
  1  'x, y, z'
loop_
 _atom_site_type_symbol
 _atom_site_label
 _atom_site_symmetry_multiplicity
 _atom_site_fract_x
 _atom_site_fract_y
 _atom_site_fract_z
 _atom_site_occupancy
  Er  Er0  1  0.682409  0.178813  0.231758  1
  Er  Er1  1  0.317591  0.821187  0.768242  1
  Er  Er2  1  0.317591  0.821187  0.231758  1
  Er  Er3  1  0.821187  0.682409  0.231758  1
  Er  Er4  1  0.821187  0.682409  0.768242  1
  Er  Er5  1  0.682409  0.178813  0.768242  1
  Er  Er6  1  0.178813  0.317591  0.768242  1
  Er  Er7  1  0.178813  0.317591  0.231758  1
  Er  Er8  1  0.500000  0.500000  0.500000  1
  Si  Si9  1  0.106987  0.634192  0.500000  1
  Si  Si10  1  0.893013  0.365808  0.500000  1
  Si  Si11  1  0.365808  0.106987  0.500000  1
  Si  Si12  1  0.634192  0.893013  0.500000  1
  Tc  Tc13  1  0.000000  0.000000  0.500000  1
  B  B14  1  0.173035  0.039336  0.000000  1
  B  B15  1  0.826965  0.960664  0.000000  1
  B  B16  1  0.960664  0.173035  0.000000  1
  B  B17  1  0.327733  0.539626  0.000000  1
  B  B18  1  0.039336  0.826965  0.000000  1
  B  B19  1  0.672267  0.460374  0.000000  1
  B  B20  1  0.539626  0.672267  0.000000  1
  B  B21  1  0.460374  0.327733  0.000000  1
  B  B22  1  0.090001  0.589095  0.000000  1
  B  B23  1  0.909999  0.410905  0.000000  1
  B  B24  1  0.410905  0.090001  0.000000  1
  B  B25  1  0.589095  0.909999  0.000000  1
  B  B26  1  0.000000  0.000000  0.171832  1
  B  B27  1  0.000000  0.000000  0.828168  1
  B  B28  1  0.500000  0.500000  0.832925  1
  B  B29  1  0.500000  0.500000  0.167075  1
