# generated using pymatgen
data_Yb2YTm3(Si3Ru)8
_symmetry_space_group_name_H-M   'P 1'
_cell_length_a   10.12474046
_cell_length_b   10.12475005
_cell_length_c   8.13573143
_cell_angle_alpha   89.99664236
_cell_angle_beta   90.00338787
_cell_angle_gamma   132.64902183
_symmetry_Int_Tables_number   1
_chemical_formula_structural   Yb2YTm3(Si3Ru)8
_chemical_formula_sum   'Yb2 Y1 Tm3 Si24 Ru8'
_cell_volume   613.42000311
_cell_formula_units_Z   1
loop_
 _symmetry_equiv_pos_site_id
 _symmetry_equiv_pos_as_xyz
  1  'x, y, z'
loop_
 _atom_site_type_symbol
 _atom_site_label
 _atom_site_symmetry_multiplicity
 _atom_site_fract_x
 _atom_site_fract_y
 _atom_site_fract_z
 _atom_site_occupancy
  Yb  Yb0  1  0.497540  0.997550  0.749990  1
  Yb  Yb1  1  0.998214  0.498209  0.749994  1
  Y  Y2  1  0.501079  0.001069  0.250007  1
  Tm  Tm3  1  0.999203  0.999106  0.999012  1
  Tm  Tm4  1  0.499104  0.499204  0.500990  1
  Tm  Tm5  1  0.001890  0.501895  0.250008  1
  Si  Si6  1  0.292831  0.704429  0.998443  1
  Si  Si7  1  0.794579  0.206070  0.501572  1
  Si  Si8  1  0.706071  0.294573  0.998425  1
  Si  Si9  1  0.204423  0.792827  0.501554  1
  Si  Si10  1  0.831723  0.831890  0.333208  1
  Si  Si11  1  0.166495  0.166448  0.667424  1
  Si  Si12  1  0.666449  0.666497  0.832579  1
  Si  Si13  1  0.331897  0.331727  0.166795  1
  Si  Si14  1  0.623232  0.391023  0.227309  1
  Si  Si15  1  0.612109  0.377526  0.771093  1
  Si  Si16  1  0.113152  0.878310  0.728515  1
  Si  Si17  1  0.120994  0.888547  0.273097  1
  Si  Si18  1  0.378311  0.613153  0.771485  1
  Si  Si19  1  0.388546  0.620993  0.226901  1
  Si  Si20  1  0.891023  0.123231  0.272692  1
  Si  Si21  1  0.877523  0.112106  0.728907  1
  Si  Si22  1  0.844812  0.611333  0.005476  1
  Si  Si23  1  0.388225  0.155384  0.994628  1
  Si  Si24  1  0.888735  0.656222  0.503423  1
  Si  Si25  1  0.344977  0.111417  0.496201  1
  Si  Si26  1  0.156228  0.388741  0.996569  1
  Si  Si27  1  0.611419  0.844977  0.003799  1
  Si  Si28  1  0.111333  0.344812  0.494525  1
  Si  Si29  1  0.655379  0.888220  0.505373  1
  Ru  Ru30  1  0.169032  0.830893  0.003469  1
  Ru  Ru31  1  0.670689  0.332232  0.496449  1
  Ru  Ru32  1  0.832233  0.170691  0.003554  1
  Ru  Ru33  1  0.330885  0.669025  0.496534  1
  Ru  Ru34  1  0.626005  0.626543  0.125807  1
  Ru  Ru35  1  0.373385  0.373740  0.872905  1
  Ru  Ru36  1  0.873745  0.873393  0.627089  1
  Ru  Ru37  1  0.126530  0.125996  0.374202  1
