# generated using pymatgen
data_Tb2Sc3(Hg2Pt)2
_symmetry_space_group_name_H-M   'P 1'
_cell_length_a   3.60116100
_cell_length_b   7.86204814
_cell_length_c   17.28020722
_cell_angle_alpha   90.02007350
_cell_angle_beta   90.00000000
_cell_angle_gamma   90.00000000
_symmetry_Int_Tables_number   1
_chemical_formula_structural   Tb2Sc3(Hg2Pt)2
_chemical_formula_sum   'Tb4 Sc6 Hg8 Pt4'
_cell_volume   489.24585681
_cell_formula_units_Z   2
loop_
 _symmetry_equiv_pos_site_id
 _symmetry_equiv_pos_as_xyz
  1  'x, y, z'
loop_
 _atom_site_type_symbol
 _atom_site_label
 _atom_site_symmetry_multiplicity
 _atom_site_fract_x
 _atom_site_fract_y
 _atom_site_fract_z
 _atom_site_occupancy
  Tb  Tb0  1  0.000000  0.235428  0.212398  1
  Tb  Tb1  1  0.000000  0.764529  0.787620  1
  Tb  Tb2  1  0.000000  0.264657  0.712423  1
  Tb  Tb3  1  0.000000  0.735342  0.287566  1
  Sc  Sc4  1  0.000000  0.111661  0.415763  1
  Sc  Sc5  1  0.000000  0.888351  0.584248  1
  Sc  Sc6  1  0.000000  0.388399  0.915710  1
  Sc  Sc7  1  0.000000  0.611541  0.084298  1
  Sc  Sc8  1  0.000000  0.000015  0.000002  1
  Sc  Sc9  1  0.000000  0.500038  0.499992  1
  Hg  Hg10  1  0.500000  0.415363  0.360466  1
  Hg  Hg11  1  0.500000  0.584609  0.639521  1
  Hg  Hg12  1  0.500000  0.084631  0.860468  1
  Hg  Hg13  1  0.500000  0.915356  0.139529  1
  Hg  Hg14  1  0.500000  0.288711  0.053395  1
  Hg  Hg15  1  0.500000  0.711325  0.946583  1
  Hg  Hg16  1  0.500000  0.211328  0.553419  1
  Hg  Hg17  1  0.500000  0.788710  0.446613  1
  Pt  Pt18  1  0.500000  0.029572  0.307596  1
  Pt  Pt19  1  0.500000  0.970407  0.692447  1
  Pt  Pt20  1  0.500000  0.470403  0.807529  1
  Pt  Pt21  1  0.500000  0.529622  0.192414  1
