# generated using pymatgen
data_RbMn4(SbO6)2
_symmetry_space_group_name_H-M   'P 1'
_cell_length_a   8.63827228
_cell_length_b   8.63827173
_cell_length_c   8.63827100
_cell_angle_alpha   106.41468452
_cell_angle_beta   106.41468346
_cell_angle_gamma   115.77418503
_symmetry_Int_Tables_number   1
_chemical_formula_structural   RbMn4(SbO6)2
_chemical_formula_sum   'Rb2 Mn8 Sb4 O24'
_cell_volume   491.64988757
_cell_formula_units_Z   2
loop_
 _symmetry_equiv_pos_site_id
 _symmetry_equiv_pos_as_xyz
  1  'x, y, z'
loop_
 _atom_site_type_symbol
 _atom_site_label
 _atom_site_symmetry_multiplicity
 _atom_site_fract_x
 _atom_site_fract_y
 _atom_site_fract_z
 _atom_site_occupancy
  Rb  Rb0  1  0.210523  0.209654  0.998726  1
  Rb  Rb1  1  0.789477  0.790346  0.001274  1
  Mn  Mn2  1  0.984398  0.505995  0.821216  1
  Mn  Mn3  1  0.682040  0.165985  0.180100  1
  Mn  Mn4  1  0.170383  0.984149  0.490474  1
  Mn  Mn5  1  0.509905  0.686601  0.518449  1
  Mn  Mn6  1  0.015602  0.494005  0.178784  1
  Mn  Mn7  1  0.317960  0.834015  0.819900  1
  Mn  Mn8  1  0.829617  0.015851  0.509526  1
  Mn  Mn9  1  0.490095  0.313399  0.481551  1
  Sb  Sb10  1  0.652783  0.163369  0.811571  1
  Sb  Sb11  1  0.347217  0.836631  0.188429  1
  Sb  Sb12  1  0.842646  0.652643  0.487081  1
  Sb  Sb13  1  0.157354  0.347357  0.512919  1
  O  O14  1  0.857640  0.210309  0.040469  1
  O  O15  1  0.142360  0.789691  0.959531  1
  O  O16  1  0.810247  0.854074  0.640985  1
  O  O17  1  0.189753  0.145926  0.359015  1
  O  O18  1  0.172297  0.534071  0.046717  1
  O  O19  1  0.499953  0.132151  0.954521  1
  O  O20  1  0.112236  0.184645  0.641672  1
  O  O21  1  0.547689  0.500613  0.364977  1
  O  O22  1  0.827703  0.465929  0.953283  1
  O  O23  1  0.500047  0.867849  0.045479  1
  O  O24  1  0.887764  0.815355  0.358328  1
  O  O25  1  0.452311  0.499387  0.635023  1
  O  O26  1  0.453060  0.159437  0.625802  1
  O  O27  1  0.546940  0.840563  0.374198  1
  O  O28  1  0.844760  0.456835  0.294883  1
  O  O29  1  0.155240  0.543165  0.705117  1
  O  O30  1  0.798337  0.505338  0.631003  1
  O  O31  1  0.865150  0.162992  0.365884  1
  O  O32  1  0.168913  0.775702  0.297219  1
  O  O33  1  0.512146  0.874398  0.705100  1
  O  O34  1  0.201663  0.494662  0.368997  1
  O  O35  1  0.134850  0.837008  0.634116  1
  O  O36  1  0.831087  0.224298  0.702781  1
  O  O37  1  0.487854  0.125602  0.294900  1
