# generated using pymatgen
data_Yb3Np(BRu)16
_symmetry_space_group_name_H-M   'P 1'
_cell_length_a   9.22273590
_cell_length_b   7.42354180
_cell_length_c   7.42354201
_cell_angle_alpha   89.99566353
_cell_angle_beta   113.73388469
_cell_angle_gamma   113.73388025
_symmetry_Int_Tables_number   1
_chemical_formula_structural   Yb3Np(BRu)16
_chemical_formula_sum   'Yb3 Np1 B16 Ru16'
_cell_volume   417.89280854
_cell_formula_units_Z   1
loop_
 _symmetry_equiv_pos_site_id
 _symmetry_equiv_pos_as_xyz
  1  'x, y, z'
loop_
 _atom_site_type_symbol
 _atom_site_label
 _atom_site_symmetry_multiplicity
 _atom_site_fract_x
 _atom_site_fract_y
 _atom_site_fract_z
 _atom_site_occupancy
  Yb  Yb0  1  0.250000  0.625000  0.375001  1
  Yb  Yb1  1  0.750001  0.375000  0.625001  1
  Yb  Yb2  1  0.250000  0.125000  0.875001  1
  Np  Np3  1  0.750001  0.875000  0.125000  1
  B  B4  1  0.918110  0.291244  0.075750  1
  B  B5  1  0.408691  0.567889  0.122324  1
  B  B6  1  0.091310  0.213633  0.159199  1
  B  B7  1  0.585319  0.151140  0.212557  1
  B  B8  1  0.413479  0.068753  0.289698  1
  B  B9  1  0.918110  0.626866  0.342360  1
  B  B10  1  0.581890  0.657639  0.373133  1
  B  B11  1  0.091310  0.877677  0.432110  1
  B  B12  1  0.914681  0.127237  0.565822  1
  B  B13  1  0.413479  0.344726  0.623781  1
  B  B14  1  0.086522  0.376220  0.655275  1
  B  B15  1  0.581890  0.924251  0.708756  1
  B  B16  1  0.408691  0.840802  0.786367  1
  B  B17  1  0.914681  0.787443  0.848859  1
  B  B18  1  0.585319  0.434179  0.872762  1
  B  B19  1  0.086522  0.710302  0.931246  1
  Ru  Ru20  1  0.867987  0.549434  0.031433  1
  Ru  Ru21  1  0.374449  0.836319  0.052589  1
  Ru  Ru22  1  0.125551  0.947412  0.163681  1
  Ru  Ru23  1  0.628744  0.476074  0.177407  1
  Ru  Ru24  1  0.376256  0.337676  0.321811  1
  Ru  Ru25  1  0.867987  0.318553  0.336554  1
  Ru  Ru26  1  0.632013  0.968566  0.450565  1
  Ru  Ru27  1  0.125551  0.178139  0.461871  1
  Ru  Ru28  1  0.871256  0.822593  0.523925  1
  Ru  Ru29  1  0.376256  0.038579  0.554446  1
  Ru  Ru30  1  0.123744  0.678189  0.662324  1
  Ru  Ru31  1  0.632013  0.663447  0.681447  1
  Ru  Ru32  1  0.374449  0.538130  0.821861  1
  Ru  Ru33  1  0.871256  0.048663  0.847331  1
  Ru  Ru34  1  0.628744  0.152670  0.951336  1
  Ru  Ru35  1  0.123744  0.445555  0.961422  1
