# generated using pymatgen
data_CsSr4Tl(ReN4)2
_symmetry_space_group_name_H-M   'P 1'
_cell_length_a   6.20448500
_cell_length_b   6.18371313
_cell_length_c   8.32347444
_cell_angle_alpha   85.12762624
_cell_angle_beta   90.00000000
_cell_angle_gamma   90.00000000
_symmetry_Int_Tables_number   1
_chemical_formula_structural   CsSr4Tl(ReN4)2
_chemical_formula_sum   'Cs1 Sr4 Tl1 Re2 N8'
_cell_volume   318.19071277
_cell_formula_units_Z   1
loop_
 _symmetry_equiv_pos_site_id
 _symmetry_equiv_pos_as_xyz
  1  'x, y, z'
loop_
 _atom_site_type_symbol
 _atom_site_label
 _atom_site_symmetry_multiplicity
 _atom_site_fract_x
 _atom_site_fract_y
 _atom_site_fract_z
 _atom_site_occupancy
  Cs  Cs0  1  0.750000  0.130642  0.323674  1
  Sr  Sr1  1  0.250000  0.318215  0.947784  1
  Sr  Sr2  1  0.750000  0.682268  0.044907  1
  Sr  Sr3  1  0.750000  0.645941  0.551408  1
  Sr  Sr4  1  0.250000  0.355963  0.452630  1
  Tl  Tl5  1  0.250000  0.863308  0.718548  1
  Re  Re6  1  0.250000  0.801515  0.208885  1
  Re  Re7  1  0.750000  0.198814  0.784944  1
  N  N8  1  0.512267  0.326529  0.684036  1
  N  N9  1  0.012151  0.673043  0.308010  1
  N  N10  1  0.487849  0.673043  0.308010  1
  N  N11  1  0.987733  0.326529  0.684036  1
  N  N12  1  0.750000  0.902232  0.770765  1
  N  N13  1  0.250000  0.093854  0.225274  1
  N  N14  1  0.750000  0.272690  0.992355  1
  N  N15  1  0.250000  0.735414  0.994730  1
