# generated using pymatgen
data_TiSi2MoIr2
_symmetry_space_group_name_H-M   'P 1'
_cell_length_a   3.83570700
_cell_length_b   6.29770600
_cell_length_c   7.21463900
_cell_angle_alpha   90.00000000
_cell_angle_beta   90.00000000
_cell_angle_gamma   90.00000000
_symmetry_Int_Tables_number   1
_chemical_formula_structural   TiSi2MoIr2
_chemical_formula_sum   'Ti2 Si4 Mo2 Ir4'
_cell_volume   174.27793787
_cell_formula_units_Z   2
loop_
 _symmetry_equiv_pos_site_id
 _symmetry_equiv_pos_as_xyz
  1  'x, y, z'
loop_
 _atom_site_type_symbol
 _atom_site_label
 _atom_site_symmetry_multiplicity
 _atom_site_fract_x
 _atom_site_fract_y
 _atom_site_fract_z
 _atom_site_occupancy
  Ti  Ti0  1  0.750000  0.974614  0.175528  1
  Ti  Ti1  1  0.750000  0.474614  0.324472  1
  Si  Si2  1  0.250000  0.762290  0.380249  1
  Si  Si3  1  0.250000  0.262290  0.119751  1
  Si  Si4  1  0.750000  0.234527  0.626723  1
  Si  Si5  1  0.750000  0.734527  0.873277  1
  Mo  Mo6  1  0.250000  0.025621  0.823983  1
  Mo  Mo7  1  0.250000  0.525621  0.676017  1
  Ir  Ir8  1  0.250000  0.149413  0.435013  1
  Ir  Ir9  1  0.250000  0.649413  0.064987  1
  Ir  Ir10  1  0.750000  0.853535  0.559476  1
  Ir  Ir11  1  0.750000  0.353535  0.940524  1
