# generated using pymatgen
data_Tm7(ZnTe)2
_symmetry_space_group_name_H-M   'P 1'
_cell_length_a   9.22572825
_cell_length_b   9.22572836
_cell_length_c   9.22572893
_cell_angle_alpha   154.83728421
_cell_angle_beta   117.67397518
_cell_angle_gamma   68.31252323
_symmetry_Int_Tables_number   1
_chemical_formula_structural   Tm7(ZnTe)2
_chemical_formula_sum   'Tm7 Zn2 Te2'
_cell_volume   292.97677872
_cell_formula_units_Z   1
loop_
 _symmetry_equiv_pos_site_id
 _symmetry_equiv_pos_as_xyz
  1  'x, y, z'
loop_
 _atom_site_type_symbol
 _atom_site_label
 _atom_site_symmetry_multiplicity
 _atom_site_fract_x
 _atom_site_fract_y
 _atom_site_fract_z
 _atom_site_occupancy
  Tm  Tm0  1  0.118032  0.859543  0.258487  1
  Tm  Tm1  1  0.398943  0.140457  0.258487  1
  Tm  Tm2  1  0.505780  0.500000  0.005780  1
  Tm  Tm3  1  0.045257  0.628093  0.417164  1
  Tm  Tm4  1  0.789070  0.371907  0.417164  1
  Tm  Tm5  1  0.443141  0.816620  0.626522  1
  Tm  Tm6  1  0.809903  0.183380  0.626522  1
  Zn  Zn7  1  0.658961  0.734439  0.924521  1
  Zn  Zn8  1  0.190081  0.265561  0.924521  1
  Te  Te9  1  0.769201  0.000000  0.769201  1
  Te  Te10  1  0.162491  0.500000  0.662491  1
