# generated using pymatgen
data_Ho4Ga18TcPd5
_symmetry_space_group_name_H-M   'P 1'
_cell_length_a   7.63754362
_cell_length_b   7.63754331
_cell_length_c   9.58093901
_cell_angle_alpha   90.16891319
_cell_angle_beta   90.16892258
_cell_angle_gamma   119.68220940
_symmetry_Int_Tables_number   1
_chemical_formula_structural   Ho4Ga18TcPd5
_chemical_formula_sum   'Ho4 Ga18 Tc1 Pd5'
_cell_volume   485.53490736
_cell_formula_units_Z   1
loop_
 _symmetry_equiv_pos_site_id
 _symmetry_equiv_pos_as_xyz
  1  'x, y, z'
loop_
 _atom_site_type_symbol
 _atom_site_label
 _atom_site_symmetry_multiplicity
 _atom_site_fract_x
 _atom_site_fract_y
 _atom_site_fract_z
 _atom_site_occupancy
  Ho  Ho0  1  0.997276  0.669616  0.250080  1
  Ho  Ho1  1  0.002724  0.330384  0.749920  1
  Ho  Ho2  1  0.669616  0.997276  0.250080  1
  Ho  Ho3  1  0.330384  0.002724  0.749920  1
  Ga  Ga4  1  0.127552  0.127552  0.252991  1
  Ga  Ga5  1  0.872448  0.872448  0.747009  1
  Ga  Ga6  1  0.000334  0.335085  0.081733  1
  Ga  Ga7  1  0.999666  0.664915  0.918267  1
  Ga  Ga8  1  0.000427  0.669157  0.578004  1
  Ga  Ga9  1  0.330843  0.999573  0.421996  1
  Ga  Ga10  1  0.999573  0.330843  0.421996  1
  Ga  Ga11  1  0.669157  0.000427  0.578004  1
  Ga  Ga12  1  0.664915  0.999666  0.918267  1
  Ga  Ga13  1  0.335085  0.000334  0.081733  1
  Ga  Ga14  1  0.327592  0.327592  0.565280  1
  Ga  Ga15  1  0.672408  0.672408  0.434720  1
  Ga  Ga16  1  0.666577  0.666577  0.068926  1
  Ga  Ga17  1  0.333423  0.333423  0.931074  1
  Ga  Ga18  1  0.339713  0.546289  0.250875  1
  Ga  Ga19  1  0.660287  0.453711  0.749125  1
  Ga  Ga20  1  0.546289  0.339713  0.250875  1
  Ga  Ga21  1  0.453711  0.660287  0.749125  1
  Tc  Tc22  1  0.000000  0.000000  0.500000  1
  Pd  Pd23  1  0.671233  0.328767  0.000000  1
  Pd  Pd24  1  0.328767  0.671233  0.000000  1
  Pd  Pd25  1  0.328650  0.671350  0.500000  1
  Pd  Pd26  1  0.671350  0.328650  0.500000  1
  Pd  Pd27  1  0.000000  0.000000  0.000000  1
