# generated using pymatgen
data_Er13Th3(AlFe)4
_symmetry_space_group_name_H-M   'P 1'
_cell_length_a   9.34828104
_cell_length_b   9.35014421
_cell_length_c   9.35014600
_cell_angle_alpha   60.00000074
_cell_angle_beta   59.99340753
_cell_angle_gamma   59.99340426
_symmetry_Int_Tables_number   1
_chemical_formula_structural   Er13Th3(AlFe)4
_chemical_formula_sum   'Er13 Th3 Al4 Fe4'
_cell_volume   577.84342085
_cell_formula_units_Z   1
loop_
 _symmetry_equiv_pos_site_id
 _symmetry_equiv_pos_as_xyz
  1  'x, y, z'
loop_
 _atom_site_type_symbol
 _atom_site_label
 _atom_site_symmetry_multiplicity
 _atom_site_fract_x
 _atom_site_fract_y
 _atom_site_fract_z
 _atom_site_occupancy
  Er  Er0  1  0.191697  0.602767  0.602767  1
  Er  Er1  1  0.060472  0.440890  0.440890  1
  Er  Er2  1  0.441277  0.059595  0.059595  1
  Er  Er3  1  0.441277  0.059595  0.439534  1
  Er  Er4  1  0.060472  0.440890  0.057747  1
  Er  Er5  1  0.441277  0.439534  0.059595  1
  Er  Er6  1  0.060472  0.057747  0.440890  1
  Er  Er7  1  0.189396  0.811292  0.811292  1
  Er  Er8  1  0.814646  0.186660  0.186660  1
  Er  Er9  1  0.814646  0.186660  0.812036  1
  Er  Er10  1  0.189396  0.811292  0.188020  1
  Er  Er11  1  0.814646  0.812036  0.186660  1
  Er  Er12  1  0.189396  0.188020  0.811292  1
  Th  Th13  1  0.594848  0.597224  0.597224  1
  Th  Th14  1  0.594848  0.597224  0.210704  1
  Th  Th15  1  0.594848  0.210704  0.597224  1
  Al  Al16  1  0.828143  0.827973  0.827973  1
  Al  Al17  1  0.828143  0.827973  0.515909  1
  Al  Al18  1  0.828143  0.515909  0.827973  1
  Al  Al19  1  0.517310  0.827563  0.827563  1
  Fe  Fe20  1  0.394912  0.391905  0.391905  1
  Fe  Fe21  1  0.394912  0.391905  0.821278  1
  Fe  Fe22  1  0.394912  0.821278  0.391905  1
  Fe  Fe23  1  0.819915  0.393362  0.393362  1
