# generated using pymatgen
data_Lu3Al3CoGeAu
_symmetry_space_group_name_H-M   'P 1'
_cell_length_a   6.93510600
_cell_length_b   6.93510552
_cell_length_c   4.07672600
_cell_angle_alpha   90.00000000
_cell_angle_beta   90.00000000
_cell_angle_gamma   119.99999274
_symmetry_Int_Tables_number   1
_chemical_formula_structural   Lu3Al3CoGeAu
_chemical_formula_sum   'Lu3 Al3 Co1 Ge1 Au1'
_cell_volume   169.80417482
_cell_formula_units_Z   1
loop_
 _symmetry_equiv_pos_site_id
 _symmetry_equiv_pos_as_xyz
  1  'x, y, z'
loop_
 _atom_site_type_symbol
 _atom_site_label
 _atom_site_symmetry_multiplicity
 _atom_site_fract_x
 _atom_site_fract_y
 _atom_site_fract_z
 _atom_site_occupancy
  Lu  Lu0  1  0.403369  0.401848  0.500000  1
  Lu  Lu1  1  0.598152  0.001521  0.500000  1
  Lu  Lu2  1  0.998479  0.596631  0.500000  1
  Al  Al3  1  0.768600  0.776029  0.000000  1
  Al  Al4  1  0.223971  0.992573  0.000000  1
  Al  Al5  1  0.007427  0.231400  0.000000  1
  Co  Co6  1  0.000000  0.000000  0.500000  1
  Ge  Ge7  1  0.666667  0.333333  0.000000  1
  Au  Au8  1  0.333333  0.666667  0.000000  1
