# generated using pymatgen
data_Ho3Er5B24MoRu3
_symmetry_space_group_name_H-M   'P 1'
_cell_length_a   3.64104000
_cell_length_b   9.12946082
_cell_length_c   11.51548701
_cell_angle_alpha   89.86923650
_cell_angle_beta   90.00000000
_cell_angle_gamma   90.00000000
_symmetry_Int_Tables_number   1
_chemical_formula_structural   Ho3Er5B24MoRu3
_chemical_formula_sum   'Ho3 Er5 B24 Mo1 Ru3'
_cell_volume   382.78222125
_cell_formula_units_Z   1
loop_
 _symmetry_equiv_pos_site_id
 _symmetry_equiv_pos_as_xyz
  1  'x, y, z'
loop_
 _atom_site_type_symbol
 _atom_site_label
 _atom_site_symmetry_multiplicity
 _atom_site_fract_x
 _atom_site_fract_y
 _atom_site_fract_z
 _atom_site_occupancy
  Ho  Ho0  1  0.000000  0.322229  0.413482  1
  Ho  Ho1  1  0.000000  0.677444  0.584659  1
  Ho  Ho2  1  0.000000  0.820391  0.087285  1
  Er  Er3  1  0.000000  0.177264  0.914914  1
  Er  Er4  1  0.000000  0.945227  0.372468  1
  Er  Er5  1  0.000000  0.058141  0.629377  1
  Er  Er6  1  0.000000  0.442651  0.126776  1
  Er  Er7  1  0.000000  0.557119  0.870360  1
  B  B8  1  0.500000  0.551129  0.435501  1
  B  B9  1  0.500000  0.446026  0.568154  1
  B  B10  1  0.500000  0.053608  0.066949  1
  B  B11  1  0.500000  0.946103  0.933246  1
  B  B12  1  0.500000  0.750846  0.421474  1
  B  B13  1  0.500000  0.252114  0.581377  1
  B  B14  1  0.500000  0.248072  0.080157  1
  B  B15  1  0.500000  0.751368  0.918837  1
  B  B16  1  0.500000  0.794213  0.264421  1
  B  B17  1  0.500000  0.209028  0.734939  1
  B  B18  1  0.500000  0.290506  0.233027  1
  B  B19  1  0.500000  0.709705  0.765458  1
  B  B20  1  0.500000  0.631256  0.183041  1
  B  B21  1  0.500000  0.368320  0.815096  1
  B  B22  1  0.500000  0.131260  0.313976  1
  B  B23  1  0.500000  0.869749  0.685573  1
  B  B24  1  0.500000  0.983299  0.212486  1
  B  B25  1  0.500000  0.017411  0.788386  1
  B  B26  1  0.500000  0.478178  0.286662  1
  B  B27  1  0.500000  0.516632  0.712772  1
  B  B28  1  0.500000  0.605055  0.027474  1
  B  B29  1  0.500000  0.393792  0.969778  1
  B  B30  1  0.500000  0.106531  0.471396  1
  B  B31  1  0.500000  0.896665  0.530235  1
  Mo  Mo32  1  0.000000  0.637483  0.320991  1
  Ru  Ru33  1  0.000000  0.360972  0.680680  1
  Ru  Ru34  1  0.000000  0.137705  0.177743  1
  Ru  Ru35  1  0.000000  0.862505  0.820849  1
