# generated using pymatgen
data_K2Ba(SeO4)2
_symmetry_space_group_name_H-M   'P 1'
_cell_length_a   8.12978741
_cell_length_b   8.12978706
_cell_length_c   8.12978614
_cell_angle_alpha   42.54674315
_cell_angle_beta   42.54674561
_cell_angle_gamma   42.54674221
_symmetry_Int_Tables_number   1
_chemical_formula_structural   K2Ba(SeO4)2
_chemical_formula_sum   'K2 Ba1 Se2 O8'
_cell_volume   222.48324380
_cell_formula_units_Z   1
loop_
 _symmetry_equiv_pos_site_id
 _symmetry_equiv_pos_as_xyz
  1  'x, y, z'
loop_
 _atom_site_type_symbol
 _atom_site_label
 _atom_site_symmetry_multiplicity
 _atom_site_fract_x
 _atom_site_fract_y
 _atom_site_fract_z
 _atom_site_occupancy
  K  K0  1  0.201863  0.201863  0.201863  1
  K  K1  1  0.798137  0.798137  0.798137  1
  Ba  Ba2  1  0.000000  0.000000  0.000000  1
  Se  Se3  1  0.404749  0.404749  0.404749  1
  Se  Se4  1  0.595251  0.595251  0.595251  1
  O  O5  1  0.740277  0.274179  0.274179  1
  O  O6  1  0.274179  0.740277  0.274179  1
  O  O7  1  0.725821  0.725821  0.259723  1
  O  O8  1  0.329136  0.329136  0.329136  1
  O  O9  1  0.670864  0.670864  0.670864  1
  O  O10  1  0.274179  0.274179  0.740277  1
  O  O11  1  0.725820  0.259723  0.725821  1
  O  O12  1  0.259723  0.725820  0.725821  1
