# generated using pymatgen
data_CaHo5CuRh17
_symmetry_space_group_name_H-M   'P 1'
_cell_length_a   5.27291900
_cell_length_b   5.27285557
_cell_length_c   17.43008600
_cell_angle_alpha   89.99986961
_cell_angle_beta   89.99986961
_cell_angle_gamma   120.00069277
_symmetry_Int_Tables_number   1
_chemical_formula_structural   CaHo5CuRh17
_chemical_formula_sum   'Ca1 Ho5 Cu1 Rh17'
_cell_volume   419.68563631
_cell_formula_units_Z   1
loop_
 _symmetry_equiv_pos_site_id
 _symmetry_equiv_pos_as_xyz
  1  'x, y, z'
loop_
 _atom_site_type_symbol
 _atom_site_label
 _atom_site_symmetry_multiplicity
 _atom_site_fract_x
 _atom_site_fract_y
 _atom_site_fract_z
 _atom_site_occupancy
  Ca  Ca0  1  0.666666  0.333337  0.249963  1
  Ho  Ho1  1  0.333334  0.666661  0.957631  1
  Ho  Ho2  1  0.666667  0.333329  0.042185  1
  Ho  Ho3  1  0.666668  0.333328  0.457905  1
  Ho  Ho4  1  0.333335  0.666658  0.542452  1
  Ho  Ho5  1  0.333334  0.666668  0.749966  1
  Cu  Cu6  1  0.333311  0.666774  0.250011  1
  Rh  Rh7  1  0.168823  0.831176  0.374363  1
  Rh  Rh8  1  0.168821  0.337639  0.374368  1
  Rh  Rh9  1  0.662358  0.831175  0.374367  1
  Rh  Rh10  1  0.832740  0.167246  0.624664  1
  Rh  Rh11  1  0.832748  0.665475  0.624652  1
  Rh  Rh12  1  0.334518  0.167242  0.624657  1
  Rh  Rh13  1  0.832740  0.167254  0.875331  1
  Rh  Rh14  1  0.832742  0.665477  0.875340  1
  Rh  Rh15  1  0.334518  0.167249  0.875336  1
  Rh  Rh16  1  0.168806  0.831190  0.125612  1
  Rh  Rh17  1  0.168809  0.337609  0.125607  1
  Rh  Rh18  1  0.662389  0.831191  0.125610  1
  Rh  Rh19  1  0.666669  0.333349  0.749997  1
  Rh  Rh20  1  0.000003  0.999994  0.249996  1
  Rh  Rh21  1  0.000002  0.999979  0.749973  1
  Rh  Rh22  1  0.000002  0.999997  0.498053  1
  Rh  Rh23  1  0.000000  0.999996  0.001960  1
