# generated using pymatgen
data_Tb7TmHg4
_symmetry_space_group_name_H-M   'P 1'
_cell_length_a   5.09830500
_cell_length_b   7.07834192
_cell_length_c   9.33529027
_cell_angle_alpha   89.97098227
_cell_angle_beta   90.00000000
_cell_angle_gamma   90.00000000
_symmetry_Int_Tables_number   1
_chemical_formula_structural   Tb7TmHg4
_chemical_formula_sum   'Tb7 Tm1 Hg4'
_cell_volume   336.88767396
_cell_formula_units_Z   1
loop_
 _symmetry_equiv_pos_site_id
 _symmetry_equiv_pos_as_xyz
  1  'x, y, z'
loop_
 _atom_site_type_symbol
 _atom_site_label
 _atom_site_symmetry_multiplicity
 _atom_site_fract_x
 _atom_site_fract_y
 _atom_site_fract_z
 _atom_site_occupancy
  Tb  Tb0  1  0.250000  0.481622  0.192044  1
  Tb  Tb1  1  0.750000  0.520258  0.807511  1
  Tb  Tb2  1  0.250000  0.981074  0.307394  1
  Tb  Tb3  1  0.750000  0.018050  0.693726  1
  Tb  Tb4  1  0.750000  0.670137  0.425345  1
  Tb  Tb5  1  0.250000  0.332676  0.573621  1
  Tb  Tb6  1  0.750000  0.165165  0.072845  1
  Tm  Tm7  1  0.250000  0.833443  0.927240  1
  Hg  Hg8  1  0.250000  0.261623  0.895629  1
  Hg  Hg9  1  0.750000  0.734244  0.101622  1
  Hg  Hg10  1  0.250000  0.766408  0.607585  1
  Hg  Hg11  1  0.750000  0.235300  0.395438  1
