# generated using pymatgen
data_Dy8Er2Sn5Bi
_symmetry_space_group_name_H-M   'P 1'
_cell_length_a   8.99206000
_cell_length_b   8.98891484
_cell_length_c   6.50771903
_cell_angle_alpha   89.99041132
_cell_angle_beta   90.00000000
_cell_angle_gamma   120.01156770
_symmetry_Int_Tables_number   1
_chemical_formula_structural   Dy8Er2Sn5Bi
_chemical_formula_sum   'Dy8 Er2 Sn5 Bi1'
_cell_volume   455.48622223
_cell_formula_units_Z   1
loop_
 _symmetry_equiv_pos_site_id
 _symmetry_equiv_pos_as_xyz
  1  'x, y, z'
loop_
 _atom_site_type_symbol
 _atom_site_label
 _atom_site_symmetry_multiplicity
 _atom_site_fract_x
 _atom_site_fract_y
 _atom_site_fract_z
 _atom_site_occupancy
  Dy  Dy0  1  0.994869  0.757563  0.749994  1
  Dy  Dy1  1  0.000340  0.239297  0.249982  1
  Dy  Dy2  1  0.761043  0.760703  0.250018  1
  Dy  Dy3  1  0.764371  0.000000  0.750000  1
  Dy  Dy4  1  0.237307  0.242437  0.750006  1
  Dy  Dy5  1  0.237922  0.000000  0.250000  1
  Dy  Dy6  1  0.669674  0.337095  0.498302  1
  Dy  Dy7  1  0.332577  0.662905  0.001698  1
  Er  Er8  1  0.332569  0.662806  0.498233  1
  Er  Er9  1  0.669764  0.337194  0.001767  1
  Sn  Sn10  1  0.395477  0.394319  0.249996  1
  Sn  Sn11  1  0.001158  0.605681  0.250004  1
  Sn  Sn12  1  0.999709  0.395729  0.750006  1
  Sn  Sn13  1  0.603979  0.604271  0.749994  1
  Sn  Sn14  1  0.605149  0.000000  0.250000  1
  Bi  Bi15  1  0.394092  0.000000  0.750000  1
