# generated using pymatgen
data_Dy2YZr(Al8Pt3)3
_symmetry_space_group_name_H-M   'P 1'
_cell_length_a   7.52117863
_cell_length_b   7.52827207
_cell_length_c   13.11000701
_cell_angle_alpha   84.54406916
_cell_angle_beta   79.02414529
_cell_angle_gamma   59.90218621
_symmetry_Int_Tables_number   1
_chemical_formula_structural   Dy2YZr(Al8Pt3)3
_chemical_formula_sum   'Dy2 Y1 Zr1 Al24 Pt9'
_cell_volume   630.47508389
_cell_formula_units_Z   1
loop_
 _symmetry_equiv_pos_site_id
 _symmetry_equiv_pos_as_xyz
  1  'x, y, z'
loop_
 _atom_site_type_symbol
 _atom_site_label
 _atom_site_symmetry_multiplicity
 _atom_site_fract_x
 _atom_site_fract_y
 _atom_site_fract_z
 _atom_site_occupancy
  Dy  Dy0  1  0.733909  0.498693  0.807639  1
  Dy  Dy1  1  0.266560  0.501299  0.192064  1
  Y  Y2  1  0.606478  0.831857  0.191844  1
  Zr  Zr3  1  0.393363  0.168128  0.809154  1
  Al  Al4  1  0.682042  0.836438  0.941981  1
  Al  Al5  1  0.316491  0.166451  0.053817  1
  Al  Al6  1  0.146474  0.832793  0.562370  1
  Al  Al7  1  0.853144  0.167161  0.438300  1
  Al  Al8  1  0.479910  0.166818  0.560688  1
  Al  Al9  1  0.519294  0.833819  0.441242  1
  Al  Al10  1  0.217083  0.165397  0.330189  1
  Al  Al11  1  0.779645  0.837003  0.672495  1
  Al  Al12  1  0.436170  0.504400  0.672855  1
  Al  Al13  1  0.562327  0.493608  0.329613  1
  Al  Al14  1  0.111405  0.159709  0.671778  1
  Al  Al15  1  0.890157  0.839800  0.330841  1
  Al  Al16  1  0.353843  0.496488  0.941967  1
  Al  Al17  1  0.647712  0.500108  0.055325  1
  Al  Al18  1  0.018669  0.167957  0.950578  1
  Al  Al19  1  0.984779  0.832728  0.046345  1
  Al  Al20  1  0.186716  0.499267  0.441255  1
  Al  Al21  1  0.813699  0.500410  0.558989  1
  Al  Al22  1  0.734026  0.163915  0.183662  1
  Al  Al23  1  0.265875  0.841404  0.816267  1
  Al  Al24  1  0.066354  0.626256  0.814950  1
  Al  Al25  1  0.939218  0.368263  0.184524  1
  Al  Al26  1  0.850601  0.041398  0.815561  1
  Al  Al27  1  0.144663  0.958688  0.183867  1
  Pt  Pt28  1  0.119743  0.491172  0.639188  1
  Pt  Pt29  1  0.879141  0.508305  0.361571  1
  Pt  Pt30  1  0.657681  0.171824  0.998854  1
  Pt  Pt31  1  0.343659  0.827796  0.999212  1
  Pt  Pt32  1  0.537484  0.166707  0.361968  1
  Pt  Pt33  1  0.463163  0.832637  0.639130  1
  Pt  Pt34  1  0.778391  0.176199  0.637833  1
  Pt  Pt35  1  0.220529  0.824784  0.363144  1
  Pt  Pt36  1  0.999603  0.500318  0.998936  1
