# generated using pymatgen
data_Dy6ErHf3(Si5Ir2)4
_symmetry_space_group_name_H-M   'P 1'
_cell_length_a   12.56638106
_cell_length_b   12.56638039
_cell_length_c   4.19765100
_cell_angle_alpha   90.00000000
_cell_angle_beta   90.00000000
_cell_angle_gamma   90.02132455
_symmetry_Int_Tables_number   1
_chemical_formula_structural   Dy6ErHf3(Si5Ir2)4
_chemical_formula_sum   'Dy6 Er1 Hf3 Si20 Ir8'
_cell_volume   662.86749718
_cell_formula_units_Z   1
loop_
 _symmetry_equiv_pos_site_id
 _symmetry_equiv_pos_as_xyz
  1  'x, y, z'
loop_
 _atom_site_type_symbol
 _atom_site_label
 _atom_site_symmetry_multiplicity
 _atom_site_fract_x
 _atom_site_fract_y
 _atom_site_fract_z
 _atom_site_occupancy
  Dy  Dy0  1  0.499740  0.501349  0.000000  1
  Dy  Dy1  1  0.998651  0.000260  0.000000  1
  Dy  Dy2  1  0.884183  0.381763  0.500000  1
  Dy  Dy3  1  0.118237  0.615817  0.500000  1
  Dy  Dy4  1  0.383943  0.116057  0.500000  1
  Dy  Dy5  1  0.611745  0.888255  0.500000  1
  Er  Er6  1  0.824505  0.675495  0.500000  1
  Hf  Hf7  1  0.674197  0.174895  0.500000  1
  Hf  Hf8  1  0.325105  0.825803  0.500000  1
  Hf  Hf9  1  0.175000  0.325000  0.500000  1
  Si  Si10  1  0.565938  0.067681  0.000000  1
  Si  Si11  1  0.432319  0.934062  0.000000  1
  Si  Si12  1  0.067436  0.432564  0.000000  1
  Si  Si13  1  0.934417  0.565583  0.000000  1
  Si  Si14  1  0.662011  0.701949  0.000000  1
  Si  Si15  1  0.335033  0.299604  0.000000  1
  Si  Si16  1  0.166055  0.800262  0.000000  1
  Si  Si17  1  0.835278  0.200457  0.000000  1
  Si  Si18  1  0.299543  0.664722  0.000000  1
  Si  Si19  1  0.699738  0.333945  0.000000  1
  Si  Si20  1  0.200396  0.164967  0.000000  1
  Si  Si21  1  0.798051  0.837989  0.000000  1
  Si  Si22  1  0.657194  0.498260  0.500000  1
  Si  Si23  1  0.343061  0.490435  0.500000  1
  Si  Si24  1  0.156675  0.991947  0.500000  1
  Si  Si25  1  0.840465  0.004782  0.500000  1
  Si  Si26  1  0.495218  0.659535  0.500000  1
  Si  Si27  1  0.508053  0.343325  0.500000  1
  Si  Si28  1  0.009565  0.156939  0.500000  1
  Si  Si29  1  0.001740  0.842806  0.500000  1
  Ir  Ir30  1  0.744575  0.519684  0.000000  1
  Ir  Ir31  1  0.254006  0.477830  0.000000  1
  Ir  Ir32  1  0.245724  0.979148  0.000000  1
  Ir  Ir33  1  0.752947  0.024086  0.000000  1
  Ir  Ir34  1  0.475914  0.747053  0.000000  1
  Ir  Ir35  1  0.520852  0.254276  0.000000  1
  Ir  Ir36  1  0.022170  0.245994  0.000000  1
  Ir  Ir37  1  0.980316  0.755425  0.000000  1
