# generated using pymatgen
data_Hf6Be(Tl2I9)2
_symmetry_space_group_name_H-M   'P 1'
_cell_length_a   11.14730217
_cell_length_b   11.39429857
_cell_length_c   11.55667300
_cell_angle_alpha   118.36519690
_cell_angle_beta   100.64729423
_cell_angle_gamma   103.75771040
_symmetry_Int_Tables_number   1
_chemical_formula_structural   Hf6Be(Tl2I9)2
_chemical_formula_sum   'Hf6 Be1 Tl4 I18'
_cell_volume   1175.99462052
_cell_formula_units_Z   1
loop_
 _symmetry_equiv_pos_site_id
 _symmetry_equiv_pos_as_xyz
  1  'x, y, z'
loop_
 _atom_site_type_symbol
 _atom_site_label
 _atom_site_symmetry_multiplicity
 _atom_site_fract_x
 _atom_site_fract_y
 _atom_site_fract_z
 _atom_site_occupancy
  Hf  Hf0  1  0.356017  0.446732  0.779020  1
  Hf  Hf1  1  0.368788  0.620609  0.130381  1
  Hf  Hf2  1  0.641136  0.726836  0.040440  1
  Hf  Hf3  1  0.643983  0.553268  0.220980  1
  Hf  Hf4  1  0.358864  0.273164  0.959560  1
  Hf  Hf5  1  0.631212  0.379391  0.869619  1
  Be  Be6  1  0.500000  0.500000  0.000000  1
  Tl  Tl7  1  0.180059  0.724893  0.562316  1
  Tl  Tl8  1  0.852673  0.962967  0.775792  1
  Tl  Tl9  1  0.147327  0.037033  0.224208  1
  Tl  Tl10  1  0.819941  0.275107  0.437684  1
  I  I11  1  0.819425  0.422156  0.107941  1
  I  I12  1  0.519120  0.704560  0.409378  1
  I  I13  1  0.173427  0.981617  0.900282  1
  I  I14  1  0.180575  0.577844  0.892059  1
  I  I15  1  0.830923  0.829598  0.308008  1
  I  I16  1  0.505766  0.295400  0.209016  1
  I  I17  1  0.794199  0.225939  0.711986  1
  I  I18  1  0.169077  0.170402  0.691992  1
  I  I19  1  0.510663  0.906343  0.194778  1
  I  I20  1  0.818822  0.626731  0.902716  1
  I  I21  1  0.205801  0.774061  0.288014  1
  I  I22  1  0.160367  0.378376  0.499311  1
  I  I23  1  0.494234  0.704600  0.790984  1
  I  I24  1  0.826573  0.018383  0.099718  1
  I  I25  1  0.480880  0.295440  0.590622  1
  I  I26  1  0.181178  0.373269  0.097284  1
  I  I27  1  0.839633  0.621624  0.500689  1
  I  I28  1  0.489337  0.093657  0.805222  1
