# generated using pymatgen
data_Yb7PaBi6
_symmetry_space_group_name_H-M   'P 1'
_cell_length_a   8.25793931
_cell_length_b   8.39037478
_cell_length_c   8.39037439
_cell_angle_alpha   109.78875851
_cell_angle_beta   109.15178727
_cell_angle_gamma   109.15178922
_symmetry_Int_Tables_number   1
_chemical_formula_structural   Yb7PaBi6
_chemical_formula_sum   'Yb7 Pa1 Bi6'
_cell_volume   449.27204845
_cell_formula_units_Z   1
loop_
 _symmetry_equiv_pos_site_id
 _symmetry_equiv_pos_as_xyz
  1  'x, y, z'
loop_
 _atom_site_type_symbol
 _atom_site_label
 _atom_site_symmetry_multiplicity
 _atom_site_fract_x
 _atom_site_fract_y
 _atom_site_fract_z
 _atom_site_occupancy
  Yb  Yb0  1  0.648246  0.000000  0.000000  1
  Yb  Yb1  1  0.502484  0.505217  0.144783  1
  Yb  Yb2  1  0.357701  0.855217  0.360434  1
  Yb  Yb3  1  0.997267  0.639566  0.494783  1
  Yb  Yb4  1  0.998790  0.148452  0.498760  1
  Yb  Yb5  1  0.500031  0.501242  0.649694  1
  Yb  Yb6  1  0.850339  0.350308  0.851549  1
  Pa  Pa7  1  0.151015  0.000000  0.000000  1
  Bi  Bi8  1  0.881044  0.754274  0.123558  1
  Bi  Bi9  1  0.126770  0.369286  0.245726  1
  Bi  Bi10  1  0.613422  0.244222  0.367211  1
  Bi  Bi11  1  0.757486  0.876441  0.630715  1
  Bi  Bi12  1  0.369199  0.122988  0.755778  1
  Bi  Bi13  1  0.246211  0.632789  0.877012  1
