# generated using pymatgen
data_Dy7Er9In2(AgIr2)2
_symmetry_space_group_name_H-M   'P 1'
_cell_length_a   9.54563990
_cell_length_b   9.54564033
_cell_length_c   9.55772500
_cell_angle_alpha   59.95811607
_cell_angle_beta   59.95811457
_cell_angle_gamma   60.02404069
_symmetry_Int_Tables_number   1
_chemical_formula_structural   Dy7Er9In2(AgIr2)2
_chemical_formula_sum   'Dy7 Er9 In2 Ag2 Ir4'
_cell_volume   615.53556866
_cell_formula_units_Z   1
loop_
 _symmetry_equiv_pos_site_id
 _symmetry_equiv_pos_as_xyz
  1  'x, y, z'
loop_
 _atom_site_type_symbol
 _atom_site_label
 _atom_site_symmetry_multiplicity
 _atom_site_fract_x
 _atom_site_fract_y
 _atom_site_fract_z
 _atom_site_occupancy
  Dy  Dy0  1  0.061092  0.061092  0.438908  1
  Dy  Dy1  1  0.185551  0.810085  0.812631  1
  Dy  Dy2  1  0.810085  0.185551  0.191731  1
  Dy  Dy3  1  0.810085  0.185551  0.812631  1
  Dy  Dy4  1  0.185551  0.810085  0.191731  1
  Dy  Dy5  1  0.809787  0.809787  0.190213  1
  Dy  Dy6  1  0.187812  0.187812  0.812188  1
  Er  Er7  1  0.599591  0.599591  0.599758  1
  Er  Er8  1  0.599591  0.599591  0.201059  1
  Er  Er9  1  0.599745  0.200553  0.599851  1
  Er  Er10  1  0.200553  0.599745  0.599851  1
  Er  Er11  1  0.060042  0.439677  0.440676  1
  Er  Er12  1  0.439677  0.060042  0.059606  1
  Er  Er13  1  0.439677  0.060042  0.440676  1
  Er  Er14  1  0.060042  0.439677  0.059606  1
  Er  Er15  1  0.441461  0.441461  0.058539  1
  In  In16  1  0.833347  0.508096  0.829279  1
  In  In17  1  0.508096  0.833347  0.829279  1
  Ag  Ag18  1  0.833142  0.833142  0.832215  1
  Ag  Ag19  1  0.833142  0.833142  0.501502  1
  Ir  Ir20  1  0.392241  0.392241  0.390428  1
  Ir  Ir21  1  0.392241  0.392241  0.825092  1
  Ir  Ir22  1  0.392906  0.824545  0.391275  1
  Ir  Ir23  1  0.824545  0.392906  0.391275  1
