# generated using pymatgen
data_LiY6Th2MgIr2
_symmetry_space_group_name_H-M   'P 1'
_cell_length_a   9.80529790
_cell_length_b   9.80529794
_cell_length_c   9.81535400
_cell_angle_alpha   59.96606849
_cell_angle_beta   59.96606835
_cell_angle_gamma   59.99464316
_symmetry_Int_Tables_number   1
_chemical_formula_structural   LiY6Th2MgIr2
_chemical_formula_sum   'Li2 Y12 Th4 Mg2 Ir4'
_cell_volume   666.91741849
_cell_formula_units_Z   2
loop_
 _symmetry_equiv_pos_site_id
 _symmetry_equiv_pos_as_xyz
  1  'x, y, z'
loop_
 _atom_site_type_symbol
 _atom_site_label
 _atom_site_symmetry_multiplicity
 _atom_site_fract_x
 _atom_site_fract_y
 _atom_site_fract_z
 _atom_site_occupancy
  Li  Li0  1  0.829704  0.829704  0.829986  1
  Li  Li1  1  0.829704  0.829704  0.510606  1
  Y  Y2  1  0.062962  0.436501  0.437686  1
  Y  Y3  1  0.436501  0.062962  0.062851  1
  Y  Y4  1  0.436501  0.062962  0.437686  1
  Y  Y5  1  0.062962  0.436501  0.062851  1
  Y  Y6  1  0.437818  0.437818  0.062182  1
  Y  Y7  1  0.064057  0.064057  0.435943  1
  Y  Y8  1  0.185097  0.814893  0.815269  1
  Y  Y9  1  0.814893  0.185097  0.184741  1
  Y  Y10  1  0.814893  0.185097  0.815269  1
  Y  Y11  1  0.185097  0.814893  0.184741  1
  Y  Y12  1  0.814986  0.814986  0.185014  1
  Y  Y13  1  0.184845  0.184845  0.815155  1
  Th  Th14  1  0.597862  0.597862  0.597178  1
  Th  Th15  1  0.597862  0.597862  0.207097  1
  Th  Th16  1  0.597597  0.207136  0.597633  1
  Th  Th17  1  0.207136  0.597597  0.597633  1
  Mg  Mg18  1  0.830369  0.509333  0.830149  1
  Mg  Mg19  1  0.509333  0.830369  0.830149  1
  Ir  Ir20  1  0.393779  0.393779  0.393739  1
  Ir  Ir21  1  0.393779  0.393779  0.818701  1
  Ir  Ir22  1  0.393322  0.818939  0.393869  1
  Ir  Ir23  1  0.818939  0.393322  0.393869  1
