# generated using pymatgen
data_Na3Ca(USe3)2
_symmetry_space_group_name_H-M   'P 1'
_cell_length_a   7.27392695
_cell_length_b   7.27392600
_cell_length_c   7.41964698
_cell_angle_alpha   80.52431912
_cell_angle_beta   80.52432428
_cell_angle_gamma   120.00159729
_symmetry_Int_Tables_number   1
_chemical_formula_structural   Na3Ca(USe3)2
_chemical_formula_sum   'Na3 Ca1 U2 Se6'
_cell_volume   321.01537994
_cell_formula_units_Z   1
loop_
 _symmetry_equiv_pos_site_id
 _symmetry_equiv_pos_as_xyz
  1  'x, y, z'
loop_
 _atom_site_type_symbol
 _atom_site_label
 _atom_site_symmetry_multiplicity
 _atom_site_fract_x
 _atom_site_fract_y
 _atom_site_fract_z
 _atom_site_occupancy
  Na  Na0  1  0.660939  0.339061  0.500000  1
  Na  Na1  1  0.339061  0.660939  0.500000  1
  Na  Na2  1  0.000000  0.000000  0.500000  1
  Ca  Ca3  1  0.500000  0.500000  0.000000  1
  U  U4  1  0.832880  0.167120  0.000000  1
  U  U5  1  0.167120  0.832880  0.000000  1
  Se  Se6  1  0.764951  0.764951  0.232549  1
  Se  Se7  1  0.235049  0.235049  0.767451  1
  Se  Se8  1  0.421809  0.078926  0.231650  1
  Se  Se9  1  0.578191  0.921074  0.768350  1
  Se  Se10  1  0.921074  0.578191  0.768350  1
  Se  Se11  1  0.078926  0.421809  0.231650  1
