# generated using pymatgen
data_TmZr2Mn(Al3Cu)2
_symmetry_space_group_name_H-M   'P 1'
_cell_length_a   8.75841117
_cell_length_b   8.75841151
_cell_length_c   8.75840999
_cell_angle_alpha   35.31151808
_cell_angle_beta   35.31151517
_cell_angle_gamma   35.31151479
_symmetry_Int_Tables_number   1
_chemical_formula_structural   TmZr2Mn(Al3Cu)2
_chemical_formula_sum   'Tm1 Zr2 Mn1 Al6 Cu2'
_cell_volume   200.53476244
_cell_formula_units_Z   1
loop_
 _symmetry_equiv_pos_site_id
 _symmetry_equiv_pos_as_xyz
  1  'x, y, z'
loop_
 _atom_site_type_symbol
 _atom_site_label
 _atom_site_symmetry_multiplicity
 _atom_site_fract_x
 _atom_site_fract_y
 _atom_site_fract_z
 _atom_site_occupancy
  Tm  Tm0  1  0.000000  0.000000  0.000000  1
  Zr  Zr1  1  0.855966  0.855966  0.855966  1
  Zr  Zr2  1  0.144034  0.144034  0.144034  1
  Mn  Mn3  1  0.500000  0.500000  0.500000  1
  Al  Al4  1  0.415659  0.415659  0.915978  1
  Al  Al5  1  0.915978  0.415659  0.415659  1
  Al  Al6  1  0.415659  0.915978  0.415659  1
  Al  Al7  1  0.584341  0.084022  0.584341  1
  Al  Al8  1  0.084022  0.584341  0.584341  1
  Al  Al9  1  0.584341  0.584341  0.084022  1
  Cu  Cu10  1  0.666847  0.666847  0.666847  1
  Cu  Cu11  1  0.333153  0.333153  0.333153  1
