# generated using pymatgen
data_Tm5Th5Ru6
_symmetry_space_group_name_H-M   'P 1'
_cell_length_a   8.26434749
_cell_length_b   8.17115405
_cell_length_c   6.38991600
_cell_angle_alpha   90.00000000
_cell_angle_beta   90.00000000
_cell_angle_gamma   119.62767346
_symmetry_Int_Tables_number   1
_chemical_formula_structural   Tm5Th5Ru6
_chemical_formula_sum   'Tm5 Th5 Ru6'
_cell_volume   375.08953107
_cell_formula_units_Z   1
loop_
 _symmetry_equiv_pos_site_id
 _symmetry_equiv_pos_as_xyz
  1  'x, y, z'
loop_
 _atom_site_type_symbol
 _atom_site_label
 _atom_site_symmetry_multiplicity
 _atom_site_fract_x
 _atom_site_fract_y
 _atom_site_fract_z
 _atom_site_occupancy
  Tm  Tm0  1  0.668517  0.336957  0.501495  1
  Tm  Tm1  1  0.331483  0.668441  0.501495  1
  Tm  Tm2  1  0.331483  0.668441  0.998505  1
  Tm  Tm3  1  0.668517  0.336957  0.998505  1
  Tm  Tm4  1  0.000000  0.741321  0.750000  1
  Th  Th5  1  0.750939  0.749404  0.250000  1
  Th  Th6  1  0.249061  0.998466  0.250000  1
  Th  Th7  1  0.000000  0.252603  0.250000  1
  Th  Th8  1  0.250713  0.246170  0.750000  1
  Th  Th9  1  0.749287  0.995457  0.750000  1
  Ru  Ru10  1  0.377820  0.380241  0.250000  1
  Ru  Ru11  1  0.622180  0.002421  0.250000  1
  Ru  Ru12  1  0.000000  0.617619  0.250000  1
  Ru  Ru13  1  0.604978  0.615120  0.750000  1
  Ru  Ru14  1  0.395022  0.010143  0.750000  1
  Ru  Ru15  1  0.000000  0.380240  0.750000  1
