# generated using pymatgen
data_Tb4BeCo3I2
_symmetry_space_group_name_H-M   'P 1'
_cell_length_a   3.94365000
_cell_length_b   3.94365116
_cell_length_c   16.98678500
_cell_angle_alpha   90.00000000
_cell_angle_beta   90.00000000
_cell_angle_gamma   119.99997350
_symmetry_Int_Tables_number   1
_chemical_formula_structural   Tb4BeCo3I2
_chemical_formula_sum   'Tb4 Be1 Co3 I2'
_cell_volume   228.79092483
_cell_formula_units_Z   1
loop_
 _symmetry_equiv_pos_site_id
 _symmetry_equiv_pos_as_xyz
  1  'x, y, z'
loop_
 _atom_site_type_symbol
 _atom_site_label
 _atom_site_symmetry_multiplicity
 _atom_site_fract_x
 _atom_site_fract_y
 _atom_site_fract_z
 _atom_site_occupancy
  Tb  Tb0  1  0.000000  0.000000  0.101500  1
  Tb  Tb1  1  0.000000  0.000000  0.604236  1
  Tb  Tb2  1  0.000000  0.000000  0.396002  1
  Tb  Tb3  1  0.000000  0.000000  0.897850  1
  Be  Be4  1  0.666667  0.333333  0.999324  1
  Co  Co5  1  0.333333  0.666667  0.001083  1
  Co  Co6  1  0.666667  0.333333  0.501586  1
  Co  Co7  1  0.333333  0.666667  0.498296  1
  I  I8  1  0.666667  0.333333  0.249976  1
  I  I9  1  0.333333  0.666667  0.750147  1
