# generated using pymatgen
data_Tb5Dy3(TmSi3)2
_symmetry_space_group_name_H-M   'P 1'
_cell_length_a   8.44968709
_cell_length_b   8.44968629
_cell_length_c   6.34366100
_cell_angle_alpha   90.00067264
_cell_angle_beta   90.00067331
_cell_angle_gamma   119.98287029
_symmetry_Int_Tables_number   1
_chemical_formula_structural   Tb5Dy3(TmSi3)2
_chemical_formula_sum   'Tb5 Dy3 Tm2 Si6'
_cell_volume   392.30762380
_cell_formula_units_Z   1
loop_
 _symmetry_equiv_pos_site_id
 _symmetry_equiv_pos_as_xyz
  1  'x, y, z'
loop_
 _atom_site_type_symbol
 _atom_site_label
 _atom_site_symmetry_multiplicity
 _atom_site_fract_x
 _atom_site_fract_y
 _atom_site_fract_z
 _atom_site_occupancy
  Tb  Tb0  1  0.244614  0.999971  0.248119  1
  Tb  Tb1  1  0.999971  0.244614  0.248119  1
  Tb  Tb2  1  0.244716  0.244716  0.751879  1
  Tb  Tb3  1  0.755345  0.999940  0.751882  1
  Tb  Tb4  1  0.999940  0.755345  0.751882  1
  Dy  Dy5  1  0.666670  0.333386  0.499979  1
  Dy  Dy6  1  0.333386  0.666670  0.499979  1
  Dy  Dy7  1  0.755275  0.755275  0.248080  1
  Tm  Tm8  1  0.333390  0.666676  0.000031  1
  Tm  Tm9  1  0.666676  0.333390  0.000031  1
  Si  Si10  1  0.394651  0.394651  0.244786  1
  Si  Si11  1  0.605536  0.999882  0.244788  1
  Si  Si12  1  0.999882  0.605536  0.244788  1
  Si  Si13  1  0.605457  0.605457  0.755228  1
  Si  Si14  1  0.394510  0.999982  0.755213  1
  Si  Si15  1  0.999982  0.394510  0.755213  1
