# generated using pymatgen
data_CuSbPtSe2
_symmetry_space_group_name_H-M   'P 1'
_cell_length_a   8.65292333
_cell_length_b   8.65292284
_cell_length_c   6.35060200
_cell_angle_alpha   90.00000000
_cell_angle_beta   90.00000000
_cell_angle_gamma   152.81554902
_symmetry_Int_Tables_number   1
_chemical_formula_structural   CuSbPtSe2
_chemical_formula_sum   'Cu2 Sb2 Pt2 Se4'
_cell_volume   217.23031307
_cell_formula_units_Z   2
loop_
 _symmetry_equiv_pos_site_id
 _symmetry_equiv_pos_as_xyz
  1  'x, y, z'
loop_
 _atom_site_type_symbol
 _atom_site_label
 _atom_site_symmetry_multiplicity
 _atom_site_fract_x
 _atom_site_fract_y
 _atom_site_fract_z
 _atom_site_occupancy
  Cu  Cu0  1  0.948410  0.051590  0.231282  1
  Cu  Cu1  1  0.051590  0.948410  0.731282  1
  Sb  Sb2  1  0.735973  0.264027  0.624081  1
  Sb  Sb3  1  0.264027  0.735973  0.124081  1
  Pt  Pt4  1  0.673660  0.326340  0.242126  1
  Pt  Pt5  1  0.326340  0.673660  0.742126  1
  Se  Se6  1  0.917781  0.082219  0.861683  1
  Se  Se7  1  0.082219  0.917781  0.361683  1
  Se  Se8  1  0.610234  0.389766  0.874828  1
  Se  Se9  1  0.389766  0.610234  0.374828  1
