# generated using pymatgen
data_Tm4Si8Tc5W
_symmetry_space_group_name_H-M   'P 1'
_cell_length_a   6.79329242
_cell_length_b   6.66293203
_cell_length_c   6.78817828
_cell_angle_alpha   70.46246921
_cell_angle_beta   89.99471501
_cell_angle_gamma   89.97065709
_symmetry_Int_Tables_number   1
_chemical_formula_structural   Tm4Si8Tc5W
_chemical_formula_sum   'Tm4 Si8 Tc5 W1'
_cell_volume   289.56400910
_cell_formula_units_Z   1
loop_
 _symmetry_equiv_pos_site_id
 _symmetry_equiv_pos_as_xyz
  1  'x, y, z'
loop_
 _atom_site_type_symbol
 _atom_site_label
 _atom_site_symmetry_multiplicity
 _atom_site_fract_x
 _atom_site_fract_y
 _atom_site_fract_z
 _atom_site_occupancy
  Tm  Tm0  1  0.331135  0.559496  0.807209  1
  Tm  Tm1  1  0.831603  0.942086  0.190074  1
  Tm  Tm2  1  0.667996  0.440140  0.191527  1
  Tm  Tm3  1  0.169343  0.060116  0.805621  1
  Si  Si4  1  0.546080  0.872600  0.903591  1
  Si  Si5  1  0.048624  0.622179  0.102855  1
  Si  Si6  1  0.450477  0.123453  0.101004  1
  Si  Si7  1  0.956477  0.376125  0.903155  1
  Si  Si8  1  0.140449  0.867205  0.488068  1
  Si  Si9  1  0.637745  0.636606  0.508602  1
  Si  Si10  1  0.862748  0.129252  0.507648  1
  Si  Si11  1  0.359531  0.371048  0.487402  1
  Tc  Tc12  1  0.499548  0.001187  0.501671  1
  Tc  Tc13  1  0.999247  0.501747  0.500298  1
  Tc  Tc14  1  0.843859  0.754452  0.767666  1
  Tc  Tc15  1  0.345972  0.743547  0.234294  1
  Tc  Tc16  1  0.151765  0.242153  0.239228  1
  W  W17  1  0.657403  0.256605  0.760083  1
