# generated using pymatgen
data_Hf6Ti3Nb(GaGe2)2
_symmetry_space_group_name_H-M   'P 1'
_cell_length_a   7.88083260
_cell_length_b   7.88083393
_cell_length_c   5.38123134
_cell_angle_alpha   90.02031888
_cell_angle_beta   90.02031295
_cell_angle_gamma   120.01974512
_symmetry_Int_Tables_number   1
_chemical_formula_structural   Hf6Ti3Nb(GaGe2)2
_chemical_formula_sum   'Hf6 Ti3 Nb1 Ga2 Ge4'
_cell_volume   289.38100432
_cell_formula_units_Z   1
loop_
 _symmetry_equiv_pos_site_id
 _symmetry_equiv_pos_as_xyz
  1  'x, y, z'
loop_
 _atom_site_type_symbol
 _atom_site_label
 _atom_site_symmetry_multiplicity
 _atom_site_fract_x
 _atom_site_fract_y
 _atom_site_fract_z
 _atom_site_occupancy
  Hf  Hf0  1  0.249749  0.000238  0.248716  1
  Hf  Hf1  1  0.749114  0.997805  0.751625  1
  Hf  Hf2  1  0.002195  0.250886  0.248375  1
  Hf  Hf3  1  0.999762  0.750251  0.751284  1
  Hf  Hf4  1  0.753303  0.754190  0.248543  1
  Hf  Hf5  1  0.245810  0.246697  0.751457  1
  Ti  Ti6  1  0.668143  0.331857  0.000000  1
  Ti  Ti7  1  0.668168  0.331832  0.500000  1
  Ti  Ti8  1  0.331989  0.668011  0.500000  1
  Nb  Nb9  1  0.331864  0.668136  0.000000  1
  Ga  Ga10  1  0.400959  0.398907  0.251820  1
  Ga  Ga11  1  0.601093  0.599041  0.748180  1
  Ge  Ge12  1  0.605944  0.001631  0.251713  1
  Ge  Ge13  1  0.396233  0.002696  0.748199  1
  Ge  Ge14  1  0.997304  0.603767  0.251801  1
  Ge  Ge15  1  0.998369  0.394056  0.748287  1
