# generated using pymatgen
data_DyYNb2(SnPt)4
_symmetry_space_group_name_H-M   'P 1'
_cell_length_a   6.46876201
_cell_length_b   4.55735500
_cell_length_c   9.12465702
_cell_angle_alpha   90.00000000
_cell_angle_beta   89.99297356
_cell_angle_gamma   90.00000000
_symmetry_Int_Tables_number   1
_chemical_formula_structural   DyYNb2(SnPt)4
_chemical_formula_sum   'Dy1 Y1 Nb2 Sn4 Pt4'
_cell_volume   268.99894640
_cell_formula_units_Z   1
loop_
 _symmetry_equiv_pos_site_id
 _symmetry_equiv_pos_as_xyz
  1  'x, y, z'
loop_
 _atom_site_type_symbol
 _atom_site_label
 _atom_site_symmetry_multiplicity
 _atom_site_fract_x
 _atom_site_fract_y
 _atom_site_fract_z
 _atom_site_occupancy
  Dy  Dy0  1  0.003779  0.000000  0.375919  1
  Y  Y1  1  0.503746  0.499999  0.624042  1
  Nb  Nb2  1  0.497170  0.499999  0.123303  1
  Nb  Nb3  1  0.997215  0.000000  0.876717  1
  Sn  Sn4  1  0.985490  0.499999  0.124371  1
  Sn  Sn5  1  0.510550  0.000000  0.372135  1
  Sn  Sn6  1  0.010540  0.499999  0.627784  1
  Sn  Sn7  1  0.485527  0.000000  0.875732  1
  Pt  Pt8  1  0.736479  0.000000  0.111865  1
  Pt  Pt9  1  0.266128  0.499999  0.356870  1
  Pt  Pt10  1  0.767236  0.000000  0.642850  1
  Pt  Pt11  1  0.236134  0.499999  0.888404  1
