# generated using pymatgen
data_YScP7(Ru5Rh)2
_symmetry_space_group_name_H-M   'P 1'
_cell_length_a   9.39317038
_cell_length_b   9.46639771
_cell_length_c   3.92527900
_cell_angle_alpha   90.00000000
_cell_angle_beta   90.00000000
_cell_angle_gamma   120.15901444
_symmetry_Int_Tables_number   1
_chemical_formula_structural   YScP7(Ru5Rh)2
_chemical_formula_sum   'Y1 Sc1 P7 Ru10 Rh2'
_cell_volume   301.78662701
_cell_formula_units_Z   1
loop_
 _symmetry_equiv_pos_site_id
 _symmetry_equiv_pos_as_xyz
  1  'x, y, z'
loop_
 _atom_site_type_symbol
 _atom_site_label
 _atom_site_symmetry_multiplicity
 _atom_site_fract_x
 _atom_site_fract_y
 _atom_site_fract_z
 _atom_site_occupancy
  Y  Y0  1  0.329613  0.665102  0.000000  1
  Sc  Sc1  1  0.668960  0.333247  0.500000  1
  P  P2  1  0.601329  0.716050  0.500000  1
  P  P3  1  0.000306  0.002162  0.000000  1
  P  P4  1  0.278726  0.880902  0.500000  1
  P  P5  1  0.113728  0.401573  0.500000  1
  P  P6  1  0.882641  0.574212  0.000000  1
  P  P7  1  0.427091  0.303225  0.000000  1
  P  P8  1  0.696905  0.120396  0.000000  1
  Ru  Ru9  1  0.913755  0.125424  0.500000  1
  Ru  Ru10  1  0.214169  0.088308  0.500000  1
  Ru  Ru11  1  0.876009  0.791420  0.500000  1
  Ru  Ru12  1  0.724555  0.889692  0.000000  1
  Ru  Ru13  1  0.109200  0.838566  0.000000  1
  Ru  Ru14  1  0.166598  0.274407  0.000000  1
  Ru  Ru15  1  0.432329  0.067752  0.000000  1
  Ru  Ru16  1  0.932645  0.361047  0.000000  1
  Ru  Ru17  1  0.638560  0.568634  0.000000  1
  Ru  Ru18  1  0.047728  0.607828  0.500000  1
  Rh  Rh19  1  0.552591  0.945047  0.500000  1
  Rh  Rh20  1  0.392563  0.445005  0.500000  1
