# generated using pymatgen
data_Tb4Fe4P12Ru5Rh11
_symmetry_space_group_name_H-M   'P 1'
_cell_length_a   3.85643500
_cell_length_b   10.73216266
_cell_length_c   12.39167276
_cell_angle_alpha   90.04009780
_cell_angle_beta   90.00000000
_cell_angle_gamma   90.00000000
_symmetry_Int_Tables_number   1
_chemical_formula_structural   Tb4Fe4P12Ru5Rh11
_chemical_formula_sum   'Tb4 Fe4 P12 Ru5 Rh11'
_cell_volume   512.86503491
_cell_formula_units_Z   1
loop_
 _symmetry_equiv_pos_site_id
 _symmetry_equiv_pos_as_xyz
  1  'x, y, z'
loop_
 _atom_site_type_symbol
 _atom_site_label
 _atom_site_symmetry_multiplicity
 _atom_site_fract_x
 _atom_site_fract_y
 _atom_site_fract_z
 _atom_site_occupancy
  Tb  Tb0  1  0.250000  0.583097  0.707577  1
  Tb  Tb1  1  0.250000  0.916505  0.208726  1
  Tb  Tb2  1  0.750000  0.416384  0.292592  1
  Tb  Tb3  1  0.750000  0.084000  0.791361  1
  Fe  Fe4  1  0.250000  0.462802  0.934712  1
  Fe  Fe5  1  0.250000  0.036951  0.434679  1
  Fe  Fe6  1  0.750000  0.537256  0.065193  1
  Fe  Fe7  1  0.750000  0.962638  0.564712  1
  P  P8  1  0.250000  0.427454  0.106037  1
  P  P9  1  0.250000  0.072098  0.605781  1
  P  P10  1  0.750000  0.572233  0.893976  1
  P  P11  1  0.750000  0.927722  0.393531  1
  P  P12  1  0.250000  0.271484  0.871321  1
  P  P13  1  0.250000  0.230901  0.373998  1
  P  P14  1  0.750000  0.728637  0.128573  1
  P  P15  1  0.750000  0.771666  0.628271  1
  P  P16  1  0.250000  0.598305  0.392007  1
  P  P17  1  0.250000  0.898193  0.890667  1
  P  P18  1  0.750000  0.399091  0.605633  1
  P  P19  1  0.750000  0.102302  0.109586  1
  Ru  Ru20  1  0.250000  0.712401  0.989477  1
  Ru  Ru21  1  0.250000  0.787484  0.488963  1
  Ru  Ru22  1  0.750000  0.287343  0.009812  1
  Ru  Ru23  1  0.750000  0.210825  0.511234  1
  Ru  Ru24  1  0.250000  0.406401  0.487342  1
  Rh  Rh25  1  0.250000  0.093152  0.984562  1
  Rh  Rh26  1  0.750000  0.595403  0.515578  1
  Rh  Rh27  1  0.750000  0.906917  0.015392  1
  Rh  Rh28  1  0.250000  0.231015  0.176990  1
  Rh  Rh29  1  0.250000  0.267746  0.677152  1
  Rh  Rh30  1  0.750000  0.768966  0.823194  1
  Rh  Rh31  1  0.750000  0.731408  0.322763  1
  Rh  Rh32  1  0.250000  0.885426  0.701237  1
  Rh  Rh33  1  0.250000  0.614640  0.201611  1
  Rh  Rh34  1  0.750000  0.114815  0.298646  1
  Rh  Rh35  1  0.750000  0.386338  0.797116  1
