# generated using pymatgen
data_Dy4Zr3IrF28
_symmetry_space_group_name_H-M   'P 1'
_cell_length_a   5.69253858
_cell_length_b   9.06102228
_cell_length_c   12.19392310
_cell_angle_alpha   62.43956615
_cell_angle_beta   90.36945105
_cell_angle_gamma   90.16982874
_symmetry_Int_Tables_number   1
_chemical_formula_structural   Dy4Zr3IrF28
_chemical_formula_sum   'Dy4 Zr3 Ir1 F28'
_cell_volume   557.58073424
_cell_formula_units_Z   1
loop_
 _symmetry_equiv_pos_site_id
 _symmetry_equiv_pos_as_xyz
  1  'x, y, z'
loop_
 _atom_site_type_symbol
 _atom_site_label
 _atom_site_symmetry_multiplicity
 _atom_site_fract_x
 _atom_site_fract_y
 _atom_site_fract_z
 _atom_site_occupancy
  Dy  Dy0  1  0.756823  0.816112  0.766021  1
  Dy  Dy1  1  0.255892  0.185514  0.729748  1
  Dy  Dy2  1  0.243078  0.185240  0.238925  1
  Dy  Dy3  1  0.743794  0.815638  0.267192  1
  Zr  Zr4  1  0.756018  0.273406  0.955978  1
  Zr  Zr5  1  0.255238  0.725626  0.544055  1
  Zr  Zr6  1  0.244285  0.725855  0.045526  1
  Ir  Ir7  1  0.741987  0.272443  0.455365  1
  F  F8  1  0.461773  0.709079  0.919915  1
  F  F9  1  0.945976  0.292031  0.580706  1
  F  F10  1  0.536190  0.289385  0.081010  1
  F  F11  1  0.037428  0.709980  0.417622  1
  F  F12  1  0.453683  0.279210  0.543528  1
  F  F13  1  0.945187  0.724759  0.950816  1
  F  F14  1  0.552800  0.719575  0.451818  1
  F  F15  1  0.052585  0.274812  0.051971  1
  F  F16  1  0.775248  0.526186  0.859218  1
  F  F17  1  0.269435  0.473090  0.639478  1
  F  F18  1  0.221923  0.473462  0.143055  1
  F  F19  1  0.732035  0.514331  0.360114  1
  F  F20  1  0.757678  0.021148  0.059512  1
  F  F21  1  0.261556  0.977627  0.443479  1
  F  F22  1  0.242343  0.977194  0.939461  1
  F  F23  1  0.741057  0.030568  0.547812  1
  F  F24  1  0.977459  0.734653  0.645786  1
  F  F25  1  0.482225  0.267132  0.849561  1
  F  F26  1  0.022321  0.269318  0.362536  1
  F  F27  1  0.520800  0.730680  0.150569  1
  F  F28  1  0.037637  0.748272  0.174452  1
  F  F29  1  0.544604  0.257526  0.325722  1
  F  F30  1  0.967015  0.252033  0.827360  1
  F  F31  1  0.465354  0.747241  0.673406  1
  F  F32  1  0.425716  0.973282  0.236464  1
  F  F33  1  0.925799  0.027894  0.268106  1
  F  F34  1  0.572324  0.027851  0.762978  1
  F  F35  1  0.074735  0.971847  0.730734  1
