# generated using pymatgen
data_EuAg(CO3)2
_symmetry_space_group_name_H-M   'P 1'
_cell_length_a   6.60991961
_cell_length_b   6.60415142
_cell_length_c   6.62291900
_cell_angle_alpha   46.38367113
_cell_angle_beta   46.60619207
_cell_angle_gamma   46.48768330
_symmetry_Int_Tables_number   1
_chemical_formula_structural   EuAg(CO3)2
_chemical_formula_sum   'Eu1 Ag1 C2 O6'
_cell_volume   138.86455527
_cell_formula_units_Z   1
loop_
 _symmetry_equiv_pos_site_id
 _symmetry_equiv_pos_as_xyz
  1  'x, y, z'
loop_
 _atom_site_type_symbol
 _atom_site_label
 _atom_site_symmetry_multiplicity
 _atom_site_fract_x
 _atom_site_fract_y
 _atom_site_fract_z
 _atom_site_occupancy
  Eu  Eu0  1  0.999998  0.999998  0.999999  1
  Ag  Ag1  1  0.499985  0.499993  0.500009  1
  C  C2  1  0.253676  0.251503  0.253232  1
  C  C3  1  0.746327  0.748499  0.746767  1
  O  O4  1  0.757280  0.493000  0.989459  1
  O  O5  1  0.508001  0.007632  0.243097  1
  O  O6  1  0.012004  0.240840  0.507340  1
  O  O7  1  0.987998  0.759172  0.492656  1
  O  O8  1  0.491998  0.992365  0.756907  1
  O  O9  1  0.242732  0.506999  0.010535  1
