# generated using pymatgen
data_Tb17Sm(YSn8)2
_symmetry_space_group_name_H-M   'P 1'
_cell_length_a   8.07881309
_cell_length_b   8.22232171
_cell_length_c   15.54740001
_cell_angle_alpha   90.00777166
_cell_angle_beta   89.88006840
_cell_angle_gamma   89.94479684
_symmetry_Int_Tables_number   1
_chemical_formula_structural   Tb17Sm(YSn8)2
_chemical_formula_sum   'Tb17 Sm1 Y2 Sn16'
_cell_volume   1032.75817292
_cell_formula_units_Z   1
loop_
 _symmetry_equiv_pos_site_id
 _symmetry_equiv_pos_as_xyz
  1  'x, y, z'
loop_
 _atom_site_type_symbol
 _atom_site_label
 _atom_site_symmetry_multiplicity
 _atom_site_fract_x
 _atom_site_fract_y
 _atom_site_fract_z
 _atom_site_occupancy
  Tb  Tb0  1  0.366453  0.836342  0.877755  1
  Tb  Tb1  1  0.867133  0.663785  0.621624  1
  Tb  Tb2  1  0.632947  0.163308  0.378023  1
  Tb  Tb3  1  0.133835  0.336752  0.122374  1
  Tb  Tb4  1  0.633863  0.163455  0.122334  1
  Tb  Tb5  1  0.132899  0.336520  0.377972  1
  Tb  Tb6  1  0.367103  0.836393  0.621748  1
  Tb  Tb7  1  0.866649  0.663399  0.877842  1
  Tb  Tb8  1  0.520060  0.322147  0.902546  1
  Tb  Tb9  1  0.020750  0.178458  0.597795  1
  Tb  Tb10  1  0.479727  0.678339  0.402468  1
  Tb  Tb11  1  0.980309  0.821161  0.097712  1
  Tb  Tb12  1  0.480281  0.678561  0.097541  1
  Tb  Tb13  1  0.979631  0.821693  0.402433  1
  Tb  Tb14  1  0.520181  0.321817  0.596928  1
  Tb  Tb15  1  0.198825  0.501997  0.749638  1
  Tb  Tb16  1  0.698591  0.997668  0.749420  1
  Sm  Sm17  1  0.018189  0.179107  0.903298  1
  Y  Y18  1  0.801246  0.498168  0.250185  1
  Y  Y19  1  0.301407  0.001860  0.250222  1
  Sn  Sn20  1  0.295289  0.035036  0.042740  1
  Sn  Sn21  1  0.793060  0.464129  0.458036  1
  Sn  Sn22  1  0.707250  0.964527  0.541649  1
  Sn  Sn23  1  0.207244  0.537415  0.958693  1
  Sn  Sn24  1  0.703959  0.961700  0.958904  1
  Sn  Sn25  1  0.206850  0.535844  0.541574  1
  Sn  Sn26  1  0.293013  0.035810  0.458106  1
  Sn  Sn27  1  0.793482  0.464015  0.041928  1
  Sn  Sn28  1  0.564862  0.618659  0.749886  1
  Sn  Sn29  1  0.065175  0.880634  0.749852  1
  Sn  Sn30  1  0.435398  0.381653  0.250120  1
  Sn  Sn31  1  0.935312  0.118618  0.250115  1
  Sn  Sn32  1  0.330536  0.146663  0.749577  1
  Sn  Sn33  1  0.827906  0.354337  0.748895  1
  Sn  Sn34  1  0.670309  0.853152  0.249994  1
  Sn  Sn35  1  0.170275  0.646879  0.250071  1
