# generated using pymatgen
data_Er9Hf(IrRh2)2
_symmetry_space_group_name_H-M   'P 1'
_cell_length_a   10.78481800
_cell_length_b   10.78481800
_cell_length_c   6.27651500
_cell_angle_alpha   90.00000000
_cell_angle_beta   90.00000000
_cell_angle_gamma   90.00000000
_symmetry_Int_Tables_number   1
_chemical_formula_structural   Er9Hf(IrRh2)2
_chemical_formula_sum   'Er18 Hf2 Ir4 Rh8'
_cell_volume   730.03589120
_cell_formula_units_Z   2
loop_
 _symmetry_equiv_pos_site_id
 _symmetry_equiv_pos_as_xyz
  1  'x, y, z'
loop_
 _atom_site_type_symbol
 _atom_site_label
 _atom_site_symmetry_multiplicity
 _atom_site_fract_x
 _atom_site_fract_y
 _atom_site_fract_z
 _atom_site_occupancy
  Er  Er0  1  0.292693  0.089295  0.376232  1
  Er  Er1  1  0.292693  0.910705  0.876232  1
  Er  Er2  1  0.707307  0.089295  0.876232  1
  Er  Er3  1  0.707307  0.910705  0.376232  1
  Er  Er4  1  0.585819  0.787987  0.877410  1
  Er  Er5  1  0.585819  0.212013  0.377410  1
  Er  Er6  1  0.414181  0.787987  0.377410  1
  Er  Er7  1  0.414181  0.212013  0.877410  1
  Er  Er8  1  0.212013  0.414181  0.622590  1
  Er  Er9  1  0.212013  0.585819  0.122590  1
  Er  Er10  1  0.787987  0.414181  0.122590  1
  Er  Er11  1  0.787987  0.585819  0.622590  1
  Er  Er12  1  0.910705  0.707307  0.123768  1
  Er  Er13  1  0.910705  0.292693  0.623768  1
  Er  Er14  1  0.089295  0.707307  0.623768  1
  Er  Er15  1  0.089295  0.292693  0.123768  1
  Er  Er16  1  0.000000  0.000000  0.500000  1
  Er  Er17  1  0.000000  0.000000  0.000000  1
  Hf  Hf18  1  0.500000  0.500000  0.000000  1
  Hf  Hf19  1  0.500000  0.500000  0.500000  1
  Ir  Ir20  1  0.644131  0.355869  0.750000  1
  Ir  Ir21  1  0.644131  0.644131  0.250000  1
  Ir  Ir22  1  0.355869  0.355869  0.250000  1
  Ir  Ir23  1  0.355869  0.644131  0.750000  1
  Rh  Rh24  1  0.845542  0.154458  0.250000  1
  Rh  Rh25  1  0.845542  0.845542  0.750000  1
  Rh  Rh26  1  0.154458  0.154458  0.750000  1
  Rh  Rh27  1  0.154458  0.845542  0.250000  1
  Rh  Rh28  1  0.500000  0.000000  0.123224  1
  Rh  Rh29  1  0.500000  0.000000  0.623224  1
  Rh  Rh30  1  0.000000  0.500000  0.876776  1
  Rh  Rh31  1  0.000000  0.500000  0.376776  1
