# generated using pymatgen
data_Sc2MnFe3(SiC)2
_symmetry_space_group_name_H-M   'P 1'
_cell_length_a   5.45277306
_cell_length_b   5.45277322
_cell_length_c   6.74023162
_cell_angle_alpha   89.27698181
_cell_angle_beta   90.72301610
_cell_angle_gamma   141.70349027
_symmetry_Int_Tables_number   1
_chemical_formula_structural   Sc2MnFe3(SiC)2
_chemical_formula_sum   'Sc2 Mn1 Fe3 Si2 C2'
_cell_volume   124.18647776
_cell_formula_units_Z   1
loop_
 _symmetry_equiv_pos_site_id
 _symmetry_equiv_pos_as_xyz
  1  'x, y, z'
loop_
 _atom_site_type_symbol
 _atom_site_label
 _atom_site_symmetry_multiplicity
 _atom_site_fract_x
 _atom_site_fract_y
 _atom_site_fract_z
 _atom_site_occupancy
  Sc  Sc0  1  0.543226  0.456774  0.252256  1
  Sc  Sc1  1  0.457173  0.542827  0.748129  1
  Mn  Mn2  1  0.832471  0.167529  0.057971  1
  Fe  Fe3  1  0.172505  0.827495  0.943514  1
  Fe  Fe4  1  0.163309  0.836691  0.560780  1
  Fe  Fe5  1  0.833722  0.166278  0.437389  1
  Si  Si6  1  0.263510  0.736490  0.262383  1
  Si  Si7  1  0.733418  0.266582  0.739034  1
  C  C8  1  0.002018  0.997982  0.999084  1
  C  C9  1  0.998648  0.001352  0.499458  1
