# generated using pymatgen
data_Dy3In2GaRh3
_symmetry_space_group_name_H-M   'P 1'
_cell_length_a   7.45431176
_cell_length_b   7.51167169
_cell_length_c   3.86868900
_cell_angle_alpha   90.00000000
_cell_angle_beta   90.00000000
_cell_angle_gamma   120.25486977
_symmetry_Int_Tables_number   1
_chemical_formula_structural   Dy3In2GaRh3
_chemical_formula_sum   'Dy3 In2 Ga1 Rh3'
_cell_volume   187.11882882
_cell_formula_units_Z   1
loop_
 _symmetry_equiv_pos_site_id
 _symmetry_equiv_pos_as_xyz
  1  'x, y, z'
loop_
 _atom_site_type_symbol
 _atom_site_label
 _atom_site_symmetry_multiplicity
 _atom_site_fract_x
 _atom_site_fract_y
 _atom_site_fract_z
 _atom_site_occupancy
  Dy  Dy0  1  0.000000  0.571764  0.500000  1
  Dy  Dy1  1  0.602262  0.008875  0.500000  1
  Dy  Dy2  1  0.397738  0.406613  0.500000  1
  In  In3  1  0.251284  0.993603  0.000000  1
  In  In4  1  0.748716  0.742319  0.000000  1
  Ga  Ga5  1  0.000000  0.260825  0.000000  1
  Rh  Rh6  1  0.000000  0.027906  0.500000  1
  Rh  Rh7  1  0.670942  0.329518  0.000000  1
  Rh  Rh8  1  0.329058  0.658577  0.000000  1
