# generated using pymatgen
data_TaTi3Al2CN
_symmetry_space_group_name_H-M   'P 1'
_cell_length_a   3.04478700
_cell_length_b   3.04478784
_cell_length_c   13.69255100
_cell_angle_alpha   90.00000000
_cell_angle_beta   90.00000000
_cell_angle_gamma   120.00002342
_symmetry_Int_Tables_number   1
_chemical_formula_structural   TaTi3Al2CN
_chemical_formula_sum   'Ta1 Ti3 Al2 C1 N1'
_cell_volume   109.93319503
_cell_formula_units_Z   1
loop_
 _symmetry_equiv_pos_site_id
 _symmetry_equiv_pos_as_xyz
  1  'x, y, z'
loop_
 _atom_site_type_symbol
 _atom_site_label
 _atom_site_symmetry_multiplicity
 _atom_site_fract_x
 _atom_site_fract_y
 _atom_site_fract_z
 _atom_site_occupancy
  Ta  Ta0  1  0.333333  0.666667  0.089753  1
  Ti  Ti1  1  0.333333  0.666667  0.416472  1
  Ti  Ti2  1  0.666667  0.333333  0.583922  1
  Ti  Ti3  1  0.666667  0.333333  0.911503  1
  Al  Al4  1  0.333333  0.666667  0.746844  1
  Al  Al5  1  0.666667  0.333333  0.255012  1
  C  C6  1  0.000000  0.000000  0.995823  1
  N  N7  1  0.000000  0.000000  0.500671  1
