# generated using pymatgen
data_Sc12GaTcNi4
_symmetry_space_group_name_H-M   'P 1'
_cell_length_a   7.70970403
_cell_length_b   7.70970384
_cell_length_c   7.70970379
_cell_angle_alpha   111.08368363
_cell_angle_beta   110.17728410
_cell_angle_gamma   107.17808577
_symmetry_Int_Tables_number   1
_chemical_formula_structural   Sc12GaTcNi4
_chemical_formula_sum   'Sc12 Ga1 Tc1 Ni4'
_cell_volume   352.32497808
_cell_formula_units_Z   1
loop_
 _symmetry_equiv_pos_site_id
 _symmetry_equiv_pos_as_xyz
  1  'x, y, z'
loop_
 _atom_site_type_symbol
 _atom_site_label
 _atom_site_symmetry_multiplicity
 _atom_site_fract_x
 _atom_site_fract_y
 _atom_site_fract_z
 _atom_site_occupancy
  Sc  Sc0  1  0.425714  0.233128  0.192585  1
  Sc  Sc1  1  0.574286  0.766872  0.807415  1
  Sc  Sc2  1  0.040543  0.233128  0.807415  1
  Sc  Sc3  1  0.959457  0.766872  0.192585  1
  Sc  Sc4  1  0.182143  0.274868  0.457011  1
  Sc  Sc5  1  0.817857  0.725132  0.542989  1
  Sc  Sc6  1  0.182143  0.725132  0.907275  1
  Sc  Sc7  1  0.817857  0.274868  0.092725  1
  Sc  Sc8  1  0.323251  0.620006  0.296755  1
  Sc  Sc9  1  0.676749  0.379994  0.703245  1
  Sc  Sc10  1  0.323251  0.026496  0.703245  1
  Sc  Sc11  1  0.676749  0.973504  0.296755  1
  Ga  Ga12  1  0.500000  0.500000  0.000000  1
  Tc  Tc13  1  0.000000  0.000000  0.000000  1
  Ni  Ni14  1  0.353567  0.000000  0.353567  1
  Ni  Ni15  1  0.646433  0.000000  0.646433  1
  Ni  Ni16  1  0.125893  0.625893  0.500000  1
  Ni  Ni17  1  0.874107  0.374107  0.500000  1
