# generated using pymatgen
data_Y2Tm2AlCo
_symmetry_space_group_name_H-M   'P 1'
_cell_length_a   9.32776871
_cell_length_b   9.32743933
_cell_length_c   9.33799000
_cell_angle_alpha   59.96129068
_cell_angle_beta   59.96253157
_cell_angle_gamma   60.06398064
_symmetry_Int_Tables_number   1
_chemical_formula_structural   Y2Tm2AlCo
_chemical_formula_sum   'Y8 Tm8 Al4 Co4'
_cell_volume   574.43071338
_cell_formula_units_Z   4
loop_
 _symmetry_equiv_pos_site_id
 _symmetry_equiv_pos_as_xyz
  1  'x, y, z'
loop_
 _atom_site_type_symbol
 _atom_site_label
 _atom_site_symmetry_multiplicity
 _atom_site_fract_x
 _atom_site_fract_y
 _atom_site_fract_z
 _atom_site_occupancy
  Y  Y0  1  0.440941  0.440911  0.059396  1
  Y  Y1  1  0.059356  0.058831  0.440826  1
  Y  Y2  1  0.189429  0.810632  0.810509  1
  Y  Y3  1  0.810477  0.189511  0.189501  1
  Y  Y4  1  0.810646  0.189395  0.810548  1
  Y  Y5  1  0.189530  0.810473  0.189514  1
  Y  Y6  1  0.810429  0.810485  0.189535  1
  Y  Y7  1  0.189573  0.189564  0.810346  1
  Tm  Tm8  1  0.599245  0.599476  0.599038  1
  Tm  Tm9  1  0.599125  0.599339  0.202402  1
  Tm  Tm10  1  0.598910  0.202279  0.599268  1
  Tm  Tm11  1  0.202328  0.599030  0.599193  1
  Tm  Tm12  1  0.057461  0.442728  0.442829  1
  Tm  Tm13  1  0.442780  0.057156  0.057241  1
  Tm  Tm14  1  0.442686  0.057351  0.442794  1
  Tm  Tm15  1  0.057261  0.442819  0.057061  1
  Al  Al16  1  0.827511  0.827542  0.827345  1
  Al  Al17  1  0.827497  0.827526  0.517594  1
  Al  Al18  1  0.827322  0.517591  0.827518  1
  Al  Al19  1  0.517579  0.827333  0.827516  1
  Co  Co20  1  0.389528  0.389577  0.394453  1
  Co  Co21  1  0.389526  0.389578  0.826447  1
  Co  Co22  1  0.394399  0.826461  0.389565  1
  Co  Co23  1  0.826459  0.394414  0.389560  1
