# generated using pymatgen
data_Th8Zn8CuRh7
_symmetry_space_group_name_H-M   'P 1'
_cell_length_a   3.98356400
_cell_length_b   7.44446979
_cell_length_c   16.54875462
_cell_angle_alpha   90.78340292
_cell_angle_beta   90.00000000
_cell_angle_gamma   90.00000000
_symmetry_Int_Tables_number   1
_chemical_formula_structural   Th8Zn8CuRh7
_chemical_formula_sum   'Th8 Zn8 Cu1 Rh7'
_cell_volume   490.71608116
_cell_formula_units_Z   1
loop_
 _symmetry_equiv_pos_site_id
 _symmetry_equiv_pos_as_xyz
  1  'x, y, z'
loop_
 _atom_site_type_symbol
 _atom_site_label
 _atom_site_symmetry_multiplicity
 _atom_site_fract_x
 _atom_site_fract_y
 _atom_site_fract_z
 _atom_site_occupancy
  Th  Th0  1  0.250000  0.170334  0.940493  1
  Th  Th1  1  0.250000  0.660956  0.563584  1
  Th  Th2  1  0.750000  0.329892  0.441589  1
  Th  Th3  1  0.750000  0.954637  0.281174  1
  Th  Th4  1  0.750000  0.827887  0.059706  1
  Th  Th5  1  0.750000  0.450288  0.216633  1
  Th  Th6  1  0.250000  0.051489  0.714980  1
  Th  Th7  1  0.250000  0.551665  0.786021  1
  Zn  Zn8  1  0.750000  0.999606  0.557810  1
  Zn  Zn9  1  0.250000  0.629749  0.350466  1
  Zn  Zn10  1  0.750000  0.378075  0.653222  1
  Zn  Zn11  1  0.250000  0.498153  0.059827  1
  Zn  Zn12  1  0.750000  0.500471  0.941100  1
  Zn  Zn13  1  0.250000  0.991053  0.438860  1
  Zn  Zn14  1  0.250000  0.120498  0.151566  1
  Zn  Zn15  1  0.750000  0.880920  0.847779  1
  Cu  Cu16  1  0.750000  0.754058  0.433327  1
  Rh  Rh17  1  0.250000  0.248143  0.316104  1
  Rh  Rh18  1  0.750000  0.254172  0.814421  1
  Rh  Rh19  1  0.750000  0.755605  0.682011  1
  Rh  Rh20  1  0.250000  0.246968  0.563182  1
  Rh  Rh21  1  0.250000  0.745871  0.186334  1
  Rh  Rh22  1  0.750000  0.247404  0.062885  1
  Rh  Rh23  1  0.250000  0.752108  0.936927  1
