# generated using pymatgen
data_Gd9Mg(Ni2Au)2
_symmetry_space_group_name_H-M   'P 1'
_cell_length_a   8.55323611
_cell_length_b   8.55323709
_cell_length_c   8.55323600
_cell_angle_alpha   126.81652533
_cell_angle_beta   126.81653023
_cell_angle_gamma   78.55021916
_symmetry_Int_Tables_number   1
_chemical_formula_structural   Gd9Mg(Ni2Au)2
_chemical_formula_sum   'Gd9 Mg1 Ni4 Au2'
_cell_volume   388.23587266
_cell_formula_units_Z   1
loop_
 _symmetry_equiv_pos_site_id
 _symmetry_equiv_pos_as_xyz
  1  'x, y, z'
loop_
 _atom_site_type_symbol
 _atom_site_label
 _atom_site_symmetry_multiplicity
 _atom_site_fract_x
 _atom_site_fract_y
 _atom_site_fract_z
 _atom_site_occupancy
  Gd  Gd0  1  0.500000  0.500000  0.000000  1
  Gd  Gd1  1  0.812321  0.285729  0.831965  1
  Gd  Gd2  1  0.187679  0.714271  0.168035  1
  Gd  Gd3  1  0.455710  0.982742  0.169338  1
  Gd  Gd4  1  0.286065  0.455541  0.473134  1
  Gd  Gd5  1  0.017668  0.186565  0.472480  1
  Gd  Gd6  1  0.544290  0.017258  0.830662  1
  Gd  Gd7  1  0.713935  0.544459  0.526866  1
  Gd  Gd8  1  0.982332  0.813435  0.527520  1
  Mg  Mg9  1  0.000000  0.000000  0.000000  1
  Ni  Ni10  1  0.130407  0.623295  0.754425  1
  Ni  Ni11  1  0.869593  0.376705  0.245575  1
  Ni  Ni12  1  0.623649  0.868662  0.492627  1
  Ni  Ni13  1  0.376351  0.131338  0.507373  1
  Au  Au14  1  0.253588  0.255594  0.000307  1
  Au  Au15  1  0.746412  0.744406  0.999693  1
