# generated using pymatgen
data_Ho7Tm13Pt16
_symmetry_space_group_name_H-M   'P 1'
_cell_length_a   7.42592812
_cell_length_b   7.50110215
_cell_length_c   14.60320512
_cell_angle_alpha   90.00111738
_cell_angle_beta   89.98796511
_cell_angle_gamma   89.97749046
_symmetry_Int_Tables_number   1
_chemical_formula_structural   Ho7Tm13Pt16
_chemical_formula_sum   'Ho7 Tm13 Pt16'
_cell_volume   813.43707565
_cell_formula_units_Z   1
loop_
 _symmetry_equiv_pos_site_id
 _symmetry_equiv_pos_as_xyz
  1  'x, y, z'
loop_
 _atom_site_type_symbol
 _atom_site_label
 _atom_site_symmetry_multiplicity
 _atom_site_fract_x
 _atom_site_fract_y
 _atom_site_fract_z
 _atom_site_occupancy
  Ho  Ho0  1  0.498472  0.679500  0.093091  1
  Ho  Ho1  1  0.501720  0.320414  0.592990  1
  Ho  Ho2  1  0.001555  0.179536  0.907007  1
  Ho  Ho3  1  0.001313  0.178809  0.592749  1
  Ho  Ho4  1  0.501633  0.320566  0.906994  1
  Ho  Ho5  1  0.498389  0.679724  0.407051  1
  Ho  Ho6  1  0.998540  0.820389  0.092902  1
  Tm  Tm7  1  0.681105  0.989619  0.250275  1
  Tm  Tm8  1  0.181049  0.510541  0.250285  1
  Tm  Tm9  1  0.818975  0.489547  0.749894  1
  Tm  Tm10  1  0.318954  0.010363  0.749958  1
  Tm  Tm11  1  0.656169  0.832716  0.622340  1
  Tm  Tm12  1  0.156127  0.667441  0.877523  1
  Tm  Tm13  1  0.843919  0.332458  0.377635  1
  Tm  Tm14  1  0.343789  0.167459  0.122561  1
  Tm  Tm15  1  0.343341  0.167196  0.377796  1
  Tm  Tm16  1  0.843934  0.332446  0.122580  1
  Tm  Tm17  1  0.155604  0.667875  0.622158  1
  Tm  Tm18  1  0.656093  0.832446  0.877607  1
  Tm  Tm19  1  0.997656  0.819656  0.406823  1
  Pt  Pt20  1  0.817769  0.643050  0.250967  1
  Pt  Pt21  1  0.316238  0.857626  0.250417  1
  Pt  Pt22  1  0.683256  0.142421  0.749864  1
  Pt  Pt23  1  0.183285  0.357690  0.749828  1
  Pt  Pt24  1  0.546534  0.385003  0.250117  1
  Pt  Pt25  1  0.045950  0.114579  0.250471  1
  Pt  Pt26  1  0.953803  0.884698  0.749963  1
  Pt  Pt27  1  0.453739  0.615325  0.749885  1
  Pt  Pt28  1  0.817518  0.534502  0.541543  1
  Pt  Pt29  1  0.317311  0.966357  0.958076  1
  Pt  Pt30  1  0.684613  0.032272  0.457678  1
  Pt  Pt31  1  0.182551  0.466522  0.042018  1
  Pt  Pt32  1  0.182101  0.468048  0.457430  1
  Pt  Pt33  1  0.682692  0.033725  0.041974  1
  Pt  Pt34  1  0.317070  0.965887  0.541481  1
  Pt  Pt35  1  0.817239  0.533594  0.958070  1
