# generated using pymatgen
data_Ni8GeMo12As3C2
_symmetry_space_group_name_H-M   'P 1'
_cell_length_a   7.81535317
_cell_length_b   7.81535199
_cell_length_c   7.81535250
_cell_angle_alpha   59.88899882
_cell_angle_beta   59.88900320
_cell_angle_gamma   59.88899944
_symmetry_Int_Tables_number   1
_chemical_formula_structural   Ni8GeMo12As3C2
_chemical_formula_sum   'Ni8 Ge1 Mo12 As3 C2'
_cell_volume   336.69419026
_cell_formula_units_Z   1
loop_
 _symmetry_equiv_pos_site_id
 _symmetry_equiv_pos_as_xyz
  1  'x, y, z'
loop_
 _atom_site_type_symbol
 _atom_site_label
 _atom_site_symmetry_multiplicity
 _atom_site_fract_x
 _atom_site_fract_y
 _atom_site_fract_z
 _atom_site_occupancy
  Ni  Ni0  1  0.333441  0.333441  0.002166  1
  Ni  Ni1  1  0.333147  0.333147  0.333147  1
  Ni  Ni2  1  0.247834  0.916559  0.916559  1
  Ni  Ni3  1  0.916853  0.916853  0.916853  1
  Ni  Ni4  1  0.002166  0.333441  0.333441  1
  Ni  Ni5  1  0.333441  0.002166  0.333441  1
  Ni  Ni6  1  0.916559  0.916559  0.247834  1
  Ni  Ni7  1  0.916559  0.247834  0.916559  1
  Ge  Ge8  1  0.125000  0.125000  0.125000  1
  Mo  Mo9  1  0.308789  0.691267  0.691267  1
  Mo  Mo10  1  0.691267  0.691267  0.308789  1
  Mo  Mo11  1  0.691267  0.308789  0.691267  1
  Mo  Mo12  1  0.308247  0.693315  0.308247  1
  Mo  Mo13  1  0.558733  0.941211  0.558733  1
  Mo  Mo14  1  0.556685  0.941753  0.941753  1
  Mo  Mo15  1  0.941211  0.558733  0.558733  1
  Mo  Mo16  1  0.941753  0.556685  0.941753  1
  Mo  Mo17  1  0.308247  0.308247  0.693315  1
  Mo  Mo18  1  0.558733  0.558733  0.941211  1
  Mo  Mo19  1  0.941753  0.941753  0.556685  1
  Mo  Mo20  1  0.693315  0.308247  0.308247  1
  As  As21  1  0.125000  0.625000  0.125000  1
  As  As22  1  0.125000  0.125000  0.625000  1
  As  As23  1  0.625000  0.125000  0.125000  1
  C  C24  1  0.499825  0.499825  0.499825  1
  C  C25  1  0.750175  0.750175  0.750175  1
