# generated using pymatgen
data_Dy2UP3
_symmetry_space_group_name_H-M   'P 1'
_cell_length_a   6.92203221
_cell_length_b   6.92203178
_cell_length_c   6.92203222
_cell_angle_alpha   146.70395034
_cell_angle_beta   132.05025555
_cell_angle_gamma   59.62699179
_symmetry_Int_Tables_number   1
_chemical_formula_structural   Dy2UP3
_chemical_formula_sum   'Dy2 U1 P3'
_cell_volume   133.99901331
_cell_formula_units_Z   1
loop_
 _symmetry_equiv_pos_site_id
 _symmetry_equiv_pos_as_xyz
  1  'x, y, z'
loop_
 _atom_site_type_symbol
 _atom_site_label
 _atom_site_symmetry_multiplicity
 _atom_site_fract_x
 _atom_site_fract_y
 _atom_site_fract_z
 _atom_site_occupancy
  Dy  Dy0  1  0.667322  0.667322  0.000000  1
  Dy  Dy1  1  0.332678  0.332678  0.000000  1
  U  U2  1  0.000000  0.000000  0.000000  1
  P  P3  1  0.500000  0.000000  0.500000  1
  P  P4  1  0.162403  0.662403  0.500000  1
  P  P5  1  0.837597  0.337597  0.500000  1
