# generated using pymatgen
data_Dy3Cr(P3Ir4)2
_symmetry_space_group_name_H-M   'P 1'
_cell_length_a   3.96147300
_cell_length_b   11.17835000
_cell_length_c   12.74614100
_cell_angle_alpha   90.00000000
_cell_angle_beta   90.00000000
_cell_angle_gamma   90.00000000
_symmetry_Int_Tables_number   1
_chemical_formula_structural   Dy3Cr(P3Ir4)2
_chemical_formula_sum   'Dy6 Cr2 P12 Ir16'
_cell_volume   564.43394224
_cell_formula_units_Z   2
loop_
 _symmetry_equiv_pos_site_id
 _symmetry_equiv_pos_as_xyz
  1  'x, y, z'
loop_
 _atom_site_type_symbol
 _atom_site_label
 _atom_site_symmetry_multiplicity
 _atom_site_fract_x
 _atom_site_fract_y
 _atom_site_fract_z
 _atom_site_occupancy
  Dy  Dy0  1  0.000000  0.500000  0.519974  1
  Dy  Dy1  1  0.500000  0.000000  0.480026  1
  Dy  Dy2  1  0.500000  0.817115  0.203251  1
  Dy  Dy3  1  0.500000  0.182885  0.203251  1
  Dy  Dy4  1  0.000000  0.682885  0.796749  1
  Dy  Dy5  1  0.000000  0.317115  0.796749  1
  Cr  Cr6  1  0.500000  0.500000  0.159050  1
  Cr  Cr7  1  0.000000  0.000000  0.840950  1
  P  P8  1  0.500000  0.500000  0.875772  1
  P  P9  1  0.000000  0.000000  0.124228  1
  P  P10  1  0.500000  0.500000  0.340332  1
  P  P11  1  0.000000  0.000000  0.659668  1
  P  P12  1  0.500000  0.314246  0.618235  1
  P  P13  1  0.500000  0.685754  0.618235  1
  P  P14  1  0.000000  0.185754  0.381765  1
  P  P15  1  0.000000  0.814246  0.381765  1
  P  P16  1  0.500000  0.846037  0.888072  1
  P  P17  1  0.500000  0.153963  0.888072  1
  P  P18  1  0.000000  0.653963  0.111928  1
  P  P19  1  0.000000  0.346037  0.111928  1
  Ir  Ir20  1  0.500000  0.500000  0.697200  1
  Ir  Ir21  1  0.000000  0.000000  0.302800  1
  Ir  Ir22  1  0.000000  0.500000  0.994045  1
  Ir  Ir23  1  0.500000  0.000000  0.005955  1
  Ir  Ir24  1  0.500000  0.332220  0.983559  1
  Ir  Ir25  1  0.500000  0.667780  0.983559  1
  Ir  Ir26  1  0.000000  0.167780  0.016441  1
  Ir  Ir27  1  0.000000  0.832220  0.016441  1
  Ir  Ir28  1  0.500000  0.295597  0.430634  1
  Ir  Ir29  1  0.500000  0.704403  0.430634  1
  Ir  Ir30  1  0.000000  0.204403  0.569366  1
  Ir  Ir31  1  0.000000  0.795597  0.569366  1
  Ir  Ir32  1  0.500000  0.873983  0.712055  1
  Ir  Ir33  1  0.500000  0.126017  0.712055  1
  Ir  Ir34  1  0.000000  0.626017  0.287945  1
  Ir  Ir35  1  0.000000  0.373983  0.287945  1
