# generated using pymatgen
data_Nd2Co2Br
_symmetry_space_group_name_H-M   'P 1'
_cell_length_a   3.97495000
_cell_length_b   3.97495164
_cell_length_c   17.07467400
_cell_angle_alpha   90.00000000
_cell_angle_beta   90.00000000
_cell_angle_gamma   120.00000296
_symmetry_Int_Tables_number   1
_chemical_formula_structural   Nd2Co2Br
_chemical_formula_sum   'Nd4 Co4 Br2'
_cell_volume   233.63965661
_cell_formula_units_Z   2
loop_
 _symmetry_equiv_pos_site_id
 _symmetry_equiv_pos_as_xyz
  1  'x, y, z'
loop_
 _atom_site_type_symbol
 _atom_site_label
 _atom_site_symmetry_multiplicity
 _atom_site_fract_x
 _atom_site_fract_y
 _atom_site_fract_z
 _atom_site_occupancy
  Nd  Nd0  1  0.000000  0.000000  0.109207  1
  Nd  Nd1  1  0.000000  0.000000  0.390793  1
  Nd  Nd2  1  0.000000  0.000000  0.890793  1
  Nd  Nd3  1  0.000000  0.000000  0.609207  1
  Co  Co4  1  0.333333  0.666667  0.000925  1
  Co  Co5  1  0.666667  0.333333  0.999075  1
  Co  Co6  1  0.333333  0.666667  0.499075  1
  Co  Co7  1  0.666667  0.333333  0.500925  1
  Br  Br8  1  0.333333  0.666667  0.750000  1
  Br  Br9  1  0.666667  0.333333  0.250000  1
