# generated using pymatgen
data_Pr3AuO6
_symmetry_space_group_name_H-M   'P 1'
_cell_length_a   3.86673883
_cell_length_b   5.77004601
_cell_length_c   7.25542896
_cell_angle_alpha   91.04227487
_cell_angle_beta   102.67251590
_cell_angle_gamma   90.99086885
_symmetry_Int_Tables_number   1
_chemical_formula_structural   Pr3AuO6
_chemical_formula_sum   'Pr3 Au1 O6'
_cell_volume   157.87068703
_cell_formula_units_Z   1
loop_
 _symmetry_equiv_pos_site_id
 _symmetry_equiv_pos_as_xyz
  1  'x, y, z'
loop_
 _atom_site_type_symbol
 _atom_site_label
 _atom_site_symmetry_multiplicity
 _atom_site_fract_x
 _atom_site_fract_y
 _atom_site_fract_z
 _atom_site_occupancy
  Pr  Pr0  1  0.608211  0.527999  0.767329  1
  Pr  Pr1  1  0.391789  0.472001  0.232671  1
  Pr  Pr2  1  0.000000  0.000000  0.500000  1
  Au  Au3  1  0.000000  0.000000  0.000000  1
  O  O4  1  0.149486  0.295944  0.880257  1
  O  O5  1  0.875514  0.209538  0.203320  1
  O  O6  1  0.124486  0.790462  0.796680  1
  O  O7  1  0.485130  0.743997  0.482124  1
  O  O8  1  0.850514  0.704056  0.119743  1
  O  O9  1  0.514870  0.256003  0.517876  1
