# generated using pymatgen
data_Y16Ho4Ir5Pt7
_symmetry_space_group_name_H-M   'P 1'
_cell_length_a   11.08457039
_cell_length_b   11.08450738
_cell_length_c   6.33469901
_cell_angle_alpha   90.00531471
_cell_angle_beta   90.00573493
_cell_angle_gamma   90.15675962
_symmetry_Int_Tables_number   1
_chemical_formula_structural   Y16Ho4Ir5Pt7
_chemical_formula_sum   'Y16 Ho4 Ir5 Pt7'
_cell_volume   778.32255796
_cell_formula_units_Z   1
loop_
 _symmetry_equiv_pos_site_id
 _symmetry_equiv_pos_as_xyz
  1  'x, y, z'
loop_
 _atom_site_type_symbol
 _atom_site_label
 _atom_site_symmetry_multiplicity
 _atom_site_fract_x
 _atom_site_fract_y
 _atom_site_fract_z
 _atom_site_occupancy
  Y  Y0  1  0.294768  0.086629  0.372787  1
  Y  Y1  1  0.295020  0.908553  0.873448  1
  Y  Y2  1  0.705057  0.087036  0.872610  1
  Y  Y3  1  0.704983  0.912086  0.371998  1
  Y  Y4  1  0.584022  0.792204  0.871753  1
  Y  Y5  1  0.587420  0.206617  0.373838  1
  Y  Y6  1  0.410742  0.791664  0.377235  1
  Y  Y7  1  0.412283  0.204877  0.873499  1
  Y  Y8  1  0.207804  0.415966  0.628249  1
  Y  Y9  1  0.208343  0.589280  0.122760  1
  Y  Y10  1  0.793371  0.412563  0.126167  1
  Y  Y11  1  0.795110  0.587739  0.626505  1
  Y  Y12  1  0.913355  0.705241  0.127210  1
  Y  Y13  1  0.912947  0.294937  0.627395  1
  Y  Y14  1  0.091462  0.704987  0.626549  1
  Y  Y15  1  0.087926  0.295012  0.128000  1
  Ho  Ho16  1  0.999679  0.999876  0.500270  1
  Ho  Ho17  1  0.000125  0.000322  0.999717  1
  Ho  Ho18  1  0.498010  0.500892  0.999837  1
  Ho  Ho19  1  0.499110  0.501989  0.500147  1
  Ir  Ir20  1  0.348369  0.651665  0.750002  1
  Ir  Ir21  1  0.500088  0.000045  0.122506  1
  Ir  Ir22  1  0.499995  0.000357  0.620698  1
  Ir  Ir23  1  0.999635  0.500007  0.879315  1
  Ir  Ir24  1  0.999950  0.499914  0.377510  1
  Pt  Pt25  1  0.847789  0.152167  0.249998  1
  Pt  Pt26  1  0.847158  0.847906  0.750444  1
  Pt  Pt27  1  0.152135  0.152797  0.749550  1
  Pt  Pt28  1  0.151459  0.848588  0.250004  1
  Pt  Pt29  1  0.651585  0.348377  0.749998  1
  Pt  Pt30  1  0.653457  0.653205  0.249912  1
  Pt  Pt31  1  0.346843  0.346502  0.250088  1
