# generated using pymatgen
data_TmLu3Al16Ga2Ir5Au
_symmetry_space_group_name_H-M   'P 1'
_cell_length_a   7.55977600
_cell_length_b   7.56004118
_cell_length_c   9.40761000
_cell_angle_alpha   89.98868490
_cell_angle_beta   90.00126570
_cell_angle_gamma   119.62368652
_symmetry_Int_Tables_number   1
_chemical_formula_structural   TmLu3Al16Ga2Ir5Au
_chemical_formula_sum   'Tm1 Lu3 Al16 Ga2 Ir5 Au1'
_cell_volume   467.38782430
_cell_formula_units_Z   1
loop_
 _symmetry_equiv_pos_site_id
 _symmetry_equiv_pos_as_xyz
  1  'x, y, z'
loop_
 _atom_site_type_symbol
 _atom_site_label
 _atom_site_symmetry_multiplicity
 _atom_site_fract_x
 _atom_site_fract_y
 _atom_site_fract_z
 _atom_site_occupancy
  Tm  Tm0  1  0.995408  0.676118  0.251453  1
  Lu  Lu1  1  0.004536  0.323533  0.748264  1
  Lu  Lu2  1  0.676310  0.995502  0.251719  1
  Lu  Lu3  1  0.323752  0.004551  0.748350  1
  Al  Al4  1  0.000952  0.344232  0.079511  1
  Al  Al5  1  0.999172  0.655371  0.919576  1
  Al  Al6  1  0.000263  0.663912  0.575272  1
  Al  Al7  1  0.336387  0.000085  0.425615  1
  Al  Al8  1  0.999793  0.335887  0.425518  1
  Al  Al9  1  0.663867  0.000257  0.574858  1
  Al  Al10  1  0.655512  0.999199  0.920054  1
  Al  Al11  1  0.344896  0.001172  0.079557  1
  Al  Al12  1  0.333091  0.333129  0.557033  1
  Al  Al13  1  0.666679  0.666912  0.443681  1
  Al  Al14  1  0.658078  0.658383  0.062325  1
  Al  Al15  1  0.341466  0.341496  0.937007  1
  Al  Al16  1  0.337952  0.553078  0.251159  1
  Al  Al17  1  0.662106  0.446766  0.748856  1
  Al  Al18  1  0.552684  0.337440  0.251160  1
  Al  Al19  1  0.446832  0.662379  0.748879  1
  Ga  Ga20  1  0.141923  0.142070  0.255479  1
  Ga  Ga21  1  0.858170  0.858290  0.744586  1
  Ir  Ir22  1  0.671791  0.328224  0.999907  1
  Ir  Ir23  1  0.328257  0.671758  0.999884  1
  Ir  Ir24  1  0.328153  0.671868  0.500074  1
  Ir  Ir25  1  0.671882  0.328069  0.500136  1
  Ir  Ir26  1  0.000114  0.000237  0.500092  1
  Au  Au27  1  0.999974  0.000082  0.999996  1
