# generated using pymatgen
data_Li2AcAgAs2
_symmetry_space_group_name_H-M   'P 1'
_cell_length_a   4.47455000
_cell_length_b   4.47455003
_cell_length_c   7.30681700
_cell_angle_alpha   90.00000000
_cell_angle_beta   90.00000000
_cell_angle_gamma   119.99999981
_symmetry_Int_Tables_number   1
_chemical_formula_structural   Li2AcAgAs2
_chemical_formula_sum   'Li2 Ac1 Ag1 As2'
_cell_volume   126.69445169
_cell_formula_units_Z   1
loop_
 _symmetry_equiv_pos_site_id
 _symmetry_equiv_pos_as_xyz
  1  'x, y, z'
loop_
 _atom_site_type_symbol
 _atom_site_label
 _atom_site_symmetry_multiplicity
 _atom_site_fract_x
 _atom_site_fract_y
 _atom_site_fract_z
 _atom_site_occupancy
  Li  Li0  1  0.000000  0.000000  0.506369  1
  Li  Li1  1  0.333333  0.666667  0.639621  1
  Ac  Ac2  1  0.000000  0.000000  0.004124  1
  Ag  Ag3  1  0.666667  0.333333  0.359901  1
  As  As4  1  0.333333  0.666667  0.253326  1
  As  As5  1  0.666667  0.333333  0.736658  1
