# generated using pymatgen
data_NaU7AlS17
_symmetry_space_group_name_H-M   'P 1'
_cell_length_a   7.80533181
_cell_length_b   7.81222197
_cell_length_c   10.36935800
_cell_angle_alpha   80.77268982
_cell_angle_beta   80.64473187
_cell_angle_gamma   64.73720472
_symmetry_Int_Tables_number   1
_chemical_formula_structural   NaU7AlS17
_chemical_formula_sum   'Na1 U7 Al1 S17'
_cell_volume   561.27399536
_cell_formula_units_Z   1
loop_
 _symmetry_equiv_pos_site_id
 _symmetry_equiv_pos_as_xyz
  1  'x, y, z'
loop_
 _atom_site_type_symbol
 _atom_site_label
 _atom_site_symmetry_multiplicity
 _atom_site_fract_x
 _atom_site_fract_y
 _atom_site_fract_z
 _atom_site_occupancy
  Na  Na0  1  0.807337  0.314479  0.294230  1
  U  U1  1  0.303261  0.819744  0.297971  1
  U  U2  1  0.182327  0.693580  0.698544  1
  U  U3  1  0.699747  0.181352  0.699589  1
  U  U4  1  0.202154  0.200104  0.541339  1
  U  U5  1  0.798811  0.792007  0.456370  1
  U  U6  1  0.678403  0.672638  0.987643  1
  U  U7  1  0.314676  0.324157  0.017892  1
  Al  Al8  1  0.998499  0.003674  0.004180  1
  S  S9  1  0.829240  0.431152  0.550121  1
  S  S10  1  0.435126  0.813502  0.536415  1
  S  S11  1  0.183240  0.561850  0.462307  1
  S  S12  1  0.569678  0.163586  0.478194  1
  S  S13  1  0.946381  0.325081  0.018860  1
  S  S14  1  0.322380  0.951024  0.026935  1
  S  S15  1  0.051450  0.682620  0.967085  1
  S  S16  1  0.677591  0.061748  0.967923  1
  S  S17  1  0.240904  0.195584  0.280057  1
  S  S18  1  0.786817  0.788879  0.722616  1
  S  S19  1  0.061021  0.049463  0.774364  1
  S  S20  1  0.955719  0.931176  0.230283  1
  S  S21  1  0.301032  0.301237  0.754535  1
  S  S22  1  0.680825  0.725498  0.241059  1
  S  S23  1  0.517361  0.522935  0.827688  1
  S  S24  1  0.448068  0.507377  0.154649  1
  S  S25  1  0.007951  0.985555  0.509154  1
