# generated using pymatgen
data_Ce3Al2AgPd3
_symmetry_space_group_name_H-M   'P 1'
_cell_length_a   7.21066143
_cell_length_b   7.43921497
_cell_length_c   4.15123600
_cell_angle_alpha   90.00000000
_cell_angle_beta   90.00000000
_cell_angle_gamma   121.05416014
_symmetry_Int_Tables_number   1
_chemical_formula_structural   Ce3Al2AgPd3
_chemical_formula_sum   'Ce3 Al2 Ag1 Pd3'
_cell_volume   190.76482473
_cell_formula_units_Z   1
loop_
 _symmetry_equiv_pos_site_id
 _symmetry_equiv_pos_as_xyz
  1  'x, y, z'
loop_
 _atom_site_type_symbol
 _atom_site_label
 _atom_site_symmetry_multiplicity
 _atom_site_fract_x
 _atom_site_fract_y
 _atom_site_fract_z
 _atom_site_occupancy
  Ce  Ce0  1  0.000000  0.579392  0.500000  1
  Ce  Ce1  1  0.411366  0.416845  0.500000  1
  Ce  Ce2  1  0.588634  0.005480  0.500000  1
  Al  Al3  1  0.764099  0.763865  0.000000  1
  Al  Al4  1  0.235901  0.999766  0.000000  1
  Ag  Ag5  1  0.000000  0.238434  0.000000  1
  Pd  Pd6  1  0.000000  0.967388  0.500000  1
  Pd  Pd7  1  0.350211  0.689521  0.000000  1
  Pd  Pd8  1  0.649789  0.339309  0.000000  1
