# generated using pymatgen
data_Gd3AlC3
_symmetry_space_group_name_H-M   'P 1'
_cell_length_a   3.61876700
_cell_length_b   7.14502500
_cell_length_c   10.06262300
_cell_angle_alpha   90.00000000
_cell_angle_beta   90.00000000
_cell_angle_gamma   90.00000000
_symmetry_Int_Tables_number   1
_chemical_formula_structural   Gd3AlC3
_chemical_formula_sum   'Gd6 Al2 C6'
_cell_volume   260.18099844
_cell_formula_units_Z   2
loop_
 _symmetry_equiv_pos_site_id
 _symmetry_equiv_pos_as_xyz
  1  'x, y, z'
loop_
 _atom_site_type_symbol
 _atom_site_label
 _atom_site_symmetry_multiplicity
 _atom_site_fract_x
 _atom_site_fract_y
 _atom_site_fract_z
 _atom_site_occupancy
  Gd  Gd0  1  0.500000  0.509151  0.198237  1
  Gd  Gd1  1  0.500000  0.490849  0.801763  1
  Gd  Gd2  1  0.500000  0.990849  0.198237  1
  Gd  Gd3  1  0.500000  0.009151  0.801763  1
  Gd  Gd4  1  0.000000  0.750000  0.458567  1
  Gd  Gd5  1  0.000000  0.250000  0.541433  1
  Al  Al6  1  0.000000  0.750000  0.007602  1
  Al  Al7  1  0.000000  0.250000  0.992398  1
  C  C8  1  0.500000  0.509052  0.565628  1
  C  C9  1  0.500000  0.490948  0.434372  1
  C  C10  1  0.500000  0.990948  0.565628  1
  C  C11  1  0.500000  0.009052  0.434372  1
  C  C12  1  0.000000  0.750000  0.208484  1
  C  C13  1  0.000000  0.250000  0.791516  1
