# generated using pymatgen
data_Mg2Ni3SbO8
_symmetry_space_group_name_H-M   'P 1'
_cell_length_a   6.00837584
_cell_length_b   6.09576172
_cell_length_c   10.38976653
_cell_angle_alpha   106.29393403
_cell_angle_beta   90.00419336
_cell_angle_gamma   60.46494618
_symmetry_Int_Tables_number   1
_chemical_formula_structural   Mg2Ni3SbO8
_chemical_formula_sum   'Mg4 Ni6 Sb2 O16'
_cell_volume   313.40151874
_cell_formula_units_Z   2
loop_
 _symmetry_equiv_pos_site_id
 _symmetry_equiv_pos_as_xyz
  1  'x, y, z'
loop_
 _atom_site_type_symbol
 _atom_site_label
 _atom_site_symmetry_multiplicity
 _atom_site_fract_x
 _atom_site_fract_y
 _atom_site_fract_z
 _atom_site_occupancy
  Mg  Mg0  1  0.300919  0.398003  0.566539  1
  Mg  Mg1  1  0.801077  0.398075  0.066527  1
  Mg  Mg2  1  0.199121  0.602071  0.933422  1
  Mg  Mg3  1  0.698975  0.601909  0.433434  1
  Ni  Ni4  1  0.749969  0.999681  0.749917  1
  Ni  Ni5  1  0.750231  0.999856  0.250081  1
  Ni  Ni6  1  0.999607  0.000168  0.500208  1
  Ni  Ni7  1  0.249753  0.999736  0.249866  1
  Ni  Ni8  1  0.250029  0.000374  0.750120  1
  Ni  Ni9  1  0.500167  0.999720  0.999885  1
  Sb  Sb10  1  0.749899  0.500040  0.749995  1
  Sb  Sb11  1  0.249974  0.500017  0.249950  1
  O  O12  1  0.101832  0.796148  0.633341  1
  O  O13  1  0.602277  0.795960  0.133215  1
  O  O14  1  0.398382  0.204191  0.866804  1
  O  O15  1  0.897670  0.203988  0.366805  1
  O  O16  1  0.872593  0.254874  0.863112  1
  O  O17  1  0.372423  0.254967  0.363115  1
  O  O18  1  0.641864  0.255824  0.632405  1
  O  O19  1  0.142078  0.255931  0.132260  1
  O  O20  1  0.102158  0.255716  0.632229  1
  O  O21  1  0.602273  0.255914  0.132337  1
  O  O22  1  0.398059  0.744177  0.867745  1
  O  O23  1  0.897771  0.744141  0.367651  1
  O  O24  1  0.858191  0.744092  0.867546  1
  O  O25  1  0.357891  0.744192  0.367765  1
  O  O26  1  0.627380  0.745114  0.636878  1
  O  O27  1  0.127437  0.745120  0.136847  1
