# generated using pymatgen
data_YEr3LuRu2
_symmetry_space_group_name_H-M   'P 1'
_cell_length_a   6.28348982
_cell_length_b   7.24464937
_cell_length_c   8.39284572
_cell_angle_alpha   96.95006070
_cell_angle_beta   111.90318007
_cell_angle_gamma   89.69085334
_symmetry_Int_Tables_number   1
_chemical_formula_structural   YEr3LuRu2
_chemical_formula_sum   'Y2 Er6 Lu2 Ru4'
_cell_volume   351.54542634
_cell_formula_units_Z   2
loop_
 _symmetry_equiv_pos_site_id
 _symmetry_equiv_pos_as_xyz
  1  'x, y, z'
loop_
 _atom_site_type_symbol
 _atom_site_label
 _atom_site_symmetry_multiplicity
 _atom_site_fract_x
 _atom_site_fract_y
 _atom_site_fract_z
 _atom_site_occupancy
  Y  Y0  1  0.523572  0.082654  0.812971  1
  Y  Y1  1  0.476428  0.917346  0.187029  1
  Er  Er2  1  0.708497  0.416127  0.185723  1
  Er  Er3  1  0.291503  0.583873  0.814277  1
  Er  Er4  1  0.295527  0.314994  0.433492  1
  Er  Er5  1  0.704473  0.685006  0.566508  1
  Er  Er6  1  0.863382  0.186793  0.566449  1
  Er  Er7  1  0.136618  0.813207  0.433551  1
  Lu  Lu8  1  0.078003  0.251203  0.999865  1
  Lu  Lu9  1  0.921997  0.748797  0.000135  1
  Ru  Ru10  1  0.319809  0.573345  0.218694  1
  Ru  Ru11  1  0.680191  0.426655  0.781306  1
  Ru  Ru12  1  0.097558  0.923267  0.780004  1
  Ru  Ru13  1  0.902442  0.076733  0.219996  1
