# generated using pymatgen
data_HoPaBiN2
_symmetry_space_group_name_H-M   'P 1'
_cell_length_a   7.26625165
_cell_length_b   7.26625256
_cell_length_c   7.26625142
_cell_angle_alpha   148.43210120
_cell_angle_beta   148.43211661
_cell_angle_gamma   45.24789050
_symmetry_Int_Tables_number   1
_chemical_formula_structural   HoPaBiN2
_chemical_formula_sum   'Ho1 Pa1 Bi1 N2'
_cell_volume   104.80646233
_cell_formula_units_Z   1
loop_
 _symmetry_equiv_pos_site_id
 _symmetry_equiv_pos_as_xyz
  1  'x, y, z'
loop_
 _atom_site_type_symbol
 _atom_site_label
 _atom_site_symmetry_multiplicity
 _atom_site_fract_x
 _atom_site_fract_y
 _atom_site_fract_z
 _atom_site_occupancy
  Ho  Ho0  1  0.332514  0.332514  0.000000  1
  Pa  Pa1  1  0.675345  0.675345  0.000000  1
  Bi  Bi2  1  0.001020  0.001020  0.000000  1
  N  N3  1  0.245561  0.745561  0.500000  1
  N  N4  1  0.745561  0.245561  0.500000  1
