# generated using pymatgen
data_La4ZnSi7
_symmetry_space_group_name_H-M   'P 1'
_cell_length_a   4.29854600
_cell_length_b   4.34991800
_cell_length_c   13.96755700
_cell_angle_alpha   90.00000000
_cell_angle_beta   90.00000000
_cell_angle_gamma   90.00000000
_symmetry_Int_Tables_number   1
_chemical_formula_structural   La4ZnSi7
_chemical_formula_sum   'La4 Zn1 Si7'
_cell_volume   261.16988699
_cell_formula_units_Z   1
loop_
 _symmetry_equiv_pos_site_id
 _symmetry_equiv_pos_as_xyz
  1  'x, y, z'
loop_
 _atom_site_type_symbol
 _atom_site_label
 _atom_site_symmetry_multiplicity
 _atom_site_fract_x
 _atom_site_fract_y
 _atom_site_fract_z
 _atom_site_occupancy
  La  La0  1  0.500000  0.500000  0.006398  1
  La  La1  1  0.000000  0.000000  0.499909  1
  La  La2  1  0.500000  0.000000  0.742785  1
  La  La3  1  0.000000  0.500000  0.251810  1
  Zn  Zn4  1  0.000000  0.000000  0.914190  1
  Si  Si5  1  0.500000  0.500000  0.415474  1
  Si  Si6  1  0.000000  0.500000  0.833014  1
  Si  Si7  1  0.500000  0.000000  0.336138  1
  Si  Si8  1  0.000000  0.000000  0.085243  1
  Si  Si9  1  0.500000  0.500000  0.582370  1
  Si  Si10  1  0.500000  0.000000  0.167768  1
  Si  Si11  1  0.000000  0.500000  0.664902  1
