# generated using pymatgen
data_BeV5BS
_symmetry_space_group_name_H-M   'P 1'
_cell_length_a   5.79197571
_cell_length_b   5.79197606
_cell_length_c   6.72725644
_cell_angle_alpha   115.63359120
_cell_angle_beta   115.63360628
_cell_angle_gamma   89.71665840
_symmetry_Int_Tables_number   1
_chemical_formula_structural   BeV5BS
_chemical_formula_sum   'Be2 V10 B2 S2'
_cell_volume   178.77379460
_cell_formula_units_Z   2
loop_
 _symmetry_equiv_pos_site_id
 _symmetry_equiv_pos_as_xyz
  1  'x, y, z'
loop_
 _atom_site_type_symbol
 _atom_site_label
 _atom_site_symmetry_multiplicity
 _atom_site_fract_x
 _atom_site_fract_y
 _atom_site_fract_z
 _atom_site_occupancy
  Be  Be0  1  0.621207  0.121207  0.000000  1
  Be  Be1  1  0.378793  0.878793  0.000000  1
  V  V2  1  0.500000  0.500000  0.000000  1
  V  V3  1  0.000000  0.000000  0.000000  1
  V  V4  1  0.021948  0.521948  0.713989  1
  V  V5  1  0.692040  0.192040  0.713989  1
  V  V6  1  0.183058  0.030342  0.713401  1
  V  V7  1  0.530342  0.683058  0.713401  1
  V  V8  1  0.978052  0.478052  0.286011  1
  V  V9  1  0.307960  0.807960  0.286011  1
  V  V10  1  0.816942  0.969658  0.286599  1
  V  V11  1  0.469658  0.316942  0.286599  1
  B  B12  1  0.884105  0.615895  0.000000  1
  B  B13  1  0.115895  0.384105  0.000000  1
  S  S14  1  0.250000  0.250000  0.500000  1
  S  S15  1  0.750000  0.750000  0.500000  1
