# generated using pymatgen
data_Ca4Al2PdPt3
_symmetry_space_group_name_H-M   'P 1'
_cell_length_a   5.74832508
_cell_length_b   5.74214558
_cell_length_c   7.79298384
_cell_angle_alpha   79.43453722
_cell_angle_beta   79.30269748
_cell_angle_gamma   60.29944317
_symmetry_Int_Tables_number   1
_chemical_formula_structural   Ca4Al2PdPt3
_chemical_formula_sum   'Ca4 Al2 Pd1 Pt3'
_cell_volume   218.29051323
_cell_formula_units_Z   1
loop_
 _symmetry_equiv_pos_site_id
 _symmetry_equiv_pos_as_xyz
  1  'x, y, z'
loop_
 _atom_site_type_symbol
 _atom_site_label
 _atom_site_symmetry_multiplicity
 _atom_site_fract_x
 _atom_site_fract_y
 _atom_site_fract_z
 _atom_site_occupancy
  Ca  Ca0  1  0.782581  0.518519  0.350400  1
  Ca  Ca1  1  0.480257  0.218346  0.147536  1
  Ca  Ca2  1  0.219296  0.481210  0.650266  1
  Ca  Ca3  1  0.516884  0.781093  0.851543  1
  Al  Al4  1  0.119196  0.883578  0.247705  1
  Al  Al5  1  0.888330  0.116227  0.750928  1
  Pd  Pd6  1  0.738310  0.003246  0.503667  1
  Pt  Pt7  1  0.001303  0.738973  0.004000  1
  Pt  Pt8  1  0.257254  0.996316  0.495610  1
  Pt  Pt9  1  0.996590  0.262492  0.998345  1
