# generated using pymatgen
data_Li3Pr6Nd2Si12Pd
_symmetry_space_group_name_H-M   'P 1'
_cell_length_a   8.30157500
_cell_length_b   8.30157575
_cell_length_c   8.49220700
_cell_angle_alpha   90.00000000
_cell_angle_beta   90.00000000
_cell_angle_gamma   119.99999301
_symmetry_Int_Tables_number   1
_chemical_formula_structural   Li3Pr6Nd2Si12Pd
_chemical_formula_sum   'Li3 Pr6 Nd2 Si12 Pd1'
_cell_volume   506.84161383
_cell_formula_units_Z   1
loop_
 _symmetry_equiv_pos_site_id
 _symmetry_equiv_pos_as_xyz
  1  'x, y, z'
loop_
 _atom_site_type_symbol
 _atom_site_label
 _atom_site_symmetry_multiplicity
 _atom_site_fract_x
 _atom_site_fract_y
 _atom_site_fract_z
 _atom_site_occupancy
  Li  Li0  1  0.666667  0.333333  0.999451  1
  Li  Li1  1  0.333333  0.666667  0.001450  1
  Li  Li2  1  0.333333  0.666667  0.499349  1
  Pr  Pr3  1  0.500071  0.499929  0.750229  1
  Pr  Pr4  1  0.500609  0.499391  0.249714  1
  Pr  Pr5  1  0.999858  0.499929  0.750229  1
  Pr  Pr6  1  0.998783  0.499391  0.249714  1
  Pr  Pr7  1  0.500071  0.000142  0.750229  1
  Pr  Pr8  1  0.500609  0.001217  0.249714  1
  Nd  Nd9  1  0.000000  0.000000  0.750885  1
  Nd  Nd10  1  0.000000  0.000000  0.249102  1
  Si  Si11  1  0.834375  0.165625  0.000061  1
  Si  Si12  1  0.165508  0.834492  0.999802  1
  Si  Si13  1  0.331251  0.165625  0.000061  1
  Si  Si14  1  0.164887  0.835113  0.500009  1
  Si  Si15  1  0.668982  0.834492  0.999802  1
  Si  Si16  1  0.833839  0.166161  0.500136  1
  Si  Si17  1  0.834375  0.668749  0.000061  1
  Si  Si18  1  0.670225  0.835113  0.500009  1
  Si  Si19  1  0.165508  0.331018  0.999802  1
  Si  Si20  1  0.332322  0.166161  0.500136  1
  Si  Si21  1  0.164887  0.329775  0.500009  1
  Si  Si22  1  0.833839  0.667678  0.500136  1
  Pd  Pd23  1  0.666667  0.333333  0.499911  1
