# generated using pymatgen
data_CaCe4Pr3(ReC2)4
_symmetry_space_group_name_H-M   'P 1'
_cell_length_a   5.31268400
_cell_length_b   6.64545002
_cell_length_c   10.20488564
_cell_angle_alpha   89.37399534
_cell_angle_beta   90.00000000
_cell_angle_gamma   90.00000000
_symmetry_Int_Tables_number   1
_chemical_formula_structural   CaCe4Pr3(ReC2)4
_chemical_formula_sum   'Ca1 Ce4 Pr3 Re4 C8'
_cell_volume   360.26377934
_cell_formula_units_Z   1
loop_
 _symmetry_equiv_pos_site_id
 _symmetry_equiv_pos_as_xyz
  1  'x, y, z'
loop_
 _atom_site_type_symbol
 _atom_site_label
 _atom_site_symmetry_multiplicity
 _atom_site_fract_x
 _atom_site_fract_y
 _atom_site_fract_z
 _atom_site_occupancy
  Ca  Ca0  1  0.750000  0.530440  0.777844  1
  Ce  Ce1  1  0.250000  0.972636  0.279286  1
  Ce  Ce2  1  0.750000  0.689007  0.451493  1
  Ce  Ce3  1  0.250000  0.805058  0.948797  1
  Ce  Ce4  1  0.250000  0.311501  0.551964  1
  Pr  Pr5  1  0.750000  0.195428  0.048561  1
  Pr  Pr6  1  0.250000  0.470290  0.218977  1
  Pr  Pr7  1  0.750000  0.028463  0.718169  1
  Re  Re8  1  0.250000  0.269937  0.859563  1
  Re  Re9  1  0.250000  0.774323  0.638757  1
  Re  Re10  1  0.750000  0.227726  0.359984  1
  Re  Re11  1  0.750000  0.732012  0.142936  1
  C  C12  1  0.250000  0.679759  0.457299  1
  C  C13  1  0.250000  0.535067  0.756551  1
  C  C14  1  0.750000  0.469433  0.246281  1
  C  C15  1  0.750000  0.811896  0.960716  1
  C  C16  1  0.250000  0.033727  0.744151  1
  C  C17  1  0.250000  0.170792  0.039763  1
  C  C18  1  0.750000  0.327432  0.537961  1
  C  C19  1  0.750000  0.965075  0.260948  1
