# generated using pymatgen
data_Er10Al5AuC8
_symmetry_space_group_name_H-M   'P 1'
_cell_length_a   10.80992900
_cell_length_b   10.80992900
_cell_length_c   3.47514200
_cell_angle_alpha   90.00000000
_cell_angle_beta   90.00000000
_cell_angle_gamma   90.00000000
_symmetry_Int_Tables_number   1
_chemical_formula_structural   Er10Al5AuC8
_chemical_formula_sum   'Er10 Al5 Au1 C8'
_cell_volume   406.08620667
_cell_formula_units_Z   1
loop_
 _symmetry_equiv_pos_site_id
 _symmetry_equiv_pos_as_xyz
  1  'x, y, z'
loop_
 _atom_site_type_symbol
 _atom_site_label
 _atom_site_symmetry_multiplicity
 _atom_site_fract_x
 _atom_site_fract_y
 _atom_site_fract_z
 _atom_site_occupancy
  Er  Er0  1  0.548896  0.728280  0.500000  1
  Er  Er1  1  0.451104  0.271720  0.500000  1
  Er  Er2  1  0.050142  0.768937  0.500000  1
  Er  Er3  1  0.949858  0.231063  0.500000  1
  Er  Er4  1  0.271720  0.548896  0.500000  1
  Er  Er5  1  0.728280  0.451104  0.500000  1
  Er  Er6  1  0.231063  0.050142  0.500000  1
  Er  Er7  1  0.768937  0.949858  0.500000  1
  Er  Er8  1  0.500000  0.000000  0.000000  1
  Er  Er9  1  0.000000  0.500000  0.000000  1
  Al  Al10  1  0.704649  0.202203  0.000000  1
  Al  Al11  1  0.295351  0.797797  0.000000  1
  Al  Al12  1  0.202203  0.295351  0.000000  1
  Al  Al13  1  0.797797  0.704649  0.000000  1
  Al  Al14  1  0.000000  0.000000  0.000000  1
  Au  Au15  1  0.500000  0.500000  0.000000  1
  C  C16  1  0.630193  0.130279  0.500000  1
  C  C17  1  0.369807  0.869721  0.500000  1
  C  C18  1  0.130279  0.369807  0.500000  1
  C  C19  1  0.869721  0.630193  0.500000  1
  C  C20  1  0.162119  0.661249  0.000000  1
  C  C21  1  0.837881  0.338751  0.000000  1
  C  C22  1  0.661249  0.837881  0.000000  1
  C  C23  1  0.338751  0.162119  0.000000  1
