# generated using pymatgen
data_Dy3Ho14(ErBi4)3
_symmetry_space_group_name_H-M   'P 1'
_cell_length_a   8.23835222
_cell_length_b   9.50494400
_cell_length_c   12.00694401
_cell_angle_alpha   90.00008039
_cell_angle_beta   90.01155658
_cell_angle_gamma   90.00127880
_symmetry_Int_Tables_number   1
_chemical_formula_structural   Dy3Ho14(ErBi4)3
_chemical_formula_sum   'Dy3 Ho14 Er3 Bi12'
_cell_volume   940.20464978
_cell_formula_units_Z   1
loop_
 _symmetry_equiv_pos_site_id
 _symmetry_equiv_pos_as_xyz
  1  'x, y, z'
loop_
 _atom_site_type_symbol
 _atom_site_label
 _atom_site_symmetry_multiplicity
 _atom_site_fract_x
 _atom_site_fract_y
 _atom_site_fract_z
 _atom_site_occupancy
  Dy  Dy0  1  0.812930  0.250005  0.281670  1
  Dy  Dy1  1  0.686897  0.750003  0.781788  1
  Dy  Dy2  1  0.186750  0.749984  0.718267  1
  Ho  Ho3  1  0.353019  0.749973  0.216675  1
  Ho  Ho4  1  0.853009  0.749972  0.283310  1
  Ho  Ho5  1  0.646918  0.250002  0.783627  1
  Ho  Ho6  1  0.147136  0.249989  0.716541  1
  Ho  Ho7  1  0.692357  0.564877  0.059107  1
  Ho  Ho8  1  0.192058  0.935064  0.440796  1
  Ho  Ho9  1  0.307828  0.064900  0.941002  1
  Ho  Ho10  1  0.808067  0.435096  0.559076  1
  Ho  Ho11  1  0.307823  0.435110  0.941000  1
  Ho  Ho12  1  0.808078  0.064927  0.559078  1
  Ho  Ho13  1  0.692357  0.935125  0.059097  1
  Ho  Ho14  1  0.475914  0.250005  0.488298  1
  Ho  Ho15  1  0.975957  0.249983  0.011818  1
  Ho  Ho16  1  0.312715  0.250003  0.217840  1
  Er  Er17  1  0.192028  0.564919  0.440805  1
  Er  Er18  1  0.523970  0.749975  0.511463  1
  Er  Er19  1  0.024132  0.750014  0.988588  1
  Bi  Bi20  1  0.405646  0.750000  0.958047  1
  Bi  Bi21  1  0.905536  0.749956  0.541917  1
  Bi  Bi22  1  0.593823  0.250006  0.042577  1
  Bi  Bi23  1  0.094776  0.250126  0.457664  1
  Bi  Bi24  1  0.565208  0.995415  0.325617  1
  Bi  Bi25  1  0.066443  0.504660  0.174208  1
  Bi  Bi26  1  0.434312  0.495181  0.674058  1
  Bi  Bi27  1  0.934193  0.004927  0.826095  1
  Bi  Bi28  1  0.434302  0.004806  0.674069  1
  Bi  Bi29  1  0.934199  0.495068  0.826087  1
  Bi  Bi30  1  0.565186  0.504588  0.325623  1
  Bi  Bi31  1  0.066428  0.995342  0.174189  1
