# generated using pymatgen
data_Al2V5Ru
_symmetry_space_group_name_H-M   'P 1'
_cell_length_a   4.83967900
_cell_length_b   4.76752200
_cell_length_c   4.76752200
_cell_angle_alpha   90.00000000
_cell_angle_beta   90.00000000
_cell_angle_gamma   90.00000000
_symmetry_Int_Tables_number   1
_chemical_formula_structural   Al2V5Ru
_chemical_formula_sum   'Al2 V5 Ru1'
_cell_volume   110.00235144
_cell_formula_units_Z   1
loop_
 _symmetry_equiv_pos_site_id
 _symmetry_equiv_pos_as_xyz
  1  'x, y, z'
loop_
 _atom_site_type_symbol
 _atom_site_label
 _atom_site_symmetry_multiplicity
 _atom_site_fract_x
 _atom_site_fract_y
 _atom_site_fract_z
 _atom_site_occupancy
  Al  Al0  1  0.998140  0.000000  0.000000  1
  Al  Al1  1  0.501860  0.500000  0.500000  1
  V  V2  1  0.750000  0.000000  0.500000  1
  V  V3  1  0.999027  0.500000  0.248171  1
  V  V4  1  0.999027  0.500000  0.751829  1
  V  V5  1  0.500973  0.748171  0.000000  1
  V  V6  1  0.500973  0.251829  0.000000  1
  Ru  Ru7  1  0.250000  0.000000  0.500000  1
