# generated using pymatgen
data_Li4CaPr(SmSi4)2
_symmetry_space_group_name_H-M   'P 1'
_cell_length_a   3.84332400
_cell_length_b   7.79647713
_cell_length_c   10.46429187
_cell_angle_alpha   89.70318746
_cell_angle_beta   90.00000000
_cell_angle_gamma   90.00000000
_symmetry_Int_Tables_number   1
_chemical_formula_structural   Li4CaPr(SmSi4)2
_chemical_formula_sum   'Li4 Ca1 Pr1 Sm2 Si8'
_cell_volume   313.55189099
_cell_formula_units_Z   1
loop_
 _symmetry_equiv_pos_site_id
 _symmetry_equiv_pos_as_xyz
  1  'x, y, z'
loop_
 _atom_site_type_symbol
 _atom_site_label
 _atom_site_symmetry_multiplicity
 _atom_site_fract_x
 _atom_site_fract_y
 _atom_site_fract_z
 _atom_site_occupancy
  Li  Li0  1  0.250000  0.998137  0.390587  1
  Li  Li1  1  0.750000  0.005670  0.609814  1
  Li  Li2  1  0.250000  0.493376  0.111753  1
  Li  Li3  1  0.750000  0.504330  0.890990  1
  Ca  Ca4  1  0.750000  0.364025  0.365218  1
  Pr  Pr5  1  0.250000  0.634762  0.634292  1
  Sm  Sm6  1  0.250000  0.132198  0.865198  1
  Sm  Sm7  1  0.750000  0.867647  0.133331  1
  Si  Si8  1  0.750000  0.267475  0.067247  1
  Si  Si9  1  0.250000  0.730433  0.933088  1
  Si  Si10  1  0.750000  0.775711  0.427803  1
  Si  Si11  1  0.250000  0.230230  0.570531  1
  Si  Si12  1  0.750000  0.836763  0.822767  1
  Si  Si13  1  0.250000  0.160203  0.174758  1
  Si  Si14  1  0.750000  0.331901  0.681556  1
  Si  Si15  1  0.250000  0.667140  0.321066  1
