# generated using pymatgen
data_Gd5Si10P2Ir19
_symmetry_space_group_name_H-M   'P 1'
_cell_length_a   13.14378600
_cell_length_b   13.14378682
_cell_length_c   4.04712600
_cell_angle_alpha   90.00000000
_cell_angle_beta   90.00000000
_cell_angle_gamma   120.15841861
_symmetry_Int_Tables_number   1
_chemical_formula_structural   Gd5Si10P2Ir19
_chemical_formula_sum   'Gd5 Si10 P2 Ir19'
_cell_volume   604.53694911
_cell_formula_units_Z   1
loop_
 _symmetry_equiv_pos_site_id
 _symmetry_equiv_pos_as_xyz
  1  'x, y, z'
loop_
 _atom_site_type_symbol
 _atom_site_label
 _atom_site_symmetry_multiplicity
 _atom_site_fract_x
 _atom_site_fract_y
 _atom_site_fract_z
 _atom_site_occupancy
  Gd  Gd0  1  0.666338  0.333573  0.000000  1
  Gd  Gd1  1  0.333573  0.666338  0.000000  1
  Gd  Gd2  1  0.812473  0.812473  0.500000  1
  Gd  Gd3  1  0.186130  0.000708  0.500000  1
  Gd  Gd4  1  0.000708  0.186130  0.500000  1
  Si  Si5  1  0.687655  0.167226  0.500000  1
  Si  Si6  1  0.832467  0.520037  0.500000  1
  Si  Si7  1  0.479316  0.311520  0.500000  1
  Si  Si8  1  0.167226  0.687655  0.500000  1
  Si  Si9  1  0.520037  0.832467  0.500000  1
  Si  Si10  1  0.311520  0.479316  0.500000  1
  Si  Si11  1  0.630595  0.630595  0.000000  1
  Si  Si12  1  0.370084  0.000241  0.000000  1
  Si  Si13  1  0.000241  0.370084  0.000000  1
  Si  Si14  1  0.181471  0.181471  0.000000  1
  P  P15  1  0.818435  0.000377  0.000000  1
  P  P16  1  0.000377  0.818435  0.000000  1
  Ir  Ir17  1  0.805689  0.179763  0.000000  1
  Ir  Ir18  1  0.820498  0.625983  0.000000  1
  Ir  Ir19  1  0.376818  0.194802  0.000000  1
  Ir  Ir20  1  0.179763  0.805689  0.000000  1
  Ir  Ir21  1  0.625983  0.820498  0.000000  1
  Ir  Ir22  1  0.194802  0.376818  0.000000  1
  Ir  Ir23  1  0.448864  0.448864  0.000000  1
  Ir  Ir24  1  0.551906  0.998818  0.000000  1
  Ir  Ir25  1  0.998818  0.551906  0.000000  1
  Ir  Ir26  1  0.283393  0.283393  0.500000  1
  Ir  Ir27  1  0.719331  0.000137  0.500000  1
  Ir  Ir28  1  0.000137  0.719331  0.500000  1
  Ir  Ir29  1  0.872354  0.360286  0.500000  1
  Ir  Ir30  1  0.639838  0.512430  0.500000  1
  Ir  Ir31  1  0.487979  0.126165  0.500000  1
  Ir  Ir32  1  0.360286  0.872354  0.500000  1
  Ir  Ir33  1  0.512430  0.639838  0.500000  1
  Ir  Ir34  1  0.126165  0.487979  0.500000  1
  Ir  Ir35  1  0.996300  0.996300  0.000000  1
