# generated using pymatgen
data_Li8SmEr4Th3Sn8
_symmetry_space_group_name_H-M   'P 1'
_cell_length_a   9.40928162
_cell_length_b   9.41089646
_cell_length_c   7.45308827
_cell_angle_alpha   90.00109393
_cell_angle_beta   90.01444120
_cell_angle_gamma   120.00271158
_symmetry_Int_Tables_number   1
_chemical_formula_structural   Li8SmEr4Th3Sn8
_chemical_formula_sum   'Li8 Sm1 Er4 Th3 Sn8'
_cell_volume   571.53452720
_cell_formula_units_Z   1
loop_
 _symmetry_equiv_pos_site_id
 _symmetry_equiv_pos_as_xyz
  1  'x, y, z'
loop_
 _atom_site_type_symbol
 _atom_site_label
 _atom_site_symmetry_multiplicity
 _atom_site_fract_x
 _atom_site_fract_y
 _atom_site_fract_z
 _atom_site_occupancy
  Li  Li0  1  0.166319  0.333205  0.261540  1
  Li  Li1  1  0.166361  0.833138  0.261854  1
  Li  Li2  1  0.668041  0.834004  0.286843  1
  Li  Li3  1  0.667296  0.333668  0.324457  1
  Li  Li4  1  0.832667  0.664993  0.696279  1
  Li  Li5  1  0.334963  0.167502  0.699317  1
  Li  Li6  1  0.832744  0.167678  0.696247  1
  Li  Li7  1  0.331464  0.665750  0.790007  1
  Sm  Sm8  1  0.983921  0.491991  0.003097  1
  Er  Er9  1  0.003448  0.001734  0.499100  1
  Er  Er10  1  0.488623  0.982453  0.504161  1
  Er  Er11  1  0.018591  0.509260  0.503241  1
  Er  Er12  1  0.488555  0.506153  0.504109  1
  Th  Th13  1  0.996305  0.998103  0.000584  1
  Th  Th14  1  0.509662  0.014858  0.003095  1
  Th  Th15  1  0.509671  0.494815  0.003071  1
  Sn  Sn16  1  0.334190  0.667100  0.241432  1
  Sn  Sn17  1  0.833282  0.665915  0.268737  1
  Sn  Sn18  1  0.334508  0.167256  0.268754  1
  Sn  Sn19  1  0.833280  0.167360  0.268803  1
  Sn  Sn20  1  0.667012  0.333487  0.733526  1
  Sn  Sn21  1  0.166265  0.332509  0.749560  1
  Sn  Sn22  1  0.166213  0.833730  0.749321  1
  Sn  Sn23  1  0.666622  0.833342  0.740851  1
