# generated using pymatgen
data_MnGa3Co4(Mo3N)4
_symmetry_space_group_name_H-M   'P 1'
_cell_length_a   6.73053218
_cell_length_b   6.73053218
_cell_length_c   6.73053218
_cell_angle_alpha   90.19329875
_cell_angle_beta   89.80670125
_cell_angle_gamma   89.80670125
_symmetry_Int_Tables_number   1
_chemical_formula_structural   MnGa3Co4(Mo3N)4
_chemical_formula_sum   'Mn1 Ga3 Co4 Mo12 N4'
_cell_volume   304.88831807
_cell_formula_units_Z   1
loop_
 _symmetry_equiv_pos_site_id
 _symmetry_equiv_pos_as_xyz
  1  'x, y, z'
loop_
 _atom_site_type_symbol
 _atom_site_label
 _atom_site_symmetry_multiplicity
 _atom_site_fract_x
 _atom_site_fract_y
 _atom_site_fract_z
 _atom_site_occupancy
  Mn  Mn0  1  0.180872  0.819128  0.319128  1
  Ga  Ga1  1  0.319972  0.181122  0.822444  1
  Ga  Ga2  1  0.818878  0.322444  0.180028  1
  Ga  Ga3  1  0.677556  0.680028  0.681122  1
  Co  Co4  1  0.570442  0.429558  0.929558  1
  Co  Co5  1  0.431414  0.933535  0.565986  1
  Co  Co6  1  0.934014  0.568586  0.433535  1
  Co  Co7  1  0.066465  0.065986  0.068586  1
  Mo  Mo8  1  0.806248  0.951773  0.370543  1
  Mo  Mo9  1  0.705683  0.047035  0.877906  1
  Mo  Mo10  1  0.200788  0.463673  0.128383  1
  Mo  Mo11  1  0.292702  0.550101  0.618351  1
  Mo  Mo12  1  0.952965  0.377906  0.794317  1
  Mo  Mo13  1  0.048227  0.870543  0.693752  1
  Mo  Mo14  1  0.449899  0.118351  0.207298  1
  Mo  Mo15  1  0.536327  0.628383  0.299212  1
  Mo  Mo16  1  0.371617  0.799212  0.963673  1
  Mo  Mo17  1  0.881649  0.707298  0.050101  1
  Mo  Mo18  1  0.129457  0.193752  0.451773  1
  Mo  Mo19  1  0.622094  0.294317  0.547035  1
  N  N20  1  0.875489  0.124511  0.624511  1
  N  N21  1  0.626307  0.872376  0.126690  1
  N  N22  1  0.127624  0.626690  0.873693  1
  N  N23  1  0.373310  0.373693  0.372376  1
