# generated using pymatgen
data_Sm6DyFeBr12
_symmetry_space_group_name_H-M   'P 1'
_cell_length_a   9.44077758
_cell_length_b   9.40655688
_cell_length_c   9.25313004
_cell_angle_alpha   106.42487896
_cell_angle_beta   106.75458612
_cell_angle_gamma   106.72703932
_symmetry_Int_Tables_number   1
_chemical_formula_structural   Sm6DyFeBr12
_chemical_formula_sum   'Sm6 Dy1 Fe1 Br12'
_cell_volume   691.02752742
_cell_formula_units_Z   1
loop_
 _symmetry_equiv_pos_site_id
 _symmetry_equiv_pos_as_xyz
  1  'x, y, z'
loop_
 _atom_site_type_symbol
 _atom_site_label
 _atom_site_symmetry_multiplicity
 _atom_site_fract_x
 _atom_site_fract_y
 _atom_site_fract_z
 _atom_site_occupancy
  Sm  Sm0  1  0.805251  0.519149  0.598260  1
  Sm  Sm1  1  0.520522  0.593293  0.793951  1
  Sm  Sm2  1  0.194684  0.482885  0.400639  1
  Sm  Sm3  1  0.478171  0.404096  0.204369  1
  Sm  Sm4  1  0.000144  0.998006  0.002578  1
  Sm  Sm5  1  0.599974  0.807835  0.517956  1
  Dy  Dy6  1  0.402432  0.199885  0.481292  1
  Fe  Fe7  1  0.499905  0.501138  0.499121  1
  Br  Br8  1  0.715150  0.180091  0.570234  1
  Br  Br9  1  0.959854  0.880525  0.664783  1
  Br  Br10  1  0.569838  0.718957  0.176391  1
  Br  Br11  1  0.118349  0.330240  0.037617  1
  Br  Br12  1  0.667373  0.956478  0.882010  1
  Br  Br13  1  0.880351  0.664688  0.961532  1
  Br  Br14  1  0.045671  0.121424  0.341282  1
  Br  Br15  1  0.814932  0.424593  0.274358  1
  Br  Br16  1  0.334363  0.042582  0.125076  1
  Br  Br17  1  0.281604  0.826316  0.430244  1
  Br  Br18  1  0.184016  0.572978  0.724075  1
  Br  Br19  1  0.427413  0.274841  0.814234  1
