# generated using pymatgen
data_La3Pr17Ir11Rh
_symmetry_space_group_name_H-M   'P 1'
_cell_length_a   11.34383936
_cell_length_b   11.36246686
_cell_length_c   6.67954814
_cell_angle_alpha   89.98723027
_cell_angle_beta   89.90921751
_cell_angle_gamma   90.08041389
_symmetry_Int_Tables_number   1
_chemical_formula_structural   La3Pr17Ir11Rh
_chemical_formula_sum   'La3 Pr17 Ir11 Rh1'
_cell_volume   860.95171937
_cell_formula_units_Z   1
loop_
 _symmetry_equiv_pos_site_id
 _symmetry_equiv_pos_as_xyz
  1  'x, y, z'
loop_
 _atom_site_type_symbol
 _atom_site_label
 _atom_site_symmetry_multiplicity
 _atom_site_fract_x
 _atom_site_fract_y
 _atom_site_fract_z
 _atom_site_occupancy
  La  La0  1  0.292451  0.091670  0.388374  1
  La  La1  1  0.291298  0.907760  0.885533  1
  La  La2  1  0.708482  0.091508  0.885617  1
  Pr  Pr3  1  0.707809  0.908897  0.387016  1
  Pr  Pr4  1  0.591685  0.790152  0.883412  1
  Pr  Pr5  1  0.590622  0.208505  0.386724  1
  Pr  Pr6  1  0.410437  0.791161  0.386740  1
  Pr  Pr7  1  0.408887  0.210432  0.883293  1
  Pr  Pr8  1  0.207490  0.409978  0.615208  1
  Pr  Pr9  1  0.207625  0.590846  0.115596  1
  Pr  Pr10  1  0.792278  0.409227  0.115515  1
  Pr  Pr11  1  0.792371  0.590451  0.614651  1
  Pr  Pr12  1  0.908329  0.707837  0.115194  1
  Pr  Pr13  1  0.909625  0.292799  0.613915  1
  Pr  Pr14  1  0.090146  0.707178  0.614471  1
  Pr  Pr15  1  0.091100  0.292523  0.114584  1
  Pr  Pr16  1  0.999415  0.999616  0.499061  1
  Pr  Pr17  1  0.999860  0.000099  0.000135  1
  Pr  Pr18  1  0.499937  0.499902  0.000631  1
  Pr  Pr19  1  0.500195  0.499972  0.500454  1
  Ir  Ir20  1  0.844096  0.151799  0.248923  1
  Ir  Ir21  1  0.846487  0.846504  0.748889  1
  Ir  Ir22  1  0.154275  0.153314  0.747530  1
  Ir  Ir23  1  0.155875  0.847940  0.248766  1
  Ir  Ir24  1  0.653589  0.346368  0.749329  1
  Ir  Ir25  1  0.652124  0.654828  0.250348  1
  Ir  Ir26  1  0.347690  0.344770  0.251062  1
  Ir  Ir27  1  0.346532  0.653812  0.749388  1
  Ir  Ir28  1  0.499891  0.999926  0.624422  1
  Ir  Ir29  1  0.000083  0.499773  0.881332  1
  Ir  Ir30  1  0.999967  0.500178  0.380124  1
  Rh  Rh31  1  0.499348  0.000275  0.113766  1
