# generated using pymatgen
data_V4ReSi2Mo
_symmetry_space_group_name_H-M   'P 1'
_cell_length_a   4.75322326
_cell_length_b   4.70660700
_cell_length_c   4.80083425
_cell_angle_alpha   90.00000000
_cell_angle_beta   89.96243356
_cell_angle_gamma   90.00000000
_symmetry_Int_Tables_number   1
_chemical_formula_structural   V4ReSi2Mo
_chemical_formula_sum   'V4 Re1 Si2 Mo1'
_cell_volume   107.40209903
_cell_formula_units_Z   1
loop_
 _symmetry_equiv_pos_site_id
 _symmetry_equiv_pos_as_xyz
  1  'x, y, z'
loop_
 _atom_site_type_symbol
 _atom_site_label
 _atom_site_symmetry_multiplicity
 _atom_site_fract_x
 _atom_site_fract_y
 _atom_site_fract_z
 _atom_site_occupancy
  V  V0  1  0.000667  0.500000  0.750539  1
  V  V1  1  0.499509  0.749652  0.000061  1
  V  V2  1  0.499509  0.250348  0.000061  1
  V  V3  1  0.749428  0.000000  0.499943  1
  Re  Re4  1  0.999602  0.500000  0.247774  1
  Si  Si5  1  0.507449  0.500000  0.507259  1
  Si  Si6  1  0.993386  0.000000  0.994190  1
  Mo  Mo7  1  0.250449  0.000000  0.500173  1
