# generated using pymatgen
data_Li12Yb6Si4N
_symmetry_space_group_name_H-M   'P 1'
_cell_length_a   8.23243641
_cell_length_b   8.23243671
_cell_length_c   8.23243600
_cell_angle_alpha   109.47120904
_cell_angle_beta   109.47120979
_cell_angle_gamma   109.47123074
_symmetry_Int_Tables_number   1
_chemical_formula_structural   Li12Yb6Si4N
_chemical_formula_sum   'Li12 Yb6 Si4 N1'
_cell_volume   429.50015392
_cell_formula_units_Z   1
loop_
 _symmetry_equiv_pos_site_id
 _symmetry_equiv_pos_as_xyz
  1  'x, y, z'
loop_
 _atom_site_type_symbol
 _atom_site_label
 _atom_site_symmetry_multiplicity
 _atom_site_fract_x
 _atom_site_fract_y
 _atom_site_fract_z
 _atom_site_occupancy
  Li  Li0  1  0.660665  0.330333  0.330333  1
  Li  Li1  1  0.330333  0.000000  0.669667  1
  Li  Li2  1  0.330333  0.660665  0.330333  1
  Li  Li3  1  0.330333  0.330333  0.660665  1
  Li  Li4  1  0.330333  0.669667  0.000000  1
  Li  Li5  1  0.000000  0.330333  0.669667  1
  Li  Li6  1  0.000000  0.669667  0.330333  1
  Li  Li7  1  0.669667  0.669667  0.339335  1
  Li  Li8  1  0.669667  0.000000  0.330333  1
  Li  Li9  1  0.669667  0.330333  0.000000  1
  Li  Li10  1  0.669667  0.339335  0.669667  1
  Li  Li11  1  0.339335  0.669667  0.669667  1
  Yb  Yb12  1  0.000000  0.247083  0.247083  1
  Yb  Yb13  1  0.247083  0.000000  0.247083  1
  Yb  Yb14  1  0.752917  0.000000  0.752917  1
  Yb  Yb15  1  0.752917  0.752917  0.000000  1
  Yb  Yb16  1  0.247083  0.247083  0.000000  1
  Yb  Yb17  1  0.000000  0.752917  0.752917  1
  Si  Si18  1  0.500000  0.500000  0.500000  1
  Si  Si19  1  0.500000  0.000000  0.000000  1
  Si  Si20  1  0.000000  0.500000  0.000000  1
  Si  Si21  1  0.000000  0.000000  0.500000  1
  N  N22  1  0.000000  0.000000  0.000000  1
