# generated using pymatgen
data_Sc7FeCo5Sn23
_symmetry_space_group_name_H-M   'P 1'
_cell_length_a   9.55587660
_cell_length_b   9.55587578
_cell_length_c   9.77288842
_cell_angle_alpha   90.31174696
_cell_angle_beta   89.68825210
_cell_angle_gamma   120.03324919
_symmetry_Int_Tables_number   1
_chemical_formula_structural   Sc7FeCo5Sn23
_chemical_formula_sum   'Sc7 Fe1 Co5 Sn23'
_cell_volume   772.57460424
_cell_formula_units_Z   1
loop_
 _symmetry_equiv_pos_site_id
 _symmetry_equiv_pos_as_xyz
  1  'x, y, z'
loop_
 _atom_site_type_symbol
 _atom_site_label
 _atom_site_symmetry_multiplicity
 _atom_site_fract_x
 _atom_site_fract_y
 _atom_site_fract_z
 _atom_site_occupancy
  Sc  Sc0  1  0.483063  0.516937  0.307070  1
  Sc  Sc1  1  0.517041  0.482959  0.693136  1
  Sc  Sc2  1  0.485118  0.967100  0.306118  1
  Sc  Sc3  1  0.517752  0.035368  0.692534  1
  Sc  Sc4  1  0.032900  0.514882  0.306118  1
  Sc  Sc5  1  0.964632  0.482248  0.692534  1
  Sc  Sc6  1  0.997275  0.002725  0.003513  1
  Fe  Fe7  1  0.831663  0.168337  0.198771  1
  Co  Co8  1  0.169346  0.830654  0.801053  1
  Co  Co9  1  0.830312  0.661587  0.198727  1
  Co  Co10  1  0.169800  0.338396  0.800945  1
  Co  Co11  1  0.338413  0.169688  0.198727  1
  Co  Co12  1  0.661604  0.830200  0.800945  1
  Sn  Sn13  1  0.120762  0.879238  0.274568  1
  Sn  Sn14  1  0.878433  0.121567  0.725783  1
  Sn  Sn15  1  0.120592  0.240712  0.274564  1
  Sn  Sn16  1  0.879857  0.758702  0.725070  1
  Sn  Sn17  1  0.759288  0.879408  0.274564  1
  Sn  Sn18  1  0.241298  0.120143  0.725070  1
  Sn  Sn19  1  0.779823  0.220177  0.454845  1
  Sn  Sn20  1  0.220992  0.779008  0.545374  1
  Sn  Sn21  1  0.779333  0.558765  0.454348  1
  Sn  Sn22  1  0.220651  0.441149  0.545254  1
  Sn  Sn23  1  0.441235  0.220667  0.454348  1
  Sn  Sn24  1  0.558851  0.779349  0.545254  1
  Sn  Sn25  1  0.346237  0.999994  0.999699  1
  Sn  Sn26  1  0.654102  0.000050  0.999995  1
  Sn  Sn27  1  0.999950  0.345898  0.999995  1
  Sn  Sn28  1  0.000006  0.653763  0.999699  1
  Sn  Sn29  1  0.653444  0.653365  0.999964  1
  Sn  Sn30  1  0.346635  0.346556  0.999964  1
  Sn  Sn31  1  0.333247  0.666753  0.136615  1
  Sn  Sn32  1  0.666093  0.333907  0.863154  1
  Sn  Sn33  1  0.333440  0.666560  0.822481  1
  Sn  Sn34  1  0.667363  0.332637  0.177668  1
  Sn  Sn35  1  0.999452  0.000548  0.501535  1
