# generated using pymatgen
data_Nd3Er5(CdPt)2
_symmetry_space_group_name_H-M   'P 1'
_cell_length_a   9.74695196
_cell_length_b   9.74695211
_cell_length_c   9.74695200
_cell_angle_alpha   60.00000036
_cell_angle_beta   59.99999988
_cell_angle_gamma   59.99999844
_symmetry_Int_Tables_number   1
_chemical_formula_structural   Nd3Er5(CdPt)2
_chemical_formula_sum   'Nd6 Er10 Cd4 Pt4'
_cell_volume   654.77408599
_cell_formula_units_Z   2
loop_
 _symmetry_equiv_pos_site_id
 _symmetry_equiv_pos_as_xyz
  1  'x, y, z'
loop_
 _atom_site_type_symbol
 _atom_site_label
 _atom_site_symmetry_multiplicity
 _atom_site_fract_x
 _atom_site_fract_y
 _atom_site_fract_z
 _atom_site_occupancy
  Nd  Nd0  1  0.938005  0.561995  0.561995  1
  Nd  Nd1  1  0.561995  0.938005  0.938005  1
  Nd  Nd2  1  0.561995  0.938005  0.561995  1
  Nd  Nd3  1  0.938005  0.561995  0.938005  1
  Nd  Nd4  1  0.561995  0.561995  0.938005  1
  Nd  Nd5  1  0.938005  0.938005  0.561995  1
  Er  Er6  1  0.349754  0.349754  0.349754  1
  Er  Er7  1  0.349754  0.349754  0.950739  1
  Er  Er8  1  0.349754  0.950739  0.349754  1
  Er  Er9  1  0.950739  0.349754  0.349754  1
  Er  Er10  1  0.811986  0.188014  0.188014  1
  Er  Er11  1  0.188014  0.811986  0.811986  1
  Er  Er12  1  0.188014  0.811986  0.188014  1
  Er  Er13  1  0.811986  0.188014  0.811986  1
  Er  Er14  1  0.188014  0.188014  0.811986  1
  Er  Er15  1  0.811986  0.811986  0.188014  1
  Cd  Cd16  1  0.579692  0.579692  0.579692  1
  Cd  Cd17  1  0.579692  0.579692  0.260926  1
  Cd  Cd18  1  0.579692  0.260926  0.579692  1
  Cd  Cd19  1  0.260926  0.579692  0.579692  1
  Pt  Pt20  1  0.142387  0.142387  0.142387  1
  Pt  Pt21  1  0.142387  0.142387  0.572838  1
  Pt  Pt22  1  0.142387  0.572838  0.142387  1
  Pt  Pt23  1  0.572838  0.142387  0.142387  1
