# generated using pymatgen
data_NaErMg(P3Pd10)2
_symmetry_space_group_name_H-M   'P 1'
_cell_length_a   8.62142455
_cell_length_b   8.62162994
_cell_length_c   8.62144200
_cell_angle_alpha   59.99939434
_cell_angle_beta   60.00199140
_cell_angle_gamma   59.99945811
_symmetry_Int_Tables_number   1
_chemical_formula_structural   NaErMg(P3Pd10)2
_chemical_formula_sum   'Na1 Er1 Mg1 P6 Pd20'
_cell_volume   453.14385172
_cell_formula_units_Z   1
loop_
 _symmetry_equiv_pos_site_id
 _symmetry_equiv_pos_as_xyz
  1  'x, y, z'
loop_
 _atom_site_type_symbol
 _atom_site_label
 _atom_site_symmetry_multiplicity
 _atom_site_fract_x
 _atom_site_fract_y
 _atom_site_fract_z
 _atom_site_occupancy
  Na  Na0  1  0.000000  0.000000  0.000000  1
  Er  Er1  1  0.250004  0.250001  0.249994  1
  Mg  Mg2  1  0.750002  0.750001  0.749999  1
  P  P3  1  0.737668  0.262331  0.262336  1
  P  P4  1  0.737665  0.737664  0.262337  1
  P  P5  1  0.737664  0.262337  0.737660  1
  P  P6  1  0.262337  0.737664  0.262339  1
  P  P7  1  0.262333  0.737669  0.737665  1
  P  P8  1  0.262336  0.262332  0.737667  1
  Pd  Pd9  1  0.344565  0.001244  0.001251  1
  Pd  Pd10  1  0.001247  0.652940  0.344568  1
  Pd  Pd11  1  0.344568  0.001247  0.652944  1
  Pd  Pd12  1  0.001242  0.652945  0.001249  1
  Pd  Pd13  1  0.652946  0.344563  0.001239  1
  Pd  Pd14  1  0.618429  0.618427  0.144723  1
  Pd  Pd15  1  0.385450  0.843650  0.385448  1
  Pd  Pd16  1  0.144723  0.618424  0.618427  1
  Pd  Pd17  1  0.652945  0.001241  0.344567  1
  Pd  Pd18  1  0.001243  0.344570  0.652939  1
  Pd  Pd19  1  0.652941  0.001250  0.001245  1
  Pd  Pd20  1  0.001252  0.001242  0.344565  1
  Pd  Pd21  1  0.618421  0.144727  0.618425  1
  Pd  Pd22  1  0.344561  0.652947  0.001251  1
  Pd  Pd23  1  0.385447  0.385450  0.385453  1
  Pd  Pd24  1  0.618424  0.618430  0.618421  1
  Pd  Pd25  1  0.385453  0.385446  0.843648  1
  Pd  Pd26  1  0.001240  0.001251  0.652943  1
  Pd  Pd27  1  0.843649  0.385449  0.385455  1
  Pd  Pd28  1  0.001249  0.344565  0.001244  1
