# generated using pymatgen
data_Tb3Er2Si3O
_symmetry_space_group_name_H-M   'P 1'
_cell_length_a   8.40868300
_cell_length_b   8.40868367
_cell_length_c   6.20295200
_cell_angle_alpha   90.00000000
_cell_angle_beta   90.00000000
_cell_angle_gamma   120.00000916
_symmetry_Int_Tables_number   1
_chemical_formula_structural   Tb3Er2Si3O
_chemical_formula_sum   'Tb6 Er4 Si6 O2'
_cell_volume   379.82627761
_cell_formula_units_Z   2
loop_
 _symmetry_equiv_pos_site_id
 _symmetry_equiv_pos_as_xyz
  1  'x, y, z'
loop_
 _atom_site_type_symbol
 _atom_site_label
 _atom_site_symmetry_multiplicity
 _atom_site_fract_x
 _atom_site_fract_y
 _atom_site_fract_z
 _atom_site_occupancy
  Tb  Tb0  1  0.232605  0.000000  0.250000  1
  Tb  Tb1  1  0.767395  0.000000  0.750000  1
  Tb  Tb2  1  0.000000  0.232605  0.250000  1
  Tb  Tb3  1  0.000000  0.767395  0.750000  1
  Tb  Tb4  1  0.767395  0.767395  0.250000  1
  Tb  Tb5  1  0.232605  0.232605  0.750000  1
  Er  Er6  1  0.333333  0.666667  0.000000  1
  Er  Er7  1  0.666667  0.333333  0.000000  1
  Er  Er8  1  0.666667  0.333333  0.500000  1
  Er  Er9  1  0.333333  0.666667  0.500000  1
  Si  Si10  1  0.600341  0.000000  0.250000  1
  Si  Si11  1  0.399659  0.000000  0.750000  1
  Si  Si12  1  0.000000  0.600341  0.250000  1
  Si  Si13  1  0.000000  0.399659  0.750000  1
  Si  Si14  1  0.399659  0.399659  0.250000  1
  Si  Si15  1  0.600341  0.600341  0.750000  1
  O  O16  1  0.000000  0.000000  0.000000  1
  O  O17  1  0.000000  0.000000  0.500000  1
