# generated using pymatgen
data_Er8Ta11NbSi15Ge
_symmetry_space_group_name_H-M   'P 1'
_cell_length_a   6.83624376
_cell_length_b   7.02595763
_cell_length_c   13.35246101
_cell_angle_alpha   90.04554489
_cell_angle_beta   89.92725673
_cell_angle_gamma   90.05982767
_symmetry_Int_Tables_number   1
_chemical_formula_structural   Er8Ta11NbSi15Ge
_chemical_formula_sum   'Er8 Ta11 Nb1 Si15 Ge1'
_cell_volume   641.33310977
_cell_formula_units_Z   1
loop_
 _symmetry_equiv_pos_site_id
 _symmetry_equiv_pos_as_xyz
  1  'x, y, z'
loop_
 _atom_site_type_symbol
 _atom_site_label
 _atom_site_symmetry_multiplicity
 _atom_site_fract_x
 _atom_site_fract_y
 _atom_site_fract_z
 _atom_site_occupancy
  Er  Er0  1  0.503531  0.328879  0.095594  1
  Er  Er1  1  0.002541  0.170728  0.403857  1
  Er  Er2  1  0.499877  0.673914  0.596372  1
  Er  Er3  1  0.996361  0.828410  0.905089  1
  Er  Er4  1  0.496322  0.671095  0.904859  1
  Er  Er5  1  0.996191  0.829442  0.595927  1
  Er  Er6  1  0.504083  0.327138  0.403462  1
  Er  Er7  1  0.003351  0.171856  0.095222  1
  Ta  Ta8  1  0.663101  0.008487  0.750418  1
  Ta  Ta9  1  0.162431  0.490471  0.752172  1
  Ta  Ta10  1  0.336916  0.991537  0.249626  1
  Ta  Ta11  1  0.837148  0.509094  0.249857  1
  Ta  Ta12  1  0.835198  0.324382  0.625518  1
  Ta  Ta13  1  0.336403  0.175286  0.875278  1
  Ta  Ta14  1  0.163569  0.675350  0.124749  1
  Ta  Ta15  1  0.663424  0.825070  0.374570  1
  Ta  Ta16  1  0.161681  0.678128  0.373127  1
  Ta  Ta17  1  0.662552  0.824453  0.124793  1
  Ta  Ta18  1  0.836346  0.324459  0.875309  1
  Nb  Nb19  1  0.338600  0.171219  0.625993  1
  Si  Si20  1  0.795531  0.628005  0.750447  1
  Si  Si21  1  0.294493  0.870368  0.750900  1
  Si  Si22  1  0.204846  0.371899  0.249653  1
  Si  Si23  1  0.705082  0.128439  0.249404  1
  Si  Si24  1  0.540605  0.377606  0.750141  1
  Si  Si25  1  0.040555  0.122232  0.750314  1
  Si  Si26  1  0.459000  0.622303  0.249879  1
  Si  Si27  1  0.958344  0.878650  0.248807  1
  Si  Si28  1  0.665568  0.036352  0.540085  1
  Si  Si29  1  0.164051  0.464373  0.959522  1
  Si  Si30  1  0.335222  0.964568  0.040642  1
  Si  Si31  1  0.831868  0.536339  0.458824  1
  Si  Si32  1  0.335336  0.963671  0.459149  1
  Si  Si33  1  0.835688  0.535636  0.040878  1
  Si  Si34  1  0.664212  0.035554  0.959502  1
  Ge  Ge35  1  0.169973  0.464608  0.540066  1
