# generated using pymatgen
data_Dy3Al3CoSiGe
_symmetry_space_group_name_H-M   'P 1'
_cell_length_a   6.89176600
_cell_length_b   6.89176563
_cell_length_c   4.15598900
_cell_angle_alpha   90.00000000
_cell_angle_beta   90.00000000
_cell_angle_gamma   120.00000180
_symmetry_Int_Tables_number   1
_chemical_formula_structural   Dy3Al3CoSiGe
_chemical_formula_sum   'Dy3 Al3 Co1 Si1 Ge1'
_cell_volume   170.94879190
_cell_formula_units_Z   1
loop_
 _symmetry_equiv_pos_site_id
 _symmetry_equiv_pos_as_xyz
  1  'x, y, z'
loop_
 _atom_site_type_symbol
 _atom_site_label
 _atom_site_symmetry_multiplicity
 _atom_site_fract_x
 _atom_site_fract_y
 _atom_site_fract_z
 _atom_site_occupancy
  Dy  Dy0  1  0.404817  0.002189  0.000000  1
  Dy  Dy1  1  0.997811  0.402628  0.000000  1
  Dy  Dy2  1  0.597371  0.595183  0.000000  1
  Al  Al3  1  0.772626  0.002358  0.500000  1
  Al  Al4  1  0.229731  0.227375  0.500000  1
  Al  Al5  1  0.997642  0.770270  0.500000  1
  Co  Co6  1  0.000000  0.000000  0.000000  1
  Si  Si7  1  0.666666  0.333333  0.500000  1
  Ge  Ge8  1  0.333333  0.666666  0.500000  1
