# generated using pymatgen
data_HoLu4(In2Pd)2
_symmetry_space_group_name_H-M   'P 1'
_cell_length_a   3.58304000
_cell_length_b   8.03714600
_cell_length_c   18.06681300
_cell_angle_alpha   90.00000000
_cell_angle_beta   90.00000000
_cell_angle_gamma   90.00000000
_symmetry_Int_Tables_number   1
_chemical_formula_structural   HoLu4(In2Pd)2
_chemical_formula_sum   'Ho2 Lu8 In8 Pd4'
_cell_volume   520.27752260
_cell_formula_units_Z   2
loop_
 _symmetry_equiv_pos_site_id
 _symmetry_equiv_pos_as_xyz
  1  'x, y, z'
loop_
 _atom_site_type_symbol
 _atom_site_label
 _atom_site_symmetry_multiplicity
 _atom_site_fract_x
 _atom_site_fract_y
 _atom_site_fract_z
 _atom_site_occupancy
  Ho  Ho0  1  0.000000  0.500000  0.500000  1
  Ho  Ho1  1  0.000000  0.000000  0.000000  1
  Lu  Lu2  1  0.000000  0.741606  0.279661  1
  Lu  Lu3  1  0.000000  0.258394  0.720339  1
  Lu  Lu4  1  0.000000  0.758394  0.779661  1
  Lu  Lu5  1  0.000000  0.241606  0.220339  1
  Lu  Lu6  1  0.000000  0.618245  0.084588  1
  Lu  Lu7  1  0.000000  0.381755  0.915412  1
  Lu  Lu8  1  0.000000  0.881755  0.584588  1
  Lu  Lu9  1  0.000000  0.118245  0.415412  1
  In  In10  1  0.500000  0.706043  0.932458  1
  In  In11  1  0.500000  0.293957  0.067542  1
  In  In12  1  0.500000  0.793957  0.432458  1
  In  In13  1  0.500000  0.206043  0.567542  1
  In  In14  1  0.500000  0.578681  0.649787  1
  In  In15  1  0.500000  0.421319  0.350213  1
  In  In16  1  0.500000  0.921319  0.149787  1
  In  In17  1  0.500000  0.078681  0.850213  1
  Pd  Pd18  1  0.500000  0.524134  0.195204  1
  Pd  Pd19  1  0.500000  0.475866  0.804796  1
  Pd  Pd20  1  0.500000  0.975866  0.695204  1
  Pd  Pd21  1  0.500000  0.024134  0.304796  1
