# generated using pymatgen
data_DyLuZr2(Al3Ir)6
_symmetry_space_group_name_H-M   'P 1'
_cell_length_a   7.51827151
_cell_length_b   7.50556140
_cell_length_c   9.34971600
_cell_angle_alpha   90.00000000
_cell_angle_beta   90.00000000
_cell_angle_gamma   119.73125925
_symmetry_Int_Tables_number   1
_chemical_formula_structural   DyLuZr2(Al3Ir)6
_chemical_formula_sum   'Dy1 Lu1 Zr2 Al18 Ir6'
_cell_volume   458.14183810
_cell_formula_units_Z   1
loop_
 _symmetry_equiv_pos_site_id
 _symmetry_equiv_pos_as_xyz
  1  'x, y, z'
loop_
 _atom_site_type_symbol
 _atom_site_label
 _atom_site_symmetry_multiplicity
 _atom_site_fract_x
 _atom_site_fract_y
 _atom_site_fract_z
 _atom_site_occupancy
  Dy  Dy0  1  0.670473  0.994165  0.250000  1
  Lu  Lu1  1  0.329023  0.005710  0.750000  1
  Zr  Zr2  1  0.995402  0.671462  0.250000  1
  Zr  Zr3  1  0.004907  0.328797  0.750000  1
  Al  Al4  1  0.126587  0.124720  0.250000  1
  Al  Al5  1  0.874437  0.875678  0.750000  1
  Al  Al6  1  0.000031  0.336998  0.074580  1
  Al  Al7  1  0.000681  0.663576  0.924154  1
  Al  Al8  1  0.000681  0.663576  0.575846  1
  Al  Al9  1  0.332430  0.998847  0.422909  1
  Al  Al10  1  0.000031  0.336998  0.425420  1
  Al  Al11  1  0.666953  0.001321  0.578883  1
  Al  Al12  1  0.666953  0.001321  0.921117  1
  Al  Al13  1  0.332430  0.998847  0.077091  1
  Al  Al14  1  0.331461  0.333179  0.557449  1
  Al  Al15  1  0.668580  0.666222  0.443750  1
  Al  Al16  1  0.668580  0.666222  0.056250  1
  Al  Al17  1  0.331461  0.333179  0.942551  1
  Al  Al18  1  0.334458  0.547747  0.250000  1
  Al  Al19  1  0.664699  0.451145  0.750000  1
  Al  Al20  1  0.553818  0.343393  0.250000  1
  Al  Al21  1  0.445737  0.656972  0.750000  1
  Ir  Ir22  1  0.671726  0.327188  0.999099  1
  Ir  Ir23  1  0.327859  0.672664  0.000315  1
  Ir  Ir24  1  0.327859  0.672664  0.499685  1
  Ir  Ir25  1  0.671726  0.327188  0.500901  1
  Ir  Ir26  1  0.000509  0.000111  0.999639  1
  Ir  Ir27  1  0.000509  0.000111  0.500361  1
