# generated using pymatgen
data_Er2Si5IrRh2
_symmetry_space_group_name_H-M   'P 1'
_cell_length_a   8.14562849
_cell_length_b   8.11992109
_cell_length_c   8.11992046
_cell_angle_alpha   138.42990156
_cell_angle_beta   104.70988398
_cell_angle_gamma   89.83589690
_symmetry_Int_Tables_number   1
_chemical_formula_structural   Er2Si5IrRh2
_chemical_formula_sum   'Er4 Si10 Ir2 Rh4'
_cell_volume   329.70907878
_cell_formula_units_Z   2
loop_
 _symmetry_equiv_pos_site_id
 _symmetry_equiv_pos_as_xyz
  1  'x, y, z'
loop_
 _atom_site_type_symbol
 _atom_site_label
 _atom_site_symmetry_multiplicity
 _atom_site_fract_x
 _atom_site_fract_y
 _atom_site_fract_z
 _atom_site_occupancy
  Er  Er0  1  0.638567  0.868755  0.769811  1
  Er  Er1  1  0.361433  0.131245  0.230189  1
  Er  Er2  1  0.097347  0.367801  0.729547  1
  Er  Er3  1  0.902653  0.632198  0.270453  1
  Si  Si4  1  0.275905  0.028430  0.750720  1
  Si  Si5  1  0.724095  0.971570  0.249280  1
  Si  Si6  1  0.724095  0.474815  0.752526  1
  Si  Si7  1  0.275905  0.525185  0.247474  1
  Si  Si8  1  0.450019  0.605652  0.844367  1
  Si  Si9  1  0.549981  0.394348  0.155633  1
  Si  Si10  1  0.763024  0.106358  0.656667  1
  Si  Si11  1  0.236976  0.893642  0.343333  1
  Si  Si12  1  0.000000  0.749534  0.749534  1
  Si  Si13  1  0.000000  0.250466  0.250466  1
  Ir  Ir14  1  0.252815  0.640179  0.612636  1
  Ir  Ir15  1  0.747185  0.359821  0.387364  1
  Rh  Rh16  1  0.027656  0.139591  0.888065  1
  Rh  Rh17  1  0.972344  0.860409  0.111935  1
  Rh  Rh18  1  0.500000  0.749995  0.249995  1
  Rh  Rh19  1  0.500000  0.250005  0.750005  1
