# generated using pymatgen
data_SmY4(TcB3)2
_symmetry_space_group_name_H-M   'P 1'
_cell_length_a   5.54818853
_cell_length_b   5.54818865
_cell_length_c   8.57189373
_cell_angle_alpha   71.11759633
_cell_angle_beta   71.11760553
_cell_angle_gamma   59.99999820
_symmetry_Int_Tables_number   1
_chemical_formula_structural   SmY4(TcB3)2
_chemical_formula_sum   'Sm1 Y4 Tc2 B6'
_cell_volume   211.95735705
_cell_formula_units_Z   1
loop_
 _symmetry_equiv_pos_site_id
 _symmetry_equiv_pos_as_xyz
  1  'x, y, z'
loop_
 _atom_site_type_symbol
 _atom_site_label
 _atom_site_symmetry_multiplicity
 _atom_site_fract_x
 _atom_site_fract_y
 _atom_site_fract_z
 _atom_site_occupancy
  Sm  Sm0  1  0.000000  0.000000  0.000000  1
  Y  Y1  1  0.247232  0.247232  0.258303  1
  Y  Y2  1  0.752768  0.752768  0.741697  1
  Y  Y3  1  0.419417  0.419417  0.741750  1
  Y  Y4  1  0.580583  0.580583  0.258250  1
  Tc  Tc5  1  0.111585  0.111585  0.665244  1
  Tc  Tc6  1  0.888415  0.888415  0.334756  1
  B  B7  1  0.170500  0.829500  0.500000  1
  B  B8  1  0.829500  0.500000  0.500000  1
  B  B9  1  0.500000  0.170500  0.500000  1
  B  B10  1  0.170500  0.500000  0.500000  1
  B  B11  1  0.500000  0.829500  0.500000  1
  B  B12  1  0.829500  0.170500  0.500000  1
