# generated using pymatgen
data_Gd4Zn9In2Ag
_symmetry_space_group_name_H-M   'P 1'
_cell_length_a   4.42234100
_cell_length_b   7.09222206
_cell_length_c   9.99227800
_cell_angle_alpha   89.99259185
_cell_angle_beta   90.00000000
_cell_angle_gamma   90.00000000
_symmetry_Int_Tables_number   1
_chemical_formula_structural   Gd4Zn9In2Ag
_chemical_formula_sum   'Gd4 Zn9 In2 Ag1'
_cell_volume   313.40004678
_cell_formula_units_Z   1
loop_
 _symmetry_equiv_pos_site_id
 _symmetry_equiv_pos_as_xyz
  1  'x, y, z'
loop_
 _atom_site_type_symbol
 _atom_site_label
 _atom_site_symmetry_multiplicity
 _atom_site_fract_x
 _atom_site_fract_y
 _atom_site_fract_z
 _atom_site_occupancy
  Gd  Gd0  1  0.250000  0.307373  0.676795  1
  Gd  Gd1  1  0.750000  0.697859  0.329864  1
  Gd  Gd2  1  0.250000  0.802506  0.823296  1
  Gd  Gd3  1  0.750000  0.197456  0.168427  1
  Zn  Zn4  1  0.750000  0.968236  0.599570  1
  Zn  Zn5  1  0.750000  0.302971  0.467696  1
  Zn  Zn6  1  0.250000  0.687528  0.537292  1
  Zn  Zn7  1  0.750000  0.808639  0.034230  1
  Zn  Zn8  1  0.250000  0.183874  0.960425  1
  Zn  Zn9  1  0.750000  0.597418  0.650050  1
  Zn  Zn10  1  0.250000  0.414395  0.357659  1
  Zn  Zn11  1  0.750000  0.092338  0.844582  1
  Zn  Zn12  1  0.250000  0.914284  0.143759  1
  In  In13  1  0.250000  0.528211  0.095607  1
  In  In14  1  0.250000  0.028824  0.407678  1
  Ag  Ag15  1  0.750000  0.468088  0.903068  1
