# generated using pymatgen
data_Ta6PdS12
_symmetry_space_group_name_H-M   'P 1'
_cell_length_a   5.79019152
_cell_length_b   5.79019120
_cell_length_c   13.09870732
_cell_angle_alpha   85.76258267
_cell_angle_beta   85.76258340
_cell_angle_gamma   120.00964767
_symmetry_Int_Tables_number   1
_chemical_formula_structural   Ta6PdS12
_chemical_formula_sum   'Ta6 Pd1 S12'
_cell_volume   376.10275719
_cell_formula_units_Z   1
loop_
 _symmetry_equiv_pos_site_id
 _symmetry_equiv_pos_as_xyz
  1  'x, y, z'
loop_
 _atom_site_type_symbol
 _atom_site_label
 _atom_site_symmetry_multiplicity
 _atom_site_fract_x
 _atom_site_fract_y
 _atom_site_fract_z
 _atom_site_occupancy
  Ta  Ta0  1  0.081423  0.081423  0.755705  1
  Ta  Ta1  1  0.413605  0.746946  0.759393  1
  Ta  Ta2  1  0.746946  0.413605  0.759393  1
  Ta  Ta3  1  0.253054  0.586395  0.240607  1
  Ta  Ta4  1  0.586395  0.253054  0.240607  1
  Ta  Ta5  1  0.918577  0.918577  0.244295  1
  Pd  Pd6  1  0.000000  0.000000  0.000000  1
  S  S7  1  0.297538  0.297538  0.121536  1
  S  S8  1  0.621730  0.959550  0.121576  1
  S  S9  1  0.959550  0.621730  0.121576  1
  S  S10  1  0.040450  0.378270  0.878424  1
  S  S11  1  0.378270  0.040450  0.878424  1
  S  S12  1  0.702462  0.702462  0.878464  1
  S  S13  1  0.213580  0.213580  0.362965  1
  S  S14  1  0.544025  0.878790  0.362975  1
  S  S15  1  0.878790  0.544025  0.362975  1
  S  S16  1  0.121210  0.455975  0.637025  1
  S  S17  1  0.455975  0.121210  0.637025  1
  S  S18  1  0.786420  0.786420  0.637035  1
