# generated using pymatgen
data_Tb17Tm3Ir7Au5
_symmetry_space_group_name_H-M   'P 1'
_cell_length_a   11.19890707
_cell_length_b   11.19877034
_cell_length_c   6.32972854
_cell_angle_alpha   89.96934441
_cell_angle_beta   89.98778180
_cell_angle_gamma   89.68403233
_symmetry_Int_Tables_number   1
_chemical_formula_structural   Tb17Tm3Ir7Au5
_chemical_formula_sum   'Tb17 Tm3 Ir7 Au5'
_cell_volume   793.82429930
_cell_formula_units_Z   1
loop_
 _symmetry_equiv_pos_site_id
 _symmetry_equiv_pos_as_xyz
  1  'x, y, z'
loop_
 _atom_site_type_symbol
 _atom_site_label
 _atom_site_symmetry_multiplicity
 _atom_site_fract_x
 _atom_site_fract_y
 _atom_site_fract_z
 _atom_site_occupancy
  Tb  Tb0  1  0.299382  0.090853  0.364486  1
  Tb  Tb1  1  0.300710  0.907536  0.863547  1
  Tb  Tb2  1  0.698992  0.080898  0.860674  1
  Tb  Tb3  1  0.698805  0.905981  0.361642  1
  Tb  Tb4  1  0.581120  0.783686  0.876677  1
  Tb  Tb5  1  0.576328  0.207716  0.364580  1
  Tb  Tb6  1  0.417680  0.787632  0.376774  1
  Tb  Tb7  1  0.411150  0.209147  0.878574  1
  Tb  Tb8  1  0.216335  0.418704  0.623253  1
  Tb  Tb9  1  0.212439  0.582109  0.123206  1
  Tb  Tb10  1  0.792220  0.423873  0.135516  1
  Tb  Tb11  1  0.790801  0.588977  0.621234  1
  Tb  Tb12  1  0.909218  0.700933  0.134984  1
  Tb  Tb13  1  0.919159  0.301432  0.639993  1
  Tb  Tb14  1  0.092515  0.698868  0.637225  1
  Tb  Tb15  1  0.093918  0.300877  0.138111  1
  Tb  Tb16  1  0.998806  0.000448  0.499113  1
  Tm  Tm17  1  0.999550  0.001260  0.000589  1
  Tm  Tm18  1  0.495586  0.502451  0.001520  1
  Tm  Tm19  1  0.497619  0.504377  0.498435  1
  Ir  Ir20  1  0.651369  0.649709  0.250283  1
  Ir  Ir21  1  0.350321  0.348663  0.249600  1
  Ir  Ir22  1  0.347122  0.652946  0.750096  1
  Ir  Ir23  1  0.499601  0.999305  0.112351  1
  Ir  Ir24  1  0.499326  0.000612  0.613374  1
  Ir  Ir25  1  0.999425  0.500633  0.886643  1
  Ir  Ir26  1  0.000677  0.500417  0.387448  1
  Au  Au27  1  0.842710  0.157481  0.247784  1
  Au  Au28  1  0.844601  0.846490  0.752916  1
  Au  Au29  1  0.153616  0.155147  0.751376  1
  Au  Au30  1  0.155043  0.844734  0.247810  1
  Au  Au31  1  0.653857  0.346102  0.750186  1
