# generated using pymatgen
data_HoLu5TcTe2
_symmetry_space_group_name_H-M   'P 1'
_cell_length_a   8.02217100
_cell_length_b   8.00396352
_cell_length_c   4.22389700
_cell_angle_alpha   90.00000000
_cell_angle_beta   90.00000000
_cell_angle_gamma   120.07527450
_symmetry_Int_Tables_number   1
_chemical_formula_structural   HoLu5TcTe2
_chemical_formula_sum   'Ho1 Lu5 Tc1 Te2'
_cell_volume   234.69889632
_cell_formula_units_Z   1
loop_
 _symmetry_equiv_pos_site_id
 _symmetry_equiv_pos_as_xyz
  1  'x, y, z'
loop_
 _atom_site_type_symbol
 _atom_site_label
 _atom_site_symmetry_multiplicity
 _atom_site_fract_x
 _atom_site_fract_y
 _atom_site_fract_z
 _atom_site_occupancy
  Ho  Ho0  1  0.613270  0.000000  0.000000  1
  Lu  Lu1  1  0.235818  0.000000  0.500000  1
  Lu  Lu2  1  0.000682  0.235443  0.500000  1
  Lu  Lu3  1  0.765240  0.764557  0.500000  1
  Lu  Lu4  1  0.999777  0.616795  0.000000  1
  Lu  Lu5  1  0.382983  0.383205  0.000000  1
  Tc  Tc6  1  0.003479  0.000000  0.000000  1
  Te  Te7  1  0.332513  0.666275  0.500000  1
  Te  Te8  1  0.666239  0.333725  0.500000  1
