# generated using pymatgen
data_Y2Er(TmIr)2
_symmetry_space_group_name_H-M   'P 1'
_cell_length_a   6.44471290
_cell_length_b   7.20444746
_cell_length_c   8.46532741
_cell_angle_alpha   96.91649060
_cell_angle_beta   112.37416213
_cell_angle_gamma   90.00000441
_symmetry_Int_Tables_number   1
_chemical_formula_structural   Y2Er(TmIr)2
_chemical_formula_sum   'Y4 Er2 Tm4 Ir4'
_cell_volume   360.36538093
_cell_formula_units_Z   2
loop_
 _symmetry_equiv_pos_site_id
 _symmetry_equiv_pos_as_xyz
  1  'x, y, z'
loop_
 _atom_site_type_symbol
 _atom_site_label
 _atom_site_symmetry_multiplicity
 _atom_site_fract_x
 _atom_site_fract_y
 _atom_site_fract_z
 _atom_site_occupancy
  Y  Y0  1  0.971171  0.920195  0.185974  1
  Y  Y1  1  0.785195  0.579805  0.814026  1
  Y  Y2  1  0.028867  0.080088  0.814008  1
  Y  Y3  1  0.214862  0.419912  0.185992  1
  Er  Er4  1  0.650324  0.817268  0.440590  1
  Er  Er5  1  0.209734  0.682732  0.559410  1
  Tm  Tm6  1  0.349685  0.182853  0.559548  1
  Tm  Tm7  1  0.790138  0.317147  0.440452  1
  Tm  Tm8  1  0.427942  0.750000  0.000000  1
  Tm  Tm9  1  0.572117  0.250000  0.000000  1
  Ir  Ir10  1  0.820018  0.572970  0.221005  1
  Ir  Ir11  1  0.599013  0.927030  0.778995  1
  Ir  Ir12  1  0.179831  0.426575  0.778726  1
  Ir  Ir13  1  0.401104  0.073425  0.221274  1
