# generated using pymatgen
data_Nd3Dy2In3S
_symmetry_space_group_name_H-M   'P 1'
_cell_length_a   9.38715000
_cell_length_b   9.38714968
_cell_length_c   6.66791300
_cell_angle_alpha   90.00000000
_cell_angle_beta   90.00000000
_cell_angle_gamma   120.00000113
_symmetry_Int_Tables_number   1
_chemical_formula_structural   Nd3Dy2In3S
_chemical_formula_sum   'Nd6 Dy4 In6 S2'
_cell_volume   508.84797666
_cell_formula_units_Z   2
loop_
 _symmetry_equiv_pos_site_id
 _symmetry_equiv_pos_as_xyz
  1  'x, y, z'
loop_
 _atom_site_type_symbol
 _atom_site_label
 _atom_site_symmetry_multiplicity
 _atom_site_fract_x
 _atom_site_fract_y
 _atom_site_fract_z
 _atom_site_occupancy
  Nd  Nd0  1  0.755621  0.755621  0.250000  1
  Nd  Nd1  1  0.000000  0.755621  0.750000  1
  Nd  Nd2  1  0.755621  0.000000  0.750000  1
  Nd  Nd3  1  0.244379  0.244379  0.750000  1
  Nd  Nd4  1  0.000000  0.244379  0.250000  1
  Nd  Nd5  1  0.244379  0.000000  0.250000  1
  Dy  Dy6  1  0.333333  0.666667  0.500000  1
  Dy  Dy7  1  0.666667  0.333333  0.500000  1
  Dy  Dy8  1  0.333333  0.666667  0.000000  1
  Dy  Dy9  1  0.666667  0.333333  0.000000  1
  In  In10  1  0.404375  0.000000  0.750000  1
  In  In11  1  0.000000  0.595625  0.250000  1
  In  In12  1  0.595625  0.000000  0.250000  1
  In  In13  1  0.000000  0.404375  0.750000  1
  In  In14  1  0.404375  0.404375  0.250000  1
  In  In15  1  0.595625  0.595625  0.750000  1
  S  S16  1  0.000000  0.000000  0.500000  1
  S  S17  1  0.000000  0.000000  0.000000  1
