# generated using pymatgen
data_La2B2Ir5
_symmetry_space_group_name_H-M   'P 1'
_cell_length_a   5.57630141
_cell_length_b   5.57630211
_cell_length_c   11.16577870
_cell_angle_alpha   89.99999933
_cell_angle_beta   75.53994261
_cell_angle_gamma   120.00001479
_symmetry_Int_Tables_number   1
_chemical_formula_structural   La2B2Ir5
_chemical_formula_sum   'La4 B4 Ir10'
_cell_volume   287.91506067
_cell_formula_units_Z   2
loop_
 _symmetry_equiv_pos_site_id
 _symmetry_equiv_pos_as_xyz
  1  'x, y, z'
loop_
 _atom_site_type_symbol
 _atom_site_label
 _atom_site_symmetry_multiplicity
 _atom_site_fract_x
 _atom_site_fract_y
 _atom_site_fract_z
 _atom_site_occupancy
  La  La0  1  0.899899  0.949950  0.150153  1
  La  La1  1  0.697248  0.848624  0.454129  1
  La  La2  1  0.302753  0.151377  0.545870  1
  La  La3  1  0.100102  0.050051  0.849848  1
  B  B4  1  0.236479  0.618239  0.145283  1
  B  B5  1  0.567223  0.283612  0.149166  1
  B  B6  1  0.432778  0.716389  0.850834  1
  B  B7  1  0.763522  0.381762  0.854718  1
  Ir  Ir8  1  0.500000  0.500000  0.000000  1
  Ir  Ir9  1  0.000000  0.500002  0.000000  1
  Ir  Ir10  1  0.817351  0.408675  0.284331  1
  Ir  Ir11  1  0.306994  0.408676  0.284331  1
  Ir  Ir12  1  0.306995  0.898320  0.284331  1
  Ir  Ir13  1  0.000001  0.500000  0.500000  1
  Ir  Ir14  1  0.693007  0.101680  0.715670  1
  Ir  Ir15  1  0.693007  0.591325  0.715670  1
  Ir  Ir16  1  0.182650  0.591326  0.715670  1
  Ir  Ir17  1  0.500002  0.000000  0.000000  1
