# generated using pymatgen
data_Zr5ReBi2
_symmetry_space_group_name_H-M   'P 1'
_cell_length_a   5.59681870
_cell_length_b   8.57326386
_cell_length_c   8.57326431
_cell_angle_alpha   83.88385528
_cell_angle_beta   70.94889912
_cell_angle_gamma   70.94890708
_symmetry_Int_Tables_number   1
_chemical_formula_structural   Zr5ReBi2
_chemical_formula_sum   'Zr10 Re2 Bi4'
_cell_volume   367.54173788
_cell_formula_units_Z   2
loop_
 _symmetry_equiv_pos_site_id
 _symmetry_equiv_pos_as_xyz
  1  'x, y, z'
loop_
 _atom_site_type_symbol
 _atom_site_label
 _atom_site_symmetry_multiplicity
 _atom_site_fract_x
 _atom_site_fract_y
 _atom_site_fract_z
 _atom_site_occupancy
  Zr  Zr0  1  0.250000  0.500000  0.500000  1
  Zr  Zr1  1  0.750000  0.500000  0.500000  1
  Zr  Zr2  1  0.072129  0.133411  0.722331  1
  Zr  Zr3  1  0.927871  0.866589  0.277669  1
  Zr  Zr4  1  0.794460  0.277669  0.133411  1
  Zr  Zr5  1  0.427871  0.277669  0.866589  1
  Zr  Zr6  1  0.205540  0.722331  0.866589  1
  Zr  Zr7  1  0.572129  0.722331  0.133411  1
  Zr  Zr8  1  0.705540  0.866589  0.722331  1
  Zr  Zr9  1  0.294460  0.133411  0.277669  1
  Re  Re10  1  0.250000  0.000000  0.000000  1
  Re  Re11  1  0.750000  0.000000  0.000000  1
  Bi  Bi12  1  0.164422  0.500000  0.171155  1
  Bi  Bi13  1  0.835578  0.500000  0.828845  1
  Bi  Bi14  1  0.335578  0.828845  0.500000  1
  Bi  Bi15  1  0.664422  0.171155  0.500000  1
