# generated using pymatgen
data_ErTmSc3Si4
_symmetry_space_group_name_H-M   'P 1'
_cell_length_a   7.05704111
_cell_length_b   7.34995709
_cell_length_c   13.92441903
_cell_angle_alpha   89.99997145
_cell_angle_beta   90.00764665
_cell_angle_gamma   90.01830997
_symmetry_Int_Tables_number   1
_chemical_formula_structural   ErTmSc3Si4
_chemical_formula_sum   'Er4 Tm4 Sc12 Si16'
_cell_volume   722.24494195
_cell_formula_units_Z   4
loop_
 _symmetry_equiv_pos_site_id
 _symmetry_equiv_pos_as_xyz
  1  'x, y, z'
loop_
 _atom_site_type_symbol
 _atom_site_label
 _atom_site_symmetry_multiplicity
 _atom_site_fract_x
 _atom_site_fract_y
 _atom_site_fract_z
 _atom_site_occupancy
  Er  Er0  1  0.012130  0.176016  0.096723  1
  Er  Er1  1  0.987839  0.824142  0.903284  1
  Er  Er2  1  0.487936  0.675828  0.903415  1
  Er  Er3  1  0.987883  0.824069  0.596639  1
  Tm  Tm4  1  0.512120  0.324005  0.096829  1
  Tm  Tm5  1  0.012185  0.176086  0.403148  1
  Tm  Tm6  1  0.512119  0.323965  0.403263  1
  Tm  Tm7  1  0.487863  0.675938  0.596743  1
  Sc  Sc8  1  0.160802  0.503400  0.749951  1
  Sc  Sc9  1  0.839186  0.496455  0.250052  1
  Sc  Sc10  1  0.339260  0.003585  0.250046  1
  Sc  Sc11  1  0.660726  0.996553  0.749947  1
  Sc  Sc12  1  0.330774  0.177079  0.625007  1
  Sc  Sc13  1  0.669269  0.823011  0.374935  1
  Sc  Sc14  1  0.169424  0.676860  0.374932  1
  Sc  Sc15  1  0.669285  0.823007  0.125133  1
  Sc  Sc16  1  0.830617  0.323103  0.625009  1
  Sc  Sc17  1  0.330751  0.177020  0.874922  1
  Sc  Sc18  1  0.830600  0.323094  0.874918  1
  Sc  Sc19  1  0.169448  0.676803  0.125131  1
  Si  Si20  1  0.032886  0.115643  0.749977  1
  Si  Si21  1  0.967178  0.884478  0.250070  1
  Si  Si22  1  0.467220  0.615293  0.250019  1
  Si  Si23  1  0.532839  0.384568  0.749923  1
  Si  Si24  1  0.285139  0.871799  0.749887  1
  Si  Si25  1  0.714887  0.128441  0.250114  1
  Si  Si26  1  0.215189  0.371659  0.250109  1
  Si  Si27  1  0.784828  0.628098  0.749883  1
  Si  Si28  1  0.159192  0.465112  0.539355  1
  Si  Si29  1  0.840869  0.534495  0.460499  1
  Si  Si30  1  0.340995  0.965342  0.460545  1
  Si  Si31  1  0.840843  0.534694  0.039458  1
  Si  Si32  1  0.658757  0.034819  0.539373  1
  Si  Si33  1  0.158911  0.465145  0.960618  1
  Si  Si34  1  0.658773  0.035021  0.960664  1
  Si  Si35  1  0.341278  0.965376  0.039481  1
