# generated using pymatgen
data_CsEu(ErSe2)2
_symmetry_space_group_name_H-M   'P 1'
_cell_length_a   4.18714300
_cell_length_b   4.18714344
_cell_length_c   30.53856100
_cell_angle_alpha   90.00000000
_cell_angle_beta   90.00000000
_cell_angle_gamma   119.99998865
_symmetry_Int_Tables_number   1
_chemical_formula_structural   CsEu(ErSe2)2
_chemical_formula_sum   'Cs2 Eu2 Er4 Se8'
_cell_volume   463.67628268
_cell_formula_units_Z   2
loop_
 _symmetry_equiv_pos_site_id
 _symmetry_equiv_pos_as_xyz
  1  'x, y, z'
loop_
 _atom_site_type_symbol
 _atom_site_label
 _atom_site_symmetry_multiplicity
 _atom_site_fract_x
 _atom_site_fract_y
 _atom_site_fract_z
 _atom_site_occupancy
  Cs  Cs0  1  0.666667  0.333333  0.250000  1
  Cs  Cs1  1  0.333333  0.666667  0.750000  1
  Eu  Eu2  1  0.000000  0.000000  0.500000  1
  Eu  Eu3  1  0.000000  0.000000  0.000000  1
  Er  Er4  1  0.666667  0.333333  0.613307  1
  Er  Er5  1  0.666667  0.333333  0.886693  1
  Er  Er6  1  0.333333  0.666667  0.386693  1
  Er  Er7  1  0.333333  0.666667  0.113307  1
  Se  Se8  1  0.000000  0.000000  0.163185  1
  Se  Se9  1  0.666667  0.333333  0.439835  1
  Se  Se10  1  0.000000  0.000000  0.663185  1
  Se  Se11  1  0.333333  0.666667  0.939835  1
  Se  Se12  1  0.333333  0.666667  0.560165  1
  Se  Se13  1  0.000000  0.000000  0.336815  1
  Se  Se14  1  0.666667  0.333333  0.060165  1
  Se  Se15  1  0.000000  0.000000  0.836815  1
