# generated using pymatgen
data_La2AlCuPt8
_symmetry_space_group_name_H-M   'P 1'
_cell_length_a   5.27634594
_cell_length_b   5.27634512
_cell_length_c   8.89122800
_cell_angle_alpha   90.00000000
_cell_angle_beta   90.00000000
_cell_angle_gamma   116.08849468
_symmetry_Int_Tables_number   1
_chemical_formula_structural   La2AlCuPt8
_chemical_formula_sum   'La2 Al1 Cu1 Pt8'
_cell_volume   222.31081389
_cell_formula_units_Z   1
loop_
 _symmetry_equiv_pos_site_id
 _symmetry_equiv_pos_as_xyz
  1  'x, y, z'
loop_
 _atom_site_type_symbol
 _atom_site_label
 _atom_site_symmetry_multiplicity
 _atom_site_fract_x
 _atom_site_fract_y
 _atom_site_fract_z
 _atom_site_occupancy
  La  La0  1  0.000000  0.000000  0.761101  1
  La  La1  1  0.000000  0.000000  0.238899  1
  Al  Al2  1  0.500000  0.500000  0.500000  1
  Cu  Cu3  1  0.500000  0.500000  0.000000  1
  Pt  Pt4  1  0.661994  0.338006  0.748609  1
  Pt  Pt5  1  0.661994  0.338006  0.251391  1
  Pt  Pt6  1  0.338006  0.661994  0.748609  1
  Pt  Pt7  1  0.500000  0.000000  0.500000  1
  Pt  Pt8  1  0.000000  0.500000  0.000000  1
  Pt  Pt9  1  0.500000  0.000000  0.000000  1
  Pt  Pt10  1  0.338006  0.661994  0.251391  1
  Pt  Pt11  1  0.000000  0.500000  0.500000  1
