# generated using pymatgen
data_Pr2Nd6Cd2IrPd
_symmetry_space_group_name_H-M   'P 1'
_cell_length_a   10.01513924
_cell_length_b   10.01450806
_cell_length_c   9.99307202
_cell_angle_alpha   60.07495380
_cell_angle_beta   60.06868777
_cell_angle_gamma   60.26674521
_symmetry_Int_Tables_number   1
_chemical_formula_structural   Pr2Nd6Cd2IrPd
_chemical_formula_sum   'Pr4 Nd12 Cd4 Ir2 Pd2'
_cell_volume   710.90407476
_cell_formula_units_Z   2
loop_
 _symmetry_equiv_pos_site_id
 _symmetry_equiv_pos_as_xyz
  1  'x, y, z'
loop_
 _atom_site_type_symbol
 _atom_site_label
 _atom_site_symmetry_multiplicity
 _atom_site_fract_x
 _atom_site_fract_y
 _atom_site_fract_z
 _atom_site_occupancy
  Pr  Pr0  1  0.564518  0.939330  0.560706  1
  Pr  Pr1  1  0.939330  0.564518  0.935445  1
  Pr  Pr2  1  0.562685  0.562685  0.937315  1
  Pr  Pr3  1  0.937941  0.937941  0.562059  1
  Nd  Nd4  1  0.350281  0.350536  0.345074  1
  Nd  Nd5  1  0.350536  0.350281  0.954107  1
  Nd  Nd6  1  0.356899  0.944876  0.348980  1
  Nd  Nd7  1  0.944876  0.356899  0.349243  1
  Nd  Nd8  1  0.804962  0.190571  0.190112  1
  Nd  Nd9  1  0.190571  0.804962  0.814355  1
  Nd  Nd10  1  0.190566  0.804942  0.190154  1
  Nd  Nd11  1  0.804942  0.190566  0.814337  1
  Nd  Nd12  1  0.191584  0.191584  0.808416  1
  Nd  Nd13  1  0.810562  0.810562  0.189438  1
  Nd  Nd14  1  0.939617  0.564222  0.560356  1
  Nd  Nd15  1  0.564222  0.939617  0.935805  1
  Cd  Cd16  1  0.580405  0.580240  0.580526  1
  Cd  Cd17  1  0.580240  0.580405  0.258830  1
  Cd  Cd18  1  0.579151  0.259788  0.580619  1
  Cd  Cd19  1  0.259788  0.579151  0.580442  1
  Ir  Ir20  1  0.140914  0.571811  0.143742  1
  Ir  Ir21  1  0.571811  0.140914  0.143534  1
  Pd  Pd22  1  0.141882  0.141717  0.146384  1
  Pd  Pd23  1  0.141717  0.141882  0.570016  1
