# generated using pymatgen
data_Y10Cd3Re
_symmetry_space_group_name_H-M   'P 1'
_cell_length_a   9.58407900
_cell_length_b   9.58407971
_cell_length_c   10.03479100
_cell_angle_alpha   90.00000000
_cell_angle_beta   90.00000000
_cell_angle_gamma   119.99999408
_symmetry_Int_Tables_number   1
_chemical_formula_structural   Y10Cd3Re
_chemical_formula_sum   'Y20 Cd6 Re2'
_cell_volume   798.25158838
_cell_formula_units_Z   2
loop_
 _symmetry_equiv_pos_site_id
 _symmetry_equiv_pos_as_xyz
  1  'x, y, z'
loop_
 _atom_site_type_symbol
 _atom_site_label
 _atom_site_symmetry_multiplicity
 _atom_site_fract_x
 _atom_site_fract_y
 _atom_site_fract_z
 _atom_site_occupancy
  Y  Y0  1  0.000000  0.000000  0.500000  1
  Y  Y1  1  0.000000  0.000000  0.000000  1
  Y  Y2  1  0.537765  0.462235  0.250000  1
  Y  Y3  1  0.537765  0.075530  0.250000  1
  Y  Y4  1  0.924470  0.462235  0.250000  1
  Y  Y5  1  0.462235  0.537765  0.750000  1
  Y  Y6  1  0.462235  0.924470  0.750000  1
  Y  Y7  1  0.075530  0.537765  0.750000  1
  Y  Y8  1  0.209731  0.790269  0.442027  1
  Y  Y9  1  0.209731  0.419464  0.442027  1
  Y  Y10  1  0.580536  0.790269  0.442027  1
  Y  Y11  1  0.790269  0.209731  0.557973  1
  Y  Y12  1  0.790269  0.580536  0.557973  1
  Y  Y13  1  0.419464  0.209731  0.557973  1
  Y  Y14  1  0.790269  0.209731  0.942027  1
  Y  Y15  1  0.790269  0.580536  0.942027  1
  Y  Y16  1  0.419464  0.209731  0.942027  1
  Y  Y17  1  0.209731  0.790269  0.057973  1
  Y  Y18  1  0.209731  0.419464  0.057973  1
  Y  Y19  1  0.580536  0.790269  0.057973  1
  Cd  Cd20  1  0.886216  0.113784  0.250000  1
  Cd  Cd21  1  0.886216  0.772433  0.250000  1
  Cd  Cd22  1  0.227567  0.113784  0.250000  1
  Cd  Cd23  1  0.113784  0.886216  0.750000  1
  Cd  Cd24  1  0.113784  0.227567  0.750000  1
  Cd  Cd25  1  0.772433  0.886216  0.750000  1
  Re  Re26  1  0.333333  0.666667  0.250000  1
  Re  Re27  1  0.666667  0.333333  0.750000  1
