# generated using pymatgen
data_Pm2GaPt3
_symmetry_space_group_name_H-M   'P 1'
_cell_length_a   5.38569722
_cell_length_b   5.38569771
_cell_length_c   5.38569629
_cell_angle_alpha   63.02385615
_cell_angle_beta   63.02385850
_cell_angle_gamma   63.02385511
_symmetry_Int_Tables_number   1
_chemical_formula_structural   Pm2GaPt3
_chemical_formula_sum   'Pm2 Ga1 Pt3'
_cell_volume   117.87549669
_cell_formula_units_Z   1
loop_
 _symmetry_equiv_pos_site_id
 _symmetry_equiv_pos_as_xyz
  1  'x, y, z'
loop_
 _atom_site_type_symbol
 _atom_site_label
 _atom_site_symmetry_multiplicity
 _atom_site_fract_x
 _atom_site_fract_y
 _atom_site_fract_z
 _atom_site_occupancy
  Pm  Pm0  1  0.748436  0.748436  0.748436  1
  Pm  Pm1  1  0.501564  0.501564  0.501564  1
  Ga  Ga2  1  0.125000  0.125000  0.125000  1
  Pt  Pt3  1  0.625000  0.125000  0.125000  1
  Pt  Pt4  1  0.125000  0.625000  0.125000  1
  Pt  Pt5  1  0.125000  0.125000  0.625000  1
