# generated using pymatgen
data_Ho5Er3Ti12Si15As
_symmetry_space_group_name_H-M   'P 1'
_cell_length_a   7.04123879
_cell_length_b   7.03390829
_cell_length_c   12.93103501
_cell_angle_alpha   89.98802680
_cell_angle_beta   89.82649234
_cell_angle_gamma   89.94617977
_symmetry_Int_Tables_number   1
_chemical_formula_structural   Ho5Er3Ti12Si15As
_chemical_formula_sum   'Ho5 Er3 Ti12 Si15 As1'
_cell_volume   640.43767147
_cell_formula_units_Z   1
loop_
 _symmetry_equiv_pos_site_id
 _symmetry_equiv_pos_as_xyz
  1  'x, y, z'
loop_
 _atom_site_type_symbol
 _atom_site_label
 _atom_site_symmetry_multiplicity
 _atom_site_fract_x
 _atom_site_fract_y
 _atom_site_fract_z
 _atom_site_occupancy
  Ho  Ho0  1  0.341250  0.001444  0.466010  1
  Ho  Ho1  1  0.497660  0.842349  0.717549  1
  Ho  Ho2  1  0.501953  0.158844  0.216457  1
  Ho  Ho3  1  0.840186  0.497086  0.283115  1
  Ho  Ho4  1  0.159031  0.501252  0.783279  1
  Er  Er5  1  0.661092  0.995411  0.967712  1
  Er  Er6  1  0.998944  0.343434  0.531828  1
  Er  Er7  1  0.998854  0.659246  0.033455  1
  Ti  Ti8  1  0.326611  0.326908  0.999819  1
  Ti  Ti9  1  0.172741  0.827134  0.249857  1
  Ti  Ti10  1  0.824243  0.173599  0.750218  1
  Ti  Ti11  1  0.672433  0.672767  0.500123  1
  Ti  Ti12  1  0.154155  0.009052  0.875166  1
  Ti  Ti13  1  0.492283  0.651418  0.125316  1
  Ti  Ti14  1  0.508490  0.347753  0.626928  1
  Ti  Ti15  1  0.654694  0.495206  0.875437  1
  Ti  Ti16  1  0.347038  0.507389  0.374198  1
  Ti  Ti17  1  0.847196  0.992743  0.375498  1
  Ti  Ti18  1  0.007746  0.151128  0.124357  1
  Ti  Ti19  1  0.989811  0.844521  0.623296  1
  Si  Si20  1  0.368723  0.703846  0.933171  1
  Si  Si21  1  0.629534  0.297266  0.434123  1
  Si  Si22  1  0.703953  0.369093  0.066767  1
  Si  Si23  1  0.296597  0.630690  0.566629  1
  Si  Si24  1  0.796617  0.868800  0.183781  1
  Si  Si25  1  0.130658  0.203079  0.316629  1
  Si  Si26  1  0.870365  0.797623  0.816076  1
  Si  Si27  1  0.291713  0.953016  0.064271  1
  Si  Si28  1  0.546572  0.790651  0.314364  1
  Si  Si29  1  0.462401  0.211007  0.819640  1
  Si  Si30  1  0.791046  0.546536  0.685383  1
  Si  Si31  1  0.208447  0.453076  0.185399  1
  Si  Si32  1  0.708081  0.046330  0.564219  1
  Si  Si33  1  0.954125  0.291242  0.935646  1
  Si  Si34  1  0.046330  0.709215  0.434864  1
  As  As35  1  0.198425  0.129847  0.679422  1
