# generated using pymatgen
data_Ba14Sr(SnAs6)2
_symmetry_space_group_name_H-M   'P 1'
_cell_length_a   10.09026157
_cell_length_b   10.09026225
_cell_length_c   10.09026158
_cell_angle_alpha   88.20967022
_cell_angle_beta   88.20967506
_cell_angle_gamma   88.20966909
_symmetry_Int_Tables_number   1
_chemical_formula_structural   Ba14Sr(SnAs6)2
_chemical_formula_sum   'Ba14 Sr1 Sn2 As12'
_cell_volume   1025.84985807
_cell_formula_units_Z   1
loop_
 _symmetry_equiv_pos_site_id
 _symmetry_equiv_pos_as_xyz
  1  'x, y, z'
loop_
 _atom_site_type_symbol
 _atom_site_label
 _atom_site_symmetry_multiplicity
 _atom_site_fract_x
 _atom_site_fract_y
 _atom_site_fract_z
 _atom_site_occupancy
  Ba  Ba0  1  0.408166  0.284758  0.776951  1
  Ba  Ba1  1  0.776951  0.408166  0.284758  1
  Ba  Ba2  1  0.284758  0.776951  0.408166  1
  Ba  Ba3  1  0.021663  0.526312  0.660253  1
  Ba  Ba4  1  0.660253  0.021663  0.526312  1
  Ba  Ba5  1  0.526312  0.660253  0.021663  1
  Ba  Ba6  1  0.166895  0.536355  0.029589  1
  Ba  Ba7  1  0.029589  0.166895  0.536355  1
  Ba  Ba8  1  0.536355  0.029589  0.166895  1
  Ba  Ba9  1  0.775815  0.293586  0.919616  1
  Ba  Ba10  1  0.919616  0.775815  0.293586  1
  Ba  Ba11  1  0.293586  0.919616  0.775815  1
  Ba  Ba12  1  0.164468  0.164468  0.164468  1
  Ba  Ba13  1  0.394579  0.394579  0.394579  1
  Sr  Sr14  1  0.950458  0.950458  0.950458  1
  Sn  Sn15  1  0.764204  0.764204  0.764204  1
  Sn  Sn16  1  0.600501  0.600501  0.600501  1
  As  As17  1  0.704497  0.351210  0.600242  1
  As  As18  1  0.600242  0.704497  0.351210  1
  As  As19  1  0.351210  0.600242  0.704497  1
  As  As20  1  0.624578  0.975914  0.854290  1
  As  As21  1  0.854290  0.624578  0.975914  1
  As  As22  1  0.975914  0.854290  0.624578  1
  As  As23  1  0.472066  0.343967  0.085032  1
  As  As24  1  0.085032  0.472066  0.343967  1
  As  As25  1  0.343967  0.085032  0.472066  1
  As  As26  1  0.092171  0.228919  0.847674  1
  As  As27  1  0.847674  0.092171  0.228919  1
  As  As28  1  0.228919  0.847674  0.092171  1
