# generated using pymatgen
data_Er4BSe3
_symmetry_space_group_name_H-M   'P 1'
_cell_length_a   6.92008234
_cell_length_b   6.92008168
_cell_length_c   6.92008060
_cell_angle_alpha   131.98168531
_cell_angle_beta   131.98168321
_cell_angle_gamma   70.25794795
_symmetry_Int_Tables_number   1
_chemical_formula_structural   Er4BSe3
_chemical_formula_sum   'Er4 B1 Se3'
_cell_volume   179.47763175
_cell_formula_units_Z   1
loop_
 _symmetry_equiv_pos_site_id
 _symmetry_equiv_pos_as_xyz
  1  'x, y, z'
loop_
 _atom_site_type_symbol
 _atom_site_label
 _atom_site_symmetry_multiplicity
 _atom_site_fract_x
 _atom_site_fract_y
 _atom_site_fract_z
 _atom_site_occupancy
  Er  Er0  1  0.224854  0.224854  0.000000  1
  Er  Er1  1  0.775146  0.775146  0.000000  1
  Er  Er2  1  0.500001  0.000000  0.500001  1
  Er  Er3  1  0.000000  0.500001  0.500001  1
  B  B4  1  0.000000  0.000000  0.000000  1
  Se  Se5  1  0.500000  0.500000  0.000000  1
  Se  Se6  1  0.750000  0.250000  0.500001  1
  Se  Se7  1  0.250000  0.750000  0.500001  1
