# generated using pymatgen
data_Ca3Sm(GePd2)4
_symmetry_space_group_name_H-M   'P 1'
_cell_length_a   5.64280736
_cell_length_b   7.13988500
_cell_length_c   7.56228938
_cell_angle_alpha   90.00000000
_cell_angle_beta   90.13955631
_cell_angle_gamma   90.00000000
_symmetry_Int_Tables_number   1
_chemical_formula_structural   Ca3Sm(GePd2)4
_chemical_formula_sum   'Ca3 Sm1 Ge4 Pd8'
_cell_volume   304.67613990
_cell_formula_units_Z   1
loop_
 _symmetry_equiv_pos_site_id
 _symmetry_equiv_pos_as_xyz
  1  'x, y, z'
loop_
 _atom_site_type_symbol
 _atom_site_label
 _atom_site_symmetry_multiplicity
 _atom_site_fract_x
 _atom_site_fract_y
 _atom_site_fract_z
 _atom_site_occupancy
  Ca  Ca0  1  0.365384  0.750000  0.025728  1
  Ca  Ca1  1  0.136410  0.750000  0.525688  1
  Ca  Ca2  1  0.635403  0.250000  0.975154  1
  Sm  Sm3  1  0.861515  0.250000  0.473096  1
  Ge  Ge4  1  0.633819  0.750000  0.376175  1
  Ge  Ge5  1  0.865997  0.750000  0.877179  1
  Ge  Ge6  1  0.363842  0.250000  0.626352  1
  Ge  Ge7  1  0.135676  0.250000  0.121343  1
  Pd  Pd8  1  0.903787  0.552622  0.175770  1
  Pd  Pd9  1  0.602041  0.946794  0.671146  1
  Pd  Pd10  1  0.091225  0.053784  0.825954  1
  Pd  Pd11  1  0.403924  0.445592  0.326773  1
  Pd  Pd12  1  0.091225  0.446216  0.825954  1
  Pd  Pd13  1  0.403924  0.054408  0.326773  1
  Pd  Pd14  1  0.903787  0.947378  0.175770  1
  Pd  Pd15  1  0.602041  0.553206  0.671146  1
