# generated using pymatgen
data_Er16Al4CoPt3
_symmetry_space_group_name_H-M   'P 1'
_cell_length_a   9.46664407
_cell_length_b   9.46664405
_cell_length_c   9.46664397
_cell_angle_alpha   60.06033744
_cell_angle_beta   60.06033710
_cell_angle_gamma   60.06034168
_symmetry_Int_Tables_number   1
_chemical_formula_structural   Er16Al4CoPt3
_chemical_formula_sum   'Er16 Al4 Co1 Pt3'
_cell_volume   600.71245762
_cell_formula_units_Z   1
loop_
 _symmetry_equiv_pos_site_id
 _symmetry_equiv_pos_as_xyz
  1  'x, y, z'
loop_
 _atom_site_type_symbol
 _atom_site_label
 _atom_site_symmetry_multiplicity
 _atom_site_fract_x
 _atom_site_fract_y
 _atom_site_fract_z
 _atom_site_occupancy
  Er  Er0  1  0.354466  0.354466  0.354466  1
  Er  Er1  1  0.348800  0.348800  0.942341  1
  Er  Er2  1  0.348800  0.942341  0.348800  1
  Er  Er3  1  0.942341  0.348800  0.348800  1
  Er  Er4  1  0.817008  0.191022  0.191022  1
  Er  Er5  1  0.194804  0.806217  0.806217  1
  Er  Er6  1  0.191022  0.817008  0.191022  1
  Er  Er7  1  0.806217  0.194804  0.806217  1
  Er  Er8  1  0.191022  0.191022  0.817008  1
  Er  Er9  1  0.806217  0.806217  0.194804  1
  Er  Er10  1  0.935728  0.563518  0.563518  1
  Er  Er11  1  0.561874  0.936480  0.936480  1
  Er  Er12  1  0.563518  0.935728  0.563518  1
  Er  Er13  1  0.936480  0.561874  0.936480  1
  Er  Er14  1  0.563518  0.563518  0.935728  1
  Er  Er15  1  0.936480  0.936480  0.561874  1
  Al  Al16  1  0.578363  0.578363  0.578363  1
  Al  Al17  1  0.578536  0.578536  0.266405  1
  Al  Al18  1  0.578536  0.266405  0.578536  1
  Al  Al19  1  0.266405  0.578536  0.578536  1
  Co  Co20  1  0.142477  0.142477  0.142477  1
  Pt  Pt21  1  0.143378  0.143378  0.570631  1
  Pt  Pt22  1  0.143378  0.570631  0.143378  1
  Pt  Pt23  1  0.570631  0.143378  0.143378  1
