# generated using pymatgen
data_DyLu(Fe5P3)2
_symmetry_space_group_name_H-M   'P 1'
_cell_length_a   3.64012300
_cell_length_b   10.26771500
_cell_length_c   11.79105400
_cell_angle_alpha   90.00000000
_cell_angle_beta   90.00000000
_cell_angle_gamma   90.00000000
_symmetry_Int_Tables_number   1
_chemical_formula_structural   DyLu(Fe5P3)2
_chemical_formula_sum   'Dy2 Lu2 Fe20 P12'
_cell_volume   440.69943382
_cell_formula_units_Z   2
loop_
 _symmetry_equiv_pos_site_id
 _symmetry_equiv_pos_as_xyz
  1  'x, y, z'
loop_
 _atom_site_type_symbol
 _atom_site_label
 _atom_site_symmetry_multiplicity
 _atom_site_fract_x
 _atom_site_fract_y
 _atom_site_fract_z
 _atom_site_occupancy
  Dy  Dy0  1  0.750000  0.419510  0.295526  1
  Dy  Dy1  1  0.750000  0.080490  0.795526  1
  Lu  Lu2  1  0.250000  0.580498  0.704424  1
  Lu  Lu3  1  0.250000  0.919502  0.204424  1
  Fe  Fe4  1  0.250000  0.708096  0.989086  1
  Fe  Fe5  1  0.250000  0.791904  0.489086  1
  Fe  Fe6  1  0.750000  0.291852  0.011160  1
  Fe  Fe7  1  0.750000  0.208148  0.511160  1
  Fe  Fe8  1  0.250000  0.405678  0.490840  1
  Fe  Fe9  1  0.250000  0.094322  0.990840  1
  Fe  Fe10  1  0.750000  0.594836  0.510864  1
  Fe  Fe11  1  0.750000  0.905164  0.010864  1
  Fe  Fe12  1  0.250000  0.218683  0.176617  1
  Fe  Fe13  1  0.250000  0.281317  0.676617  1
  Fe  Fe14  1  0.750000  0.779853  0.823315  1
  Fe  Fe15  1  0.750000  0.720147  0.323315  1
  Fe  Fe16  1  0.250000  0.874742  0.701277  1
  Fe  Fe17  1  0.250000  0.625258  0.201277  1
  Fe  Fe18  1  0.750000  0.123292  0.297962  1
  Fe  Fe19  1  0.750000  0.376708  0.797962  1
  Fe  Fe20  1  0.250000  0.463913  0.931664  1
  Fe  Fe21  1  0.250000  0.036087  0.431664  1
  Fe  Fe22  1  0.750000  0.537323  0.067176  1
  Fe  Fe23  1  0.750000  0.962677  0.567176  1
  P  P24  1  0.250000  0.421865  0.112203  1
  P  P25  1  0.250000  0.078135  0.612203  1
  P  P26  1  0.750000  0.578162  0.886179  1
  P  P27  1  0.750000  0.921838  0.386179  1
  P  P28  1  0.250000  0.266058  0.872239  1
  P  P29  1  0.250000  0.233942  0.372239  1
  P  P30  1  0.750000  0.735231  0.128729  1
  P  P31  1  0.750000  0.764769  0.628729  1
  P  P32  1  0.250000  0.601310  0.396646  1
  P  P33  1  0.250000  0.898690  0.896646  1
  P  P34  1  0.750000  0.400507  0.604093  1
  P  P35  1  0.750000  0.099493  0.104093  1
