# generated using pymatgen
data_NdSmB4Os3Rh
_symmetry_space_group_name_H-M   'P 1'
_cell_length_a   6.82905907
_cell_length_b   6.02788718
_cell_length_c   5.62983805
_cell_angle_alpha   71.62606016
_cell_angle_beta   56.89619156
_cell_angle_gamma   51.40605453
_symmetry_Int_Tables_number   1
_chemical_formula_structural   NdSmB4Os3Rh
_chemical_formula_sum   'Nd1 Sm1 B4 Os3 Rh1'
_cell_volume   151.61748827
_cell_formula_units_Z   1
loop_
 _symmetry_equiv_pos_site_id
 _symmetry_equiv_pos_as_xyz
  1  'x, y, z'
loop_
 _atom_site_type_symbol
 _atom_site_label
 _atom_site_symmetry_multiplicity
 _atom_site_fract_x
 _atom_site_fract_y
 _atom_site_fract_z
 _atom_site_occupancy
  Nd  Nd0  1  0.001366  0.001366  0.998634  1
  Sm  Sm1  1  0.246879  0.246879  0.253121  1
  B  B2  1  0.679442  0.317281  0.678534  1
  B  B3  1  0.317281  0.679442  0.324743  1
  B  B4  1  0.937945  0.570310  0.940460  1
  B  B5  1  0.570310  0.937945  0.551285  1
  Os  Os6  1  0.636133  0.636133  0.363867  1
  Os  Os7  1  0.362903  0.362903  0.637097  1
  Os  Os8  1  0.883920  0.883920  0.616080  1
  Rh  Rh9  1  0.613822  0.613822  0.886178  1
