# generated using pymatgen
data_InHgPt3RhSe6
_symmetry_space_group_name_H-M   'P 1'
_cell_length_a   7.51736500
_cell_length_b   7.51736570
_cell_length_c   5.35591600
_cell_angle_alpha   90.00000000
_cell_angle_beta   90.00000000
_cell_angle_gamma   120.00001013
_symmetry_Int_Tables_number   1
_chemical_formula_structural   InHgPt3RhSe6
_chemical_formula_sum   'In1 Hg1 Pt3 Rh1 Se6'
_cell_volume   262.11728447
_cell_formula_units_Z   1
loop_
 _symmetry_equiv_pos_site_id
 _symmetry_equiv_pos_as_xyz
  1  'x, y, z'
loop_
 _atom_site_type_symbol
 _atom_site_label
 _atom_site_symmetry_multiplicity
 _atom_site_fract_x
 _atom_site_fract_y
 _atom_site_fract_z
 _atom_site_occupancy
  In  In0  1  0.333333  0.666667  0.664651  1
  Hg  Hg1  1  0.666667  0.333333  0.351123  1
  Pt  Pt2  1  0.500276  0.499724  0.995527  1
  Pt  Pt3  1  0.999447  0.499724  0.995527  1
  Pt  Pt4  1  0.500276  0.000553  0.995527  1
  Rh  Rh5  1  0.000000  0.000000  0.004832  1
  Se  Se6  1  0.831968  0.663936  0.762906  1
  Se  Se7  1  0.831968  0.168032  0.762906  1
  Se  Se8  1  0.336064  0.168032  0.762906  1
  Se  Se9  1  0.171467  0.342934  0.234698  1
  Se  Se10  1  0.171467  0.828533  0.234698  1
  Se  Se11  1  0.657066  0.828533  0.234698  1
