# generated using pymatgen
data_Tm4Co16Si7Tc4P5
_symmetry_space_group_name_H-M   'P 1'
_cell_length_a   3.73068700
_cell_length_b   10.41717711
_cell_length_c   11.89325212
_cell_angle_alpha   89.98367146
_cell_angle_beta   90.00000000
_cell_angle_gamma   90.00000000
_symmetry_Int_Tables_number   1
_chemical_formula_structural   Tm4Co16Si7Tc4P5
_chemical_formula_sum   'Tm4 Co16 Si7 Tc4 P5'
_cell_volume   462.21014061
_cell_formula_units_Z   1
loop_
 _symmetry_equiv_pos_site_id
 _symmetry_equiv_pos_as_xyz
  1  'x, y, z'
loop_
 _atom_site_type_symbol
 _atom_site_label
 _atom_site_symmetry_multiplicity
 _atom_site_fract_x
 _atom_site_fract_y
 _atom_site_fract_z
 _atom_site_occupancy
  Tm  Tm0  1  0.250000  0.581809  0.703526  1
  Tm  Tm1  1  0.250000  0.920816  0.203366  1
  Tm  Tm2  1  0.750000  0.421175  0.296414  1
  Tm  Tm3  1  0.750000  0.080021  0.796588  1
  Co  Co4  1  0.250000  0.412039  0.489480  1
  Co  Co5  1  0.250000  0.089289  0.988601  1
  Co  Co6  1  0.750000  0.593320  0.514279  1
  Co  Co7  1  0.750000  0.910252  0.009340  1
  Co  Co8  1  0.250000  0.212615  0.173420  1
  Co  Co9  1  0.250000  0.287003  0.673228  1
  Co  Co10  1  0.750000  0.785433  0.822469  1
  Co  Co11  1  0.750000  0.713301  0.327472  1
  Co  Co12  1  0.250000  0.882709  0.701748  1
  Co  Co13  1  0.250000  0.615381  0.202606  1
  Co  Co14  1  0.750000  0.114923  0.297421  1
  Co  Co15  1  0.750000  0.385326  0.797096  1
  Co  Co16  1  0.250000  0.467769  0.931876  1
  Co  Co17  1  0.250000  0.031147  0.432731  1
  Co  Co18  1  0.750000  0.532343  0.068161  1
  Co  Co19  1  0.750000  0.963347  0.569816  1
  Si  Si20  1  0.250000  0.417176  0.113968  1
  Si  Si21  1  0.250000  0.082700  0.614311  1
  Si  Si22  1  0.750000  0.582183  0.886352  1
  Si  Si23  1  0.750000  0.917602  0.385639  1
  Si  Si24  1  0.250000  0.268782  0.865000  1
  Si  Si25  1  0.250000  0.231207  0.365494  1
  Si  Si26  1  0.750000  0.731592  0.134712  1
  Tc  Tc27  1  0.250000  0.708504  0.988405  1
  Tc  Tc28  1  0.250000  0.790859  0.490188  1
  Tc  Tc29  1  0.750000  0.291932  0.010637  1
  Tc  Tc30  1  0.750000  0.208068  0.511054  1
  P  P31  1  0.750000  0.769000  0.635443  1
  P  P32  1  0.250000  0.598253  0.390913  1
  P  P33  1  0.250000  0.902119  0.891036  1
  P  P34  1  0.750000  0.402071  0.608849  1
  P  P35  1  0.750000  0.097933  0.108362  1
