# generated using pymatgen
data_SmTh5H8Br15
_symmetry_space_group_name_H-M   'P 1'
_cell_length_a   10.04831620
_cell_length_b   10.04833354
_cell_length_c   10.04831748
_cell_angle_alpha   109.27130983
_cell_angle_beta   109.27122030
_cell_angle_gamma   109.87196627
_symmetry_Int_Tables_number   1
_chemical_formula_structural   SmTh5H8Br15
_chemical_formula_sum   'Sm1 Th5 H8 Br15'
_cell_volume   780.98441243
_cell_formula_units_Z   1
loop_
 _symmetry_equiv_pos_site_id
 _symmetry_equiv_pos_as_xyz
  1  'x, y, z'
loop_
 _atom_site_type_symbol
 _atom_site_label
 _atom_site_symmetry_multiplicity
 _atom_site_fract_x
 _atom_site_fract_y
 _atom_site_fract_z
 _atom_site_occupancy
  Sm  Sm0  1  0.235186  0.235188  0.000001  1
  Th  Th1  1  0.759134  0.759133  0.999999  1
  Th  Th2  1  0.240499  0.002761  0.237739  1
  Th  Th3  1  0.002756  0.240492  0.237737  1
  Th  Th4  1  0.765021  0.002760  0.762260  1
  Th  Th5  1  0.002761  0.765024  0.762266  1
  H  H6  1  0.178241  0.997525  0.000002  1
  H  H7  1  0.820585  0.999135  0.999999  1
  H  H8  1  0.997522  0.178239  0.000000  1
  H  H9  1  0.999137  0.820587  0.000001  1
  H  H10  1  0.999137  0.999135  0.178550  1
  H  H11  1  0.178239  0.178239  0.180717  1
  H  H12  1  0.997523  0.997523  0.819284  1
  H  H13  1  0.820587  0.820586  0.821450  1
  Br  Br14  1  0.746533  0.252739  0.000000  1
  Br  Br15  1  0.503562  0.503562  0.000000  1
  Br  Br16  1  0.252739  0.746533  0.000001  1
  Br  Br17  1  0.746606  0.999625  0.253018  1
  Br  Br18  1  0.999625  0.746607  0.253017  1
  Br  Br19  1  0.507973  0.253750  0.254224  1
  Br  Br20  1  0.253749  0.507972  0.254224  1
  Br  Br21  1  0.746532  0.746531  0.493794  1
  Br  Br22  1  0.500072  0.000073  0.499999  1
  Br  Br23  1  0.000073  0.500073  0.500001  1
  Br  Br24  1  0.252738  0.252738  0.506206  1
  Br  Br25  1  0.253752  0.999528  0.745776  1
  Br  Br26  1  0.999530  0.253754  0.745777  1
  Br  Br27  1  0.746607  0.493590  0.746982  1
  Br  Br28  1  0.493588  0.746606  0.746981  1
