# generated using pymatgen
data_Sc6NiB4Ir9
_symmetry_space_group_name_H-M   'P 1'
_cell_length_a   3.11510100
_cell_length_b   9.49316877
_cell_length_c   9.49316877
_cell_angle_alpha   89.15554496
_cell_angle_beta   90.00000000
_cell_angle_gamma   90.00000000
_symmetry_Int_Tables_number   1
_chemical_formula_structural   Sc6NiB4Ir9
_chemical_formula_sum   'Sc6 Ni1 B4 Ir9'
_cell_volume   280.70320048
_cell_formula_units_Z   1
loop_
 _symmetry_equiv_pos_site_id
 _symmetry_equiv_pos_as_xyz
  1  'x, y, z'
loop_
 _atom_site_type_symbol
 _atom_site_label
 _atom_site_symmetry_multiplicity
 _atom_site_fract_x
 _atom_site_fract_y
 _atom_site_fract_z
 _atom_site_occupancy
  Sc  Sc0  1  0.000000  0.175569  0.675569  1
  Sc  Sc1  1  0.000000  0.824431  0.324431  1
  Sc  Sc2  1  0.000000  0.321544  0.178456  1
  Sc  Sc3  1  0.000000  0.678456  0.821544  1
  Sc  Sc4  1  0.000000  0.000000  0.000000  1
  Sc  Sc5  1  0.000000  0.500000  0.500000  1
  Ni  Ni6  1  0.500000  0.000000  0.500000  1
  B  B7  1  0.000000  0.620357  0.120357  1
  B  B8  1  0.000000  0.379643  0.879643  1
  B  B9  1  0.000000  0.886806  0.613194  1
  B  B10  1  0.000000  0.113194  0.386806  1
  Ir  Ir11  1  0.500000  0.064717  0.229816  1
  Ir  Ir12  1  0.500000  0.935283  0.770184  1
  Ir  Ir13  1  0.500000  0.778252  0.070026  1
  Ir  Ir14  1  0.500000  0.429974  0.721748  1
  Ir  Ir15  1  0.500000  0.221748  0.929974  1
  Ir  Ir16  1  0.500000  0.570026  0.278252  1
  Ir  Ir17  1  0.500000  0.729816  0.564717  1
  Ir  Ir18  1  0.500000  0.270184  0.435283  1
  Ir  Ir19  1  0.500000  0.500000  0.000000  1
