# generated using pymatgen
data_Th3PaCuTe12
_symmetry_space_group_name_H-M   'P 1'
_cell_length_a   7.53465099
_cell_length_b   7.53552776
_cell_length_c   11.39587664
_cell_angle_alpha   71.25955909
_cell_angle_beta   71.26003058
_cell_angle_gamma   70.90356421
_symmetry_Int_Tables_number   1
_chemical_formula_structural   Th3PaCuTe12
_chemical_formula_sum   'Th3 Pa1 Cu1 Te12'
_cell_volume   561.86167199
_cell_formula_units_Z   1
loop_
 _symmetry_equiv_pos_site_id
 _symmetry_equiv_pos_as_xyz
  1  'x, y, z'
loop_
 _atom_site_type_symbol
 _atom_site_label
 _atom_site_symmetry_multiplicity
 _atom_site_fract_x
 _atom_site_fract_y
 _atom_site_fract_z
 _atom_site_occupancy
  Th  Th0  1  0.810085  0.810050  0.836357  1
  Th  Th1  1  0.310509  0.310934  0.837146  1
  Th  Th2  1  0.687696  0.190738  0.167876  1
  Pa  Pa3  1  0.192241  0.688742  0.164354  1
  Cu  Cu4  1  0.813236  0.813620  0.530858  1
  Te  Te5  1  0.018108  0.002740  0.326146  1
  Te  Te6  1  0.494012  0.509464  0.329774  1
  Te  Te7  1  0.495374  0.995143  0.664256  1
  Te  Te8  1  0.993907  0.494390  0.666114  1
  Te  Te9  1  0.250739  0.266219  0.332164  1
  Te  Te10  1  0.761205  0.745686  0.330559  1
  Te  Te11  1  0.244891  0.742604  0.665277  1
  Te  Te12  1  0.742352  0.245002  0.666633  1
  Te  Te13  1  0.026824  0.014160  0.947154  1
  Te  Te14  1  0.513486  0.524948  0.947488  1
  Te  Te15  1  0.475343  0.976125  0.060975  1
  Te  Te16  1  0.981291  0.480733  0.061269  1
