# generated using pymatgen
data_AcNd(Si2Rh3)2
_symmetry_space_group_name_H-M   'P 1'
_cell_length_a   6.74874599
_cell_length_b   6.74874538
_cell_length_c   6.74874673
_cell_angle_alpha   130.31732118
_cell_angle_beta   115.17225117
_cell_angle_gamma   85.85036816
_symmetry_Int_Tables_number   1
_chemical_formula_structural   AcNd(Si2Rh3)2
_chemical_formula_sum   'Ac1 Nd1 Si4 Rh6'
_cell_volume   202.73783336
_cell_formula_units_Z   1
loop_
 _symmetry_equiv_pos_site_id
 _symmetry_equiv_pos_as_xyz
  1  'x, y, z'
loop_
 _atom_site_type_symbol
 _atom_site_label
 _atom_site_symmetry_multiplicity
 _atom_site_fract_x
 _atom_site_fract_y
 _atom_site_fract_z
 _atom_site_occupancy
  Ac  Ac0  1  0.750000  0.034991  0.284991  1
  Nd  Nd1  1  0.250000  0.958340  0.708340  1
  Si  Si2  1  0.575393  0.375920  0.800527  1
  Si  Si3  1  0.419480  0.617294  0.197815  1
  Si  Si4  1  0.080520  0.278335  0.197815  1
  Si  Si5  1  0.924607  0.725134  0.800527  1
  Rh  Rh6  1  0.218947  0.504827  0.719076  1
  Rh  Rh7  1  0.714249  0.000129  0.719076  1
  Rh  Rh8  1  0.785751  0.504827  0.285880  1
  Rh  Rh9  1  0.281053  0.000129  0.285880  1
  Rh  Rh10  1  0.498399  0.500037  0.498437  1
  Rh  Rh11  1  0.001601  0.500037  0.001638  1
