# generated using pymatgen
data_Pr6Dy10Cd4Ru3Pt
_symmetry_space_group_name_H-M   'P 1'
_cell_length_a   9.73073217
_cell_length_b   9.83617428
_cell_length_c   9.83599900
_cell_angle_alpha   59.99879316
_cell_angle_beta   59.64114189
_cell_angle_gamma   59.64242333
_symmetry_Int_Tables_number   1
_chemical_formula_structural   Pr6Dy10Cd4Ru3Pt
_chemical_formula_sum   'Pr6 Dy10 Cd4 Ru3 Pt1'
_cell_volume   662.06172901
_cell_formula_units_Z   1
loop_
 _symmetry_equiv_pos_site_id
 _symmetry_equiv_pos_as_xyz
  1  'x, y, z'
loop_
 _atom_site_type_symbol
 _atom_site_label
 _atom_site_symmetry_multiplicity
 _atom_site_fract_x
 _atom_site_fract_y
 _atom_site_fract_z
 _atom_site_occupancy
  Pr  Pr0  1  0.936296  0.561443  0.561439  1
  Pr  Pr1  1  0.555381  0.940802  0.940807  1
  Pr  Pr2  1  0.555486  0.940636  0.563006  1
  Pr  Pr3  1  0.936055  0.561466  0.940983  1
  Pr  Pr4  1  0.555532  0.563023  0.940617  1
  Pr  Pr5  1  0.936070  0.941000  0.561444  1
  Dy  Dy6  1  0.342902  0.347987  0.347991  1
  Dy  Dy7  1  0.342857  0.348040  0.961146  1
  Dy  Dy8  1  0.342855  0.961156  0.348040  1
  Dy  Dy9  1  0.972461  0.342520  0.342537  1
  Dy  Dy10  1  0.817526  0.187201  0.187218  1
  Dy  Dy11  1  0.185069  0.814025  0.814007  1
  Dy  Dy12  1  0.185105  0.814000  0.186899  1
  Dy  Dy13  1  0.817536  0.187211  0.808070  1
  Dy  Dy14  1  0.185106  0.186881  0.813999  1
  Dy  Dy15  1  0.817512  0.808076  0.187228  1
  Cd  Cd16  1  0.579776  0.578058  0.578074  1
  Cd  Cd17  1  0.579755  0.578073  0.264074  1
  Cd  Cd18  1  0.579756  0.264065  0.578083  1
  Cd  Cd19  1  0.260060  0.579997  0.580009  1
  Ru  Ru20  1  0.146395  0.136871  0.136873  1
  Ru  Ru21  1  0.146182  0.136957  0.579865  1
  Ru  Ru22  1  0.146162  0.579870  0.136959  1
  Pt  Pt23  1  0.578163  0.140644  0.140630  1
