# generated using pymatgen
data_Dy4Mg3InRh4
_symmetry_space_group_name_H-M   'P 1'
_cell_length_a   4.09400000
_cell_length_b   7.14122314
_cell_length_c   8.63382339
_cell_angle_alpha   89.97797265
_cell_angle_beta   90.00000000
_cell_angle_gamma   90.00000000
_symmetry_Int_Tables_number   1
_chemical_formula_structural   Dy4Mg3InRh4
_chemical_formula_sum   'Dy4 Mg3 In1 Rh4'
_cell_volume   252.41988858
_cell_formula_units_Z   1
loop_
 _symmetry_equiv_pos_site_id
 _symmetry_equiv_pos_as_xyz
  1  'x, y, z'
loop_
 _atom_site_type_symbol
 _atom_site_label
 _atom_site_symmetry_multiplicity
 _atom_site_fract_x
 _atom_site_fract_y
 _atom_site_fract_z
 _atom_site_occupancy
  Dy  Dy0  1  0.250000  0.040963  0.175388  1
  Dy  Dy1  1  0.750000  0.963205  0.822959  1
  Dy  Dy2  1  0.250000  0.537063  0.322156  1
  Dy  Dy3  1  0.750000  0.458895  0.676800  1
  Mg  Mg4  1  0.750000  0.365837  0.059039  1
  Mg  Mg5  1  0.250000  0.637438  0.943335  1
  Mg  Mg6  1  0.750000  0.861143  0.441519  1
  In  In7  1  0.250000  0.133621  0.559843  1
  Rh  Rh8  1  0.250000  0.744848  0.631462  1
  Rh  Rh9  1  0.750000  0.248995  0.365501  1
  Rh  Rh10  1  0.250000  0.253772  0.870711  1
  Rh  Rh11  1  0.750000  0.754222  0.131287  1
