# generated using pymatgen
data_Tb3In3Hg2Ru
_symmetry_space_group_name_H-M   'P 1'
_cell_length_a   8.10894400
_cell_length_b   8.10894493
_cell_length_c   3.83321700
_cell_angle_alpha   90.00000000
_cell_angle_beta   90.00000000
_cell_angle_gamma   120.00000436
_symmetry_Int_Tables_number   1
_chemical_formula_structural   Tb3In3Hg2Ru
_chemical_formula_sum   'Tb3 In3 Hg2 Ru1'
_cell_volume   218.28438548
_cell_formula_units_Z   1
loop_
 _symmetry_equiv_pos_site_id
 _symmetry_equiv_pos_as_xyz
  1  'x, y, z'
loop_
 _atom_site_type_symbol
 _atom_site_label
 _atom_site_symmetry_multiplicity
 _atom_site_fract_x
 _atom_site_fract_y
 _atom_site_fract_z
 _atom_site_occupancy
  Tb  Tb0  1  0.415231  0.379047  0.000000  1
  Tb  Tb1  1  0.620953  0.036184  0.000000  1
  Tb  Tb2  1  0.963816  0.584769  0.000000  1
  In  In3  1  0.996806  0.281579  0.500000  1
  In  In4  1  0.718421  0.715227  0.500000  1
  In  In5  1  0.284773  0.003194  0.500000  1
  Hg  Hg6  1  0.000000  0.000000  0.000000  1
  Hg  Hg7  1  0.333333  0.666667  0.500000  1
  Ru  Ru8  1  0.666667  0.333333  0.500000  1
