# generated using pymatgen
data_Dy5Nb3P12Ir9Ru7
_symmetry_space_group_name_H-M   'P 1'
_cell_length_a   12.72378095
_cell_length_b   12.66997126
_cell_length_c   3.98564000
_cell_angle_alpha   90.00000000
_cell_angle_beta   90.00000000
_cell_angle_gamma   119.75973432
_symmetry_Int_Tables_number   1
_chemical_formula_structural   Dy5Nb3P12Ir9Ru7
_chemical_formula_sum   'Dy5 Nb3 P12 Ir9 Ru7'
_cell_volume   557.78507700
_cell_formula_units_Z   1
loop_
 _symmetry_equiv_pos_site_id
 _symmetry_equiv_pos_as_xyz
  1  'x, y, z'
loop_
 _atom_site_type_symbol
 _atom_site_label
 _atom_site_symmetry_multiplicity
 _atom_site_fract_x
 _atom_site_fract_y
 _atom_site_fract_z
 _atom_site_occupancy
  Dy  Dy0  1  0.667005  0.332758  0.000000  1
  Dy  Dy1  1  0.333780  0.666897  0.000000  1
  Dy  Dy2  1  0.812133  0.999372  0.500000  1
  Dy  Dy3  1  0.186760  0.187551  0.500000  1
  Dy  Dy4  1  0.000584  0.813937  0.500000  1
  Nb  Nb5  1  0.444218  0.000706  0.000000  1
  Nb  Nb6  1  0.556752  0.554326  0.000000  1
  Nb  Nb7  1  0.997726  0.443721  0.000000  1
  P  P8  1  0.635416  0.998171  0.000000  1
  P  P9  1  0.361057  0.366864  0.000000  1
  P  P10  1  0.005796  0.639987  0.000000  1
  P  P11  1  0.689619  0.521572  0.500000  1
  P  P12  1  0.832391  0.306878  0.500000  1
  P  P13  1  0.314729  0.832895  0.500000  1
  P  P14  1  0.518248  0.684201  0.500000  1
  P  P15  1  0.180885  0.002228  0.000000  1
  P  P16  1  0.819303  0.819262  0.000000  1
  P  P17  1  0.996102  0.181516  0.000000  1
  P  P18  1  0.478602  0.165795  0.500000  1
  P  P19  1  0.167351  0.482267  0.500000  1
  Ir  Ir20  1  0.627071  0.806572  0.000000  1
  Ir  Ir21  1  0.179655  0.374681  0.000000  1
  Ir  Ir22  1  0.370944  0.184243  0.000000  1
  Ir  Ir23  1  0.193988  0.821617  0.000000  1
  Ir  Ir24  1  0.813098  0.628660  0.000000  1
  Ir  Ir25  1  0.865110  0.503224  0.500000  1
  Ir  Ir26  1  0.495487  0.359687  0.500000  1
  Ir  Ir27  1  0.639591  0.129627  0.500000  1
  Ir  Ir28  1  0.999209  0.001100  0.000000  1
  Ru  Ru29  1  0.127825  0.642784  0.500000  1
  Ru  Ru30  1  0.357861  0.484604  0.500000  1
  Ru  Ru31  1  0.512130  0.869153  0.500000  1
  Ru  Ru32  1  0.720641  0.718888  0.500000  1
  Ru  Ru33  1  0.000951  0.280263  0.500000  1
  Ru  Ru34  1  0.817028  0.191997  0.000000  1
  Ru  Ru35  1  0.280953  0.002000  0.500000  1
