# generated using pymatgen
data_Ce3Y(SiTc)4
_symmetry_space_group_name_H-M   'P 1'
_cell_length_a   4.52982400
_cell_length_b   7.18848502
_cell_length_c   6.88648027
_cell_angle_alpha   91.38153211
_cell_angle_beta   90.00000000
_cell_angle_gamma   90.00000000
_symmetry_Int_Tables_number   1
_chemical_formula_structural   Ce3Y(SiTc)4
_chemical_formula_sum   'Ce3 Y1 Si4 Tc4'
_cell_volume   224.17632523
_cell_formula_units_Z   1
loop_
 _symmetry_equiv_pos_site_id
 _symmetry_equiv_pos_as_xyz
  1  'x, y, z'
loop_
 _atom_site_type_symbol
 _atom_site_label
 _atom_site_symmetry_multiplicity
 _atom_site_fract_x
 _atom_site_fract_y
 _atom_site_fract_z
 _atom_site_occupancy
  Ce  Ce0  1  0.750000  0.027949  0.189882  1
  Ce  Ce1  1  0.250000  0.470269  0.679069  1
  Ce  Ce2  1  0.750000  0.526761  0.320352  1
  Y  Y3  1  0.250000  0.977266  0.819552  1
  Si  Si4  1  0.250000  0.307412  0.108971  1
  Si  Si5  1  0.250000  0.807636  0.388348  1
  Si  Si6  1  0.750000  0.695282  0.888310  1
  Si  Si7  1  0.750000  0.187475  0.617428  1
  Tc  Tc8  1  0.250000  0.645197  0.054837  1
  Tc  Tc9  1  0.250000  0.155944  0.438195  1
  Tc  Tc10  1  0.750000  0.848683  0.551087  1
  Tc  Tc11  1  0.750000  0.350126  0.943968  1
