# generated using pymatgen
data_Sr4TiIrO8
_symmetry_space_group_name_H-M   'P 1'
_cell_length_a   13.33446240
_cell_length_b   5.56858113
_cell_length_c   5.56858100
_cell_angle_alpha   90.00000000
_cell_angle_beta   102.05228121
_cell_angle_gamma   102.05228481
_symmetry_Int_Tables_number   1
_chemical_formula_structural   Sr4TiIrO8
_chemical_formula_sum   'Sr8 Ti2 Ir2 O16'
_cell_volume   395.05067505
_cell_formula_units_Z   2
loop_
 _symmetry_equiv_pos_site_id
 _symmetry_equiv_pos_as_xyz
  1  'x, y, z'
loop_
 _atom_site_type_symbol
 _atom_site_label
 _atom_site_symmetry_multiplicity
 _atom_site_fract_x
 _atom_site_fract_y
 _atom_site_fract_z
 _atom_site_occupancy
  Sr  Sr0  1  0.604958  0.302479  0.052479  1
  Sr  Sr1  1  0.896327  0.448164  0.198164  1
  Sr  Sr2  1  0.103672  0.051836  0.301836  1
  Sr  Sr3  1  0.395041  0.197521  0.447521  1
  Sr  Sr4  1  0.603672  0.801837  0.551836  1
  Sr  Sr5  1  0.895041  0.947521  0.697521  1
  Sr  Sr6  1  0.104958  0.552480  0.802480  1
  Sr  Sr7  1  0.396327  0.698164  0.948164  1
  Ti  Ti8  1  0.750000  0.875001  0.125000  1
  Ti  Ti9  1  0.250000  0.625001  0.375000  1
  Ir  Ir10  1  0.750000  0.375000  0.625000  1
  Ir  Ir11  1  0.250000  0.125000  0.875001  1
  O  O12  1  0.590666  0.795333  0.045332  1
  O  O13  1  0.250009  0.381888  0.124338  1
  O  O14  1  0.249991  0.875662  0.131879  1
  O  O15  1  0.909334  0.954668  0.204667  1
  O  O16  1  0.090666  0.545333  0.295333  1
  O  O17  1  0.750009  0.125671  0.368121  1
  O  O18  1  0.749991  0.631879  0.375662  1
  O  O19  1  0.409334  0.704668  0.454668  1
  O  O20  1  0.587837  0.293919  0.543919  1
  O  O21  1  0.249991  0.374330  0.618113  1
  O  O22  1  0.250009  0.868122  0.625671  1
  O  O23  1  0.912163  0.456081  0.706082  1
  O  O24  1  0.087837  0.043919  0.793919  1
  O  O25  1  0.749991  0.118112  0.874330  1
  O  O26  1  0.750009  0.624339  0.881888  1
  O  O27  1  0.412163  0.206081  0.956082  1
