# generated using pymatgen
data_Pr13Nd4Pa3Ir16
_symmetry_space_group_name_H-M   'P 1'
_cell_length_a   7.67339995
_cell_length_b   7.69023589
_cell_length_c   14.90641300
_cell_angle_alpha   90.09509769
_cell_angle_beta   89.89474039
_cell_angle_gamma   90.11814514
_symmetry_Int_Tables_number   1
_chemical_formula_structural   Pr13Nd4Pa3Ir16
_chemical_formula_sum   'Pr13 Nd4 Pa3 Ir16'
_cell_volume   879.62668235
_cell_formula_units_Z   1
loop_
 _symmetry_equiv_pos_site_id
 _symmetry_equiv_pos_as_xyz
  1  'x, y, z'
loop_
 _atom_site_type_symbol
 _atom_site_label
 _atom_site_symmetry_multiplicity
 _atom_site_fract_x
 _atom_site_fract_y
 _atom_site_fract_z
 _atom_site_occupancy
  Pr  Pr0  1  0.837189  0.665287  0.379020  1
  Pr  Pr1  1  0.338505  0.835199  0.378770  1
  Pr  Pr2  1  0.839009  0.664518  0.118831  1
  Pr  Pr3  1  0.660021  0.163297  0.880805  1
  Pr  Pr4  1  0.161169  0.334493  0.620938  1
  Pr  Pr5  1  0.513762  0.681420  0.593499  1
  Pr  Pr6  1  0.016071  0.816828  0.905353  1
  Pr  Pr7  1  0.486216  0.319937  0.095639  1
  Pr  Pr8  1  0.985527  0.189010  0.405733  1
  Pr  Pr9  1  0.487016  0.318608  0.408500  1
  Pr  Pr10  1  0.986011  0.178901  0.092568  1
  Pr  Pr11  1  0.511052  0.676670  0.908553  1
  Pr  Pr12  1  0.011889  0.821746  0.592183  1
  Nd  Nd13  1  0.820129  0.513678  0.749319  1
  Nd  Nd14  1  0.321780  0.984319  0.751148  1
  Nd  Nd15  1  0.171673  0.489489  0.250164  1
  Nd  Nd16  1  0.680737  0.010681  0.250860  1
  Pa  Pa17  1  0.659016  0.158338  0.625861  1
  Pa  Pa18  1  0.160916  0.339071  0.876314  1
  Pa  Pa19  1  0.337503  0.838142  0.122467  1
  Ir  Ir20  1  0.692810  0.973613  0.471199  1
  Ir  Ir21  1  0.201270  0.545662  0.030461  1
  Ir  Ir22  1  0.297267  0.050221  0.966747  1
  Ir  Ir23  1  0.798576  0.437099  0.543179  1
  Ir  Ir24  1  0.345584  0.033339  0.549296  1
  Ir  Ir25  1  0.854051  0.460690  0.951070  1
  Ir  Ir26  1  0.640021  0.959506  0.048429  1
  Ir  Ir27  1  0.169274  0.530037  0.455068  1
  Ir  Ir28  1  0.456496  0.368636  0.752535  1
  Ir  Ir29  1  0.961725  0.130279  0.753874  1
  Ir  Ir30  1  0.532639  0.623801  0.241448  1
  Ir  Ir31  1  0.058940  0.884070  0.236766  1
  Ir  Ir32  1  0.707138  0.882108  0.741523  1
  Ir  Ir33  1  0.204169  0.619259  0.758938  1
  Ir  Ir34  1  0.309056  0.132336  0.244124  1
  Ir  Ir35  1  0.785795  0.369716  0.248816  1
