# generated using pymatgen
data_Nd3Th(Al8Pt3)3
_symmetry_space_group_name_H-M   'P 1'
_cell_length_a   7.59810359
_cell_length_b   7.61587952
_cell_length_c   13.26954166
_cell_angle_alpha   84.51490445
_cell_angle_beta   79.00890433
_cell_angle_gamma   59.89627124
_symmetry_Int_Tables_number   1
_chemical_formula_structural   Nd3Th(Al8Pt3)3
_chemical_formula_sum   'Nd3 Th1 Al24 Pt9'
_cell_volume   652.10364537
_cell_formula_units_Z   1
loop_
 _symmetry_equiv_pos_site_id
 _symmetry_equiv_pos_as_xyz
  1  'x, y, z'
loop_
 _atom_site_type_symbol
 _atom_site_label
 _atom_site_symmetry_multiplicity
 _atom_site_fract_x
 _atom_site_fract_y
 _atom_site_fract_z
 _atom_site_occupancy
  Nd  Nd0  1  0.605819  0.831948  0.192261  1
  Nd  Nd1  1  0.733284  0.498514  0.808461  1
  Nd  Nd2  1  0.266675  0.501359  0.192241  1
  Th  Th3  1  0.394692  0.167948  0.806237  1
  Al  Al4  1  0.687154  0.832367  0.946617  1
  Al  Al5  1  0.313966  0.166269  0.055496  1
  Al  Al6  1  0.146666  0.833071  0.560182  1
  Al  Al7  1  0.853718  0.167221  0.438757  1
  Al  Al8  1  0.481349  0.166557  0.556888  1
  Al  Al9  1  0.519613  0.832822  0.441455  1
  Al  Al10  1  0.215382  0.165646  0.333209  1
  Al  Al11  1  0.788189  0.831471  0.665186  1
  Al  Al12  1  0.438164  0.510440  0.665564  1
  Al  Al13  1  0.562341  0.492744  0.332917  1
  Al  Al14  1  0.108478  0.159099  0.664108  1
  Al  Al15  1  0.888931  0.840690  0.334391  1
  Al  Al16  1  0.349811  0.502848  0.946612  1
  Al  Al17  1  0.649138  0.499107  0.054822  1
  Al  Al18  1  0.013111  0.165754  0.957329  1
  Al  Al19  1  0.985011  0.833515  0.045703  1
  Al  Al20  1  0.185696  0.500136  0.441553  1
  Al  Al21  1  0.813718  0.500164  0.558286  1
  Al  Al22  1  0.735544  0.163973  0.184112  1
  Al  Al23  1  0.263066  0.835292  0.815947  1
  Al  Al24  1  0.060836  0.634505  0.814733  1
  Al  Al25  1  0.938085  0.367659  0.185660  1
  Al  Al26  1  0.859438  0.038845  0.815724  1
  Al  Al27  1  0.142334  0.960083  0.184781  1
  Pt  Pt28  1  0.122977  0.491441  0.637849  1
  Pt  Pt29  1  0.878909  0.506138  0.363316  1
  Pt  Pt30  1  0.657553  0.170947  0.999284  1
  Pt  Pt31  1  0.341932  0.830177  0.999354  1
  Pt  Pt32  1  0.538666  0.167063  0.362968  1
  Pt  Pt33  1  0.461005  0.835207  0.637668  1
  Pt  Pt34  1  0.778658  0.173483  0.636809  1
  Pt  Pt35  1  0.218917  0.826649  0.364212  1
  Pt  Pt36  1  0.001170  0.498849  0.999308  1
