# generated using pymatgen
data_LiDy2(TmPb2)2
_symmetry_space_group_name_H-M   'P 1'
_cell_length_a   7.63844000
_cell_length_b   15.61041600
_cell_length_c   8.25343600
_cell_angle_alpha   90.00000000
_cell_angle_beta   90.00000000
_cell_angle_gamma   90.00000000
_symmetry_Int_Tables_number   1
_chemical_formula_structural   LiDy2(TmPb2)2
_chemical_formula_sum   'Li4 Dy8 Tm8 Pb16'
_cell_volume   984.13332041
_cell_formula_units_Z   4
loop_
 _symmetry_equiv_pos_site_id
 _symmetry_equiv_pos_as_xyz
  1  'x, y, z'
loop_
 _atom_site_type_symbol
 _atom_site_label
 _atom_site_symmetry_multiplicity
 _atom_site_fract_x
 _atom_site_fract_y
 _atom_site_fract_z
 _atom_site_occupancy
  Li  Li0  1  0.835261  0.750000  0.507756  1
  Li  Li1  1  0.335261  0.750000  0.992244  1
  Li  Li2  1  0.164739  0.250000  0.492244  1
  Li  Li3  1  0.664739  0.250000  0.007756  1
  Dy  Dy4  1  0.493883  0.590347  0.688159  1
  Dy  Dy5  1  0.993883  0.909653  0.811841  1
  Dy  Dy6  1  0.506117  0.090347  0.311841  1
  Dy  Dy7  1  0.006117  0.409653  0.188159  1
  Dy  Dy8  1  0.506117  0.409653  0.311841  1
  Dy  Dy9  1  0.006117  0.090347  0.188159  1
  Dy  Dy10  1  0.493883  0.909653  0.688159  1
  Dy  Dy11  1  0.993883  0.590347  0.811841  1
  Tm  Tm12  1  0.664280  0.628242  0.159231  1
  Tm  Tm13  1  0.164280  0.871758  0.340769  1
  Tm  Tm14  1  0.335720  0.128242  0.840769  1
  Tm  Tm15  1  0.835720  0.371758  0.659231  1
  Tm  Tm16  1  0.335720  0.371758  0.840769  1
  Tm  Tm17  1  0.835720  0.128242  0.659231  1
  Tm  Tm18  1  0.664280  0.871758  0.159231  1
  Tm  Tm19  1  0.164280  0.628242  0.340769  1
  Pb  Pb20  1  0.689095  0.457122  0.959670  1
  Pb  Pb21  1  0.189095  0.042878  0.540330  1
  Pb  Pb22  1  0.310905  0.957122  0.040330  1
  Pb  Pb23  1  0.810905  0.542878  0.459670  1
  Pb  Pb24  1  0.310905  0.542878  0.040330  1
  Pb  Pb25  1  0.810905  0.957122  0.459670  1
  Pb  Pb26  1  0.689095  0.042878  0.959670  1
  Pb  Pb27  1  0.189095  0.457122  0.540330  1
  Pb  Pb28  1  0.484930  0.750000  0.402944  1
  Pb  Pb29  1  0.984930  0.750000  0.097056  1
  Pb  Pb30  1  0.515070  0.250000  0.597056  1
  Pb  Pb31  1  0.015070  0.250000  0.902944  1
  Pb  Pb32  1  0.689504  0.750000  0.840013  1
  Pb  Pb33  1  0.189504  0.750000  0.659987  1
  Pb  Pb34  1  0.310496  0.250000  0.159987  1
  Pb  Pb35  1  0.810496  0.250000  0.340013  1
