# generated using pymatgen
data_Ce8Ti10ReSi16W
_symmetry_space_group_name_H-M   'P 1'
_cell_length_a   6.80684400
_cell_length_b   6.96396201
_cell_length_c   13.29132300
_cell_angle_alpha   90.00000000
_cell_angle_beta   90.00000000
_cell_angle_gamma   90.00368591
_symmetry_Int_Tables_number   1
_chemical_formula_structural   Ce8Ti10ReSi16W
_chemical_formula_sum   'Ce8 Ti10 Re1 Si16 W1'
_cell_volume   630.04330693
_cell_formula_units_Z   1
loop_
 _symmetry_equiv_pos_site_id
 _symmetry_equiv_pos_as_xyz
  1  'x, y, z'
loop_
 _atom_site_type_symbol
 _atom_site_label
 _atom_site_symmetry_multiplicity
 _atom_site_fract_x
 _atom_site_fract_y
 _atom_site_fract_z
 _atom_site_occupancy
  Ce  Ce0  1  0.502843  0.664516  0.593837  1
  Ce  Ce1  1  0.002378  0.835375  0.906454  1
  Ce  Ce2  1  0.497535  0.334713  0.093538  1
  Ce  Ce3  1  0.995979  0.164894  0.406448  1
  Ce  Ce4  1  0.497535  0.334713  0.406462  1
  Ce  Ce5  1  0.995979  0.164894  0.093552  1
  Ce  Ce6  1  0.502843  0.664516  0.906163  1
  Ce  Ce7  1  0.002378  0.835375  0.593546  1
  Ti  Ti8  1  0.668752  0.172299  0.626579  1
  Ti  Ti9  1  0.165518  0.330241  0.872607  1
  Ti  Ti10  1  0.335793  0.830043  0.127197  1
  Ti  Ti11  1  0.831261  0.672511  0.373964  1
  Ti  Ti12  1  0.335793  0.830043  0.372803  1
  Ti  Ti13  1  0.831261  0.672511  0.126036  1
  Ti  Ti14  1  0.668752  0.172299  0.873421  1
  Ti  Ti15  1  0.165518  0.330241  0.627393  1
  Ti  Ti16  1  0.335328  0.002599  0.750000  1
  Ti  Ti17  1  0.164517  0.502847  0.250000  1
  Re  Re18  1  0.838336  0.493569  0.750000  1
  Si  Si19  1  0.656353  0.956773  0.454750  1
  Si  Si20  1  0.156678  0.543416  0.044392  1
  Si  Si21  1  0.343864  0.043187  0.955258  1
  Si  Si22  1  0.843644  0.456507  0.546393  1
  Si  Si23  1  0.343864  0.043187  0.544742  1
  Si  Si24  1  0.843644  0.456507  0.953607  1
  Si  Si25  1  0.656353  0.956773  0.045250  1
  Si  Si26  1  0.156678  0.543416  0.455608  1
  Si  Si27  1  0.464503  0.367389  0.750000  1
  Si  Si28  1  0.961762  0.132661  0.750000  1
  Si  Si29  1  0.538311  0.631096  0.250000  1
  Si  Si30  1  0.036864  0.867564  0.250000  1
  Si  Si31  1  0.698976  0.874310  0.750000  1
  Si  Si32  1  0.197702  0.624220  0.750000  1
  Si  Si33  1  0.299769  0.124404  0.250000  1
  Si  Si34  1  0.799816  0.375276  0.250000  1
  W  W35  1  0.662918  0.995110  0.250000  1
