# generated using pymatgen
data_Tm8MoW3C8
_symmetry_space_group_name_H-M   'P 1'
_cell_length_a   5.69520323
_cell_length_b   5.69520263
_cell_length_c   9.73792800
_cell_angle_alpha   90.00000000
_cell_angle_beta   90.00000000
_cell_angle_gamma   90.01077464
_symmetry_Int_Tables_number   1
_chemical_formula_structural   Tm8MoW3C8
_chemical_formula_sum   'Tm8 Mo1 W3 C8'
_cell_volume   315.85296514
_cell_formula_units_Z   1
loop_
 _symmetry_equiv_pos_site_id
 _symmetry_equiv_pos_as_xyz
  1  'x, y, z'
loop_
 _atom_site_type_symbol
 _atom_site_label
 _atom_site_symmetry_multiplicity
 _atom_site_fract_x
 _atom_site_fract_y
 _atom_site_fract_z
 _atom_site_occupancy
  Tm  Tm0  1  0.299385  0.700615  0.157741  1
  Tm  Tm1  1  0.700390  0.299610  0.841959  1
  Tm  Tm2  1  0.799472  0.798061  0.342269  1
  Tm  Tm3  1  0.201939  0.200528  0.657731  1
  Tm  Tm4  1  0.700390  0.299610  0.158041  1
  Tm  Tm5  1  0.299385  0.700615  0.842259  1
  Tm  Tm6  1  0.201939  0.200528  0.342269  1
  Tm  Tm7  1  0.799472  0.798061  0.657731  1
  Mo  Mo8  1  0.677969  0.322031  0.500000  1
  W  W9  1  0.322829  0.677171  0.500000  1
  W  W10  1  0.821209  0.821657  0.000000  1
  W  W11  1  0.178343  0.178791  0.000000  1
  C  C12  1  0.999856  0.000144  0.842091  1
  C  C13  1  0.498599  0.501401  0.658188  1
  C  C14  1  0.498599  0.501401  0.341812  1
  C  C15  1  0.500010  0.000252  0.000000  1
  C  C16  1  0.499630  0.999018  0.500000  1
  C  C17  1  0.999748  0.499990  0.000000  1
  C  C18  1  0.000982  0.500370  0.500000  1
  C  C19  1  0.999856  0.000144  0.157909  1
