# generated using pymatgen
data_Tm4Lu6Sn5Bi
_symmetry_space_group_name_H-M   'P 1'
_cell_length_a   8.83118439
_cell_length_b   8.83118525
_cell_length_c   6.37586000
_cell_angle_alpha   90.00000000
_cell_angle_beta   90.00000000
_cell_angle_gamma   119.89405501
_symmetry_Int_Tables_number   1
_chemical_formula_structural   Tm4Lu6Sn5Bi
_chemical_formula_sum   'Tm4 Lu6 Sn5 Bi1'
_cell_volume   431.09203882
_cell_formula_units_Z   1
loop_
 _symmetry_equiv_pos_site_id
 _symmetry_equiv_pos_as_xyz
  1  'x, y, z'
loop_
 _atom_site_type_symbol
 _atom_site_label
 _atom_site_symmetry_multiplicity
 _atom_site_fract_x
 _atom_site_fract_y
 _atom_site_fract_z
 _atom_site_occupancy
  Tm  Tm0  1  0.766694  0.766694  0.750000  1
  Tm  Tm1  1  0.234528  0.993295  0.750000  1
  Tm  Tm2  1  0.993295  0.234528  0.750000  1
  Tm  Tm3  1  0.236067  0.236067  0.250000  1
  Lu  Lu4  1  0.670927  0.332758  0.001813  1
  Lu  Lu5  1  0.332758  0.670927  0.001813  1
  Lu  Lu6  1  0.332758  0.670927  0.498187  1
  Lu  Lu7  1  0.670927  0.332758  0.498187  1
  Lu  Lu8  1  0.762705  0.000531  0.250000  1
  Lu  Lu9  1  0.000531  0.762705  0.250000  1
  Sn  Sn10  1  0.601663  0.999414  0.750000  1
  Sn  Sn11  1  0.999414  0.601663  0.750000  1
  Sn  Sn12  1  0.605469  0.605469  0.250000  1
  Sn  Sn13  1  0.396391  0.001931  0.250000  1
  Sn  Sn14  1  0.001931  0.396391  0.250000  1
  Bi  Bi15  1  0.393944  0.393944  0.750000  1
