# generated using pymatgen
data_Yb2Re7Si4W
_symmetry_space_group_name_H-M   'P 1'
_cell_length_a   7.01384260
_cell_length_b   7.75016055
_cell_length_c   4.21890500
_cell_angle_alpha   90.00000000
_cell_angle_beta   90.00000000
_cell_angle_gamma   89.97064653
_symmetry_Int_Tables_number   1
_chemical_formula_structural   Yb2Re7Si4W
_chemical_formula_sum   'Yb2 Re7 Si4 W1'
_cell_volume   229.33292191
_cell_formula_units_Z   1
loop_
 _symmetry_equiv_pos_site_id
 _symmetry_equiv_pos_as_xyz
  1  'x, y, z'
loop_
 _atom_site_type_symbol
 _atom_site_label
 _atom_site_symmetry_multiplicity
 _atom_site_fract_x
 _atom_site_fract_y
 _atom_site_fract_z
 _atom_site_occupancy
  Yb  Yb0  1  0.500061  0.498527  0.000000  1
  Yb  Yb1  1  0.998655  0.000483  0.500000  1
  Re  Re2  1  0.155448  0.612519  0.500000  1
  Re  Re3  1  0.080094  0.340181  0.000000  1
  Re  Re4  1  0.923363  0.656808  0.000000  1
  Re  Re5  1  0.418792  0.841134  0.500000  1
  Re  Re6  1  0.580517  0.163151  0.500000  1
  Re  Re7  1  0.343827  0.114523  0.000000  1
  Re  Re8  1  0.845746  0.386347  0.500000  1
  Si  Si9  1  0.226784  0.814990  0.000000  1
  Si  Si10  1  0.774904  0.187788  0.000000  1
  Si  Si11  1  0.727755  0.684708  0.500000  1
  Si  Si12  1  0.272701  0.313457  0.500000  1
  W  W13  1  0.651355  0.885387  0.000000  1
