# generated using pymatgen
data_Zr8Ti11Si16Au
_symmetry_space_group_name_H-M   'P 1'
_cell_length_a   6.86206780
_cell_length_b   6.86206840
_cell_length_c   12.51511755
_cell_angle_alpha   90.19847037
_cell_angle_beta   89.80152703
_cell_angle_gamma   89.81697366
_symmetry_Int_Tables_number   1
_chemical_formula_structural   Zr8Ti11Si16Au
_chemical_formula_sum   'Zr8 Ti11 Si16 Au1'
_cell_volume   589.30148639
_cell_formula_units_Z   1
loop_
 _symmetry_equiv_pos_site_id
 _symmetry_equiv_pos_as_xyz
  1  'x, y, z'
loop_
 _atom_site_type_symbol
 _atom_site_label
 _atom_site_symmetry_multiplicity
 _atom_site_fract_x
 _atom_site_fract_y
 _atom_site_fract_z
 _atom_site_occupancy
  Zr  Zr0  1  0.344215  0.999126  0.466982  1
  Zr  Zr1  1  0.501422  0.843698  0.717633  1
  Zr  Zr2  1  0.500150  0.153568  0.216734  1
  Zr  Zr3  1  0.843698  0.501422  0.282367  1
  Zr  Zr4  1  0.153568  0.500150  0.783266  1
  Zr  Zr5  1  0.657834  0.002593  0.968945  1
  Zr  Zr6  1  0.999126  0.344215  0.533018  1
  Zr  Zr7  1  0.002593  0.657834  0.031055  1
  Ti  Ti8  1  0.172258  0.827617  0.249884  1
  Ti  Ti9  1  0.827617  0.172258  0.750116  1
  Ti  Ti10  1  0.671010  0.671010  0.500000  1
  Ti  Ti11  1  0.147575  0.006778  0.872773  1
  Ti  Ti12  1  0.497873  0.649724  0.121306  1
  Ti  Ti13  1  0.503816  0.348774  0.623357  1
  Ti  Ti14  1  0.649724  0.497873  0.878694  1
  Ti  Ti15  1  0.348774  0.503816  0.376643  1
  Ti  Ti16  1  0.848331  0.995403  0.371286  1
  Ti  Ti17  1  0.006778  0.147575  0.127227  1
  Ti  Ti18  1  0.995403  0.848331  0.628714  1
  Si  Si19  1  0.205810  0.136014  0.677585  1
  Si  Si20  1  0.370027  0.722426  0.922552  1
  Si  Si21  1  0.635443  0.293115  0.427303  1
  Si  Si22  1  0.722426  0.370027  0.077448  1
  Si  Si23  1  0.293115  0.635443  0.572697  1
  Si  Si24  1  0.794814  0.862865  0.176938  1
  Si  Si25  1  0.136014  0.205810  0.322415  1
  Si  Si26  1  0.862865  0.794814  0.823062  1
  Si  Si27  1  0.289483  0.940372  0.064692  1
  Si  Si28  1  0.545897  0.792369  0.313185  1
  Si  Si29  1  0.455362  0.205606  0.810344  1
  Si  Si30  1  0.792369  0.545897  0.686815  1
  Si  Si31  1  0.205606  0.455362  0.189656  1
  Si  Si32  1  0.706977  0.045967  0.563033  1
  Si  Si33  1  0.940372  0.289483  0.935308  1
  Si  Si34  1  0.045967  0.706977  0.436967  1
  Au  Au35  1  0.325688  0.325688  0.000000  1
