# generated using pymatgen
data_Ho3Ni8P6W
_symmetry_space_group_name_H-M   'P 1'
_cell_length_a   3.75029400
_cell_length_b   10.66275400
_cell_length_c   12.31653000
_cell_angle_alpha   90.00000000
_cell_angle_beta   90.00000000
_cell_angle_gamma   90.00000000
_symmetry_Int_Tables_number   1
_chemical_formula_structural   Ho3Ni8P6W
_chemical_formula_sum   'Ho6 Ni16 P12 W2'
_cell_volume   492.51909618
_cell_formula_units_Z   2
loop_
 _symmetry_equiv_pos_site_id
 _symmetry_equiv_pos_as_xyz
  1  'x, y, z'
loop_
 _atom_site_type_symbol
 _atom_site_label
 _atom_site_symmetry_multiplicity
 _atom_site_fract_x
 _atom_site_fract_y
 _atom_site_fract_z
 _atom_site_occupancy
  Ho  Ho0  1  0.751894  0.000000  0.475422  1
  Ho  Ho1  1  0.251894  0.500000  0.524578  1
  Ho  Ho2  1  0.251753  0.680467  0.792590  1
  Ho  Ho3  1  0.251753  0.319533  0.792590  1
  Ho  Ho4  1  0.751753  0.819533  0.207410  1
  Ho  Ho5  1  0.751753  0.180467  0.207410  1
  Ni  Ni6  1  0.751726  0.000000  0.015353  1
  Ni  Ni7  1  0.251726  0.500000  0.984647  1
  Ni  Ni8  1  0.251861  0.197606  0.572124  1
  Ni  Ni9  1  0.251861  0.802394  0.572124  1
  Ni  Ni10  1  0.751861  0.302394  0.427876  1
  Ni  Ni11  1  0.751861  0.697606  0.427876  1
  Ni  Ni12  1  0.252025  0.621030  0.289412  1
  Ni  Ni13  1  0.252025  0.378970  0.289412  1
  Ni  Ni14  1  0.752025  0.878970  0.710588  1
  Ni  Ni15  1  0.752025  0.121030  0.710588  1
  Ni  Ni16  1  0.251716  0.167156  0.011536  1
  Ni  Ni17  1  0.251716  0.832844  0.011536  1
  Ni  Ni18  1  0.751716  0.332844  0.988464  1
  Ni  Ni19  1  0.751716  0.667156  0.988464  1
  Ni  Ni20  1  0.251799  0.000000  0.300464  1
  Ni  Ni21  1  0.751799  0.500000  0.699536  1
  P  P22  1  0.251924  0.185757  0.385942  1
  P  P23  1  0.251924  0.814243  0.385942  1
  P  P24  1  0.751924  0.314243  0.614058  1
  P  P25  1  0.751924  0.685757  0.614058  1
  P  P26  1  0.251687  0.000000  0.122575  1
  P  P27  1  0.751687  0.500000  0.877425  1
  P  P28  1  0.251702  0.655743  0.107168  1
  P  P29  1  0.251702  0.344257  0.107168  1
  P  P30  1  0.751702  0.844257  0.892832  1
  P  P31  1  0.751702  0.155743  0.892832  1
  P  P32  1  0.251911  0.000000  0.650483  1
  P  P33  1  0.751911  0.500000  0.349517  1
  W  W34  1  0.251824  0.000000  0.846671  1
  W  W35  1  0.751824  0.500000  0.153329  1
