# generated using pymatgen
data_TmLuTa2(SnPt)4
_symmetry_space_group_name_H-M   'P 1'
_cell_length_a   6.41332611
_cell_length_b   4.52195700
_cell_length_c   9.06000416
_cell_angle_alpha   90.00000000
_cell_angle_beta   90.02148565
_cell_angle_gamma   90.00000000
_symmetry_Int_Tables_number   1
_chemical_formula_structural   TmLuTa2(SnPt)4
_chemical_formula_sum   'Tm1 Lu1 Ta2 Sn4 Pt4'
_cell_volume   262.74721342
_cell_formula_units_Z   1
loop_
 _symmetry_equiv_pos_site_id
 _symmetry_equiv_pos_as_xyz
  1  'x, y, z'
loop_
 _atom_site_type_symbol
 _atom_site_label
 _atom_site_symmetry_multiplicity
 _atom_site_fract_x
 _atom_site_fract_y
 _atom_site_fract_z
 _atom_site_occupancy
  Tm  Tm0  1  0.003253  0.000000  0.376364  1
  Lu  Lu1  1  0.503438  0.500001  0.623544  1
  Ta  Ta2  1  0.497515  0.500001  0.124138  1
  Ta  Ta3  1  0.997378  0.000000  0.875855  1
  Sn  Sn4  1  0.987740  0.500001  0.125937  1
  Sn  Sn5  1  0.509961  0.000000  0.374328  1
  Sn  Sn6  1  0.009812  0.500001  0.626188  1
  Sn  Sn7  1  0.487377  0.000000  0.873545  1
  Pt  Pt8  1  0.736582  0.000000  0.111669  1
  Pt  Pt9  1  0.265935  0.500001  0.359185  1
  Pt  Pt10  1  0.763936  0.000000  0.641420  1
  Pt  Pt11  1  0.237070  0.500001  0.887831  1
