# generated using pymatgen
data_Th2TcN3
_symmetry_space_group_name_H-M   'P 1'
_cell_length_a   3.54740737
_cell_length_b   3.87187007
_cell_length_c   7.06328333
_cell_angle_alpha   105.90743821
_cell_angle_beta   104.54358152
_cell_angle_gamma   89.99999056
_symmetry_Int_Tables_number   1
_chemical_formula_structural   Th2TcN3
_chemical_formula_sum   'Th2 Tc1 N3'
_cell_volume   90.06299375
_cell_formula_units_Z   1
loop_
 _symmetry_equiv_pos_site_id
 _symmetry_equiv_pos_as_xyz
  1  'x, y, z'
loop_
 _atom_site_type_symbol
 _atom_site_label
 _atom_site_symmetry_multiplicity
 _atom_site_fract_x
 _atom_site_fract_y
 _atom_site_fract_z
 _atom_site_occupancy
  Th  Th0  1  0.646759  0.646756  0.293517  1
  Th  Th1  1  0.353243  0.353242  0.706484  1
  Tc  Tc2  1  0.000000  0.000000  0.000000  1
  N  N3  1  0.000000  0.499998  0.000000  1
  N  N4  1  0.170423  0.170423  0.340847  1
  N  N5  1  0.829577  0.829575  0.659153  1
