# generated using pymatgen
data_K2LiLuBi2
_symmetry_space_group_name_H-M   'P 1'
_cell_length_a   11.06489408
_cell_length_b   11.06489396
_cell_length_c   7.18603800
_cell_angle_alpha   90.00000000
_cell_angle_beta   90.00000000
_cell_angle_gamma   98.78864845
_symmetry_Int_Tables_number   1
_chemical_formula_structural   K2LiLuBi2
_chemical_formula_sum   'K8 Li4 Lu4 Bi8'
_cell_volume   869.47011755
_cell_formula_units_Z   4
loop_
 _symmetry_equiv_pos_site_id
 _symmetry_equiv_pos_as_xyz
  1  'x, y, z'
loop_
 _atom_site_type_symbol
 _atom_site_label
 _atom_site_symmetry_multiplicity
 _atom_site_fract_x
 _atom_site_fract_y
 _atom_site_fract_z
 _atom_site_occupancy
  K  K0  1  0.573370  0.926630  0.750000  1
  K  K1  1  0.926630  0.573370  0.250000  1
  K  K2  1  0.426630  0.073370  0.250000  1
  K  K3  1  0.073370  0.426630  0.750000  1
  K  K4  1  0.673289  0.326711  0.774836  1
  K  K5  1  0.826711  0.173289  0.274836  1
  K  K6  1  0.326711  0.673289  0.225164  1
  K  K7  1  0.173289  0.826711  0.725164  1
  Li  Li8  1  0.621306  0.621306  0.000000  1
  Li  Li9  1  0.878694  0.878694  0.500000  1
  Li  Li10  1  0.378694  0.378694  0.000000  1
  Li  Li11  1  0.121306  0.121306  0.500000  1
  Lu  Lu12  1  0.870943  0.870943  0.000000  1
  Lu  Lu13  1  0.629057  0.629057  0.500000  1
  Lu  Lu14  1  0.129057  0.129057  0.000000  1
  Lu  Lu15  1  0.370943  0.370943  0.500000  1
  Bi  Bi16  1  0.350794  0.149206  0.750000  1
  Bi  Bi17  1  0.149206  0.350794  0.250000  1
  Bi  Bi18  1  0.649206  0.850794  0.250000  1
  Bi  Bi19  1  0.850794  0.649206  0.750000  1
  Bi  Bi20  1  0.899101  0.100899  0.759068  1
  Bi  Bi21  1  0.600899  0.399101  0.259068  1
  Bi  Bi22  1  0.100899  0.899101  0.240932  1
  Bi  Bi23  1  0.399101  0.600899  0.740932  1
