# generated using pymatgen
data_Ta6Be2GaAs
_symmetry_space_group_name_H-M   'P 1'
_cell_length_a   6.67073903
_cell_length_b   6.70859610
_cell_length_c   3.45249100
_cell_angle_alpha   90.00000000
_cell_angle_beta   90.00000000
_cell_angle_gamma   90.23497604
_symmetry_Int_Tables_number   1
_chemical_formula_structural   Ta6Be2GaAs
_chemical_formula_sum   'Ta6 Be2 Ga1 As1'
_cell_volume   154.50213989
_cell_formula_units_Z   1
loop_
 _symmetry_equiv_pos_site_id
 _symmetry_equiv_pos_as_xyz
  1  'x, y, z'
loop_
 _atom_site_type_symbol
 _atom_site_label
 _atom_site_symmetry_multiplicity
 _atom_site_fract_x
 _atom_site_fract_y
 _atom_site_fract_z
 _atom_site_occupancy
  Ta  Ta0  1  0.819760  0.691844  0.500000  1
  Ta  Ta1  1  0.321944  0.810802  0.500000  1
  Ta  Ta2  1  0.183956  0.336860  0.500000  1
  Ta  Ta3  1  0.679590  0.160774  0.500000  1
  Ta  Ta4  1  0.495816  0.509523  0.000000  1
  Ta  Ta5  1  0.995271  0.991946  0.000000  1
  Be  Be6  1  0.120041  0.624685  0.000000  1
  Be  Be7  1  0.622133  0.873217  0.000000  1
  Ga  Ga8  1  0.880569  0.385925  0.000000  1
  As  As9  1  0.380919  0.114423  0.000000  1
