# generated using pymatgen
data_Nb12AlZn6GaN4
_symmetry_space_group_name_H-M   'P 1'
_cell_length_a   7.03750213
_cell_length_b   7.03889801
_cell_length_c   7.03955817
_cell_angle_alpha   90.06437261
_cell_angle_beta   90.02821763
_cell_angle_gamma   90.06373818
_symmetry_Int_Tables_number   1
_chemical_formula_structural   Nb12AlZn6GaN4
_chemical_formula_sum   'Nb12 Al1 Zn6 Ga1 N4'
_cell_volume   348.71290402
_cell_formula_units_Z   1
loop_
 _symmetry_equiv_pos_site_id
 _symmetry_equiv_pos_as_xyz
  1  'x, y, z'
loop_
 _atom_site_type_symbol
 _atom_site_label
 _atom_site_symmetry_multiplicity
 _atom_site_fract_x
 _atom_site_fract_y
 _atom_site_fract_z
 _atom_site_occupancy
  Nb  Nb0  1  0.792741  0.957113  0.373303  1
  Nb  Nb1  1  0.707498  0.043252  0.876241  1
  Nb  Nb2  1  0.207193  0.457494  0.126937  1
  Nb  Nb3  1  0.291975  0.543100  0.623895  1
  Nb  Nb4  1  0.957354  0.374559  0.792150  1
  Nb  Nb5  1  0.042706  0.873815  0.707518  1
  Nb  Nb6  1  0.456857  0.124619  0.206965  1
  Nb  Nb7  1  0.543404  0.625305  0.292745  1
  Nb  Nb8  1  0.373973  0.793199  0.957261  1
  Nb  Nb9  1  0.875420  0.707944  0.043319  1
  Nb  Nb10  1  0.124004  0.208178  0.457130  1
  Nb  Nb11  1  0.626902  0.293010  0.542636  1
  Al  Al12  1  0.926888  0.572866  0.427817  1
  Zn  Zn13  1  0.182114  0.820989  0.323233  1
  Zn  Zn14  1  0.323990  0.179542  0.818541  1
  Zn  Zn15  1  0.817641  0.321608  0.177148  1
  Zn  Zn16  1  0.676315  0.679473  0.681140  1
  Zn  Zn17  1  0.570612  0.429054  0.928385  1
  Zn  Zn18  1  0.429354  0.929140  0.571689  1
  Ga  Ga19  1  0.072735  0.072382  0.071646  1
  N  N20  1  0.874404  0.122377  0.624951  1
  N  N21  1  0.623148  0.874165  0.123827  1
  N  N22  1  0.125618  0.622859  0.875533  1
  N  N23  1  0.377151  0.373958  0.375987  1
