# generated using pymatgen
data_Yb2ScNbO6
_symmetry_space_group_name_H-M   'P 1'
_cell_length_a   5.67548100
_cell_length_b   5.46419725
_cell_length_c   9.55547165
_cell_angle_alpha   55.20053348
_cell_angle_beta   90.00000000
_cell_angle_gamma   90.00000000
_symmetry_Int_Tables_number   1
_chemical_formula_structural   Yb2ScNbO6
_chemical_formula_sum   'Yb4 Sc2 Nb2 O12'
_cell_volume   243.33582906
_cell_formula_units_Z   2
loop_
 _symmetry_equiv_pos_site_id
 _symmetry_equiv_pos_as_xyz
  1  'x, y, z'
loop_
 _atom_site_type_symbol
 _atom_site_label
 _atom_site_symmetry_multiplicity
 _atom_site_fract_x
 _atom_site_fract_y
 _atom_site_fract_z
 _atom_site_occupancy
  Yb  Yb0  1  0.442347  0.232356  0.751645  1
  Yb  Yb1  1  0.557653  0.767644  0.248355  1
  Yb  Yb2  1  0.942347  0.767644  0.748355  1
  Yb  Yb3  1  0.057653  0.232356  0.251645  1
  Sc  Sc4  1  0.000000  0.000000  0.000000  1
  Sc  Sc5  1  0.500000  0.000000  0.500000  1
  Nb  Nb6  1  0.000000  0.500000  0.500000  1
  Nb  Nb7  1  0.500000  0.500000  0.000000  1
  O  O8  1  0.039455  0.363767  0.744039  1
  O  O9  1  0.960545  0.636233  0.255961  1
  O  O10  1  0.539455  0.636233  0.755961  1
  O  O11  1  0.460545  0.363767  0.244039  1
  O  O12  1  0.694248  0.851605  0.945288  1
  O  O13  1  0.305752  0.148395  0.054712  1
  O  O14  1  0.194248  0.148395  0.554712  1
  O  O15  1  0.805752  0.851605  0.445288  1
  O  O16  1  0.205926  0.750402  0.940774  1
  O  O17  1  0.794074  0.249598  0.059226  1
  O  O18  1  0.705926  0.249598  0.559226  1
  O  O19  1  0.294074  0.750402  0.440774  1
