# generated using pymatgen
data_Sr10CrTc3N14
_symmetry_space_group_name_H-M   'P 1'
_cell_length_a   6.43980521
_cell_length_b   9.14451264
_cell_length_c   9.25192920
_cell_angle_alpha   114.55518820
_cell_angle_beta   98.17764854
_cell_angle_gamma   90.02926462
_symmetry_Int_Tables_number   1
_chemical_formula_structural   Sr10CrTc3N14
_chemical_formula_sum   'Sr10 Cr1 Tc3 N14'
_cell_volume   489.44578889
_cell_formula_units_Z   1
loop_
 _symmetry_equiv_pos_site_id
 _symmetry_equiv_pos_as_xyz
  1  'x, y, z'
loop_
 _atom_site_type_symbol
 _atom_site_label
 _atom_site_symmetry_multiplicity
 _atom_site_fract_x
 _atom_site_fract_y
 _atom_site_fract_z
 _atom_site_occupancy
  Sr  Sr0  1  0.856496  0.589471  0.334630  1
  Sr  Sr1  1  0.270678  0.989546  0.566883  1
  Sr  Sr2  1  0.703991  0.408856  0.846944  1
  Sr  Sr3  1  0.299308  0.585630  0.148710  1
  Sr  Sr4  1  0.404579  0.787659  0.910318  1
  Sr  Sr5  1  0.596536  0.210006  0.089903  1
  Sr  Sr6  1  0.147219  0.411594  0.666488  1
  Sr  Sr7  1  0.886614  0.846053  0.760974  1
  Sr  Sr8  1  0.114808  0.162146  0.243183  1
  Sr  Sr9  1  0.728666  0.021836  0.431604  1
  Cr  Cr10  1  0.573237  0.364940  0.476773  1
  Tc  Tc11  1  0.421683  0.637026  0.520271  1
  Tc  Tc12  1  0.119126  0.216909  0.913625  1
  Tc  Tc13  1  0.882593  0.781140  0.087407  1
  N  N14  1  0.551838  0.545794  0.668037  1
  N  N15  1  0.449874  0.434440  0.326128  1
  N  N16  1  0.162259  0.706206  0.580640  1
  N  N17  1  0.825144  0.303849  0.431989  1
  N  N18  1  0.420342  0.204870  0.478940  1
  N  N19  1  0.579817  0.802319  0.513616  1
  N  N20  1  0.947940  0.139939  0.714659  1
  N  N21  1  0.050936  0.856794  0.286683  1
  N  N22  1  0.226474  0.050011  0.959633  1
  N  N23  1  0.772314  0.949423  0.044477  1
  N  N24  1  0.353429  0.327515  0.900979  1
  N  N25  1  0.976432  0.349147  0.076205  1
  N  N26  1  0.027534  0.650958  0.925299  1
  N  N27  1  0.650132  0.665923  0.095001  1
