# generated using pymatgen
data_Er3ZnIn4Ir
_symmetry_space_group_name_H-M   'P 1'
_cell_length_a   7.93168900
_cell_length_b   7.93168860
_cell_length_c   3.80941600
_cell_angle_alpha   90.00000000
_cell_angle_beta   90.00000000
_cell_angle_gamma   119.99999748
_symmetry_Int_Tables_number   1
_chemical_formula_structural   Er3ZnIn4Ir
_chemical_formula_sum   'Er3 Zn1 In4 Ir1'
_cell_volume   207.54887186
_cell_formula_units_Z   1
loop_
 _symmetry_equiv_pos_site_id
 _symmetry_equiv_pos_as_xyz
  1  'x, y, z'
loop_
 _atom_site_type_symbol
 _atom_site_label
 _atom_site_symmetry_multiplicity
 _atom_site_fract_x
 _atom_site_fract_y
 _atom_site_fract_z
 _atom_site_occupancy
  Er  Er0  1  0.708140  0.958462  0.500000  1
  Er  Er1  1  0.250322  0.291860  0.500000  1
  Er  Er2  1  0.041538  0.749678  0.500000  1
  Zn  Zn3  1  0.666667  0.333333  0.500000  1
  In  In4  1  0.931985  0.336565  0.000000  1
  In  In5  1  0.404581  0.068015  0.000000  1
  In  In6  1  0.663435  0.595419  0.000000  1
  In  In7  1  0.333333  0.666667  0.000000  1
  Ir  Ir8  1  0.000000  0.000000  0.000000  1
