# generated using pymatgen
data_Sc3Nb3(Si2Ru5)2
_symmetry_space_group_name_H-M   'P 1'
_cell_length_a   9.82042969
_cell_length_b   9.82042977
_cell_length_c   3.21452900
_cell_angle_alpha   90.00000000
_cell_angle_beta   90.00000000
_cell_angle_gamma   90.31661867
_symmetry_Int_Tables_number   1
_chemical_formula_structural   Sc3Nb3(Si2Ru5)2
_chemical_formula_sum   'Sc3 Nb3 Si4 Ru10'
_cell_volume   310.00714376
_cell_formula_units_Z   1
loop_
 _symmetry_equiv_pos_site_id
 _symmetry_equiv_pos_as_xyz
  1  'x, y, z'
loop_
 _atom_site_type_symbol
 _atom_site_label
 _atom_site_symmetry_multiplicity
 _atom_site_fract_x
 _atom_site_fract_y
 _atom_site_fract_z
 _atom_site_occupancy
  Sc  Sc0  1  0.173081  0.826919  0.000000  1
  Sc  Sc1  1  0.326769  0.328657  0.000000  1
  Sc  Sc2  1  0.671343  0.673231  0.000000  1
  Nb  Nb3  1  0.498477  0.998839  0.000000  1
  Nb  Nb4  1  0.001161  0.501523  0.000000  1
  Nb  Nb5  1  0.826404  0.173596  0.000000  1
  Si  Si6  1  0.626609  0.373391  0.000000  1
  Si  Si7  1  0.373330  0.626670  0.000000  1
  Si  Si8  1  0.127794  0.127326  0.000000  1
  Si  Si9  1  0.872674  0.872206  0.000000  1
  Ru  Ru10  1  0.501124  0.498876  0.500000  1
  Ru  Ru11  1  0.995289  0.004711  0.500000  1
  Ru  Ru12  1  0.577329  0.205389  0.500000  1
  Ru  Ru13  1  0.433179  0.792433  0.500000  1
  Ru  Ru14  1  0.061079  0.289969  0.500000  1
  Ru  Ru15  1  0.929538  0.707390  0.500000  1
  Ru  Ru16  1  0.292610  0.070462  0.500000  1
  Ru  Ru17  1  0.710031  0.938921  0.500000  1
  Ru  Ru18  1  0.207567  0.566821  0.500000  1
  Ru  Ru19  1  0.794611  0.422671  0.500000  1
