# generated using pymatgen
data_CeSm3(Sc3Sn4)2
_symmetry_space_group_name_H-M   'P 1'
_cell_length_a   7.76828166
_cell_length_b   7.98356059
_cell_length_c   14.93578200
_cell_angle_alpha   89.97548432
_cell_angle_beta   89.89255949
_cell_angle_gamma   90.21427972
_symmetry_Int_Tables_number   1
_chemical_formula_structural   CeSm3(Sc3Sn4)2
_chemical_formula_sum   'Ce2 Sm6 Sc12 Sn16'
_cell_volume   926.28730793
_cell_formula_units_Z   2
loop_
 _symmetry_equiv_pos_site_id
 _symmetry_equiv_pos_as_xyz
  1  'x, y, z'
loop_
 _atom_site_type_symbol
 _atom_site_label
 _atom_site_symmetry_multiplicity
 _atom_site_fract_x
 _atom_site_fract_y
 _atom_site_fract_z
 _atom_site_occupancy
  Ce  Ce0  1  0.494452  0.327262  0.406534  1
  Ce  Ce1  1  0.505548  0.672738  0.593466  1
  Sm  Sm2  1  0.993686  0.174702  0.094227  1
  Sm  Sm3  1  0.006314  0.825298  0.905773  1
  Sm  Sm4  1  0.506142  0.675484  0.904871  1
  Sm  Sm5  1  0.007706  0.824236  0.594119  1
  Sm  Sm6  1  0.493858  0.324516  0.095129  1
  Sm  Sm7  1  0.992294  0.175764  0.405881  1
  Sc  Sc8  1  0.169291  0.494900  0.749665  1
  Sc  Sc9  1  0.830709  0.505100  0.250335  1
  Sc  Sc10  1  0.330835  0.995752  0.250218  1
  Sc  Sc11  1  0.669165  0.004248  0.749782  1
  Sc  Sc12  1  0.339844  0.162262  0.626893  1
  Sc  Sc13  1  0.660156  0.837738  0.373107  1
  Sc  Sc14  1  0.160793  0.660591  0.373178  1
  Sc  Sc15  1  0.660630  0.837986  0.127327  1
  Sc  Sc16  1  0.839207  0.339409  0.626822  1
  Sc  Sc17  1  0.339370  0.162014  0.872673  1
  Sc  Sc18  1  0.838527  0.338558  0.872978  1
  Sc  Sc19  1  0.161473  0.661442  0.127022  1
  Sn  Sn20  1  0.031485  0.127481  0.749655  1
  Sn  Sn21  1  0.968515  0.872519  0.250345  1
  Sn  Sn22  1  0.467707  0.626964  0.250187  1
  Sn  Sn23  1  0.532293  0.373036  0.749813  1
  Sn  Sn24  1  0.310223  0.853821  0.749589  1
  Sn  Sn25  1  0.689777  0.146179  0.250411  1
  Sn  Sn26  1  0.189068  0.353432  0.250003  1
  Sn  Sn27  1  0.810932  0.646568  0.749997  1
  Sn  Sn28  1  0.178968  0.455323  0.543017  1
  Sn  Sn29  1  0.821032  0.544677  0.456983  1
  Sn  Sn30  1  0.320492  0.956995  0.456935  1
  Sn  Sn31  1  0.821401  0.544145  0.043097  1
  Sn  Sn32  1  0.679508  0.043005  0.543065  1
  Sn  Sn33  1  0.178599  0.455855  0.956903  1
  Sn  Sn34  1  0.678460  0.043632  0.957053  1
  Sn  Sn35  1  0.321540  0.956368  0.042947  1
