# generated using pymatgen
data_Dy9Tm(GePb3)2
_symmetry_space_group_name_H-M   'P 1'
_cell_length_a   9.33506600
_cell_length_b   9.33506574
_cell_length_c   6.54262900
_cell_angle_alpha   90.00000000
_cell_angle_beta   90.00000000
_cell_angle_gamma   120.00000093
_symmetry_Int_Tables_number   1
_chemical_formula_structural   Dy9Tm(GePb3)2
_chemical_formula_sum   'Dy9 Tm1 Ge2 Pb6'
_cell_volume   493.76203626
_cell_formula_units_Z   1
loop_
 _symmetry_equiv_pos_site_id
 _symmetry_equiv_pos_as_xyz
  1  'x, y, z'
loop_
 _atom_site_type_symbol
 _atom_site_label
 _atom_site_symmetry_multiplicity
 _atom_site_fract_x
 _atom_site_fract_y
 _atom_site_fract_z
 _atom_site_occupancy
  Dy  Dy0  1  0.251500  0.999847  0.250205  1
  Dy  Dy1  1  0.748346  0.999847  0.749795  1
  Dy  Dy2  1  0.000153  0.251654  0.250205  1
  Dy  Dy3  1  0.000153  0.748500  0.749795  1
  Dy  Dy4  1  0.748346  0.748500  0.250205  1
  Dy  Dy5  1  0.251500  0.251654  0.749795  1
  Dy  Dy6  1  0.666667  0.333333  0.000000  1
  Dy  Dy7  1  0.666667  0.333333  0.500000  1
  Dy  Dy8  1  0.333333  0.666667  0.500000  1
  Tm  Tm9  1  0.333333  0.666667  0.000000  1
  Ge  Ge10  1  0.000000  0.000000  0.000000  1
  Ge  Ge11  1  0.000000  0.000000  0.500000  1
  Pb  Pb12  1  0.607608  0.999629  0.249909  1
  Pb  Pb13  1  0.392021  0.999629  0.750091  1
  Pb  Pb14  1  0.000371  0.607979  0.249909  1
  Pb  Pb15  1  0.000371  0.392392  0.750091  1
  Pb  Pb16  1  0.392021  0.392392  0.249909  1
  Pb  Pb17  1  0.607608  0.607979  0.750091  1
