# generated using pymatgen
data_Nb13Ga8Cu3C4
_symmetry_space_group_name_H-M   'P 1'
_cell_length_a   8.36347195
_cell_length_b   8.33131454
_cell_length_c   8.33131400
_cell_angle_alpha   60.00000215
_cell_angle_beta   60.12711187
_cell_angle_gamma   60.12710636
_symmetry_Int_Tables_number   1
_chemical_formula_structural   Nb13Ga8Cu3C4
_chemical_formula_sum   'Nb13 Ga8 Cu3 C4'
_cell_volume   411.27316351
_cell_formula_units_Z   1
loop_
 _symmetry_equiv_pos_site_id
 _symmetry_equiv_pos_as_xyz
  1  'x, y, z'
loop_
 _atom_site_type_symbol
 _atom_site_label
 _atom_site_symmetry_multiplicity
 _atom_site_fract_x
 _atom_site_fract_y
 _atom_site_fract_z
 _atom_site_occupancy
  Nb  Nb0  1  0.679967  0.311483  0.697067  1
  Nb  Nb1  1  0.934417  0.565042  0.565042  1
  Nb  Nb2  1  0.570033  0.938517  0.938517  1
  Nb  Nb3  1  0.934417  0.565042  0.935499  1
  Nb  Nb4  1  0.570033  0.552933  0.938517  1
  Nb  Nb5  1  0.934417  0.935499  0.565042  1
  Nb  Nb6  1  0.679967  0.697067  0.311483  1
  Nb  Nb7  1  0.315583  0.684958  0.684958  1
  Nb  Nb8  1  0.679967  0.311483  0.311483  1
  Nb  Nb9  1  0.315583  0.314501  0.684958  1
  Nb  Nb10  1  0.570033  0.938517  0.552933  1
  Nb  Nb11  1  0.315583  0.684958  0.314501  1
  Nb  Nb12  1  0.625000  0.125000  0.125000  1
  Ga  Ga13  1  0.321905  0.341557  0.341557  1
  Ga  Ga14  1  0.265726  0.911424  0.911424  1
  Ga  Ga15  1  0.928095  0.255018  0.908443  1
  Ga  Ga16  1  0.928095  0.908443  0.255018  1
  Ga  Ga17  1  0.321905  0.994982  0.341557  1
  Ga  Ga18  1  0.321905  0.341557  0.994982  1
  Ga  Ga19  1  0.984274  0.338576  0.338576  1
  Ga  Ga20  1  0.928095  0.908443  0.908443  1
  Cu  Cu21  1  0.125000  0.125000  0.125000  1
  Cu  Cu22  1  0.125000  0.625000  0.125000  1
  Cu  Cu23  1  0.125000  0.125000  0.625000  1
  C  C24  1  0.625000  0.625000  0.625000  1
  C  C25  1  0.125000  0.625000  0.625000  1
  C  C26  1  0.625000  0.125000  0.625000  1
  C  C27  1  0.625000  0.625000  0.125000  1
