# generated using pymatgen
data_La7TmSc12Si15Pt
_symmetry_space_group_name_H-M   'P 1'
_cell_length_a   7.29859574
_cell_length_b   7.54698343
_cell_length_c   14.30703743
_cell_angle_alpha   89.91219522
_cell_angle_beta   89.92030677
_cell_angle_gamma   90.27071623
_symmetry_Int_Tables_number   1
_chemical_formula_structural   La7TmSc12Si15Pt
_chemical_formula_sum   'La7 Tm1 Sc12 Si15 Pt1'
_cell_volume   788.05519551
_cell_formula_units_Z   1
loop_
 _symmetry_equiv_pos_site_id
 _symmetry_equiv_pos_as_xyz
  1  'x, y, z'
loop_
 _atom_site_type_symbol
 _atom_site_label
 _atom_site_symmetry_multiplicity
 _atom_site_fract_x
 _atom_site_fract_y
 _atom_site_fract_z
 _atom_site_occupancy
  La  La0  1  0.012357  0.170762  0.097888  1
  La  La1  1  0.988568  0.829030  0.900803  1
  La  La2  1  0.486496  0.670730  0.902929  1
  La  La3  1  0.991711  0.825015  0.595656  1
  La  La4  1  0.511698  0.329462  0.095982  1
  La  La5  1  0.011911  0.175739  0.404533  1
  La  La6  1  0.508008  0.328349  0.404786  1
  Tm  Tm7  1  0.487055  0.671274  0.601929  1
  Sc  Sc8  1  0.162524  0.496982  0.744505  1
  Sc  Sc9  1  0.838680  0.503154  0.251929  1
  Sc  Sc10  1  0.339971  0.994308  0.250855  1
  Sc  Sc11  1  0.661999  0.000810  0.748022  1
  Sc  Sc12  1  0.334770  0.184740  0.623955  1
  Sc  Sc13  1  0.667984  0.823787  0.375335  1
  Sc  Sc14  1  0.170446  0.668757  0.376287  1
  Sc  Sc15  1  0.671443  0.826171  0.126296  1
  Sc  Sc16  1  0.828123  0.328606  0.623718  1
  Sc  Sc17  1  0.329627  0.173799  0.872872  1
  Sc  Sc18  1  0.830123  0.324189  0.873267  1
  Sc  Sc19  1  0.169351  0.676234  0.125559  1
  Si  Si20  1  0.035180  0.128010  0.748391  1
  Si  Si21  1  0.967331  0.872905  0.251767  1
  Si  Si22  1  0.465964  0.626172  0.249347  1
  Si  Si23  1  0.537683  0.378362  0.750289  1
  Si  Si24  1  0.292465  0.882983  0.747078  1
  Si  Si25  1  0.709350  0.117452  0.250543  1
  Si  Si26  1  0.211265  0.383001  0.248985  1
  Si  Si27  1  0.783767  0.617993  0.748613  1
  Si  Si28  1  0.841045  0.539040  0.459820  1
  Si  Si29  1  0.350855  0.955295  0.463365  1
  Si  Si30  1  0.850831  0.538109  0.038969  1
  Si  Si31  1  0.647091  0.028580  0.542042  1
  Si  Si32  1  0.147537  0.461970  0.960159  1
  Si  Si33  1  0.650062  0.036917  0.959666  1
  Si  Si34  1  0.350535  0.962673  0.039270  1
  Pt  Pt35  1  0.156191  0.468636  0.544589  1
