# generated using pymatgen
data_Ac4NdTl3Cl
_symmetry_space_group_name_H-M   'P 1'
_cell_length_a   9.94916700
_cell_length_b   9.94916556
_cell_length_c   7.10170800
_cell_angle_alpha   90.00000000
_cell_angle_beta   90.00000000
_cell_angle_gamma   120.00000145
_symmetry_Int_Tables_number   1
_chemical_formula_structural   Ac4NdTl3Cl
_chemical_formula_sum   'Ac8 Nd2 Tl6 Cl2'
_cell_volume   608.78902650
_cell_formula_units_Z   2
loop_
 _symmetry_equiv_pos_site_id
 _symmetry_equiv_pos_as_xyz
  1  'x, y, z'
loop_
 _atom_site_type_symbol
 _atom_site_label
 _atom_site_symmetry_multiplicity
 _atom_site_fract_x
 _atom_site_fract_y
 _atom_site_fract_z
 _atom_site_occupancy
  Ac  Ac0  1  0.263610  0.263610  0.753353  1
  Ac  Ac1  1  0.000000  0.736390  0.753353  1
  Ac  Ac2  1  0.736390  0.000000  0.753353  1
  Ac  Ac3  1  0.000000  0.263610  0.246647  1
  Ac  Ac4  1  0.333333  0.666667  0.500000  1
  Ac  Ac5  1  0.736390  0.736390  0.246647  1
  Ac  Ac6  1  0.666667  0.333333  0.500000  1
  Ac  Ac7  1  0.263610  0.000000  0.246647  1
  Nd  Nd8  1  0.333333  0.666667  0.000000  1
  Nd  Nd9  1  0.666667  0.333333  0.000000  1
  Tl  Tl10  1  0.607823  0.000000  0.240653  1
  Tl  Tl11  1  0.000000  0.392177  0.759347  1
  Tl  Tl12  1  0.392177  0.000000  0.759347  1
  Tl  Tl13  1  0.607823  0.607823  0.759347  1
  Tl  Tl14  1  0.000000  0.607823  0.240653  1
  Tl  Tl15  1  0.392177  0.392177  0.240653  1
  Cl  Cl16  1  0.000000  0.000000  0.000000  1
  Cl  Cl17  1  0.000000  0.000000  0.500000  1
