# generated using pymatgen
data_Pa12Al19Re3Ir2
_symmetry_space_group_name_H-M   'P 1'
_cell_length_a   9.64820481
_cell_length_b   9.57554373
_cell_length_c   8.52871700
_cell_angle_alpha   90.00000000
_cell_angle_beta   90.00000000
_cell_angle_gamma   119.30542902
_symmetry_Int_Tables_number   1
_chemical_formula_structural   Pa12Al19Re3Ir2
_chemical_formula_sum   'Pa12 Al19 Re3 Ir2'
_cell_volume   687.10253452
_cell_formula_units_Z   1
loop_
 _symmetry_equiv_pos_site_id
 _symmetry_equiv_pos_as_xyz
  1  'x, y, z'
loop_
 _atom_site_type_symbol
 _atom_site_label
 _atom_site_symmetry_multiplicity
 _atom_site_fract_x
 _atom_site_fract_y
 _atom_site_fract_z
 _atom_site_occupancy
  Pa  Pa0  1  0.334995  0.003723  0.087219  1
  Pa  Pa1  1  0.664563  0.990280  0.916677  1
  Pa  Pa2  1  0.005166  0.341845  0.078411  1
  Pa  Pa3  1  0.664563  0.990280  0.583323  1
  Pa  Pa4  1  0.005166  0.341845  0.421589  1
  Pa  Pa5  1  0.994174  0.653963  0.921935  1
  Pa  Pa6  1  0.334995  0.003723  0.412781  1
  Pa  Pa7  1  0.994174  0.653963  0.578065  1
  Pa  Pa8  1  0.673251  0.671144  0.076113  1
  Pa  Pa9  1  0.330556  0.336178  0.913753  1
  Pa  Pa10  1  0.330556  0.336178  0.586247  1
  Pa  Pa11  1  0.673251  0.671144  0.423887  1
  Al  Al12  1  0.487683  0.153659  0.750000  1
  Al  Al13  1  0.499132  0.338357  0.250000  1
  Al  Al14  1  0.510410  0.844583  0.250000  1
  Al  Al15  1  0.325906  0.829824  0.750000  1
  Al  Al16  1  0.662243  0.510658  0.750000  1
  Al  Al17  1  0.673107  0.168786  0.250000  1
  Al  Al18  1  0.336328  0.493560  0.250000  1
  Al  Al19  1  0.841361  0.326392  0.750000  1
  Al  Al20  1  0.155750  0.668520  0.250000  1
  Al  Al21  1  0.333189  0.663666  0.503366  1
  Al  Al22  1  0.667901  0.335866  0.500949  1
  Al  Al23  1  0.667901  0.335866  0.999051  1
  Al  Al24  1  0.333189  0.663666  0.996634  1
  Al  Al25  1  0.160369  0.996583  0.750000  1
  Al  Al26  1  0.838951  0.003461  0.250000  1
  Al  Al27  1  0.999617  0.163831  0.750000  1
  Al  Al28  1  0.999382  0.834068  0.250000  1
  Al  Al29  1  0.837290  0.832669  0.750000  1
  Al  Al30  1  0.161122  0.163760  0.250000  1
  Re  Re31  1  0.160166  0.488250  0.750000  1
  Re  Re32  1  0.835145  0.511372  0.250000  1
  Re  Re33  1  0.515262  0.682896  0.750000  1
  Ir  Ir34  1  0.996592  0.997722  0.500345  1
  Ir  Ir35  1  0.996592  0.997722  0.999655  1
