# generated using pymatgen
data_Zr2Sc6Nb12Si15P
_symmetry_space_group_name_H-M   'P 1'
_cell_length_a   6.70818220
_cell_length_b   6.89814848
_cell_length_c   13.15239258
_cell_angle_alpha   89.99201181
_cell_angle_beta   90.11723578
_cell_angle_gamma   90.08123137
_symmetry_Int_Tables_number   1
_chemical_formula_structural   Zr2Sc6Nb12Si15P
_chemical_formula_sum   'Zr2 Sc6 Nb12 Si15 P1'
_cell_volume   608.61240744
_cell_formula_units_Z   1
loop_
 _symmetry_equiv_pos_site_id
 _symmetry_equiv_pos_as_xyz
  1  'x, y, z'
loop_
 _atom_site_type_symbol
 _atom_site_label
 _atom_site_symmetry_multiplicity
 _atom_site_fract_x
 _atom_site_fract_y
 _atom_site_fract_z
 _atom_site_occupancy
  Zr  Zr0  1  0.501231  0.677021  0.594333  1
  Zr  Zr1  1  0.000754  0.825325  0.904517  1
  Sc  Sc2  1  0.499728  0.326396  0.095153  1
  Sc  Sc3  1  0.998195  0.172498  0.405197  1
  Sc  Sc4  1  0.500118  0.323442  0.405572  1
  Sc  Sc5  1  0.999683  0.173124  0.094919  1
  Sc  Sc6  1  0.498915  0.674760  0.905805  1
  Sc  Sc7  1  0.996683  0.825150  0.594391  1
  Nb  Nb8  1  0.662283  0.168426  0.621571  1
  Nb  Nb9  1  0.163014  0.327292  0.875539  1
  Nb  Nb10  1  0.337140  0.827251  0.124844  1
  Nb  Nb11  1  0.835027  0.676453  0.376974  1
  Nb  Nb12  1  0.341625  0.828306  0.377205  1
  Nb  Nb13  1  0.836807  0.674131  0.124847  1
  Nb  Nb14  1  0.664807  0.170977  0.874787  1
  Nb  Nb15  1  0.164475  0.329325  0.624294  1
  Nb  Nb16  1  0.837772  0.495166  0.750302  1
  Nb  Nb17  1  0.337800  0.004077  0.748409  1
  Nb  Nb18  1  0.162641  0.505625  0.250607  1
  Nb  Nb19  1  0.662743  0.995160  0.251603  1
  Si  Si20  1  0.167993  0.532669  0.039918  1
  Si  Si21  1  0.332022  0.034730  0.961094  1
  Si  Si22  1  0.832172  0.465410  0.539467  1
  Si  Si23  1  0.322464  0.036245  0.539592  1
  Si  Si24  1  0.830356  0.465055  0.961139  1
  Si  Si25  1  0.669261  0.967285  0.040000  1
  Si  Si26  1  0.169709  0.533692  0.459754  1
  Si  Si27  1  0.461345  0.385384  0.749864  1
  Si  Si28  1  0.959757  0.113973  0.748471  1
  Si  Si29  1  0.539571  0.612333  0.250134  1
  Si  Si30  1  0.041749  0.885466  0.250770  1
  Si  Si31  1  0.704715  0.861736  0.750365  1
  Si  Si32  1  0.205409  0.637476  0.749904  1
  Si  Si33  1  0.294448  0.139223  0.249772  1
  Si  Si34  1  0.795887  0.362707  0.250144  1
  P  P35  1  0.671701  0.966713  0.458743  1
