# generated using pymatgen
data_KZn2Ag3Te8
_symmetry_space_group_name_H-M   'P 1'
_cell_length_a   11.79810311
_cell_length_b   11.79810127
_cell_length_c   10.97109900
_cell_angle_alpha   86.34030201
_cell_angle_beta   86.34030259
_cell_angle_gamma   15.22111019
_symmetry_Int_Tables_number   1
_chemical_formula_structural   KZn2Ag3Te8
_chemical_formula_sum   'K1 Zn2 Ag3 Te8'
_cell_volume   400.10624116
_cell_formula_units_Z   1
loop_
 _symmetry_equiv_pos_site_id
 _symmetry_equiv_pos_as_xyz
  1  'x, y, z'
loop_
 _atom_site_type_symbol
 _atom_site_label
 _atom_site_symmetry_multiplicity
 _atom_site_fract_x
 _atom_site_fract_y
 _atom_site_fract_z
 _atom_site_occupancy
  K  K0  1  0.485483  0.485483  0.497635  1
  Zn  Zn1  1  0.996246  0.996246  0.953220  1
  Zn  Zn2  1  0.641378  0.641378  0.106222  1
  Ag  Ag3  1  0.352490  0.352490  0.940989  1
  Ag  Ag4  1  0.250683  0.250683  0.374606  1
  Ag  Ag5  1  0.749710  0.749710  0.615338  1
  Te  Te6  1  0.430724  0.430724  0.126377  1
  Te  Te7  1  0.931118  0.931118  0.764887  1
  Te  Te8  1  0.850976  0.850976  0.456337  1
  Te  Te9  1  0.750080  0.750080  0.147408  1
  Te  Te10  1  0.247946  0.247946  0.835412  1
  Te  Te11  1  0.144381  0.144381  0.516447  1
  Te  Te12  1  0.072965  0.072965  0.271953  1
  Te  Te13  1  0.595822  0.595822  0.893169  1
