# generated using pymatgen
data_Dy15YCd4NiIr3
_symmetry_space_group_name_H-M   'P 1'
_cell_length_a   9.58652438
_cell_length_b   9.62700228
_cell_length_c   9.63325300
_cell_angle_alpha   59.97852275
_cell_angle_beta   59.83862794
_cell_angle_gamma   59.77176972
_symmetry_Int_Tables_number   1
_chemical_formula_structural   Dy15YCd4NiIr3
_chemical_formula_sum   'Dy15 Y1 Cd4 Ni1 Ir3'
_cell_volume   626.69288605
_cell_formula_units_Z   1
loop_
 _symmetry_equiv_pos_site_id
 _symmetry_equiv_pos_as_xyz
  1  'x, y, z'
loop_
 _atom_site_type_symbol
 _atom_site_label
 _atom_site_symmetry_multiplicity
 _atom_site_fract_x
 _atom_site_fract_y
 _atom_site_fract_z
 _atom_site_occupancy
  Dy  Dy0  1  0.602665  0.597318  0.595581  1
  Dy  Dy1  1  0.602665  0.597318  0.204436  1
  Dy  Dy2  1  0.603461  0.202366  0.597086  1
  Dy  Dy3  1  0.201028  0.600295  0.599338  1
  Dy  Dy4  1  0.058630  0.438893  0.440100  1
  Dy  Dy5  1  0.437472  0.060316  0.060734  1
  Dy  Dy6  1  0.437472  0.060316  0.441476  1
  Dy  Dy7  1  0.058630  0.438893  0.062376  1
  Dy  Dy8  1  0.438658  0.440906  0.060218  1
  Dy  Dy9  1  0.059177  0.062002  0.439410  1
  Dy  Dy10  1  0.189482  0.810712  0.811892  1
  Dy  Dy11  1  0.810145  0.187599  0.185924  1
  Dy  Dy12  1  0.810145  0.187599  0.816332  1
  Dy  Dy13  1  0.189482  0.810712  0.187914  1
  Dy  Dy14  1  0.811634  0.816706  0.185830  1
  Y  Y15  1  0.188787  0.188215  0.811499  1
  Cd  Cd16  1  0.829577  0.830961  0.832262  1
  Cd  Cd17  1  0.829577  0.830961  0.507198  1
  Cd  Cd18  1  0.829930  0.505612  0.832228  1
  Cd  Cd19  1  0.505791  0.830867  0.831671  1
  Ni  Ni20  1  0.825311  0.392222  0.391234  1
  Ir  Ir21  1  0.393599  0.392471  0.390525  1
  Ir  Ir22  1  0.393599  0.392471  0.823406  1
  Ir  Ir23  1  0.393084  0.824263  0.391327  1
