# generated using pymatgen
data_Tl4Cu2(TcH9)3
_symmetry_space_group_name_H-M   'P 1'
_cell_length_a   10.52378700
_cell_length_b   10.52378616
_cell_length_c   5.48471400
_cell_angle_alpha   90.00000000
_cell_angle_beta   90.00000000
_cell_angle_gamma   124.09713409
_symmetry_Int_Tables_number   1
_chemical_formula_structural   Tl4Cu2(TcH9)3
_chemical_formula_sum   'Tl4 Cu2 Tc3 H27'
_cell_volume   503.00782290
_cell_formula_units_Z   1
loop_
 _symmetry_equiv_pos_site_id
 _symmetry_equiv_pos_as_xyz
  1  'x, y, z'
loop_
 _atom_site_type_symbol
 _atom_site_label
 _atom_site_symmetry_multiplicity
 _atom_site_fract_x
 _atom_site_fract_y
 _atom_site_fract_z
 _atom_site_occupancy
  Tl  Tl0  1  0.264397  0.985238  0.500000  1
  Tl  Tl1  1  0.985238  0.264397  0.500000  1
  Tl  Tl2  1  0.770154  0.770154  0.500000  1
  Tl  Tl3  1  0.379291  0.379291  0.000000  1
  Cu  Cu4  1  0.360513  0.679549  0.000000  1
  Cu  Cu5  1  0.679549  0.360513  0.000000  1
  Tc  Tc6  1  0.025235  0.025235  0.000000  1
  Tc  Tc7  1  0.357436  0.674102  0.500000  1
  Tc  Tc8  1  0.674102  0.357436  0.500000  1
  H  H9  1  0.893725  0.023861  0.177865  1
  H  H10  1  0.023861  0.893725  0.177865  1
  H  H11  1  0.893725  0.023861  0.822135  1
  H  H12  1  0.023861  0.893725  0.822135  1
  H  H13  1  0.101481  0.101481  0.272885  1
  H  H14  1  0.101481  0.101481  0.727115  1
  H  H15  1  0.212112  0.078069  0.000000  1
  H  H16  1  0.078069  0.212112  0.000000  1
  H  H17  1  0.857874  0.857874  0.000000  1
  H  H18  1  0.239509  0.553005  0.267601  1
  H  H19  1  0.480588  0.694647  0.269982  1
  H  H20  1  0.239509  0.553005  0.732399  1
  H  H21  1  0.553005  0.239509  0.732399  1
  H  H22  1  0.355008  0.788187  0.278318  1
  H  H23  1  0.480588  0.694647  0.730018  1
  H  H24  1  0.694647  0.480588  0.730018  1
  H  H25  1  0.553005  0.239509  0.267601  1
  H  H26  1  0.355008  0.788187  0.721682  1
  H  H27  1  0.694647  0.480588  0.269982  1
  H  H28  1  0.788187  0.355008  0.721682  1
  H  H29  1  0.788187  0.355008  0.278318  1
  H  H30  1  0.366776  0.519874  0.500000  1
  H  H31  1  0.516291  0.849010  0.500000  1
  H  H32  1  0.519874  0.366776  0.500000  1
  H  H33  1  0.189723  0.654337  0.500000  1
  H  H34  1  0.849010  0.516291  0.500000  1
  H  H35  1  0.654337  0.189723  0.500000  1
