# generated using pymatgen
data_Na3CrClO4
_symmetry_space_group_name_H-M   'P 1'
_cell_length_a   7.46820800
_cell_length_b   7.46820800
_cell_length_c   5.32526100
_cell_angle_alpha   90.00000000
_cell_angle_beta   90.00000000
_cell_angle_gamma   90.00000000
_symmetry_Int_Tables_number   1
_chemical_formula_structural   Na3CrClO4
_chemical_formula_sum   'Na6 Cr2 Cl2 O8'
_cell_volume   297.01180319
_cell_formula_units_Z   2
loop_
 _symmetry_equiv_pos_site_id
 _symmetry_equiv_pos_as_xyz
  1  'x, y, z'
loop_
 _atom_site_type_symbol
 _atom_site_label
 _atom_site_symmetry_multiplicity
 _atom_site_fract_x
 _atom_site_fract_y
 _atom_site_fract_z
 _atom_site_occupancy
  Na  Na0  1  0.500000  0.000000  0.110669  1
  Na  Na1  1  0.750000  0.250000  0.500000  1
  Na  Na2  1  0.750000  0.750000  0.500000  1
  Na  Na3  1  0.000000  0.500000  0.889331  1
  Na  Na4  1  0.250000  0.750000  0.500000  1
  Na  Na5  1  0.250000  0.250000  0.500000  1
  Cr  Cr6  1  0.500000  0.500000  0.000000  1
  Cr  Cr7  1  0.000000  0.000000  0.000000  1
  Cl  Cl8  1  0.000000  0.500000  0.373332  1
  Cl  Cl9  1  0.500000  0.000000  0.626668  1
  O  O10  1  0.500000  0.319333  0.185518  1
  O  O11  1  0.180667  0.000000  0.185518  1
  O  O12  1  0.500000  0.680667  0.185518  1
  O  O13  1  0.819333  0.000000  0.185518  1
  O  O14  1  0.680667  0.500000  0.814482  1
  O  O15  1  0.000000  0.180667  0.814482  1
  O  O16  1  0.000000  0.819333  0.814482  1
  O  O17  1  0.319333  0.500000  0.814482  1
