# generated using pymatgen
data_Nd8Sc12Si15Se
_symmetry_space_group_name_H-M   'P 1'
_cell_length_a   7.28320112
_cell_length_b   7.49641311
_cell_length_c   14.17966492
_cell_angle_alpha   90.06025640
_cell_angle_beta   88.59379853
_cell_angle_gamma   90.20641060
_symmetry_Int_Tables_number   1
_chemical_formula_structural   Nd8Sc12Si15Se
_chemical_formula_sum   'Nd8 Sc12 Si15 Se1'
_cell_volume   773.94117139
_cell_formula_units_Z   1
loop_
 _symmetry_equiv_pos_site_id
 _symmetry_equiv_pos_as_xyz
  1  'x, y, z'
loop_
 _atom_site_type_symbol
 _atom_site_label
 _atom_site_symmetry_multiplicity
 _atom_site_fract_x
 _atom_site_fract_y
 _atom_site_fract_z
 _atom_site_occupancy
  Nd  Nd0  1  0.011241  0.173674  0.097961  1
  Nd  Nd1  1  0.989344  0.828272  0.901739  1
  Nd  Nd2  1  0.489548  0.672782  0.902475  1
  Nd  Nd3  1  0.997058  0.823693  0.596434  1
  Nd  Nd4  1  0.511204  0.328122  0.097768  1
  Nd  Nd5  1  0.001965  0.176499  0.402436  1
  Nd  Nd6  1  0.501685  0.320790  0.400625  1
  Nd  Nd7  1  0.504890  0.678101  0.598942  1
  Sc  Sc8  1  0.165237  0.497897  0.752348  1
  Sc  Sc9  1  0.834342  0.502452  0.254113  1
  Sc  Sc10  1  0.333732  0.996505  0.251302  1
  Sc  Sc11  1  0.667074  0.002816  0.749208  1
  Sc  Sc12  1  0.346887  0.166103  0.628058  1
  Sc  Sc13  1  0.655566  0.829560  0.373005  1
  Sc  Sc14  1  0.154542  0.671066  0.376829  1
  Sc  Sc15  1  0.666800  0.824979  0.126142  1
  Sc  Sc16  1  0.838658  0.330909  0.621474  1
  Sc  Sc17  1  0.332382  0.174774  0.873017  1
  Sc  Sc18  1  0.833440  0.323871  0.873807  1
  Sc  Sc19  1  0.166488  0.676598  0.125602  1
  Si  Si20  1  0.039546  0.126161  0.747727  1
  Si  Si21  1  0.959688  0.875840  0.250399  1
  Si  Si22  1  0.455328  0.623857  0.248932  1
  Si  Si23  1  0.542750  0.376424  0.750304  1
  Si  Si24  1  0.292593  0.877567  0.750284  1
  Si  Si25  1  0.708145  0.119639  0.248843  1
  Si  Si26  1  0.206721  0.382640  0.249621  1
  Si  Si27  1  0.795975  0.618563  0.750160  1
  Si  Si28  1  0.808328  0.544394  0.454213  1
  Si  Si29  1  0.331073  0.958606  0.460080  1
  Si  Si30  1  0.848162  0.536903  0.039344  1
  Si  Si31  1  0.668250  0.040419  0.541378  1
  Si  Si32  1  0.151190  0.464550  0.959932  1
  Si  Si33  1  0.651018  0.036500  0.959332  1
  Si  Si34  1  0.348285  0.964854  0.040274  1
  Se  Se35  1  0.190868  0.453616  0.545893  1
