# generated using pymatgen
data_Y7Sn23Ru6
_symmetry_space_group_name_H-M   'P 1'
_cell_length_a   9.88509000
_cell_length_b   9.88509045
_cell_length_c   10.10486400
_cell_angle_alpha   90.00000000
_cell_angle_beta   90.00000000
_cell_angle_gamma   120.00000519
_symmetry_Int_Tables_number   1
_chemical_formula_structural   Y7Sn23Ru6
_chemical_formula_sum   'Y7 Sn23 Ru6'
_cell_volume   855.11073192
_cell_formula_units_Z   1
loop_
 _symmetry_equiv_pos_site_id
 _symmetry_equiv_pos_as_xyz
  1  'x, y, z'
loop_
 _atom_site_type_symbol
 _atom_site_label
 _atom_site_symmetry_multiplicity
 _atom_site_fract_x
 _atom_site_fract_y
 _atom_site_fract_z
 _atom_site_occupancy
  Y  Y0  1  0.000000  0.000000  0.000000  1
  Y  Y1  1  0.033450  0.516725  0.303372  1
  Y  Y2  1  0.483275  0.966550  0.303372  1
  Y  Y3  1  0.483275  0.516725  0.303372  1
  Y  Y4  1  0.966550  0.483275  0.696628  1
  Y  Y5  1  0.516725  0.033450  0.696628  1
  Y  Y6  1  0.516725  0.483275  0.696628  1
  Sn  Sn7  1  0.000000  0.000000  0.500000  1
  Sn  Sn8  1  0.118417  0.881583  0.272591  1
  Sn  Sn9  1  0.763165  0.881583  0.272591  1
  Sn  Sn10  1  0.118417  0.236835  0.272591  1
  Sn  Sn11  1  0.881583  0.118417  0.727409  1
  Sn  Sn12  1  0.236835  0.118417  0.727409  1
  Sn  Sn13  1  0.881583  0.763165  0.727409  1
  Sn  Sn14  1  0.348550  0.000000  0.000000  1
  Sn  Sn15  1  0.651450  0.651450  0.000000  1
  Sn  Sn16  1  0.000000  0.348550  0.000000  1
  Sn  Sn17  1  0.348550  0.348550  0.000000  1
  Sn  Sn18  1  0.000000  0.651450  0.000000  1
  Sn  Sn19  1  0.651450  0.000000  0.000000  1
  Sn  Sn20  1  0.780384  0.560769  0.461090  1
  Sn  Sn21  1  0.780384  0.219616  0.461090  1
  Sn  Sn22  1  0.439231  0.219616  0.461090  1
  Sn  Sn23  1  0.219616  0.439231  0.538910  1
  Sn  Sn24  1  0.219616  0.780384  0.538910  1
  Sn  Sn25  1  0.560769  0.780384  0.538910  1
  Sn  Sn26  1  0.666667  0.333333  0.178304  1
  Sn  Sn27  1  0.333333  0.666667  0.821696  1
  Sn  Sn28  1  0.666667  0.333333  0.875361  1
  Sn  Sn29  1  0.333333  0.666667  0.124639  1
  Ru  Ru30  1  0.169630  0.830370  0.798025  1
  Ru  Ru31  1  0.660739  0.830370  0.798025  1
  Ru  Ru32  1  0.169630  0.339261  0.798025  1
  Ru  Ru33  1  0.830370  0.169630  0.201975  1
  Ru  Ru34  1  0.339261  0.169630  0.201975  1
  Ru  Ru35  1  0.830370  0.660739  0.201975  1
