# generated using pymatgen
data_Hf3CrCo8(AsP)3
_symmetry_space_group_name_H-M   'P 1'
_cell_length_a   12.16045065
_cell_length_b   12.15262570
_cell_length_c   3.67009000
_cell_angle_alpha   90.00000000
_cell_angle_beta   90.00000000
_cell_angle_gamma   119.97476182
_symmetry_Int_Tables_number   1
_chemical_formula_structural   Hf3CrCo8(AsP)3
_chemical_formula_sum   'Hf6 Cr2 Co16 As6 P6'
_cell_volume   469.82652206
_cell_formula_units_Z   2
loop_
 _symmetry_equiv_pos_site_id
 _symmetry_equiv_pos_as_xyz
  1  'x, y, z'
loop_
 _atom_site_type_symbol
 _atom_site_label
 _atom_site_symmetry_multiplicity
 _atom_site_fract_x
 _atom_site_fract_y
 _atom_site_fract_z
 _atom_site_occupancy
  Hf  Hf0  1  0.828447  0.826066  0.500000  1
  Hf  Hf1  1  0.993579  0.165675  0.500000  1
  Hf  Hf2  1  0.327450  0.661644  0.000000  1
  Hf  Hf3  1  0.655726  0.330630  0.000000  1
  Hf  Hf4  1  0.007162  0.561701  0.000000  1
  Hf  Hf5  1  0.181244  0.994014  0.500000  1
  Cr  Cr6  1  0.442744  0.441681  0.000000  1
  Cr  Cr7  1  0.549674  0.999269  0.000000  1
  Co  Co8  1  0.629732  0.826750  0.000000  1
  Co  Co9  1  0.379459  0.198248  0.000000  1
  Co  Co10  1  0.007431  0.727682  0.500000  1
  Co  Co11  1  0.288427  0.288659  0.500000  1
  Co  Co12  1  0.875548  0.350628  0.500000  1
  Co  Co13  1  0.723242  0.998574  0.500000  1
  Co  Co14  1  0.825456  0.634471  0.000000  1
  Co  Co15  1  0.182182  0.811853  0.000000  1
  Co  Co16  1  0.350754  0.877982  0.500000  1
  Co  Co17  1  0.138796  0.492791  0.500000  1
  Co  Co18  1  0.635566  0.508762  0.500000  1
  Co  Co19  1  0.993975  0.994634  0.000000  1
  Co  Co20  1  0.509440  0.640781  0.500000  1
  Co  Co21  1  0.473614  0.125482  0.500000  1
  Co  Co22  1  0.206853  0.382556  0.000000  1
  Co  Co23  1  0.801651  0.168158  0.000000  1
  As  As24  1  0.002165  0.344427  0.000000  1
  As  As25  1  0.824791  0.512488  0.500000  1
  As  As26  1  0.678842  0.164533  0.500000  1
  As  As27  1  0.176325  0.173799  0.000000  1
  As  As28  1  0.641696  0.644972  0.000000  1
  As  As29  1  0.512926  0.833619  0.500000  1
  P  P30  1  0.821659  0.996077  0.000000  1
  P  P31  1  0.176863  0.694535  0.500000  1
  P  P32  1  0.358238  0.004675  0.000000  1
  P  P33  1  0.478900  0.313663  0.500000  1
  P  P34  1  0.002035  0.825791  0.000000  1
  P  P35  1  0.317408  0.482730  0.500000  1
