# generated using pymatgen
data_Nd4Al4Ni3Ir
_symmetry_space_group_name_H-M   'P 1'
_cell_length_a   4.36841500
_cell_length_b   6.92319502
_cell_length_c   7.87383574
_cell_angle_alpha   89.68082429
_cell_angle_beta   90.00000000
_cell_angle_gamma   90.00000000
_symmetry_Int_Tables_number   1
_chemical_formula_structural   Nd4Al4Ni3Ir
_chemical_formula_sum   'Nd4 Al4 Ni3 Ir1'
_cell_volume   238.12778184
_cell_formula_units_Z   1
loop_
 _symmetry_equiv_pos_site_id
 _symmetry_equiv_pos_as_xyz
  1  'x, y, z'
loop_
 _atom_site_type_symbol
 _atom_site_label
 _atom_site_symmetry_multiplicity
 _atom_site_fract_x
 _atom_site_fract_y
 _atom_site_fract_z
 _atom_site_occupancy
  Nd  Nd0  1  0.250000  0.542066  0.178131  1
  Nd  Nd1  1  0.750000  0.459335  0.828528  1
  Nd  Nd2  1  0.750000  0.958995  0.674933  1
  Nd  Nd3  1  0.250000  0.037925  0.318280  1
  Al  Al4  1  0.250000  0.637025  0.560601  1
  Al  Al5  1  0.750000  0.365730  0.439257  1
  Al  Al6  1  0.750000  0.865855  0.057867  1
  Al  Al7  1  0.250000  0.135535  0.938928  1
  Ni  Ni8  1  0.250000  0.780133  0.882281  1
  Ni  Ni9  1  0.750000  0.222249  0.122557  1
  Ni  Ni10  1  0.750000  0.722707  0.377720  1
  Ir  Ir11  1  0.250000  0.272444  0.620918  1
