# generated using pymatgen
data_Hf16Fe3CoOs4
_symmetry_space_group_name_H-M   'P 1'
_cell_length_a   8.59016821
_cell_length_b   8.58970347
_cell_length_c   8.59210400
_cell_angle_alpha   60.08340840
_cell_angle_beta   60.08698497
_cell_angle_gamma   60.08021164
_symmetry_Int_Tables_number   1
_chemical_formula_structural   Hf16Fe3CoOs4
_chemical_formula_sum   'Hf16 Fe3 Co1 Os4'
_cell_volume   449.14408385
_cell_formula_units_Z   1
loop_
 _symmetry_equiv_pos_site_id
 _symmetry_equiv_pos_as_xyz
  1  'x, y, z'
loop_
 _atom_site_type_symbol
 _atom_site_label
 _atom_site_symmetry_multiplicity
 _atom_site_fract_x
 _atom_site_fract_y
 _atom_site_fract_z
 _atom_site_occupancy
  Hf  Hf0  1  0.191782  0.602710  0.602893  1
  Hf  Hf1  1  0.602738  0.192043  0.602748  1
  Hf  Hf2  1  0.602911  0.602730  0.191710  1
  Hf  Hf3  1  0.601561  0.601379  0.601575  1
  Hf  Hf4  1  0.813655  0.813700  0.186485  1
  Hf  Hf5  1  0.186329  0.186329  0.815000  1
  Hf  Hf6  1  0.813753  0.186385  0.813762  1
  Hf  Hf7  1  0.186381  0.814950  0.186412  1
  Hf  Hf8  1  0.186424  0.813737  0.813691  1
  Hf  Hf9  1  0.814971  0.186337  0.186367  1
  Hf  Hf10  1  0.453375  0.453346  0.044978  1
  Hf  Hf11  1  0.048941  0.049161  0.451868  1
  Hf  Hf12  1  0.453404  0.045014  0.453469  1
  Hf  Hf13  1  0.049152  0.451738  0.049141  1
  Hf  Hf14  1  0.045003  0.453297  0.453391  1
  Hf  Hf15  1  0.451835  0.049170  0.048946  1
  Fe  Fe16  1  0.829499  0.389471  0.389348  1
  Fe  Fe17  1  0.389416  0.829597  0.389316  1
  Fe  Fe18  1  0.389387  0.389404  0.829539  1
  Co  Co19  1  0.389860  0.389881  0.389788  1
  Os  Os20  1  0.501355  0.832643  0.832642  1
  Os  Os21  1  0.832646  0.501391  0.832628  1
  Os  Os22  1  0.832656  0.832640  0.501368  1
  Os  Os23  1  0.832963  0.832942  0.832934  1
