# generated using pymatgen
data_Ba4Zn(TcO6)2
_symmetry_space_group_name_H-M   'P 1'
_cell_length_a   9.94843434
_cell_length_b   9.94843519
_cell_length_c   9.94843438
_cell_angle_alpha   33.82957885
_cell_angle_beta   33.82957187
_cell_angle_gamma   33.82957074
_symmetry_Int_Tables_number   1
_chemical_formula_structural   Ba4Zn(TcO6)2
_chemical_formula_sum   'Ba4 Zn1 Tc2 O12'
_cell_volume   271.94618017
_cell_formula_units_Z   1
loop_
 _symmetry_equiv_pos_site_id
 _symmetry_equiv_pos_as_xyz
  1  'x, y, z'
loop_
 _atom_site_type_symbol
 _atom_site_label
 _atom_site_symmetry_multiplicity
 _atom_site_fract_x
 _atom_site_fract_y
 _atom_site_fract_z
 _atom_site_occupancy
  Ba  Ba0  1  0.707624  0.707624  0.707624  1
  Ba  Ba1  1  0.292376  0.292376  0.292376  1
  Ba  Ba2  1  0.870578  0.870578  0.870578  1
  Ba  Ba3  1  0.129422  0.129422  0.129422  1
  Zn  Zn4  1  0.000000  0.000000  0.000000  1
  Tc  Tc5  1  0.580102  0.580102  0.580102  1
  Tc  Tc6  1  0.419898  0.419898  0.419898  1
  O  O7  1  0.219793  0.692368  0.219793  1
  O  O8  1  0.219793  0.219793  0.692368  1
  O  O9  1  0.692368  0.219793  0.219793  1
  O  O10  1  0.780207  0.307632  0.780207  1
  O  O11  1  0.780207  0.780207  0.307632  1
  O  O12  1  0.307632  0.780207  0.780207  1
  O  O13  1  0.389068  0.857781  0.389068  1
  O  O14  1  0.389068  0.389068  0.857781  1
  O  O15  1  0.857781  0.389068  0.389068  1
  O  O16  1  0.610932  0.142219  0.610932  1
  O  O17  1  0.610932  0.610932  0.142219  1
  O  O18  1  0.142219  0.610932  0.610932  1
