# generated using pymatgen
data_PrNd2Mg3Hg2Ir
_symmetry_space_group_name_H-M   'P 1'
_cell_length_a   7.98574002
_cell_length_b   7.99425684
_cell_length_c   4.11219500
_cell_angle_alpha   90.00000000
_cell_angle_beta   90.00000000
_cell_angle_gamma   119.95704898
_symmetry_Int_Tables_number   1
_chemical_formula_structural   PrNd2Mg3Hg2Ir
_chemical_formula_sum   'Pr1 Nd2 Mg3 Hg2 Ir1'
_cell_volume   227.44971549
_cell_formula_units_Z   1
loop_
 _symmetry_equiv_pos_site_id
 _symmetry_equiv_pos_as_xyz
  1  'x, y, z'
loop_
 _atom_site_type_symbol
 _atom_site_label
 _atom_site_symmetry_multiplicity
 _atom_site_fract_x
 _atom_site_fract_y
 _atom_site_fract_z
 _atom_site_occupancy
  Pr  Pr0  1  0.598892  0.029922  0.000000  1
  Nd  Nd1  1  0.969726  0.568815  0.000000  1
  Nd  Nd2  1  0.431422  0.400997  0.000000  1
  Mg  Mg3  1  0.255848  0.003303  0.500000  1
  Mg  Mg4  1  0.997108  0.253043  0.500000  1
  Mg  Mg5  1  0.747252  0.743745  0.500000  1
  Hg  Hg6  1  0.332957  0.666207  0.500000  1
  Hg  Hg7  1  0.000148  0.999966  0.000000  1
  Ir  Ir8  1  0.666648  0.334002  0.500000  1
