# generated using pymatgen
data_Tb3Y(AsS)2
_symmetry_space_group_name_H-M   'P 1'
_cell_length_a   6.97971369
_cell_length_b   6.97971303
_cell_length_c   6.97971300
_cell_angle_alpha   131.79124233
_cell_angle_beta   131.72082238
_cell_angle_gamma   70.61463307
_symmetry_Int_Tables_number   1
_chemical_formula_structural   Tb3Y(AsS)2
_chemical_formula_sum   'Tb3 Y1 As2 S2'
_cell_volume   185.38082080
_cell_formula_units_Z   1
loop_
 _symmetry_equiv_pos_site_id
 _symmetry_equiv_pos_as_xyz
  1  'x, y, z'
loop_
 _atom_site_type_symbol
 _atom_site_label
 _atom_site_symmetry_multiplicity
 _atom_site_fract_x
 _atom_site_fract_y
 _atom_site_fract_z
 _atom_site_occupancy
  Tb  Tb0  1  0.750051  0.750051  0.000000  1
  Tb  Tb1  1  0.250054  0.250054  0.000000  1
  Tb  Tb2  1  0.000166  0.500166  0.500000  1
  Y  Y3  1  0.499765  0.999765  0.500000  1
  As  As4  1  0.500035  0.500035  0.000000  1
  As  As5  1  0.250363  0.750363  0.500000  1
  S  S6  1  0.000064  0.000064  0.000000  1
  S  S7  1  0.749504  0.249504  0.500000  1
