# generated using pymatgen
data_Ba4La5Nd3Se16
_symmetry_space_group_name_H-M   'P 1'
_cell_length_a   4.39317300
_cell_length_b   13.09424017
_cell_length_c   15.73262650
_cell_angle_alpha   89.82068481
_cell_angle_beta   90.00000000
_cell_angle_gamma   90.00000000
_symmetry_Int_Tables_number   1
_chemical_formula_structural   Ba4La5Nd3Se16
_chemical_formula_sum   'Ba4 La5 Nd3 Se16'
_cell_volume   905.01903549
_cell_formula_units_Z   1
loop_
 _symmetry_equiv_pos_site_id
 _symmetry_equiv_pos_as_xyz
  1  'x, y, z'
loop_
 _atom_site_type_symbol
 _atom_site_label
 _atom_site_symmetry_multiplicity
 _atom_site_fract_x
 _atom_site_fract_y
 _atom_site_fract_z
 _atom_site_occupancy
  Ba  Ba0  1  0.250000  0.757691  0.339082  1
  Ba  Ba1  1  0.250000  0.256037  0.163156  1
  Ba  Ba2  1  0.750000  0.242308  0.659731  1
  Ba  Ba3  1  0.750000  0.742224  0.838115  1
  La  La4  1  0.250000  0.428667  0.390341  1
  La  La5  1  0.250000  0.928280  0.109296  1
  La  La6  1  0.750000  0.572579  0.608445  1
  La  La7  1  0.750000  0.070043  0.889440  1
  La  La8  1  0.250000  0.421271  0.899799  1
  Nd  Nd9  1  0.250000  0.921680  0.600669  1
  Nd  Nd10  1  0.750000  0.579985  0.102599  1
  Nd  Nd11  1  0.750000  0.077365  0.398934  1
  Se  Se12  1  0.250000  0.208643  0.822869  1
  Se  Se13  1  0.250000  0.710754  0.674677  1
  Se  Se14  1  0.750000  0.790259  0.176576  1
  Se  Se15  1  0.750000  0.289017  0.325572  1
  Se  Se16  1  0.250000  0.130067  0.523608  1
  Se  Se17  1  0.250000  0.632216  0.977406  1
  Se  Se18  1  0.750000  0.869084  0.475968  1
  Se  Se19  1  0.750000  0.370499  0.027518  1
  Se  Se20  1  0.250000  0.521590  0.215551  1
  Se  Se21  1  0.250000  0.020833  0.285031  1
  Se  Se22  1  0.750000  0.481033  0.783689  1
  Se  Se23  1  0.750000  0.978192  0.714342  1
  Se  Se24  1  0.250000  0.417034  0.579741  1
  Se  Se25  1  0.250000  0.915669  0.919724  1
  Se  Se26  1  0.750000  0.583695  0.418820  1
  Se  Se27  1  0.750000  0.083286  0.079299  1
