# generated using pymatgen
data_Nd2DyNp7O20
_symmetry_space_group_name_H-M   'P 1'
_cell_length_a   6.62088309
_cell_length_b   7.64562532
_cell_length_c   8.54258937
_cell_angle_alpha   102.83332522
_cell_angle_beta   97.27853510
_cell_angle_gamma   106.89173319
_symmetry_Int_Tables_number   1
_chemical_formula_structural   Nd2DyNp7O20
_chemical_formula_sum   'Nd2 Dy1 Np7 O20'
_cell_volume   394.87345551
_cell_formula_units_Z   1
loop_
 _symmetry_equiv_pos_site_id
 _symmetry_equiv_pos_as_xyz
  1  'x, y, z'
loop_
 _atom_site_type_symbol
 _atom_site_label
 _atom_site_symmetry_multiplicity
 _atom_site_fract_x
 _atom_site_fract_y
 _atom_site_fract_z
 _atom_site_occupancy
  Nd  Nd0  1  0.800713  0.601380  0.601743  1
  Nd  Nd1  1  0.599594  0.199046  0.198668  1
  Dy  Dy2  1  0.000344  0.999938  0.000587  1
  Np  Np3  1  0.002401  0.501388  0.001480  1
  Np  Np4  1  0.800863  0.100056  0.601848  1
  Np  Np5  1  0.599395  0.699918  0.197948  1
  Np  Np6  1  0.199442  0.398841  0.398064  1
  Np  Np7  1  0.397329  0.297481  0.799336  1
  Np  Np8  1  0.199908  0.901227  0.399308  1
  Np  Np9  1  0.399927  0.800958  0.801095  1
  O  O10  1  0.865026  0.316996  0.456219  1
  O  O11  1  0.643916  0.908731  0.047217  1
  O  O12  1  0.951067  0.768109  0.154053  1
  O  O13  1  0.857573  0.837063  0.445130  1
  O  O14  1  0.434791  0.518977  0.655884  1
  O  O15  1  0.650850  0.435992  0.043857  1
  O  O16  1  0.743883  0.362849  0.755513  1
  O  O17  1  0.239432  0.122052  0.259268  1
  O  O18  1  0.446193  0.027394  0.646237  1
  O  O19  1  0.964350  0.287728  0.148424  1
  O  O20  1  0.545607  0.964273  0.357069  1
  O  O21  1  0.062216  0.721231  0.857529  1
  O  O22  1  0.248893  0.629052  0.245367  1
  O  O23  1  0.740568  0.885870  0.749228  1
  O  O24  1  0.348418  0.570836  0.952944  1
  O  O25  1  0.053069  0.231621  0.845160  1
  O  O26  1  0.536812  0.484263  0.345716  1
  O  O27  1  0.154278  0.172252  0.554494  1
  O  O28  1  0.348464  0.073425  0.936706  1
  O  O29  1  0.164678  0.681051  0.543909  1
