# generated using pymatgen
data_DyYZr2(NiP)4
_symmetry_space_group_name_H-M   'P 1'
_cell_length_a   3.86238400
_cell_length_b   3.86238293
_cell_length_c   14.76521800
_cell_angle_alpha   90.00000000
_cell_angle_beta   90.00000000
_cell_angle_gamma   119.99999207
_symmetry_Int_Tables_number   1
_chemical_formula_structural   DyYZr2(NiP)4
_chemical_formula_sum   'Dy1 Y1 Zr2 Ni4 P4'
_cell_volume   190.75736193
_cell_formula_units_Z   1
loop_
 _symmetry_equiv_pos_site_id
 _symmetry_equiv_pos_as_xyz
  1  'x, y, z'
loop_
 _atom_site_type_symbol
 _atom_site_label
 _atom_site_symmetry_multiplicity
 _atom_site_fract_x
 _atom_site_fract_y
 _atom_site_fract_z
 _atom_site_occupancy
  Dy  Dy0  1  0.000000  0.000000  0.000000  1
  Y  Y1  1  0.000000  0.000000  0.500000  1
  Zr  Zr2  1  0.000000  0.000000  0.249808  1
  Zr  Zr3  1  0.000000  0.000000  0.750192  1
  Ni  Ni4  1  0.333333  0.666667  0.354608  1
  Ni  Ni5  1  0.666667  0.333333  0.645392  1
  Ni  Ni6  1  0.666667  0.333333  0.854874  1
  Ni  Ni7  1  0.333333  0.666667  0.145126  1
  P  P8  1  0.333333  0.666667  0.874881  1
  P  P9  1  0.666667  0.333333  0.125119  1
  P  P10  1  0.666667  0.333333  0.374242  1
  P  P11  1  0.333333  0.666667  0.625758  1
