# generated using pymatgen
data_SmNi4(AgO4)3
_symmetry_space_group_name_H-M   'P 1'
_cell_length_a   6.50365841
_cell_length_b   6.50365849
_cell_length_c   6.50365900
_cell_angle_alpha   109.47121910
_cell_angle_beta   109.47121936
_cell_angle_gamma   109.47122165
_symmetry_Int_Tables_number   1
_chemical_formula_structural   SmNi4(AgO4)3
_chemical_formula_sum   'Sm1 Ni4 Ag3 O12'
_cell_volume   211.76361024
_cell_formula_units_Z   1
loop_
 _symmetry_equiv_pos_site_id
 _symmetry_equiv_pos_as_xyz
  1  'x, y, z'
loop_
 _atom_site_type_symbol
 _atom_site_label
 _atom_site_symmetry_multiplicity
 _atom_site_fract_x
 _atom_site_fract_y
 _atom_site_fract_z
 _atom_site_occupancy
  Sm  Sm0  1  0.000000  0.000000  0.000000  1
  Ni  Ni1  1  0.000000  0.000000  0.500000  1
  Ni  Ni2  1  0.000000  0.500000  0.000000  1
  Ni  Ni3  1  0.500000  0.000000  0.000000  1
  Ni  Ni4  1  0.500000  0.500000  0.500000  1
  Ag  Ag5  1  0.000000  0.500000  0.500000  1
  Ag  Ag6  1  0.500000  0.000000  0.500000  1
  Ag  Ag7  1  0.500000  0.500000  0.000000  1
  O  O8  1  0.293891  0.116062  0.822170  1
  O  O9  1  0.706109  0.883938  0.177830  1
  O  O10  1  0.706109  0.528279  0.822170  1
  O  O11  1  0.471721  0.177830  0.293891  1
  O  O12  1  0.177830  0.293891  0.471721  1
  O  O13  1  0.822170  0.293891  0.116062  1
  O  O14  1  0.883938  0.177830  0.706109  1
  O  O15  1  0.822170  0.706109  0.528279  1
  O  O16  1  0.293891  0.471721  0.177830  1
  O  O17  1  0.528279  0.822170  0.706109  1
  O  O18  1  0.177830  0.706109  0.883938  1
  O  O19  1  0.116062  0.822170  0.293891  1
