# generated using pymatgen
data_SmPa3(Co2Sn)2
_symmetry_space_group_name_H-M   'P 1'
_cell_length_a   7.43325230
_cell_length_b   7.43325214
_cell_length_c   3.53652100
_cell_angle_alpha   90.00000000
_cell_angle_beta   90.00000000
_cell_angle_gamma   92.34328760
_symmetry_Int_Tables_number   1
_chemical_formula_structural   SmPa3(Co2Sn)2
_chemical_formula_sum   'Sm1 Pa3 Co4 Sn2'
_cell_volume   195.24083942
_cell_formula_units_Z   1
loop_
 _symmetry_equiv_pos_site_id
 _symmetry_equiv_pos_as_xyz
  1  'x, y, z'
loop_
 _atom_site_type_symbol
 _atom_site_label
 _atom_site_symmetry_multiplicity
 _atom_site_fract_x
 _atom_site_fract_y
 _atom_site_fract_z
 _atom_site_occupancy
  Sm  Sm0  1  0.828746  0.671254  0.500000  1
  Pa  Pa1  1  0.675285  0.168934  0.500000  1
  Pa  Pa2  1  0.331066  0.824715  0.500000  1
  Pa  Pa3  1  0.170070  0.329930  0.500000  1
  Co  Co4  1  0.878115  0.342234  0.000000  1
  Co  Co5  1  0.157766  0.621885  0.000000  1
  Co  Co6  1  0.353853  0.146147  0.000000  1
  Co  Co7  1  0.598381  0.901619  0.000000  1
  Sn  Sn8  1  0.504557  0.497838  0.000000  1
  Sn  Sn9  1  0.002162  0.995443  0.000000  1
