# generated using pymatgen
data_Ba2Na2US6
_symmetry_space_group_name_H-M   'P 1'
_cell_length_a   8.34438295
_cell_length_b   8.37344402
_cell_length_c   8.34438400
_cell_angle_alpha   88.74639803
_cell_angle_beta   88.79251791
_cell_angle_gamma   88.74640097
_symmetry_Int_Tables_number   1
_chemical_formula_structural   Ba2Na2US6
_chemical_formula_sum   'Ba4 Na4 U2 S12'
_cell_volume   582.62954854
_cell_formula_units_Z   2
loop_
 _symmetry_equiv_pos_site_id
 _symmetry_equiv_pos_as_xyz
  1  'x, y, z'
loop_
 _atom_site_type_symbol
 _atom_site_label
 _atom_site_symmetry_multiplicity
 _atom_site_fract_x
 _atom_site_fract_y
 _atom_site_fract_z
 _atom_site_occupancy
  Ba  Ba0  1  0.620028  0.250000  0.879972  1
  Ba  Ba1  1  0.752289  0.118565  0.381326  1
  Ba  Ba2  1  0.380670  0.750000  0.119330  1
  Ba  Ba3  1  0.118674  0.381435  0.747711  1
  Na  Na4  1  0.880641  0.621924  0.251298  1
  Na  Na5  1  0.248702  0.878076  0.619359  1
  Na  Na6  1  0.246178  0.250000  0.253822  1
  Na  Na7  1  0.751985  0.750000  0.748015  1
  U  U8  1  0.499756  0.507293  0.498706  1
  U  U9  1  0.001294  0.992707  0.000244  1
  S  S10  1  0.210877  0.564088  0.421421  1
  S  S11  1  0.421226  0.214927  0.557545  1
  S  S12  1  0.563123  0.424116  0.209702  1
  S  S13  1  0.926175  0.054649  0.708673  1
  S  S14  1  0.708246  0.922057  0.058192  1
  S  S15  1  0.053549  0.704898  0.927882  1
  S  S16  1  0.791327  0.445351  0.573825  1
  S  S17  1  0.572118  0.795102  0.446451  1
  S  S18  1  0.441808  0.577943  0.791754  1
  S  S19  1  0.078579  0.935912  0.289123  1
  S  S20  1  0.290298  0.075884  0.936877  1
  S  S21  1  0.942455  0.285073  0.078774  1
