# generated using pymatgen
data_Hf8FeCo6Si14Ru
_symmetry_space_group_name_H-M   'P 1'
_cell_length_a   9.46821930
_cell_length_b   9.46791254
_cell_length_c   9.48758158
_cell_angle_alpha   94.16113426
_cell_angle_beta   94.16162212
_cell_angle_gamma   148.71420956
_symmetry_Int_Tables_number   1
_chemical_formula_structural   Hf8FeCo6Si14Ru
_chemical_formula_sum   'Hf8 Fe1 Co6 Si14 Ru1'
_cell_volume   425.37964520
_cell_formula_units_Z   1
loop_
 _symmetry_equiv_pos_site_id
 _symmetry_equiv_pos_as_xyz
  1  'x, y, z'
loop_
 _atom_site_type_symbol
 _atom_site_label
 _atom_site_symmetry_multiplicity
 _atom_site_fract_x
 _atom_site_fract_y
 _atom_site_fract_z
 _atom_site_occupancy
  Hf  Hf0  1  0.137429  0.137424  0.274818  1
  Hf  Hf1  1  0.862240  0.862251  0.724523  1
  Hf  Hf2  1  0.136526  0.860708  0.998915  1
  Hf  Hf3  1  0.862380  0.138207  0.998897  1
  Hf  Hf4  1  0.303615  0.498509  0.803215  1
  Hf  Hf5  1  0.695170  0.499947  0.195714  1
  Hf  Hf6  1  0.500508  0.695729  0.195714  1
  Hf  Hf7  1  0.499636  0.304751  0.803225  1
  Fe  Fe8  1  0.396743  0.896734  0.793458  1
  Co  Co9  1  0.898072  0.101898  0.501435  1
  Co  Co10  1  0.603345  0.399523  0.501442  1
  Co  Co11  1  0.601816  0.101826  0.203645  1
  Co  Co12  1  0.898572  0.398566  0.797109  1
  Co  Co13  1  0.102003  0.899366  0.500467  1
  Co  Co14  1  0.398449  0.601091  0.500462  1
  Si  Si15  1  0.290194  0.290221  0.580219  1
  Si  Si16  1  0.709619  0.709640  0.419465  1
  Si  Si17  1  0.299075  0.716897  0.995282  1
  Si  Si18  1  0.696229  0.278415  0.995284  1
  Si  Si19  1  0.093379  0.502056  0.593570  1
  Si  Si20  1  0.899397  0.492360  0.411720  1
  Si  Si21  1  0.512322  0.919349  0.411711  1
  Si  Si22  1  0.500204  0.091508  0.593564  1
  Si  Si23  1  0.249721  0.249905  0.999702  1
  Si  Si24  1  0.749981  0.749805  0.999697  1
  Si  Si25  1  0.305972  0.010164  0.301589  1
  Si  Si26  1  0.698412  0.999295  0.699657  1
  Si  Si27  1  0.001215  0.700339  0.699706  1
  Si  Si28  1  0.995661  0.291445  0.301598  1
  Ru  Ru29  1  0.102114  0.602073  0.204198  1
