# generated using pymatgen
data_Tb2Ho2Al4Pd3Rh
_symmetry_space_group_name_H-M   'P 1'
_cell_length_a   4.42573900
_cell_length_b   6.84511540
_cell_length_c   7.85562407
_cell_angle_alpha   89.94424098
_cell_angle_beta   90.00000000
_cell_angle_gamma   90.00000000
_symmetry_Int_Tables_number   1
_chemical_formula_structural   Tb2Ho2Al4Pd3Rh
_chemical_formula_sum   'Tb2 Ho2 Al4 Pd3 Rh1'
_cell_volume   237.98361633
_cell_formula_units_Z   1
loop_
 _symmetry_equiv_pos_site_id
 _symmetry_equiv_pos_as_xyz
  1  'x, y, z'
loop_
 _atom_site_type_symbol
 _atom_site_label
 _atom_site_symmetry_multiplicity
 _atom_site_fract_x
 _atom_site_fract_y
 _atom_site_fract_z
 _atom_site_occupancy
  Tb  Tb0  1  0.250000  0.534297  0.179380  1
  Tb  Tb1  1  0.250000  0.037818  0.323733  1
  Ho  Ho2  1  0.750000  0.462337  0.817382  1
  Ho  Ho3  1  0.750000  0.972183  0.679471  1
  Al  Al4  1  0.250000  0.635828  0.561755  1
  Al  Al5  1  0.750000  0.357913  0.442249  1
  Al  Al6  1  0.750000  0.858522  0.059307  1
  Al  Al7  1  0.250000  0.142861  0.936754  1
  Pd  Pd8  1  0.250000  0.769810  0.878941  1
  Pd  Pd9  1  0.750000  0.231294  0.121128  1
  Pd  Pd10  1  0.750000  0.731772  0.379475  1
  Rh  Rh11  1  0.250000  0.265366  0.620426  1
