# generated using pymatgen
data_NaEr(Si7Ir3)2
_symmetry_space_group_name_H-M   'P 1'
_cell_length_a   8.00321111
_cell_length_b   8.00321076
_cell_length_c   8.00321060
_cell_angle_alpha   56.87861706
_cell_angle_beta   56.87862063
_cell_angle_gamma   56.87862133
_symmetry_Int_Tables_number   1
_chemical_formula_structural   NaEr(Si7Ir3)2
_chemical_formula_sum   'Na1 Er1 Si14 Ir6'
_cell_volume   336.37118836
_cell_formula_units_Z   1
loop_
 _symmetry_equiv_pos_site_id
 _symmetry_equiv_pos_as_xyz
  1  'x, y, z'
loop_
 _atom_site_type_symbol
 _atom_site_label
 _atom_site_symmetry_multiplicity
 _atom_site_fract_x
 _atom_site_fract_y
 _atom_site_fract_z
 _atom_site_occupancy
  Na  Na0  1  0.000000  0.000000  0.000000  1
  Er  Er1  1  0.500000  0.500000  0.500000  1
  Si  Si2  1  0.749759  0.749759  0.749759  1
  Si  Si3  1  0.250241  0.250241  0.250241  1
  Si  Si4  1  0.852460  0.064492  0.675555  1
  Si  Si5  1  0.675555  0.852460  0.064492  1
  Si  Si6  1  0.064492  0.675555  0.852460  1
  Si  Si7  1  0.652228  0.828463  0.432720  1
  Si  Si8  1  0.432720  0.652228  0.828463  1
  Si  Si9  1  0.828463  0.432720  0.652228  1
  Si  Si10  1  0.171537  0.567280  0.347772  1
  Si  Si11  1  0.567280  0.347772  0.171537  1
  Si  Si12  1  0.347772  0.171537  0.567280  1
  Si  Si13  1  0.935508  0.324445  0.147540  1
  Si  Si14  1  0.324445  0.147540  0.935508  1
  Si  Si15  1  0.147540  0.935508  0.324445  1
  Ir  Ir16  1  0.074735  0.432229  0.746301  1
  Ir  Ir17  1  0.253699  0.925265  0.567771  1
  Ir  Ir18  1  0.567771  0.253699  0.925265  1
  Ir  Ir19  1  0.925265  0.567771  0.253699  1
  Ir  Ir20  1  0.432229  0.746301  0.074735  1
  Ir  Ir21  1  0.746301  0.074735  0.432229  1
