# generated using pymatgen
data_Tb8Cd4Pd5Au3
_symmetry_space_group_name_H-M   'P 1'
_cell_length_a   7.85766510
_cell_length_b   7.87189452
_cell_length_c   7.45563400
_cell_angle_alpha   89.93552681
_cell_angle_beta   89.99093641
_cell_angle_gamma   90.36476281
_symmetry_Int_Tables_number   1
_chemical_formula_structural   Tb8Cd4Pd5Au3
_chemical_formula_sum   'Tb8 Cd4 Pd5 Au3'
_cell_volume   461.15644112
_cell_formula_units_Z   1
loop_
 _symmetry_equiv_pos_site_id
 _symmetry_equiv_pos_as_xyz
  1  'x, y, z'
loop_
 _atom_site_type_symbol
 _atom_site_label
 _atom_site_symmetry_multiplicity
 _atom_site_fract_x
 _atom_site_fract_y
 _atom_site_fract_z
 _atom_site_occupancy
  Tb  Tb0  1  0.159138  0.172211  0.003183  1
  Tb  Tb1  1  0.823722  0.835225  0.999982  1
  Tb  Tb2  1  0.672981  0.332494  0.497738  1
  Tb  Tb3  1  0.342162  0.663381  0.497587  1
  Tb  Tb4  1  0.679831  0.326427  0.002323  1
  Tb  Tb5  1  0.334966  0.671309  0.002354  1
  Tb  Tb6  1  0.816807  0.828821  0.499861  1
  Tb  Tb7  1  0.166855  0.179920  0.497048  1
  Cd  Cd8  1  0.500724  0.004710  0.249778  1
  Cd  Cd9  1  0.502958  0.997435  0.749704  1
  Cd  Cd10  1  0.000738  0.499006  0.250147  1
  Cd  Cd11  1  0.994311  0.500563  0.749411  1
  Pd  Pd12  1  0.372740  0.369079  0.242020  1
  Pd  Pd13  1  0.631469  0.627119  0.757654  1
  Pd  Pd14  1  0.631545  0.625783  0.242563  1
  Pd  Pd15  1  0.869752  0.128581  0.742696  1
  Pd  Pd16  1  0.869314  0.127390  0.257706  1
  Au  Au17  1  0.375478  0.369068  0.758090  1
  Au  Au18  1  0.126960  0.870638  0.257699  1
  Au  Au19  1  0.127549  0.870840  0.742456  1
