# generated using pymatgen
data_Lu10Ru5Pt
_symmetry_space_group_name_H-M   'P 1'
_cell_length_a   8.09238419
_cell_length_b   8.05220741
_cell_length_c   6.17978600
_cell_angle_alpha   90.00000000
_cell_angle_beta   90.00000000
_cell_angle_gamma   119.83591126
_symmetry_Int_Tables_number   1
_chemical_formula_structural   Lu10Ru5Pt
_chemical_formula_sum   'Lu10 Ru5 Pt1'
_cell_volume   349.31017230
_cell_formula_units_Z   1
loop_
 _symmetry_equiv_pos_site_id
 _symmetry_equiv_pos_as_xyz
  1  'x, y, z'
loop_
 _atom_site_type_symbol
 _atom_site_label
 _atom_site_symmetry_multiplicity
 _atom_site_fract_x
 _atom_site_fract_y
 _atom_site_fract_z
 _atom_site_occupancy
  Lu  Lu0  1  0.662359  0.331714  0.498277  1
  Lu  Lu1  1  0.337641  0.669355  0.498277  1
  Lu  Lu2  1  0.337641  0.669355  0.001723  1
  Lu  Lu3  1  0.662359  0.331714  0.001723  1
  Lu  Lu4  1  0.744322  0.744458  0.250000  1
  Lu  Lu5  1  0.255678  0.000136  0.250000  1
  Lu  Lu6  1  0.000000  0.259739  0.250000  1
  Lu  Lu7  1  0.262478  0.254937  0.750000  1
  Lu  Lu8  1  0.737522  0.992459  0.750000  1
  Lu  Lu9  1  0.000000  0.746064  0.750000  1
  Ru  Ru10  1  0.390740  0.394867  0.250000  1
  Ru  Ru11  1  0.609260  0.004127  0.250000  1
  Ru  Ru12  1  0.000000  0.609867  0.250000  1
  Ru  Ru13  1  0.604745  0.602083  0.750000  1
  Ru  Ru14  1  0.395255  0.997338  0.750000  1
  Pt  Pt15  1  0.000000  0.391786  0.750000  1
