# generated using pymatgen
data_Cs3LiAs2O7
_symmetry_space_group_name_H-M   'P 1'
_cell_length_a   6.13891608
_cell_length_b   6.13891677
_cell_length_c   15.11713100
_cell_angle_alpha   90.00000000
_cell_angle_beta   90.00000000
_cell_angle_gamma   112.27806603
_symmetry_Int_Tables_number   1
_chemical_formula_structural   Cs3LiAs2O7
_chemical_formula_sum   'Cs6 Li2 As4 O14'
_cell_volume   527.18270448
_cell_formula_units_Z   2
loop_
 _symmetry_equiv_pos_site_id
 _symmetry_equiv_pos_as_xyz
  1  'x, y, z'
loop_
 _atom_site_type_symbol
 _atom_site_label
 _atom_site_symmetry_multiplicity
 _atom_site_fract_x
 _atom_site_fract_y
 _atom_site_fract_z
 _atom_site_occupancy
  Cs  Cs0  1  0.131428  0.131428  0.000000  1
  Cs  Cs1  1  0.868572  0.868572  0.500000  1
  Cs  Cs2  1  0.776670  0.463782  0.123929  1
  Cs  Cs3  1  0.463782  0.776670  0.876071  1
  Cs  Cs4  1  0.223330  0.536218  0.623929  1
  Cs  Cs5  1  0.536218  0.223330  0.376071  1
  Li  Li6  1  0.015148  0.984852  0.250000  1
  Li  Li7  1  0.984852  0.015148  0.750000  1
  As  As8  1  0.442895  0.826911  0.160468  1
  As  As9  1  0.826911  0.442895  0.839532  1
  As  As10  1  0.557105  0.173089  0.660468  1
  As  As11  1  0.173089  0.557105  0.339532  1
  O  O12  1  0.320459  0.027273  0.185725  1
  O  O13  1  0.027273  0.320459  0.814275  1
  O  O14  1  0.679541  0.972727  0.685725  1
  O  O15  1  0.972727  0.679541  0.314275  1
  O  O16  1  0.744884  0.948384  0.158264  1
  O  O17  1  0.948384  0.744884  0.841736  1
  O  O18  1  0.255116  0.051616  0.658264  1
  O  O19  1  0.051616  0.255116  0.341736  1
  O  O20  1  0.320711  0.664639  0.069022  1
  O  O21  1  0.664639  0.320711  0.930978  1
  O  O22  1  0.679289  0.335361  0.569022  1
  O  O23  1  0.335361  0.679289  0.430978  1
  O  O24  1  0.386188  0.613812  0.250000  1
  O  O25  1  0.613812  0.386188  0.750000  1
