# generated using pymatgen
data_Cs2CeBr5
_symmetry_space_group_name_H-M   'P 1'
_cell_length_a   9.18201700
_cell_length_b   9.63757300
_cell_length_c   14.80436000
_cell_angle_alpha   90.00000000
_cell_angle_beta   90.00000000
_cell_angle_gamma   90.00000000
_symmetry_Int_Tables_number   1
_chemical_formula_structural   Cs2CeBr5
_chemical_formula_sum   'Cs8 Ce4 Br20'
_cell_volume   1310.07274173
_cell_formula_units_Z   4
loop_
 _symmetry_equiv_pos_site_id
 _symmetry_equiv_pos_as_xyz
  1  'x, y, z'
loop_
 _atom_site_type_symbol
 _atom_site_label
 _atom_site_symmetry_multiplicity
 _atom_site_fract_x
 _atom_site_fract_y
 _atom_site_fract_z
 _atom_site_occupancy
  Cs  Cs0  1  0.946718  0.005391  0.828151  1
  Cs  Cs1  1  0.053282  0.994609  0.171849  1
  Cs  Cs2  1  0.446718  0.994609  0.671849  1
  Cs  Cs3  1  0.053282  0.505391  0.171849  1
  Cs  Cs4  1  0.553282  0.005391  0.328151  1
  Cs  Cs5  1  0.946718  0.494609  0.828151  1
  Cs  Cs6  1  0.553282  0.494609  0.328151  1
  Cs  Cs7  1  0.446718  0.505391  0.671849  1
  Ce  Ce8  1  0.932808  0.750000  0.502554  1
  Ce  Ce9  1  0.067192  0.250000  0.497446  1
  Ce  Ce10  1  0.432808  0.250000  0.997446  1
  Ce  Ce11  1  0.567192  0.750000  0.002554  1
  Br  Br12  1  0.112073  0.750000  0.667765  1
  Br  Br13  1  0.887927  0.250000  0.332235  1
  Br  Br14  1  0.612073  0.250000  0.832235  1
  Br  Br15  1  0.387927  0.750000  0.167765  1
  Br  Br16  1  0.844797  0.041185  0.569522  1
  Br  Br17  1  0.155203  0.958815  0.430478  1
  Br  Br18  1  0.344797  0.958815  0.930478  1
  Br  Br19  1  0.155203  0.541185  0.430478  1
  Br  Br20  1  0.655203  0.041185  0.069522  1
  Br  Br21  1  0.844797  0.458815  0.569522  1
  Br  Br22  1  0.655203  0.458815  0.069522  1
  Br  Br23  1  0.344797  0.541185  0.930478  1
  Br  Br24  1  0.606977  0.750000  0.512609  1
  Br  Br25  1  0.393023  0.250000  0.487391  1
  Br  Br26  1  0.106977  0.250000  0.987391  1
  Br  Br27  1  0.893023  0.750000  0.012609  1
  Br  Br28  1  0.650600  0.750000  0.810385  1
  Br  Br29  1  0.349400  0.250000  0.189615  1
  Br  Br30  1  0.150600  0.250000  0.689615  1
  Br  Br31  1  0.849400  0.750000  0.310385  1
