# generated using pymatgen
data_Li4CaAc3In8
_symmetry_space_group_name_H-M   'P 1'
_cell_length_a   5.04106400
_cell_length_b   7.26483805
_cell_length_c   11.55479600
_cell_angle_alpha   90.38151525
_cell_angle_beta   90.00000000
_cell_angle_gamma   90.00000000
_symmetry_Int_Tables_number   1
_chemical_formula_structural   Li4CaAc3In8
_chemical_formula_sum   'Li4 Ca1 Ac3 In8'
_cell_volume   423.15629227
_cell_formula_units_Z   1
loop_
 _symmetry_equiv_pos_site_id
 _symmetry_equiv_pos_as_xyz
  1  'x, y, z'
loop_
 _atom_site_type_symbol
 _atom_site_label
 _atom_site_symmetry_multiplicity
 _atom_site_fract_x
 _atom_site_fract_y
 _atom_site_fract_z
 _atom_site_occupancy
  Li  Li0  1  0.750000  0.549626  0.108969  1
  Li  Li1  1  0.750000  0.060356  0.384475  1
  Li  Li2  1  0.250000  0.955474  0.611169  1
  Li  Li3  1  0.250000  0.438031  0.883624  1
  Ca  Ca4  1  0.750000  0.749760  0.849088  1
  Ac  Ac5  1  0.250000  0.242981  0.156132  1
  Ac  Ac6  1  0.250000  0.750871  0.344593  1
  Ac  Ac7  1  0.750000  0.260678  0.658079  1
  In  In8  1  0.250000  0.743351  0.045104  1
  In  In9  1  0.750000  0.933246  0.146473  1
  In  In10  1  0.750000  0.444274  0.354293  1
  In  In11  1  0.250000  0.258567  0.450713  1
  In  In12  1  0.750000  0.756212  0.553666  1
  In  In13  1  0.250000  0.576009  0.652174  1
  In  In14  1  0.250000  0.043781  0.850489  1
  In  In15  1  0.750000  0.236783  0.950960  1
