# generated using pymatgen
data_MnSnPt2O7
_symmetry_space_group_name_H-M   'P 1'
_cell_length_a   7.12029945
_cell_length_b   7.11244840
_cell_length_c   7.11653955
_cell_angle_alpha   60.54064182
_cell_angle_beta   59.06000621
_cell_angle_gamma   89.65979820
_symmetry_Int_Tables_number   1
_chemical_formula_structural   MnSnPt2O7
_chemical_formula_sum   'Mn2 Sn2 Pt4 O14'
_cell_volume   254.01364886
_cell_formula_units_Z   2
loop_
 _symmetry_equiv_pos_site_id
 _symmetry_equiv_pos_as_xyz
  1  'x, y, z'
loop_
 _atom_site_type_symbol
 _atom_site_label
 _atom_site_symmetry_multiplicity
 _atom_site_fract_x
 _atom_site_fract_y
 _atom_site_fract_z
 _atom_site_occupancy
  Mn  Mn0  1  0.375015  0.624690  0.250115  1
  Mn  Mn1  1  0.874816  0.624994  0.750073  1
  Sn  Sn2  1  0.374850  0.124955  0.250019  1
  Sn  Sn3  1  0.374899  0.624976  0.750021  1
  Pt  Pt4  1  0.874949  0.124936  0.250032  1
  Pt  Pt5  1  0.875097  0.625039  0.250037  1
  Pt  Pt6  1  0.875090  0.125139  0.749944  1
  Pt  Pt7  1  0.375060  0.125001  0.749917  1
  O  O8  1  0.217125  0.217188  0.000000  1
  O  O9  1  0.772570  0.213453  0.009271  1
  O  O10  1  0.486168  0.486287  0.000079  1
  O  O11  1  0.222602  0.781734  0.990801  1
  O  O12  1  0.778527  0.778449  0.000049  1
  O  O13  1  0.977434  0.468201  0.059247  1
  O  O14  1  0.772512  0.781695  0.440998  1
  O  O15  1  0.532826  0.032687  0.499892  1
  O  O16  1  0.527604  0.468273  0.509075  1
  O  O17  1  0.977379  0.036650  0.490763  1
  O  O18  1  0.971666  0.471755  0.499945  1
  O  O19  1  0.263578  0.763659  0.500053  1
  O  O20  1  0.222653  0.213453  0.559139  1
  O  O21  1  0.527592  0.036784  0.940535  1
