# generated using pymatgen
data_Tb12Er5Tm3(CoSb2)4
_symmetry_space_group_name_H-M   'P 1'
_cell_length_a   7.84827743
_cell_length_b   8.78836230
_cell_length_c   12.24136513
_cell_angle_alpha   90.00946232
_cell_angle_beta   89.97271211
_cell_angle_gamma   90.01194758
_symmetry_Int_Tables_number   1
_chemical_formula_structural   Tb12Er5Tm3(CoSb2)4
_chemical_formula_sum   'Tb12 Er5 Tm3 Co4 Sb8'
_cell_volume   844.32973920
_cell_formula_units_Z   1
loop_
 _symmetry_equiv_pos_site_id
 _symmetry_equiv_pos_as_xyz
  1  'x, y, z'
loop_
 _atom_site_type_symbol
 _atom_site_label
 _atom_site_symmetry_multiplicity
 _atom_site_fract_x
 _atom_site_fract_y
 _atom_site_fract_z
 _atom_site_occupancy
  Tb  Tb0  1  0.153680  0.750046  0.203523  1
  Tb  Tb1  1  0.653792  0.249857  0.296473  1
  Tb  Tb2  1  0.846268  0.250110  0.796464  1
  Tb  Tb3  1  0.346157  0.750046  0.703537  1
  Tb  Tb4  1  0.453073  0.749898  0.997676  1
  Tb  Tb5  1  0.953763  0.249836  0.502321  1
  Tb  Tb6  1  0.546886  0.249846  0.002370  1
  Tb  Tb7  1  0.047347  0.750347  0.497648  1
  Tb  Tb8  1  0.623899  0.750121  0.308305  1
  Tb  Tb9  1  0.124346  0.250218  0.191665  1
  Tb  Tb10  1  0.375563  0.249639  0.691665  1
  Tb  Tb11  1  0.875728  0.749994  0.808535  1
  Er  Er12  1  0.676392  0.535548  0.565302  1
  Er  Er13  1  0.176391  0.035602  0.934570  1
  Er  Er14  1  0.676220  0.964360  0.565282  1
  Er  Er15  1  0.823554  0.535703  0.065506  1
  Er  Er16  1  0.323517  0.464257  0.434459  1
  Tm  Tm17  1  0.824843  0.964230  0.065394  1
  Tm  Tm18  1  0.324884  0.035883  0.434510  1
  Tm  Tm19  1  0.175181  0.464469  0.934687  1
  Co  Co20  1  0.434943  0.750262  0.491594  1
  Co  Co21  1  0.935753  0.250088  0.008195  1
  Co  Co22  1  0.563926  0.249701  0.508166  1
  Co  Co23  1  0.064235  0.750101  0.991877  1
  Sb  Sb24  1  0.930847  0.992644  0.326678  1
  Sb  Sb25  1  0.430788  0.007405  0.173198  1
  Sb  Sb26  1  0.069532  0.492579  0.673404  1
  Sb  Sb27  1  0.568931  0.507293  0.826779  1
  Sb  Sb28  1  0.069260  0.007405  0.673356  1
  Sb  Sb29  1  0.569444  0.992480  0.826704  1
  Sb  Sb30  1  0.930310  0.507561  0.326871  1
  Sb  Sb31  1  0.430548  0.492471  0.173285  1
