# generated using pymatgen
data_Ho4Ga4Sn2Ir7
_symmetry_space_group_name_H-M   'P 1'
_cell_length_a   7.38289046
_cell_length_b   7.39843674
_cell_length_c   7.39843706
_cell_angle_alpha   109.45700835
_cell_angle_beta   109.52099781
_cell_angle_gamma   109.52101146
_symmetry_Int_Tables_number   1
_chemical_formula_structural   Ho4Ga4Sn2Ir7
_chemical_formula_sum   'Ho4 Ga4 Sn2 Ir7'
_cell_volume   310.76064525
_cell_formula_units_Z   1
loop_
 _symmetry_equiv_pos_site_id
 _symmetry_equiv_pos_as_xyz
  1  'x, y, z'
loop_
 _atom_site_type_symbol
 _atom_site_label
 _atom_site_symmetry_multiplicity
 _atom_site_fract_x
 _atom_site_fract_y
 _atom_site_fract_z
 _atom_site_occupancy
  Ho  Ho0  1  0.000000  0.006555  0.540946  1
  Ho  Ho1  1  0.000000  0.459054  0.993445  1
  Ho  Ho2  1  0.500000  0.007275  0.992725  1
  Ho  Ho3  1  0.500000  0.507275  0.492725  1
  Ga  Ga4  1  0.000000  0.309970  0.323205  1
  Ga  Ga5  1  0.337188  0.330349  0.006839  1
  Ga  Ga6  1  0.662812  0.993161  0.669651  1
  Ga  Ga7  1  0.000000  0.676795  0.690030  1
  Sn  Sn8  1  0.706356  0.699058  0.007298  1
  Sn  Sn9  1  0.293644  0.992702  0.300942  1
  Ir  Ir10  1  0.749134  0.250412  0.498722  1
  Ir  Ir11  1  0.759513  0.500811  0.258702  1
  Ir  Ir12  1  0.500000  0.251555  0.748445  1
  Ir  Ir13  1  0.250866  0.501278  0.749588  1
  Ir  Ir14  1  0.240487  0.741298  0.499189  1
  Ir  Ir15  1  0.500000  0.751555  0.248445  1
  Ir  Ir16  1  0.000000  0.020898  0.979102  1
