# generated using pymatgen
data_Cs6TiWSe8
_symmetry_space_group_name_H-M   'P 1'
_cell_length_a   10.40679700
_cell_length_b   10.48885200
_cell_length_c   12.09754700
_cell_angle_alpha   90.00000000
_cell_angle_beta   90.00000000
_cell_angle_gamma   90.00000000
_symmetry_Int_Tables_number   1
_chemical_formula_structural   Cs6TiWSe8
_chemical_formula_sum   'Cs12 Ti2 W2 Se16'
_cell_volume   1320.51201960
_cell_formula_units_Z   2
loop_
 _symmetry_equiv_pos_site_id
 _symmetry_equiv_pos_as_xyz
  1  'x, y, z'
loop_
 _atom_site_type_symbol
 _atom_site_label
 _atom_site_symmetry_multiplicity
 _atom_site_fract_x
 _atom_site_fract_y
 _atom_site_fract_z
 _atom_site_occupancy
  Cs  Cs0  1  0.545939  0.210118  0.057592  1
  Cs  Cs1  1  0.045939  0.289882  0.442408  1
  Cs  Cs2  1  0.453195  0.794147  0.525914  1
  Cs  Cs3  1  0.953195  0.705853  0.974086  1
  Cs  Cs4  1  0.453195  0.794147  0.974086  1
  Cs  Cs5  1  0.953195  0.705853  0.525914  1
  Cs  Cs6  1  0.545939  0.210118  0.442408  1
  Cs  Cs7  1  0.045939  0.289882  0.057592  1
  Cs  Cs8  1  0.648275  0.417137  0.750000  1
  Cs  Cs9  1  0.148275  0.082863  0.750000  1
  Cs  Cs10  1  0.354523  0.587031  0.250000  1
  Cs  Cs11  1  0.854523  0.912969  0.250000  1
  Ti  Ti12  1  0.274894  0.016821  0.250000  1
  Ti  Ti13  1  0.774894  0.483179  0.250000  1
  W  W14  1  0.721997  0.983599  0.750000  1
  W  W15  1  0.221997  0.516401  0.750000  1
  Se  Se16  1  0.832604  0.049650  0.592006  1
  Se  Se17  1  0.332604  0.450350  0.907994  1
  Se  Se18  1  0.165699  0.953180  0.081762  1
  Se  Se19  1  0.665699  0.546820  0.418238  1
  Se  Se20  1  0.165699  0.953180  0.418238  1
  Se  Se21  1  0.665699  0.546820  0.081762  1
  Se  Se22  1  0.832604  0.049650  0.907994  1
  Se  Se23  1  0.332604  0.450350  0.592006  1
  Se  Se24  1  0.513567  0.071403  0.750000  1
  Se  Se25  1  0.013567  0.428597  0.750000  1
  Se  Se26  1  0.489535  0.930158  0.250000  1
  Se  Se27  1  0.989535  0.569842  0.250000  1
  Se  Se28  1  0.709459  0.760587  0.750000  1
  Se  Se29  1  0.209459  0.739413  0.750000  1
  Se  Se30  1  0.292879  0.246251  0.250000  1
  Se  Se31  1  0.792879  0.253749  0.250000  1
