# generated using pymatgen
data_Ba3Al10CoO20
_symmetry_space_group_name_H-M   'P 1'
_cell_length_a   9.70666717
_cell_length_b   9.70665982
_cell_length_c   5.01860057
_cell_angle_alpha   75.93914715
_cell_angle_beta   75.93906349
_cell_angle_gamma   71.84494529
_symmetry_Int_Tables_number   1
_chemical_formula_structural   Ba3Al10CoO20
_chemical_formula_sum   'Ba3 Al10 Co1 O20'
_cell_volume   428.61195642
_cell_formula_units_Z   1
loop_
 _symmetry_equiv_pos_site_id
 _symmetry_equiv_pos_as_xyz
  1  'x, y, z'
loop_
 _atom_site_type_symbol
 _atom_site_label
 _atom_site_symmetry_multiplicity
 _atom_site_fract_x
 _atom_site_fract_y
 _atom_site_fract_z
 _atom_site_occupancy
  Ba  Ba0  1  0.000000  0.000000  0.000000  1
  Ba  Ba1  1  0.278674  0.278675  0.744671  1
  Ba  Ba2  1  0.721326  0.721325  0.255329  1
  Al  Al3  1  0.844000  0.424882  0.834302  1
  Al  Al4  1  0.575118  0.156000  0.165698  1
  Al  Al5  1  0.156000  0.575118  0.165698  1
  Al  Al6  1  0.424882  0.844000  0.834302  1
  Al  Al7  1  0.368261  0.631738  0.500001  1
  Al  Al8  1  0.631739  0.368262  0.499999  1
  Al  Al9  1  0.992992  0.712239  0.662050  1
  Al  Al10  1  0.287761  0.007008  0.337950  1
  Al  Al11  1  0.007008  0.287761  0.337950  1
  Al  Al12  1  0.712239  0.992992  0.662050  1
  Co  Co13  1  0.500000  0.500000  0.000000  1
  O  O14  1  0.550795  0.313999  0.889415  1
  O  O15  1  0.686002  0.449205  0.110586  1
  O  O16  1  0.449205  0.686001  0.110585  1
  O  O17  1  0.313998  0.550795  0.889414  1
  O  O18  1  0.708620  0.016448  0.002244  1
  O  O19  1  0.983552  0.291380  0.997756  1
  O  O20  1  0.291380  0.983552  0.997756  1
  O  O21  1  0.016448  0.708620  0.002244  1
  O  O22  1  0.437671  0.437669  0.385418  1
  O  O23  1  0.562329  0.562331  0.614582  1
  O  O24  1  0.893684  0.893684  0.535785  1
  O  O25  1  0.106316  0.106316  0.464215  1
  O  O26  1  0.880585  0.595977  0.693459  1
  O  O27  1  0.404023  0.119415  0.306541  1
  O  O28  1  0.119415  0.404023  0.306541  1
  O  O29  1  0.595977  0.880585  0.693459  1
  O  O30  1  0.171294  0.657202  0.440476  1
  O  O31  1  0.342798  0.828707  0.559524  1
  O  O32  1  0.828706  0.342798  0.559524  1
  O  O33  1  0.657202  0.171293  0.440476  1
