# generated using pymatgen
data_Tb2DyHoPt4F28
_symmetry_space_group_name_H-M   'P 1'
_cell_length_a   5.55782802
_cell_length_b   8.89595330
_cell_length_c   12.00701405
_cell_angle_alpha   62.45085202
_cell_angle_beta   89.99045496
_cell_angle_gamma   89.99158512
_symmetry_Int_Tables_number   1
_chemical_formula_structural   Tb2DyHoPt4F28
_chemical_formula_sum   'Tb2 Dy1 Ho1 Pt4 F28'
_cell_volume   526.34124260
_cell_formula_units_Z   1
loop_
 _symmetry_equiv_pos_site_id
 _symmetry_equiv_pos_as_xyz
  1  'x, y, z'
loop_
 _atom_site_type_symbol
 _atom_site_label
 _atom_site_symmetry_multiplicity
 _atom_site_fract_x
 _atom_site_fract_y
 _atom_site_fract_z
 _atom_site_occupancy
  Tb  Tb0  1  0.760860  0.813066  0.764604  1
  Tb  Tb1  1  0.260851  0.186950  0.735382  1
  Dy  Dy2  1  0.239061  0.185739  0.235689  1
  Ho  Ho3  1  0.738969  0.814379  0.264203  1
  Pt  Pt4  1  0.758596  0.271834  0.957721  1
  Pt  Pt5  1  0.258702  0.728043  0.542162  1
  Pt  Pt6  1  0.240996  0.727076  0.044248  1
  Pt  Pt7  1  0.740994  0.273260  0.455873  1
  F  F8  1  0.435478  0.702428  0.916851  1
  F  F9  1  0.935549  0.297565  0.583236  1
  F  F10  1  0.563314  0.296879  0.084725  1
  F  F11  1  0.063004  0.703225  0.415164  1
  F  F12  1  0.440793  0.278733  0.541358  1
  F  F13  1  0.940901  0.721264  0.958670  1
  F  F14  1  0.559870  0.722843  0.456542  1
  F  F15  1  0.059587  0.277322  0.043118  1
  F  F16  1  0.774877  0.520273  0.859029  1
  F  F17  1  0.274890  0.479686  0.640963  1
  F  F18  1  0.225437  0.478145  0.141998  1
  F  F19  1  0.725479  0.522334  0.357864  1
  F  F20  1  0.753964  0.022995  0.051012  1
  F  F21  1  0.253934  0.976827  0.449228  1
  F  F22  1  0.245671  0.975603  0.950757  1
  F  F23  1  0.745679  0.024529  0.549196  1
  F  F24  1  0.966328  0.724696  0.635326  1
  F  F25  1  0.466254  0.275288  0.864671  1
  F  F26  1  0.033752  0.274882  0.363230  1
  F  F27  1  0.533942  0.725267  0.136970  1
  F  F28  1  0.050819  0.745916  0.175991  1
  F  F29  1  0.551466  0.254265  0.324162  1
  F  F30  1  0.946986  0.254259  0.825293  1
  F  F31  1  0.446982  0.745723  0.674674  1
  F  F32  1  0.417232  0.969880  0.232634  1
  F  F33  1  0.915560  0.028814  0.267453  1
  F  F34  1  0.586613  0.030871  0.767923  1
  F  F35  1  0.086607  0.969140  0.732077  1
