# generated using pymatgen
data_PrTiCo4P3
_symmetry_space_group_name_H-M   'P 1'
_cell_length_a   3.71867000
_cell_length_b   10.63125200
_cell_length_c   12.10911400
_cell_angle_alpha   90.00000000
_cell_angle_beta   90.00000000
_cell_angle_gamma   90.00000000
_symmetry_Int_Tables_number   1
_chemical_formula_structural   PrTiCo4P3
_chemical_formula_sum   'Pr4 Ti4 Co16 P12'
_cell_volume   478.72314024
_cell_formula_units_Z   4
loop_
 _symmetry_equiv_pos_site_id
 _symmetry_equiv_pos_as_xyz
  1  'x, y, z'
loop_
 _atom_site_type_symbol
 _atom_site_label
 _atom_site_symmetry_multiplicity
 _atom_site_fract_x
 _atom_site_fract_y
 _atom_site_fract_z
 _atom_site_occupancy
  Pr  Pr0  1  0.250000  0.582437  0.704735  1
  Pr  Pr1  1  0.250000  0.917563  0.204735  1
  Pr  Pr2  1  0.750000  0.417563  0.295265  1
  Pr  Pr3  1  0.750000  0.082437  0.795265  1
  Ti  Ti4  1  0.250000  0.700408  0.991011  1
  Ti  Ti5  1  0.250000  0.799592  0.491011  1
  Ti  Ti6  1  0.750000  0.299592  0.008989  1
  Ti  Ti7  1  0.750000  0.200408  0.508989  1
  Co  Co8  1  0.250000  0.406184  0.492508  1
  Co  Co9  1  0.250000  0.093816  0.992508  1
  Co  Co10  1  0.750000  0.593816  0.507492  1
  Co  Co11  1  0.750000  0.906184  0.007492  1
  Co  Co12  1  0.250000  0.221417  0.175262  1
  Co  Co13  1  0.250000  0.278583  0.675262  1
  Co  Co14  1  0.750000  0.778583  0.824738  1
  Co  Co15  1  0.750000  0.721417  0.324738  1
  Co  Co16  1  0.250000  0.884335  0.698285  1
  Co  Co17  1  0.250000  0.615665  0.198285  1
  Co  Co18  1  0.750000  0.115665  0.301715  1
  Co  Co19  1  0.750000  0.384335  0.801715  1
  Co  Co20  1  0.250000  0.465392  0.934264  1
  Co  Co21  1  0.250000  0.034608  0.434264  1
  Co  Co22  1  0.750000  0.534608  0.065736  1
  Co  Co23  1  0.750000  0.965392  0.565736  1
  P  P24  1  0.250000  0.421351  0.112536  1
  P  P25  1  0.250000  0.078649  0.612536  1
  P  P26  1  0.750000  0.578649  0.887464  1
  P  P27  1  0.750000  0.921351  0.387464  1
  P  P28  1  0.250000  0.275171  0.862334  1
  P  P29  1  0.250000  0.224829  0.362334  1
  P  P30  1  0.750000  0.724829  0.137666  1
  P  P31  1  0.750000  0.775171  0.637666  1
  P  P32  1  0.250000  0.597070  0.392620  1
  P  P33  1  0.250000  0.902930  0.892620  1
  P  P34  1  0.750000  0.402930  0.607380  1
  P  P35  1  0.750000  0.097070  0.107380  1
