# generated using pymatgen
data_Nd3Sm5Sc11Si16W
_symmetry_space_group_name_H-M   'P 1'
_cell_length_a   7.18155277
_cell_length_b   7.42073312
_cell_length_c   14.04534047
_cell_angle_alpha   90.23907154
_cell_angle_beta   89.72848443
_cell_angle_gamma   89.63388883
_symmetry_Int_Tables_number   1
_chemical_formula_structural   Nd3Sm5Sc11Si16W
_chemical_formula_sum   'Nd3 Sm5 Sc11 Si16 W1'
_cell_volume   748.47941709
_cell_formula_units_Z   1
loop_
 _symmetry_equiv_pos_site_id
 _symmetry_equiv_pos_as_xyz
  1  'x, y, z'
loop_
 _atom_site_type_symbol
 _atom_site_label
 _atom_site_symmetry_multiplicity
 _atom_site_fract_x
 _atom_site_fract_y
 _atom_site_fract_z
 _atom_site_occupancy
  Nd  Nd0  1  0.011650  0.171141  0.097331  1
  Nd  Nd1  1  0.989338  0.828655  0.898426  1
  Nd  Nd2  1  0.487242  0.673743  0.898431  1
  Sm  Sm3  1  0.992997  0.830697  0.595997  1
  Sm  Sm4  1  0.513486  0.325818  0.097797  1
  Sm  Sm5  1  0.011365  0.174191  0.403299  1
  Sm  Sm6  1  0.507547  0.326188  0.409385  1
  Sm  Sm7  1  0.487225  0.674301  0.597136  1
  Sc  Sc8  1  0.163370  0.490496  0.743862  1
  Sc  Sc9  1  0.838102  0.499436  0.252628  1
  Sc  Sc10  1  0.337924  0.001156  0.252176  1
  Sc  Sc11  1  0.657197  0.003497  0.746906  1
  Sc  Sc12  1  0.665384  0.826407  0.379454  1
  Sc  Sc13  1  0.168844  0.676643  0.378525  1
  Sc  Sc14  1  0.669470  0.824168  0.125031  1
  Sc  Sc15  1  0.832568  0.324594  0.623308  1
  Sc  Sc16  1  0.332746  0.177344  0.874693  1
  Sc  Sc17  1  0.828845  0.323948  0.870451  1
  Sc  Sc18  1  0.170776  0.675444  0.126100  1
  Si  Si19  1  0.043852  0.125614  0.743926  1
  Si  Si20  1  0.963015  0.878742  0.252522  1
  Si  Si21  1  0.466122  0.622741  0.251484  1
  Si  Si22  1  0.529936  0.367990  0.744319  1
  Si  Si23  1  0.289255  0.889422  0.744820  1
  Si  Si24  1  0.709873  0.121064  0.251924  1
  Si  Si25  1  0.215185  0.379104  0.251472  1
  Si  Si26  1  0.786660  0.619405  0.745478  1
  Si  Si27  1  0.173392  0.449159  0.542316  1
  Si  Si28  1  0.845239  0.533633  0.460116  1
  Si  Si29  1  0.336903  0.969636  0.471253  1
  Si  Si30  1  0.847275  0.536394  0.038945  1
  Si  Si31  1  0.642542  0.037447  0.546176  1
  Si  Si32  1  0.149766  0.464326  0.958867  1
  Si  Si33  1  0.655674  0.038961  0.958415  1
  Si  Si34  1  0.347156  0.962865  0.039171  1
  W  W35  1  0.332083  0.175630  0.627858  1
