# generated using pymatgen
data_ErTmRe3Tc
_symmetry_space_group_name_H-M   'P 1'
_cell_length_a   5.36306200
_cell_length_b   5.36306119
_cell_length_c   8.90750500
_cell_angle_alpha   90.00000000
_cell_angle_beta   90.00000000
_cell_angle_gamma   120.00000499
_symmetry_Int_Tables_number   1
_chemical_formula_structural   ErTmRe3Tc
_chemical_formula_sum   'Er2 Tm2 Re6 Tc2'
_cell_volume   221.87698435
_cell_formula_units_Z   2
loop_
 _symmetry_equiv_pos_site_id
 _symmetry_equiv_pos_as_xyz
  1  'x, y, z'
loop_
 _atom_site_type_symbol
 _atom_site_label
 _atom_site_symmetry_multiplicity
 _atom_site_fract_x
 _atom_site_fract_y
 _atom_site_fract_z
 _atom_site_occupancy
  Er  Er0  1  0.666667  0.333333  0.936688  1
  Er  Er1  1  0.333333  0.666667  0.063312  1
  Tm  Tm2  1  0.333333  0.666667  0.436774  1
  Tm  Tm3  1  0.666667  0.333333  0.563226  1
  Re  Re4  1  0.828325  0.171675  0.250276  1
  Re  Re5  1  0.828325  0.656652  0.250276  1
  Re  Re6  1  0.343348  0.171675  0.250276  1
  Re  Re7  1  0.171675  0.828325  0.749724  1
  Re  Re8  1  0.171675  0.343348  0.749724  1
  Re  Re9  1  0.656652  0.828325  0.749724  1
  Tc  Tc10  1  0.000000  0.000000  0.500000  1
  Tc  Tc11  1  0.000000  0.000000  0.000000  1
