# generated using pymatgen
data_Ho6Lu4InSn5
_symmetry_space_group_name_H-M   'P 1'
_cell_length_a   8.87622861
_cell_length_b   8.87622898
_cell_length_c   6.47540400
_cell_angle_alpha   90.00000000
_cell_angle_beta   90.00000000
_cell_angle_gamma   119.95738108
_symmetry_Int_Tables_number   1
_chemical_formula_structural   Ho6Lu4InSn5
_chemical_formula_sum   'Ho6 Lu4 In1 Sn5'
_cell_volume   442.01888792
_cell_formula_units_Z   1
loop_
 _symmetry_equiv_pos_site_id
 _symmetry_equiv_pos_as_xyz
  1  'x, y, z'
loop_
 _atom_site_type_symbol
 _atom_site_label
 _atom_site_symmetry_multiplicity
 _atom_site_fract_x
 _atom_site_fract_y
 _atom_site_fract_z
 _atom_site_occupancy
  Ho  Ho0  1  0.760790  0.760790  0.750000  1
  Ho  Ho1  1  0.239448  0.001395  0.750000  1
  Ho  Ho2  1  0.001395  0.239448  0.750000  1
  Ho  Ho3  1  0.238627  0.238627  0.250000  1
  Ho  Ho4  1  0.761035  0.999872  0.250000  1
  Ho  Ho5  1  0.999872  0.761035  0.250000  1
  Lu  Lu6  1  0.666286  0.333291  0.999037  1
  Lu  Lu7  1  0.333291  0.666286  0.999037  1
  Lu  Lu8  1  0.333291  0.666286  0.500963  1
  Lu  Lu9  1  0.666286  0.333291  0.500963  1
  In  In10  1  0.397005  0.397005  0.750000  1
  Sn  Sn11  1  0.603825  0.000003  0.750000  1
  Sn  Sn12  1  0.000003  0.603825  0.750000  1
  Sn  Sn13  1  0.603457  0.603457  0.250000  1
  Sn  Sn14  1  0.396072  0.999317  0.250000  1
  Sn  Sn15  1  0.999317  0.396072  0.250000  1
