# generated using pymatgen
data_Yb3Gd5Np4O24
_symmetry_space_group_name_H-M   'P 1'
_cell_length_a   5.54941700
_cell_length_b   7.85449979
_cell_length_c   11.79433700
_cell_angle_alpha   74.21302494
_cell_angle_beta   90.00000000
_cell_angle_gamma   90.00000000
_symmetry_Int_Tables_number   1
_chemical_formula_structural   Yb3Gd5Np4O24
_chemical_formula_sum   'Yb3 Gd5 Np4 O24'
_cell_volume   494.69876269
_cell_formula_units_Z   1
loop_
 _symmetry_equiv_pos_site_id
 _symmetry_equiv_pos_as_xyz
  1  'x, y, z'
loop_
 _atom_site_type_symbol
 _atom_site_label
 _atom_site_symmetry_multiplicity
 _atom_site_fract_x
 _atom_site_fract_y
 _atom_site_fract_z
 _atom_site_occupancy
  Yb  Yb0  1  0.305563  0.500000  0.750000  1
  Yb  Yb1  1  0.744473  0.000000  0.250000  1
  Yb  Yb2  1  0.256422  0.000000  0.750000  1
  Gd  Gd3  1  0.185022  0.204110  0.420520  1
  Gd  Gd4  1  0.185022  0.795890  0.079480  1
  Gd  Gd5  1  0.814521  0.793543  0.579048  1
  Gd  Gd6  1  0.814521  0.206457  0.920952  1
  Gd  Gd7  1  0.694762  0.500000  0.250000  1
  Np  Np8  1  0.256082  0.276681  0.114340  1
  Np  Np9  1  0.256082  0.723319  0.385660  1
  Np  Np10  1  0.744550  0.723697  0.883396  1
  Np  Np11  1  0.744550  0.276303  0.616604  1
  O  O12  1  0.449524  0.203060  0.269817  1
  O  O13  1  0.449524  0.796940  0.230183  1
  O  O14  1  0.552237  0.799208  0.729214  1
  O  O15  1  0.552237  0.200792  0.770786  1
  O  O16  1  0.044434  0.060660  0.102369  1
  O  O17  1  0.044434  0.939340  0.397631  1
  O  O18  1  0.954079  0.938396  0.897120  1
  O  O19  1  0.954079  0.061604  0.602880  1
  O  O20  1  0.974643  0.291475  0.231507  1
  O  O21  1  0.974643  0.708525  0.268493  1
  O  O22  1  0.018738  0.708648  0.770862  1
  O  O23  1  0.018738  0.291352  0.729138  1
  O  O24  1  0.869916  0.372854  0.447860  1
  O  O25  1  0.869916  0.627146  0.052140  1
  O  O26  1  0.129355  0.626367  0.550239  1
  O  O27  1  0.129355  0.373633  0.949761  1
  O  O28  1  0.618037  0.513683  0.614255  1
  O  O29  1  0.618037  0.486317  0.885745  1
  O  O30  1  0.386359  0.482057  0.385351  1
  O  O31  1  0.386359  0.517943  0.114649  1
  O  O32  1  0.462040  0.153910  0.566744  1
  O  O33  1  0.462040  0.846090  0.933256  1
  O  O34  1  0.539852  0.848609  0.434656  1
  O  O35  1  0.539852  0.151391  0.065344  1
