# generated using pymatgen
data_Dy8Tm12Si15Pb
_symmetry_space_group_name_H-M   'P 1'
_cell_length_a   7.66268676
_cell_length_b   7.64241988
_cell_length_c   13.88709800
_cell_angle_alpha   89.96854228
_cell_angle_beta   89.56115625
_cell_angle_gamma   89.81270474
_symmetry_Int_Tables_number   1
_chemical_formula_structural   Dy8Tm12Si15Pb
_chemical_formula_sum   'Dy8 Tm12 Si15 Pb1'
_cell_volume   813.22055732
_cell_formula_units_Z   1
loop_
 _symmetry_equiv_pos_site_id
 _symmetry_equiv_pos_as_xyz
  1  'x, y, z'
loop_
 _atom_site_type_symbol
 _atom_site_label
 _atom_site_symmetry_multiplicity
 _atom_site_fract_x
 _atom_site_fract_y
 _atom_site_fract_z
 _atom_site_occupancy
  Dy  Dy0  1  0.356135  0.002195  0.456640  1
  Dy  Dy1  1  0.504483  0.846824  0.713243  1
  Dy  Dy2  1  0.503473  0.146956  0.211304  1
  Dy  Dy3  1  0.851659  0.496967  0.286976  1
  Dy  Dy4  1  0.145259  0.512211  0.792117  1
  Dy  Dy5  1  0.649160  0.995098  0.964055  1
  Dy  Dy6  1  0.990734  0.363858  0.532375  1
  Dy  Dy7  1  0.996747  0.646713  0.039550  1
  Tm  Tm8  1  0.321610  0.320881  0.001147  1
  Tm  Tm9  1  0.177895  0.820308  0.249212  1
  Tm  Tm10  1  0.814370  0.175484  0.752815  1
  Tm  Tm11  1  0.675519  0.679577  0.497752  1
  Tm  Tm12  1  0.144836  0.995808  0.877797  1
  Tm  Tm13  1  0.505433  0.641878  0.124793  1
  Tm  Tm14  1  0.505950  0.363756  0.624603  1
  Tm  Tm15  1  0.645556  0.507018  0.878780  1
  Tm  Tm16  1  0.355180  0.495542  0.375704  1
  Tm  Tm17  1  0.855799  0.006919  0.373151  1
  Tm  Tm18  1  0.995334  0.142418  0.126343  1
  Tm  Tm19  1  0.992096  0.840771  0.623880  1
  Si  Si20  1  0.354038  0.706914  0.934375  1
  Si  Si21  1  0.644900  0.294766  0.430144  1
  Si  Si22  1  0.708972  0.352758  0.069290  1
  Si  Si23  1  0.295013  0.649223  0.567872  1
  Si  Si24  1  0.792185  0.853055  0.181713  1
  Si  Si25  1  0.146747  0.207981  0.316359  1
  Si  Si26  1  0.855691  0.794703  0.820918  1
  Si  Si27  1  0.297495  0.943599  0.063535  1
  Si  Si28  1  0.554962  0.796680  0.311394  1
  Si  Si29  1  0.455165  0.203961  0.818624  1
  Si  Si30  1  0.797515  0.551108  0.688485  1
  Si  Si31  1  0.203371  0.443384  0.187805  1
  Si  Si32  1  0.701702  0.054104  0.562796  1
  Si  Si33  1  0.947211  0.297800  0.938300  1
  Si  Si34  1  0.054565  0.706266  0.434975  1
  Pb  Pb35  1  0.203240  0.142519  0.671183  1
