# generated using pymatgen
data_Ta2SiRu3Rh2
_symmetry_space_group_name_H-M   'P 1'
_cell_length_a   4.06315300
_cell_length_b   5.41873300
_cell_length_c   10.65309300
_cell_angle_alpha   90.00000000
_cell_angle_beta   90.00000000
_cell_angle_gamma   90.00000000
_symmetry_Int_Tables_number   1
_chemical_formula_structural   Ta2SiRu3Rh2
_chemical_formula_sum   'Ta4 Si2 Ru6 Rh4'
_cell_volume   234.55065328
_cell_formula_units_Z   2
loop_
 _symmetry_equiv_pos_site_id
 _symmetry_equiv_pos_as_xyz
  1  'x, y, z'
loop_
 _atom_site_type_symbol
 _atom_site_label
 _atom_site_symmetry_multiplicity
 _atom_site_fract_x
 _atom_site_fract_y
 _atom_site_fract_z
 _atom_site_occupancy
  Ta  Ta0  1  0.500000  0.833328  0.362721  1
  Ta  Ta1  1  0.500000  0.166672  0.637279  1
  Ta  Ta2  1  0.500000  0.333328  0.137279  1
  Ta  Ta3  1  0.500000  0.666672  0.862721  1
  Si  Si4  1  0.000000  0.500000  0.500000  1
  Si  Si5  1  0.000000  0.000000  0.000000  1
  Ru  Ru6  1  0.000000  0.500000  0.000000  1
  Ru  Ru7  1  0.000000  0.000000  0.500000  1
  Ru  Ru8  1  0.500000  0.824680  0.105887  1
  Ru  Ru9  1  0.500000  0.175320  0.894113  1
  Ru  Ru10  1  0.500000  0.324680  0.394113  1
  Ru  Ru11  1  0.500000  0.675320  0.605887  1
  Rh  Rh12  1  0.000000  0.583067  0.254843  1
  Rh  Rh13  1  0.000000  0.416933  0.745157  1
  Rh  Rh14  1  0.000000  0.083067  0.245157  1
  Rh  Rh15  1  0.000000  0.916933  0.754843  1
