# generated using pymatgen
data_Ti9Ag(Sn3Mo)3
_symmetry_space_group_name_H-M   'P 1'
_cell_length_a   9.26312200
_cell_length_b   9.26312253
_cell_length_c   5.61025000
_cell_angle_alpha   90.00000000
_cell_angle_beta   90.00000000
_cell_angle_gamma   120.00000526
_symmetry_Int_Tables_number   1
_chemical_formula_structural   Ti9Ag(Sn3Mo)3
_chemical_formula_sum   'Ti9 Ag1 Sn9 Mo3'
_cell_volume   416.89589194
_cell_formula_units_Z   1
loop_
 _symmetry_equiv_pos_site_id
 _symmetry_equiv_pos_as_xyz
  1  'x, y, z'
loop_
 _atom_site_type_symbol
 _atom_site_label
 _atom_site_symmetry_multiplicity
 _atom_site_fract_x
 _atom_site_fract_y
 _atom_site_fract_z
 _atom_site_occupancy
  Ti  Ti0  1  0.842877  0.685753  0.761719  1
  Ti  Ti1  1  0.157123  0.842877  0.238281  1
  Ti  Ti2  1  0.685753  0.842877  0.238281  1
  Ti  Ti3  1  0.314247  0.157123  0.761719  1
  Ti  Ti4  1  0.842877  0.157123  0.761719  1
  Ti  Ti5  1  0.157123  0.314247  0.238281  1
  Ti  Ti6  1  0.500000  0.000000  0.500000  1
  Ti  Ti7  1  0.000000  0.500000  0.500000  1
  Ti  Ti8  1  0.500000  0.500000  0.500000  1
  Ag  Ag9  1  0.000000  0.000000  0.500000  1
  Sn  Sn10  1  0.201588  0.403176  0.742331  1
  Sn  Sn11  1  0.798412  0.201588  0.257669  1
  Sn  Sn12  1  0.403176  0.201588  0.257669  1
  Sn  Sn13  1  0.596824  0.798412  0.742331  1
  Sn  Sn14  1  0.201588  0.798412  0.742331  1
  Sn  Sn15  1  0.798412  0.596824  0.257669  1
  Sn  Sn16  1  0.666667  0.333333  0.773001  1
  Sn  Sn17  1  0.333333  0.666667  0.226999  1
  Sn  Sn18  1  0.000000  0.000000  0.000000  1
  Mo  Mo19  1  0.500000  0.500000  0.000000  1
  Mo  Mo20  1  0.000000  0.500000  0.000000  1
  Mo  Mo21  1  0.500000  0.000000  0.000000  1
