# generated using pymatgen
data_Tb5ReTcO12
_symmetry_space_group_name_H-M   'P 1'
_cell_length_a   6.88486928
_cell_length_b   6.88486923
_cell_length_c   7.56559500
_cell_angle_alpha   73.74878790
_cell_angle_beta   73.74878803
_cell_angle_gamma   48.80562677
_symmetry_Int_Tables_number   1
_chemical_formula_structural   Tb5ReTcO12
_chemical_formula_sum   'Tb5 Re1 Tc1 O12'
_cell_volume   256.79646157
_cell_formula_units_Z   1
loop_
 _symmetry_equiv_pos_site_id
 _symmetry_equiv_pos_as_xyz
  1  'x, y, z'
loop_
 _atom_site_type_symbol
 _atom_site_label
 _atom_site_symmetry_multiplicity
 _atom_site_fract_x
 _atom_site_fract_y
 _atom_site_fract_z
 _atom_site_occupancy
  Tb  Tb0  1  0.706842  0.684481  0.642206  1
  Tb  Tb1  1  0.315519  0.293158  0.357794  1
  Tb  Tb2  1  0.688343  0.681904  0.174956  1
  Tb  Tb3  1  0.318096  0.311657  0.825044  1
  Tb  Tb4  1  0.010737  0.989263  0.500000  1
  Re  Re5  1  0.204186  0.795814  0.000000  1
  Tc  Tc6  1  0.774706  0.225294  0.000000  1
  O  O7  1  0.000671  0.002285  0.204649  1
  O  O8  1  0.997715  0.999329  0.795351  1
  O  O9  1  0.575487  0.087884  0.083136  1
  O  O10  1  0.403922  0.915197  0.916575  1
  O  O11  1  0.912116  0.424513  0.916864  1
  O  O12  1  0.084803  0.596078  0.083425  1
  O  O13  1  0.486357  0.511669  0.176818  1
  O  O14  1  0.488331  0.513643  0.823182  1
  O  O15  1  0.412526  0.892873  0.428749  1
  O  O16  1  0.599998  0.087484  0.577519  1
  O  O17  1  0.107127  0.587474  0.571251  1
  O  O18  1  0.912516  0.400002  0.422481  1
