# generated using pymatgen
data_Dy6ErS8
_symmetry_space_group_name_H-M   'P 1'
_cell_length_a   7.80593900
_cell_length_b   7.80067530
_cell_length_c   7.80593900
_cell_angle_alpha   119.97933631
_cell_angle_beta   90.08698666
_cell_angle_gamma   119.96480098
_symmetry_Int_Tables_number   1
_chemical_formula_structural   Dy6ErS8
_chemical_formula_sum   'Dy6 Er1 S8'
_cell_volume   336.12745001
_cell_formula_units_Z   1
loop_
 _symmetry_equiv_pos_site_id
 _symmetry_equiv_pos_as_xyz
  1  'x, y, z'
loop_
 _atom_site_type_symbol
 _atom_site_label
 _atom_site_symmetry_multiplicity
 _atom_site_fract_x
 _atom_site_fract_y
 _atom_site_fract_z
 _atom_site_occupancy
  Dy  Dy0  1  0.249913  0.000003  0.249908  1
  Dy  Dy1  1  0.249916  0.499833  0.249935  1
  Dy  Dy2  1  0.750099  0.000019  0.249935  1
  Dy  Dy3  1  0.249920  0.999988  0.750084  1
  Dy  Dy4  1  0.750084  0.999985  0.750081  1
  Dy  Dy5  1  0.750095  0.500168  0.750068  1
  Er  Er6  1  0.249952  0.499998  0.749963  1
  S  S7  1  0.000001  0.000015  0.000029  1
  S  S8  1  0.500034  0.000005  0.499997  1
  S  S9  1  0.000592  0.001245  0.500631  1
  S  S10  1  0.000579  0.499951  0.500553  1
  S  S11  1  0.499151  0.500013  0.500856  1
  S  S12  1  0.000875  0.499998  0.999168  1
  S  S13  1  0.499371  0.500038  0.999410  1
  S  S14  1  0.499421  0.998744  0.999392  1
