# generated using pymatgen
data_Ho3Al12Ir3Os
_symmetry_space_group_name_H-M   'P 1'
_cell_length_a   8.83411200
_cell_length_b   8.83411251
_cell_length_c   9.48195600
_cell_angle_alpha   90.00000000
_cell_angle_beta   90.00000000
_cell_angle_gamma   119.99999809
_symmetry_Int_Tables_number   1
_chemical_formula_structural   Ho3Al12Ir3Os
_chemical_formula_sum   'Ho6 Al24 Ir6 Os2'
_cell_volume   640.84706961
_cell_formula_units_Z   2
loop_
 _symmetry_equiv_pos_site_id
 _symmetry_equiv_pos_as_xyz
  1  'x, y, z'
loop_
 _atom_site_type_symbol
 _atom_site_label
 _atom_site_symmetry_multiplicity
 _atom_site_fract_x
 _atom_site_fract_y
 _atom_site_fract_z
 _atom_site_occupancy
  Ho  Ho0  1  0.192472  0.384945  0.250000  1
  Ho  Ho1  1  0.807528  0.615055  0.750000  1
  Ho  Ho2  1  0.615055  0.807528  0.250000  1
  Ho  Ho3  1  0.384945  0.192472  0.750000  1
  Ho  Ho4  1  0.192472  0.807528  0.250000  1
  Ho  Ho5  1  0.807528  0.192472  0.750000  1
  Al  Al6  1  0.333333  0.666667  0.030665  1
  Al  Al7  1  0.666667  0.333333  0.969335  1
  Al  Al8  1  0.666667  0.333333  0.530665  1
  Al  Al9  1  0.333333  0.666667  0.469335  1
  Al  Al10  1  0.163534  0.327067  0.574992  1
  Al  Al11  1  0.836466  0.672933  0.425008  1
  Al  Al12  1  0.672933  0.836466  0.574992  1
  Al  Al13  1  0.836466  0.672933  0.074992  1
  Al  Al14  1  0.327067  0.163534  0.425008  1
  Al  Al15  1  0.163534  0.327067  0.925008  1
  Al  Al16  1  0.163534  0.836466  0.574992  1
  Al  Al17  1  0.327067  0.163534  0.074992  1
  Al  Al18  1  0.836466  0.163534  0.425008  1
  Al  Al19  1  0.672933  0.836466  0.925008  1
  Al  Al20  1  0.836466  0.163534  0.074992  1
  Al  Al21  1  0.163534  0.836466  0.925008  1
  Al  Al22  1  0.562007  0.124014  0.250000  1
  Al  Al23  1  0.437993  0.875986  0.750000  1
  Al  Al24  1  0.875986  0.437993  0.250000  1
  Al  Al25  1  0.124014  0.562007  0.750000  1
  Al  Al26  1  0.562007  0.437993  0.250000  1
  Al  Al27  1  0.437993  0.562007  0.750000  1
  Al  Al28  1  0.000000  0.000000  0.250000  1
  Al  Al29  1  0.000000  0.000000  0.750000  1
  Ir  Ir30  1  0.500000  0.000000  0.000000  1
  Ir  Ir31  1  0.000000  0.500000  0.000000  1
  Ir  Ir32  1  0.500000  0.000000  0.500000  1
  Ir  Ir33  1  0.500000  0.500000  0.000000  1
  Ir  Ir34  1  0.000000  0.500000  0.500000  1
  Ir  Ir35  1  0.500000  0.500000  0.500000  1
  Os  Os36  1  0.000000  0.000000  0.000000  1
  Os  Os37  1  0.000000  0.000000  0.500000  1
