# generated using pymatgen
data_PrNdLu2(B6Os)2
_symmetry_space_group_name_H-M   'P 1'
_cell_length_a   3.67733100
_cell_length_b   9.18360000
_cell_length_c   11.63193600
_cell_angle_alpha   90.00319310
_cell_angle_beta   90.00000000
_cell_angle_gamma   90.00000000
_symmetry_Int_Tables_number   1
_chemical_formula_structural   PrNdLu2(B6Os)2
_chemical_formula_sum   'Pr2 Nd2 Lu4 B24 Os4'
_cell_volume   392.82370360
_cell_formula_units_Z   2
loop_
 _symmetry_equiv_pos_site_id
 _symmetry_equiv_pos_as_xyz
  1  'x, y, z'
loop_
 _atom_site_type_symbol
 _atom_site_label
 _atom_site_symmetry_multiplicity
 _atom_site_fract_x
 _atom_site_fract_y
 _atom_site_fract_z
 _atom_site_occupancy
  Pr  Pr0  1  0.000000  0.322106  0.414360  1
  Pr  Pr1  1  0.000000  0.677894  0.585640  1
  Nd  Nd2  1  0.000000  0.822085  0.085479  1
  Nd  Nd3  1  0.000000  0.177915  0.914521  1
  Lu  Lu4  1  0.000000  0.944769  0.372733  1
  Lu  Lu5  1  0.000000  0.055231  0.627267  1
  Lu  Lu6  1  0.000000  0.444721  0.126944  1
  Lu  Lu7  1  0.000000  0.555279  0.873056  1
  B  B8  1  0.500000  0.557004  0.429471  1
  B  B9  1  0.500000  0.442996  0.570529  1
  B  B10  1  0.500000  0.056499  0.069775  1
  B  B11  1  0.500000  0.943501  0.930225  1
  B  B12  1  0.500000  0.751220  0.416661  1
  B  B13  1  0.500000  0.248780  0.583339  1
  B  B14  1  0.500000  0.250957  0.082710  1
  B  B15  1  0.500000  0.749043  0.917290  1
  B  B16  1  0.500000  0.791907  0.266459  1
  B  B17  1  0.500000  0.208093  0.733540  1
  B  B18  1  0.500000  0.291486  0.232827  1
  B  B19  1  0.500000  0.708514  0.767174  1
  B  B20  1  0.500000  0.630286  0.184464  1
  B  B21  1  0.500000  0.369714  0.815536  1
  B  B22  1  0.500000  0.129823  0.314941  1
  B  B23  1  0.500000  0.870177  0.685059  1
  B  B24  1  0.500000  0.984787  0.214678  1
  B  B25  1  0.500000  0.015213  0.785322  1
  B  B26  1  0.500000  0.485338  0.284788  1
  B  B27  1  0.500000  0.514662  0.715212  1
  B  B28  1  0.500000  0.600896  0.027420  1
  B  B29  1  0.500000  0.399104  0.972580  1
  B  B30  1  0.500000  0.100129  0.472758  1
  B  B31  1  0.500000  0.899871  0.527242  1
  Os  Os32  1  0.000000  0.640375  0.318161  1
  Os  Os33  1  0.000000  0.359625  0.681839  1
  Os  Os34  1  0.000000  0.139672  0.181014  1
  Os  Os35  1  0.000000  0.860328  0.818986  1
