# generated using pymatgen
data_CsZrScSe4
_symmetry_space_group_name_H-M   'P 1'
_cell_length_a   3.94850300
_cell_length_b   6.67102771
_cell_length_c   9.01741045
_cell_angle_alpha   75.74433665
_cell_angle_beta   90.00000000
_cell_angle_gamma   90.00000000
_symmetry_Int_Tables_number   1
_chemical_formula_structural   CsZrScSe4
_chemical_formula_sum   'Cs1 Zr1 Sc1 Se4'
_cell_volume   230.20958726
_cell_formula_units_Z   1
loop_
 _symmetry_equiv_pos_site_id
 _symmetry_equiv_pos_as_xyz
  1  'x, y, z'
loop_
 _atom_site_type_symbol
 _atom_site_label
 _atom_site_symmetry_multiplicity
 _atom_site_fract_x
 _atom_site_fract_y
 _atom_site_fract_z
 _atom_site_occupancy
  Cs  Cs0  1  0.000000  0.500000  0.500000  1
  Zr  Zr1  1  0.000000  0.000000  0.000000  1
  Sc  Sc2  1  0.500000  0.500000  0.000000  1
  Se  Se3  1  0.500000  0.779585  0.177273  1
  Se  Se4  1  0.000000  0.273175  0.173975  1
  Se  Se5  1  0.500000  0.220415  0.822727  1
  Se  Se6  1  0.000000  0.726825  0.826025  1
