# generated using pymatgen
data_HoCrFe(PRh)3
_symmetry_space_group_name_H-M   'P 1'
_cell_length_a   3.79875800
_cell_length_b   10.66160000
_cell_length_c   12.43041400
_cell_angle_alpha   90.00000000
_cell_angle_beta   90.00000000
_cell_angle_gamma   90.00000000
_symmetry_Int_Tables_number   1
_chemical_formula_structural   HoCrFe(PRh)3
_chemical_formula_sum   'Ho4 Cr4 Fe4 P12 Rh12'
_cell_volume   503.44218733
_cell_formula_units_Z   4
loop_
 _symmetry_equiv_pos_site_id
 _symmetry_equiv_pos_as_xyz
  1  'x, y, z'
loop_
 _atom_site_type_symbol
 _atom_site_label
 _atom_site_symmetry_multiplicity
 _atom_site_fract_x
 _atom_site_fract_y
 _atom_site_fract_z
 _atom_site_occupancy
  Ho  Ho0  1  0.250000  0.581446  0.709803  1
  Ho  Ho1  1  0.250000  0.918554  0.209803  1
  Ho  Ho2  1  0.750000  0.418554  0.290197  1
  Ho  Ho3  1  0.750000  0.081446  0.790197  1
  Cr  Cr4  1  0.250000  0.703439  0.988718  1
  Cr  Cr5  1  0.250000  0.796561  0.488718  1
  Cr  Cr6  1  0.750000  0.296561  0.011282  1
  Cr  Cr7  1  0.750000  0.203439  0.511282  1
  Fe  Fe8  1  0.250000  0.463443  0.936204  1
  Fe  Fe9  1  0.250000  0.036557  0.436204  1
  Fe  Fe10  1  0.750000  0.536557  0.063796  1
  Fe  Fe11  1  0.750000  0.963443  0.563796  1
  P  P12  1  0.250000  0.425748  0.105815  1
  P  P13  1  0.250000  0.074252  0.605815  1
  P  P14  1  0.750000  0.574252  0.894185  1
  P  P15  1  0.750000  0.925748  0.394185  1
  P  P16  1  0.250000  0.270196  0.871357  1
  P  P17  1  0.250000  0.229804  0.371357  1
  P  P18  1  0.750000  0.729804  0.128643  1
  P  P19  1  0.750000  0.770196  0.628643  1
  P  P20  1  0.250000  0.602468  0.391020  1
  P  P21  1  0.250000  0.897532  0.891020  1
  P  P22  1  0.750000  0.397532  0.608980  1
  P  P23  1  0.750000  0.102468  0.108980  1
  Rh  Rh24  1  0.250000  0.404659  0.483889  1
  Rh  Rh25  1  0.250000  0.095341  0.983889  1
  Rh  Rh26  1  0.750000  0.595341  0.516111  1
  Rh  Rh27  1  0.750000  0.904659  0.016111  1
  Rh  Rh28  1  0.250000  0.229939  0.176288  1
  Rh  Rh29  1  0.250000  0.270061  0.676288  1
  Rh  Rh30  1  0.750000  0.770061  0.823712  1
  Rh  Rh31  1  0.750000  0.729939  0.323712  1
  Rh  Rh32  1  0.250000  0.884603  0.699103  1
  Rh  Rh33  1  0.250000  0.615397  0.199103  1
  Rh  Rh34  1  0.750000  0.115397  0.300897  1
  Rh  Rh35  1  0.750000  0.384603  0.800897  1
