# generated using pymatgen
data_Pr4Zr3OsF28
_symmetry_space_group_name_H-M   'P 1'
_cell_length_a   5.84697999
_cell_length_b   9.37745015
_cell_length_c   12.59118447
_cell_angle_alpha   62.19009493
_cell_angle_beta   89.99306174
_cell_angle_gamma   89.77654522
_symmetry_Int_Tables_number   1
_chemical_formula_structural   Pr4Zr3OsF28
_chemical_formula_sum   'Pr4 Zr3 Os1 F28'
_cell_volume   610.62819917
_cell_formula_units_Z   1
loop_
 _symmetry_equiv_pos_site_id
 _symmetry_equiv_pos_as_xyz
  1  'x, y, z'
loop_
 _atom_site_type_symbol
 _atom_site_label
 _atom_site_symmetry_multiplicity
 _atom_site_fract_x
 _atom_site_fract_y
 _atom_site_fract_z
 _atom_site_occupancy
  Pr  Pr0  1  0.758283  0.812683  0.765820  1
  Pr  Pr1  1  0.255756  0.188477  0.729957  1
  Pr  Pr2  1  0.241166  0.188928  0.238926  1
  Pr  Pr3  1  0.743194  0.813252  0.265873  1
  Zr  Zr4  1  0.753874  0.273561  0.957106  1
  Zr  Zr5  1  0.254891  0.725606  0.543028  1
  Zr  Zr6  1  0.245958  0.726559  0.043300  1
  Os  Os7  1  0.742883  0.273830  0.456168  1
  F  F8  1  0.454487  0.710304  0.919736  1
  F  F9  1  0.937966  0.288337  0.581016  1
  F  F10  1  0.542748  0.287847  0.080643  1
  F  F11  1  0.047515  0.711227  0.418522  1
  F  F12  1  0.459656  0.280852  0.542767  1
  F  F13  1  0.954656  0.720403  0.953923  1
  F  F14  1  0.545865  0.716474  0.454934  1
  F  F15  1  0.041525  0.278758  0.049017  1
  F  F16  1  0.771564  0.519017  0.861635  1
  F  F17  1  0.267473  0.480880  0.638142  1
  F  F18  1  0.226443  0.481896  0.139303  1
  F  F19  1  0.734946  0.506592  0.363704  1
  F  F20  1  0.760022  0.028487  0.056987  1
  F  F21  1  0.262945  0.970061  0.445860  1
  F  F22  1  0.238717  0.970397  0.941630  1
  F  F23  1  0.742229  0.041588  0.547318  1
  F  F24  1  0.976258  0.733639  0.638069  1
  F  F25  1  0.481092  0.267925  0.857860  1
  F  F26  1  0.020637  0.269929  0.365891  1
  F  F27  1  0.522182  0.729871  0.141458  1
  F  F28  1  0.047077  0.746310  0.170119  1
  F  F29  1  0.551588  0.258878  0.330054  1
  F  F30  1  0.957993  0.254378  0.831512  1
  F  F31  1  0.455667  0.745898  0.669188  1
  F  F32  1  0.415357  0.968975  0.234570  1
  F  F33  1  0.915994  0.030288  0.269592  1
  F  F34  1  0.584705  0.031389  0.766926  1
  F  F35  1  0.086687  0.966505  0.729447  1
