# generated using pymatgen
data_Tm12Os3Ru
_symmetry_space_group_name_H-M   'P 1'
_cell_length_a   7.33711910
_cell_length_b   8.93519200
_cell_length_c   6.23011278
_cell_angle_alpha   90.00000000
_cell_angle_beta   89.91327089
_cell_angle_gamma   90.00000000
_symmetry_Int_Tables_number   1
_chemical_formula_structural   Tm12Os3Ru
_chemical_formula_sum   'Tm12 Os3 Ru1'
_cell_volume   408.43680406
_cell_formula_units_Z   1
loop_
 _symmetry_equiv_pos_site_id
 _symmetry_equiv_pos_as_xyz
  1  'x, y, z'
loop_
 _atom_site_type_symbol
 _atom_site_label
 _atom_site_symmetry_multiplicity
 _atom_site_fract_x
 _atom_site_fract_y
 _atom_site_fract_z
 _atom_site_occupancy
  Tm  Tm0  1  0.040866  0.250000  0.630371  1
  Tm  Tm1  1  0.960081  0.750000  0.369389  1
  Tm  Tm2  1  0.460061  0.750000  0.130715  1
  Tm  Tm3  1  0.540084  0.250000  0.868179  1
  Tm  Tm4  1  0.174474  0.062082  0.166447  1
  Tm  Tm5  1  0.825248  0.937526  0.832715  1
  Tm  Tm6  1  0.324828  0.936555  0.668100  1
  Tm  Tm7  1  0.825248  0.562474  0.832715  1
  Tm  Tm8  1  0.675104  0.062466  0.333129  1
  Tm  Tm9  1  0.174474  0.437918  0.166447  1
  Tm  Tm10  1  0.675104  0.437534  0.333129  1
  Tm  Tm11  1  0.324828  0.563445  0.668100  1
  Os  Os12  1  0.616755  0.750000  0.538816  1
  Os  Os13  1  0.117227  0.750000  0.960831  1
  Os  Os14  1  0.882656  0.250000  0.039074  1
  Ru  Ru15  1  0.382962  0.250000  0.461845  1
