# generated using pymatgen
data_Nd3Er(AuCl6)4
_symmetry_space_group_name_H-M   'P 1'
_cell_length_a   8.04767051
_cell_length_b   10.00239085
_cell_length_c   14.25828000
_cell_angle_alpha   102.85419716
_cell_angle_beta   97.23333747
_cell_angle_gamma   113.01207547
_symmetry_Int_Tables_number   1
_chemical_formula_structural   Nd3Er(AuCl6)4
_chemical_formula_sum   'Nd3 Er1 Au4 Cl24'
_cell_volume   1000.52507008
_cell_formula_units_Z   1
loop_
 _symmetry_equiv_pos_site_id
 _symmetry_equiv_pos_as_xyz
  1  'x, y, z'
loop_
 _atom_site_type_symbol
 _atom_site_label
 _atom_site_symmetry_multiplicity
 _atom_site_fract_x
 _atom_site_fract_y
 _atom_site_fract_z
 _atom_site_occupancy
  Nd  Nd0  1  0.577534  0.926358  0.623460  1
  Nd  Nd1  1  0.420798  0.072184  0.375186  1
  Nd  Nd2  1  0.971331  0.315709  0.873397  1
  Er  Er3  1  0.031040  0.685158  0.128075  1
  Au  Au4  1  0.288940  0.634044  0.763507  1
  Au  Au5  1  0.712366  0.367554  0.235706  1
  Au  Au6  1  0.499667  0.499529  0.499671  1
  Au  Au7  1  0.000095  0.998744  0.001134  1
  Cl  Cl8  1  0.596542  0.731554  0.752069  1
  Cl  Cl9  1  0.404708  0.269487  0.248093  1
  Cl  Cl10  1  0.275318  0.847866  0.733080  1
  Cl  Cl11  1  0.725422  0.153408  0.266927  1
  Cl  Cl12  1  0.979407  0.538023  0.771130  1
  Cl  Cl13  1  0.020552  0.467525  0.225892  1
  Cl  Cl14  1  0.301767  0.416903  0.790206  1
  Cl  Cl15  1  0.705197  0.586044  0.208763  1
  Cl  Cl16  1  0.690442  0.375531  0.503182  1
  Cl  Cl17  1  0.308928  0.623796  0.496441  1
  Cl  Cl18  1  0.755101  0.731767  0.532096  1
  Cl  Cl19  1  0.244019  0.267000  0.467194  1
  Cl  Cl20  1  0.788338  0.100755  0.977520  1
  Cl  Cl21  1  0.206803  0.893076  0.025669  1
  Cl  Cl22  1  0.780120  0.789320  0.030631  1
  Cl  Cl23  1  0.223692  0.207691  0.971511  1
  Cl  Cl24  1  0.619668  0.197967  0.746774  1
  Cl  Cl25  1  0.370930  0.799343  0.250482  1
  Cl  Cl26  1  0.942164  0.058127  0.731620  1
  Cl  Cl27  1  0.056330  0.932863  0.263095  1
  Cl  Cl28  1  0.721157  0.048409  0.481550  1
  Cl  Cl29  1  0.277460  0.950899  0.517333  1
  Cl  Cl30  1  0.774787  0.443097  0.982786  1
  Cl  Cl31  1  0.229377  0.570274  0.025819  1
