# generated using pymatgen
data_Cs3AgSn4
_symmetry_space_group_name_H-M   'P 1'
_cell_length_a   6.87806400
_cell_length_b   7.43054300
_cell_length_c   14.11448000
_cell_angle_alpha   90.00000000
_cell_angle_beta   90.00000000
_cell_angle_gamma   90.00000000
_symmetry_Int_Tables_number   1
_chemical_formula_structural   Cs3AgSn4
_chemical_formula_sum   'Cs6 Ag2 Sn8'
_cell_volume   721.35931958
_cell_formula_units_Z   2
loop_
 _symmetry_equiv_pos_site_id
 _symmetry_equiv_pos_as_xyz
  1  'x, y, z'
loop_
 _atom_site_type_symbol
 _atom_site_label
 _atom_site_symmetry_multiplicity
 _atom_site_fract_x
 _atom_site_fract_y
 _atom_site_fract_z
 _atom_site_occupancy
  Cs  Cs0  1  0.548569  0.000000  0.000000  1
  Cs  Cs1  1  0.451431  0.500000  0.500000  1
  Cs  Cs2  1  0.823504  0.500000  0.744570  1
  Cs  Cs3  1  0.823504  0.500000  0.255430  1
  Cs  Cs4  1  0.176496  0.000000  0.755430  1
  Cs  Cs5  1  0.176496  0.000000  0.244570  1
  Ag  Ag6  1  0.679935  0.500000  0.000000  1
  Ag  Ag7  1  0.320065  0.000000  0.500000  1
  Sn  Sn8  1  0.320905  0.500000  0.889846  1
  Sn  Sn9  1  0.320905  0.500000  0.110154  1
  Sn  Sn10  1  0.036638  0.285978  0.000000  1
  Sn  Sn11  1  0.036638  0.714022  0.000000  1
  Sn  Sn12  1  0.963362  0.785978  0.500000  1
  Sn  Sn13  1  0.963362  0.214022  0.500000  1
  Sn  Sn14  1  0.679095  0.000000  0.389846  1
  Sn  Sn15  1  0.679095  0.000000  0.610154  1
