# generated using pymatgen
data_Ho4(CuPd3)3
_symmetry_space_group_name_H-M   'P 1'
_cell_length_a   7.05615795
_cell_length_b   7.05615766
_cell_length_c   7.05615700
_cell_angle_alpha   107.70221431
_cell_angle_beta   107.70221355
_cell_angle_gamma   113.07030404
_symmetry_Int_Tables_number   1
_chemical_formula_structural   Ho4(CuPd3)3
_chemical_formula_sum   'Ho4 Cu3 Pd9'
_cell_volume   269.64173270
_cell_formula_units_Z   1
loop_
 _symmetry_equiv_pos_site_id
 _symmetry_equiv_pos_as_xyz
  1  'x, y, z'
loop_
 _atom_site_type_symbol
 _atom_site_label
 _atom_site_symmetry_multiplicity
 _atom_site_fract_x
 _atom_site_fract_y
 _atom_site_fract_z
 _atom_site_occupancy
  Ho  Ho0  1  0.244884  0.244948  0.489832  1
  Ho  Ho1  1  0.755116  0.755052  0.510168  1
  Ho  Ho2  1  0.244882  0.755052  0.999936  1
  Ho  Ho3  1  0.755118  0.244948  0.000064  1
  Cu  Cu4  1  0.500000  0.000000  0.500000  1
  Cu  Cu5  1  0.000000  0.500000  0.500000  1
  Cu  Cu6  1  0.500000  0.500000  0.000000  1
  Pd  Pd7  1  0.510194  0.258217  0.251976  1
  Pd  Pd8  1  0.489806  0.741783  0.748024  1
  Pd  Pd9  1  0.006241  0.258217  0.748024  1
  Pd  Pd10  1  0.258229  0.006243  0.748014  1
  Pd  Pd11  1  0.993759  0.741783  0.251976  1
  Pd  Pd12  1  0.741771  0.993757  0.251986  1
  Pd  Pd13  1  0.258228  0.510211  0.251983  1
  Pd  Pd14  1  0.741772  0.489789  0.748017  1
  Pd  Pd15  1  0.000000  0.000000  0.000000  1
