# generated using pymatgen
data_Zn3GaAs(PN2)6
_symmetry_space_group_name_H-M   'P 1'
_cell_length_a   7.17892810
_cell_length_b   7.16801065
_cell_length_c   7.17893001
_cell_angle_alpha   109.44041684
_cell_angle_beta   109.50200987
_cell_angle_gamma   109.44042023
_symmetry_Int_Tables_number   1
_chemical_formula_structural   Zn3GaAs(PN2)6
_chemical_formula_sum   'Zn3 Ga1 As1 P6 N12'
_cell_volume   284.48606626
_cell_formula_units_Z   1
loop_
 _symmetry_equiv_pos_site_id
 _symmetry_equiv_pos_as_xyz
  1  'x, y, z'
loop_
 _atom_site_type_symbol
 _atom_site_label
 _atom_site_symmetry_multiplicity
 _atom_site_fract_x
 _atom_site_fract_y
 _atom_site_fract_z
 _atom_site_occupancy
  Zn  Zn0  1  0.668010  0.669477  0.668010  1
  Zn  Zn1  1  0.331990  0.001467  0.000000  1
  Zn  Zn2  1  0.000000  0.001467  0.331990  1
  Ga  Ga3  1  0.000000  0.342483  0.000000  1
  As  As4  1  0.000000  0.006626  0.000000  1
  P  P5  1  0.750977  0.249051  0.499020  1
  P  P6  1  0.251956  0.750031  0.500980  1
  P  P7  1  0.500980  0.750031  0.251956  1
  P  P8  1  0.499020  0.249051  0.750977  1
  P  P9  1  0.748044  0.498075  0.249023  1
  P  P10  1  0.249023  0.498075  0.748044  1
  N  N11  1  0.558679  0.269590  0.000000  1
  N  N12  1  0.445638  0.445050  0.719572  1
  N  N13  1  0.000000  0.269590  0.558679  1
  N  N14  1  0.273934  0.999412  0.554362  1
  N  N15  1  0.719572  0.445050  0.445638  1
  N  N16  1  0.000000  0.554005  0.267816  1
  N  N17  1  0.554362  0.999412  0.273934  1
  N  N18  1  0.441321  0.710911  0.441321  1
  N  N19  1  0.267816  0.554005  0.000000  1
  N  N20  1  0.732184  0.286189  0.732184  1
  N  N21  1  0.726066  0.725478  0.280428  1
  N  N22  1  0.280428  0.725478  0.726066  1
