# generated using pymatgen
data_SmCo2(PRu)3
_symmetry_space_group_name_H-M   'P 1'
_cell_length_a   3.79551000
_cell_length_b   10.64651000
_cell_length_c   12.14686800
_cell_angle_alpha   90.00000000
_cell_angle_beta   90.00000000
_cell_angle_gamma   90.00000000
_symmetry_Int_Tables_number   1
_chemical_formula_structural   SmCo2(PRu)3
_chemical_formula_sum   'Sm4 Co8 P12 Ru12'
_cell_volume   490.84200153
_cell_formula_units_Z   4
loop_
 _symmetry_equiv_pos_site_id
 _symmetry_equiv_pos_as_xyz
  1  'x, y, z'
loop_
 _atom_site_type_symbol
 _atom_site_label
 _atom_site_symmetry_multiplicity
 _atom_site_fract_x
 _atom_site_fract_y
 _atom_site_fract_z
 _atom_site_occupancy
  Sm  Sm0  1  0.250000  0.584550  0.706677  1
  Sm  Sm1  1  0.250000  0.915450  0.206677  1
  Sm  Sm2  1  0.750000  0.415450  0.293323  1
  Sm  Sm3  1  0.750000  0.084550  0.793323  1
  Co  Co4  1  0.250000  0.887202  0.694952  1
  Co  Co5  1  0.250000  0.612798  0.194952  1
  Co  Co6  1  0.750000  0.112798  0.305048  1
  Co  Co7  1  0.750000  0.387202  0.805048  1
  Co  Co8  1  0.250000  0.463098  0.935337  1
  Co  Co9  1  0.250000  0.036902  0.435337  1
  Co  Co10  1  0.750000  0.536902  0.064663  1
  Co  Co11  1  0.750000  0.963098  0.564663  1
  P  P12  1  0.250000  0.425555  0.111452  1
  P  P13  1  0.250000  0.074445  0.611452  1
  P  P14  1  0.750000  0.574445  0.888548  1
  P  P15  1  0.750000  0.925555  0.388548  1
  P  P16  1  0.250000  0.273513  0.871459  1
  P  P17  1  0.250000  0.226487  0.371459  1
  P  P18  1  0.750000  0.726487  0.128541  1
  P  P19  1  0.750000  0.773513  0.628541  1
  P  P20  1  0.250000  0.602884  0.387884  1
  P  P21  1  0.250000  0.897116  0.887884  1
  P  P22  1  0.750000  0.397116  0.612116  1
  P  P23  1  0.750000  0.102884  0.112116  1
  Ru  Ru24  1  0.250000  0.705723  0.986185  1
  Ru  Ru25  1  0.250000  0.794277  0.486185  1
  Ru  Ru26  1  0.750000  0.294277  0.013815  1
  Ru  Ru27  1  0.750000  0.205723  0.513815  1
  Ru  Ru28  1  0.250000  0.404939  0.486701  1
  Ru  Ru29  1  0.250000  0.095061  0.986701  1
  Ru  Ru30  1  0.750000  0.595061  0.513299  1
  Ru  Ru31  1  0.750000  0.904939  0.013299  1
  Ru  Ru32  1  0.250000  0.223140  0.179859  1
  Ru  Ru33  1  0.250000  0.276860  0.679859  1
  Ru  Ru34  1  0.750000  0.776860  0.820141  1
  Ru  Ru35  1  0.750000  0.723140  0.320141  1
