# generated using pymatgen
data_Nd14Y2Cd4PdRu3
_symmetry_space_group_name_H-M   'P 1'
_cell_length_a   9.95370182
_cell_length_b   9.89949438
_cell_length_c   9.95370139
_cell_angle_alpha   59.67081453
_cell_angle_beta   59.84149328
_cell_angle_gamma   59.67081414
_symmetry_Int_Tables_number   1
_chemical_formula_structural   Nd14Y2Cd4PdRu3
_chemical_formula_sum   'Nd14 Y2 Cd4 Pd1 Ru3'
_cell_volume   689.24023475
_cell_formula_units_Z   1
loop_
 _symmetry_equiv_pos_site_id
 _symmetry_equiv_pos_as_xyz
  1  'x, y, z'
loop_
 _atom_site_type_symbol
 _atom_site_label
 _atom_site_symmetry_multiplicity
 _atom_site_fract_x
 _atom_site_fract_y
 _atom_site_fract_z
 _atom_site_occupancy
  Nd  Nd0  1  0.439888  0.436462  0.060872  1
  Nd  Nd1  1  0.065797  0.056883  0.438461  1
  Nd  Nd2  1  0.438461  0.056883  0.065797  1
  Nd  Nd3  1  0.852160  0.844190  0.852160  1
  Nd  Nd4  1  0.688925  0.318291  0.303784  1
  Nd  Nd5  1  0.060872  0.436462  0.439888  1
  Nd  Nd6  1  0.312432  0.686929  0.688803  1
  Nd  Nd7  1  0.303784  0.318291  0.688925  1
  Nd  Nd8  1  0.854569  0.843250  0.451971  1
  Nd  Nd9  1  0.688803  0.686929  0.312432  1
  Nd  Nd10  1  0.451971  0.843250  0.854569  1
  Nd  Nd11  1  0.061736  0.436139  0.061736  1
  Nd  Nd12  1  0.843181  0.463256  0.843181  1
  Nd  Nd13  1  0.440468  0.055306  0.440468  1
  Y  Y14  1  0.309611  0.688862  0.309611  1
  Y  Y15  1  0.691094  0.314524  0.691094  1
  Cd  Cd16  1  0.081233  0.757700  0.081233  1
  Cd  Cd17  1  0.077723  0.081386  0.760461  1
  Cd  Cd18  1  0.760461  0.081386  0.077723  1
  Cd  Cd19  1  0.079975  0.078833  0.079975  1
  Pd  Pd20  1  0.642942  0.076000  0.642942  1
  Ru  Ru21  1  0.636638  0.645186  0.636638  1
  Ru  Ru22  1  0.637862  0.646802  0.079411  1
  Ru  Ru23  1  0.079411  0.646802  0.637862  1
