# generated using pymatgen
data_Tb7YSc12(Si3Ni)4
_symmetry_space_group_name_H-M   'P 1'
_cell_length_a   6.90710107
_cell_length_b   7.58244708
_cell_length_c   13.90142405
_cell_angle_alpha   90.00728327
_cell_angle_beta   90.00551553
_cell_angle_gamma   89.98480727
_symmetry_Int_Tables_number   1
_chemical_formula_structural   Tb7YSc12(Si3Ni)4
_chemical_formula_sum   'Tb7 Y1 Sc12 Si12 Ni4'
_cell_volume   728.05547020
_cell_formula_units_Z   1
loop_
 _symmetry_equiv_pos_site_id
 _symmetry_equiv_pos_as_xyz
  1  'x, y, z'
loop_
 _atom_site_type_symbol
 _atom_site_label
 _atom_site_symmetry_multiplicity
 _atom_site_fract_x
 _atom_site_fract_y
 _atom_site_fract_z
 _atom_site_occupancy
  Tb  Tb0  1  0.994343  0.819742  0.908764  1
  Tb  Tb1  1  0.494251  0.680779  0.908575  1
  Tb  Tb2  1  0.994299  0.819446  0.591547  1
  Tb  Tb3  1  0.505513  0.319452  0.091627  1
  Tb  Tb4  1  0.005645  0.180416  0.408601  1
  Tb  Tb5  1  0.505699  0.319270  0.408386  1
  Tb  Tb6  1  0.494474  0.680498  0.591531  1
  Y  Y7  1  0.005505  0.181272  0.091313  1
  Sc  Sc8  1  0.177636  0.505630  0.750010  1
  Sc  Sc9  1  0.822718  0.494383  0.249993  1
  Sc  Sc10  1  0.322414  0.005507  0.249918  1
  Sc  Sc11  1  0.677341  0.994672  0.749997  1
  Sc  Sc12  1  0.320518  0.169801  0.629918  1
  Sc  Sc13  1  0.679793  0.830372  0.369988  1
  Sc  Sc14  1  0.179503  0.669754  0.370103  1
  Sc  Sc15  1  0.679513  0.830423  0.129895  1
  Sc  Sc16  1  0.820343  0.330348  0.629931  1
  Sc  Sc17  1  0.319948  0.169696  0.870073  1
  Sc  Sc18  1  0.820584  0.330168  0.870091  1
  Sc  Sc19  1  0.179681  0.669581  0.129981  1
  Si  Si20  1  0.278908  0.873130  0.750058  1
  Si  Si21  1  0.721734  0.126827  0.249686  1
  Si  Si22  1  0.220765  0.372836  0.250090  1
  Si  Si23  1  0.779035  0.626953  0.750121  1
  Si  Si24  1  0.159353  0.465319  0.539589  1
  Si  Si25  1  0.840642  0.534651  0.460397  1
  Si  Si26  1  0.340922  0.965324  0.460418  1
  Si  Si27  1  0.840553  0.534612  0.039627  1
  Si  Si28  1  0.659244  0.034600  0.539559  1
  Si  Si29  1  0.159293  0.465366  0.960322  1
  Si  Si30  1  0.659246  0.034899  0.960536  1
  Si  Si31  1  0.340276  0.965548  0.039712  1
  Ni  Ni32  1  0.032081  0.105370  0.749432  1
  Ni  Ni33  1  0.967424  0.894329  0.249449  1
  Ni  Ni34  1  0.467938  0.604595  0.250463  1
  Ni  Ni35  1  0.532862  0.394433  0.750300  1
