# generated using pymatgen
data_Pr20CoSn8Ir3
_symmetry_space_group_name_H-M   'P 1'
_cell_length_a   8.25066168
_cell_length_b   9.27721900
_cell_length_c   12.83923960
_cell_angle_alpha   90.00000000
_cell_angle_beta   90.18434794
_cell_angle_gamma   90.00000000
_symmetry_Int_Tables_number   1
_chemical_formula_structural   Pr20CoSn8Ir3
_chemical_formula_sum   'Pr20 Co1 Sn8 Ir3'
_cell_volume   982.75133806
_cell_formula_units_Z   1
loop_
 _symmetry_equiv_pos_site_id
 _symmetry_equiv_pos_as_xyz
  1  'x, y, z'
loop_
 _atom_site_type_symbol
 _atom_site_label
 _atom_site_symmetry_multiplicity
 _atom_site_fract_x
 _atom_site_fract_y
 _atom_site_fract_z
 _atom_site_occupancy
  Pr  Pr0  1  0.840082  0.750000  0.791582  1
  Pr  Pr1  1  0.159513  0.250000  0.213140  1
  Pr  Pr2  1  0.337931  0.250000  0.714832  1
  Pr  Pr3  1  0.660051  0.750000  0.287235  1
  Pr  Pr4  1  0.371698  0.750000  0.695062  1
  Pr  Pr5  1  0.632167  0.250000  0.304026  1
  Pr  Pr6  1  0.872628  0.250000  0.805026  1
  Pr  Pr7  1  0.128395  0.750000  0.193831  1
  Pr  Pr8  1  0.943936  0.750000  0.502417  1
  Pr  Pr9  1  0.049426  0.250000  0.499347  1
  Pr  Pr10  1  0.445266  0.250000  0.998706  1
  Pr  Pr11  1  0.552473  0.750000  0.001472  1
  Pr  Pr12  1  0.676449  0.037524  0.574501  1
  Pr  Pr13  1  0.322575  0.965465  0.424534  1
  Pr  Pr14  1  0.177342  0.960712  0.927211  1
  Pr  Pr15  1  0.322575  0.534535  0.424534  1
  Pr  Pr16  1  0.823945  0.028137  0.070156  1
  Pr  Pr17  1  0.676449  0.462476  0.574501  1
  Pr  Pr18  1  0.823945  0.471863  0.070156  1
  Pr  Pr19  1  0.177342  0.539288  0.927211  1
  Co  Co20  1  0.921867  0.750000  0.008520  1
  Sn  Sn21  1  0.567337  0.494895  0.829502  1
  Sn  Sn22  1  0.435081  0.505101  0.170792  1
  Sn  Sn23  1  0.066952  0.506041  0.671526  1
  Sn  Sn24  1  0.435081  0.994899  0.170792  1
  Sn  Sn25  1  0.935044  0.495542  0.328628  1
  Sn  Sn26  1  0.567337  0.005105  0.829502  1
  Sn  Sn27  1  0.935044  0.004458  0.328628  1
  Sn  Sn28  1  0.066952  0.993959  0.671526  1
  Ir  Ir29  1  0.575252  0.750000  0.507642  1
  Ir  Ir30  1  0.422527  0.250000  0.491747  1
  Ir  Ir31  1  0.077338  0.250000  0.991712  1
