# generated using pymatgen
data_Er2Tc2Ge2C
_symmetry_space_group_name_H-M   'P 1'
_cell_length_a   5.84311716
_cell_length_b   5.84311709
_cell_length_c   6.99796400
_cell_angle_alpha   123.38916643
_cell_angle_beta   123.38916596
_cell_angle_gamma   40.21480818
_symmetry_Int_Tables_number   1
_chemical_formula_structural   Er2Tc2Ge2C
_chemical_formula_sum   'Er2 Tc2 Ge2 C1'
_cell_volume   124.99620870
_cell_formula_units_Z   1
loop_
 _symmetry_equiv_pos_site_id
 _symmetry_equiv_pos_as_xyz
  1  'x, y, z'
loop_
 _atom_site_type_symbol
 _atom_site_label
 _atom_site_symmetry_multiplicity
 _atom_site_fract_x
 _atom_site_fract_y
 _atom_site_fract_z
 _atom_site_occupancy
  Er  Er0  1  0.566775  0.566775  0.290810  1
  Er  Er1  1  0.433226  0.433226  0.709190  1
  Tc  Tc2  1  0.201590  0.201590  0.086179  1
  Tc  Tc3  1  0.798410  0.798410  0.913821  1
  Ge  Ge4  1  0.853302  0.853302  0.320985  1
  Ge  Ge5  1  0.146697  0.146697  0.679016  1
  C  C6  1  0.000000  0.000000  0.000000  1
