# generated using pymatgen
data_YCo3P3Rh2
_symmetry_space_group_name_H-M   'P 1'
_cell_length_a   3.74449600
_cell_length_b   10.47896400
_cell_length_c   12.10879900
_cell_angle_alpha   90.00000000
_cell_angle_beta   90.00000000
_cell_angle_gamma   90.00000000
_symmetry_Int_Tables_number   1
_chemical_formula_structural   YCo3P3Rh2
_chemical_formula_sum   'Y4 Co12 P12 Rh8'
_cell_volume   475.13036829
_cell_formula_units_Z   4
loop_
 _symmetry_equiv_pos_site_id
 _symmetry_equiv_pos_as_xyz
  1  'x, y, z'
loop_
 _atom_site_type_symbol
 _atom_site_label
 _atom_site_symmetry_multiplicity
 _atom_site_fract_x
 _atom_site_fract_y
 _atom_site_fract_z
 _atom_site_occupancy
  Y  Y0  1  0.250000  0.915696  0.210925  1
  Y  Y1  1  0.750000  0.084304  0.789075  1
  Y  Y2  1  0.750000  0.415696  0.289075  1
  Y  Y3  1  0.250000  0.584304  0.710925  1
  Co  Co4  1  0.250000  0.279159  0.678210  1
  Co  Co5  1  0.750000  0.720841  0.321790  1
  Co  Co6  1  0.750000  0.779159  0.821790  1
  Co  Co7  1  0.250000  0.220841  0.178210  1
  Co  Co8  1  0.250000  0.617876  0.196897  1
  Co  Co9  1  0.750000  0.382124  0.803103  1
  Co  Co10  1  0.750000  0.117876  0.303103  1
  Co  Co11  1  0.250000  0.882124  0.696897  1
  Co  Co12  1  0.250000  0.036885  0.431770  1
  Co  Co13  1  0.750000  0.963115  0.568230  1
  Co  Co14  1  0.750000  0.536885  0.068230  1
  Co  Co15  1  0.250000  0.463115  0.931770  1
  P  P16  1  0.250000  0.077915  0.610404  1
  P  P17  1  0.750000  0.922085  0.389596  1
  P  P18  1  0.750000  0.577915  0.889596  1
  P  P19  1  0.250000  0.422085  0.110404  1
  P  P20  1  0.250000  0.225277  0.362017  1
  P  P21  1  0.750000  0.774723  0.637983  1
  P  P22  1  0.750000  0.725277  0.137983  1
  P  P23  1  0.250000  0.274723  0.862017  1
  P  P24  1  0.250000  0.895664  0.879318  1
  P  P25  1  0.750000  0.104336  0.120682  1
  P  P26  1  0.750000  0.395664  0.620682  1
  P  P27  1  0.250000  0.604336  0.379318  1
  Rh  Rh28  1  0.250000  0.788240  0.486210  1
  Rh  Rh29  1  0.750000  0.211760  0.513790  1
  Rh  Rh30  1  0.750000  0.288240  0.013790  1
  Rh  Rh31  1  0.250000  0.711760  0.986210  1
  Rh  Rh32  1  0.250000  0.093625  0.979605  1
  Rh  Rh33  1  0.750000  0.906375  0.020395  1
  Rh  Rh34  1  0.750000  0.593625  0.520395  1
  Rh  Rh35  1  0.250000  0.406375  0.479605  1
