# generated using pymatgen
data_La4As3Cl
_symmetry_space_group_name_H-M   'P 1'
_cell_length_a   8.67026627
_cell_length_b   4.35907600
_cell_length_c   6.10984300
_cell_angle_alpha   90.00000000
_cell_angle_beta   89.98465575
_cell_angle_gamma   90.00000000
_symmetry_Int_Tables_number   1
_chemical_formula_structural   La4As3Cl
_chemical_formula_sum   'La4 As3 Cl1'
_cell_volume   230.91753406
_cell_formula_units_Z   1
loop_
 _symmetry_equiv_pos_site_id
 _symmetry_equiv_pos_as_xyz
  1  'x, y, z'
loop_
 _atom_site_type_symbol
 _atom_site_label
 _atom_site_symmetry_multiplicity
 _atom_site_fract_x
 _atom_site_fract_y
 _atom_site_fract_z
 _atom_site_occupancy
  La  La0  1  0.109854  0.749999  0.249807  1
  La  La1  1  0.639903  0.749999  0.250226  1
  La  La2  1  0.375089  0.249999  0.749797  1
  La  La3  1  0.875080  0.249999  0.750169  1
  As  As4  1  0.874893  0.249999  0.250155  1
  As  As5  1  0.131199  0.749999  0.749849  1
  As  As6  1  0.619107  0.749999  0.750161  1
  Cl  Cl7  1  0.374875  0.249999  0.249839  1
