# generated using pymatgen
data_ThSc3(CBr)2
_symmetry_space_group_name_H-M   'P 1'
_cell_length_a   3.51532800
_cell_length_b   3.51532720
_cell_length_c   13.93377900
_cell_angle_alpha   90.00000000
_cell_angle_beta   90.00000000
_cell_angle_gamma   119.99998874
_symmetry_Int_Tables_number   1
_chemical_formula_structural   ThSc3(CBr)2
_chemical_formula_sum   'Th1 Sc3 C2 Br2'
_cell_volume   149.11839014
_cell_formula_units_Z   1
loop_
 _symmetry_equiv_pos_site_id
 _symmetry_equiv_pos_as_xyz
  1  'x, y, z'
loop_
 _atom_site_type_symbol
 _atom_site_label
 _atom_site_symmetry_multiplicity
 _atom_site_fract_x
 _atom_site_fract_y
 _atom_site_fract_z
 _atom_site_occupancy
  Th  Th0  1  0.333333  0.666667  0.588233  1
  Sc  Sc1  1  0.666667  0.333333  0.397570  1
  Sc  Sc2  1  0.666667  0.333333  0.088933  1
  Sc  Sc3  1  0.333333  0.666667  0.925530  1
  C  C4  1  0.000000  0.000000  0.008445  1
  C  C5  1  0.000000  0.000000  0.472112  1
  Br  Br6  1  0.333333  0.666667  0.242563  1
  Br  Br7  1  0.666667  0.333333  0.776615  1
