# generated using pymatgen
data_Hf7Co12Si16Mo
_symmetry_space_group_name_H-M   'P 1'
_cell_length_a   5.19983001
_cell_length_b   6.71018245
_cell_length_c   13.65600349
_cell_angle_alpha   90.39410137
_cell_angle_beta   90.35996521
_cell_angle_gamma   89.86369270
_symmetry_Int_Tables_number   1
_chemical_formula_structural   Hf7Co12Si16Mo
_chemical_formula_sum   'Hf7 Co12 Si16 Mo1'
_cell_volume   476.46067849
_cell_formula_units_Z   1
loop_
 _symmetry_equiv_pos_site_id
 _symmetry_equiv_pos_as_xyz
  1  'x, y, z'
loop_
 _atom_site_type_symbol
 _atom_site_label
 _atom_site_symmetry_multiplicity
 _atom_site_fract_x
 _atom_site_fract_y
 _atom_site_fract_z
 _atom_site_occupancy
  Hf  Hf0  1  0.727169  0.099798  0.144842  1
  Hf  Hf1  1  0.269962  0.101471  0.645909  1
  Hf  Hf2  1  0.770319  0.397955  0.646585  1
  Hf  Hf3  1  0.230959  0.595474  0.354351  1
  Hf  Hf4  1  0.729255  0.894315  0.352370  1
  Hf  Hf5  1  0.274990  0.899455  0.852505  1
  Hf  Hf6  1  0.772600  0.606542  0.855069  1
  Co  Co7  1  0.994218  0.288551  0.985416  1
  Co  Co8  1  0.504397  0.225110  0.479392  1
  Co  Co9  1  0.777640  0.003674  0.750037  1
  Co  Co10  1  0.491032  0.229844  0.982005  1
  Co  Co11  1  0.719393  0.497683  0.247720  1
  Co  Co12  1  0.494664  0.774110  0.517290  1
  Co  Co13  1  0.005974  0.275985  0.479142  1
  Co  Co14  1  0.012669  0.724274  0.020912  1
  Co  Co15  1  0.220515  0.986294  0.250128  1
  Co  Co16  1  0.277460  0.501517  0.750320  1
  Co  Co17  1  0.516608  0.793891  0.017157  1
  Co  Co18  1  0.994104  0.723464  0.517697  1
  Si  Si19  1  0.217146  0.027764  0.068704  1
  Si  Si20  1  0.717894  0.517387  0.430362  1
  Si  Si21  1  0.782835  0.019894  0.567114  1
  Si  Si22  1  0.467733  0.740647  0.181856  1
  Si  Si23  1  0.024012  0.256458  0.815188  1
  Si  Si24  1  0.521610  0.249143  0.813642  1
  Si  Si25  1  0.216143  0.978995  0.431749  1
  Si  Si26  1  0.288923  0.525253  0.934511  1
  Si  Si27  1  0.978555  0.732182  0.186094  1
  Si  Si28  1  0.701911  0.486761  0.068663  1
  Si  Si29  1  0.282998  0.480408  0.569055  1
  Si  Si30  1  0.480620  0.240186  0.310125  1
  Si  Si31  1  0.020001  0.747549  0.687168  1
  Si  Si32  1  0.791605  0.990454  0.932184  1
  Si  Si33  1  0.522322  0.754190  0.686690  1
  Si  Si34  1  0.977861  0.249253  0.309774  1
  Mo  Mo35  1  0.223905  0.384069  0.158274  1
