# generated using pymatgen
data_Dy10Sn3Bi3Cl2
_symmetry_space_group_name_H-M   'P 1'
_cell_length_a   9.16148041
_cell_length_b   9.20337544
_cell_length_c   6.53805400
_cell_angle_alpha   90.00000000
_cell_angle_beta   90.00000000
_cell_angle_gamma   120.28579149
_symmetry_Int_Tables_number   1
_chemical_formula_structural   Dy10Sn3Bi3Cl2
_chemical_formula_sum   'Dy10 Sn3 Bi3 Cl2'
_cell_volume   476.02966941
_cell_formula_units_Z   1
loop_
 _symmetry_equiv_pos_site_id
 _symmetry_equiv_pos_as_xyz
  1  'x, y, z'
loop_
 _atom_site_type_symbol
 _atom_site_label
 _atom_site_symmetry_multiplicity
 _atom_site_fract_x
 _atom_site_fract_y
 _atom_site_fract_z
 _atom_site_occupancy
  Dy  Dy0  1  0.738638  0.738979  0.250000  1
  Dy  Dy1  1  0.327621  0.666392  0.498528  1
  Dy  Dy2  1  0.259271  0.265034  0.750000  1
  Dy  Dy3  1  0.994595  0.265700  0.250000  1
  Dy  Dy4  1  0.674041  0.333375  0.498480  1
  Dy  Dy5  1  0.263112  0.994590  0.250000  1
  Dy  Dy6  1  0.739690  0.005287  0.750000  1
  Dy  Dy7  1  0.327621  0.666392  0.001472  1
  Dy  Dy8  1  0.674041  0.333375  0.001520  1
  Dy  Dy9  1  0.999993  0.730837  0.750000  1
  Sn  Sn10  1  0.998429  0.611299  0.250000  1
  Sn  Sn11  1  0.610271  0.997419  0.250000  1
  Sn  Sn12  1  0.001188  0.389834  0.750000  1
  Bi  Bi13  1  0.386366  0.385187  0.250000  1
  Bi  Bi14  1  0.612456  0.613711  0.750000  1
  Bi  Bi15  1  0.388815  0.002544  0.750000  1
  Cl  Cl16  1  0.001926  0.000021  0.999217  1
  Cl  Cl17  1  0.001926  0.000021  0.500783  1
