# generated using pymatgen
data_Ho6LuScO12
_symmetry_space_group_name_H-M   'P 1'
_cell_length_a   6.60483188
_cell_length_b   6.60483110
_cell_length_c   6.60483132
_cell_angle_alpha   92.27711226
_cell_angle_beta   92.27712153
_cell_angle_gamma   92.27712383
_symmetry_Int_Tables_number   1
_chemical_formula_structural   Ho6LuScO12
_chemical_formula_sum   'Ho6 Lu1 Sc1 O12'
_cell_volume   287.42661014
_cell_formula_units_Z   1
loop_
 _symmetry_equiv_pos_site_id
 _symmetry_equiv_pos_as_xyz
  1  'x, y, z'
loop_
 _atom_site_type_symbol
 _atom_site_label
 _atom_site_symmetry_multiplicity
 _atom_site_fract_x
 _atom_site_fract_y
 _atom_site_fract_z
 _atom_site_occupancy
  Ho  Ho0  1  0.744608  0.930561  0.439515  1
  Ho  Ho1  1  0.930561  0.439515  0.744608  1
  Ho  Ho2  1  0.439515  0.744608  0.930561  1
  Ho  Ho3  1  0.255392  0.069439  0.560485  1
  Ho  Ho4  1  0.069439  0.560485  0.255392  1
  Ho  Ho5  1  0.560485  0.255392  0.069439  1
  Lu  Lu6  1  0.000000  0.000000  0.000000  1
  Sc  Sc7  1  0.500000  0.500000  0.500000  1
  O  O8  1  0.593670  0.464104  0.806762  1
  O  O9  1  0.464104  0.806762  0.593670  1
  O  O10  1  0.806762  0.593670  0.464104  1
  O  O11  1  0.406330  0.535896  0.193238  1
  O  O12  1  0.535896  0.193238  0.406330  1
  O  O13  1  0.193238  0.406330  0.535896  1
  O  O14  1  0.069675  0.909842  0.313647  1
  O  O15  1  0.909842  0.313647  0.069675  1
  O  O16  1  0.686353  0.930325  0.090158  1
  O  O17  1  0.090158  0.686353  0.930325  1
  O  O18  1  0.930325  0.090158  0.686353  1
  O  O19  1  0.313647  0.069675  0.909842  1
