# generated using pymatgen
data_Sn15HgPd8
_symmetry_space_group_name_H-M   'P 1'
_cell_length_a   6.56045029
_cell_length_b   6.56044955
_cell_length_c   13.36499521
_cell_angle_alpha   104.28454979
_cell_angle_beta   104.34589341
_cell_angle_gamma   89.57457684
_symmetry_Int_Tables_number   1
_chemical_formula_structural   Sn15HgPd8
_chemical_formula_sum   'Sn15 Hg1 Pd8'
_cell_volume   539.17145789
_cell_formula_units_Z   1
loop_
 _symmetry_equiv_pos_site_id
 _symmetry_equiv_pos_as_xyz
  1  'x, y, z'
loop_
 _atom_site_type_symbol
 _atom_site_label
 _atom_site_symmetry_multiplicity
 _atom_site_fract_x
 _atom_site_fract_y
 _atom_site_fract_z
 _atom_site_occupancy
  Sn  Sn0  1  0.338428  0.163483  0.000074  1
  Sn  Sn1  1  0.156317  0.656317  0.000000  1
  Sn  Sn2  1  0.663409  0.838353  0.999926  1
  Sn  Sn3  1  0.873453  0.371912  0.247220  1
  Sn  Sn4  1  0.374566  0.377106  0.249513  1
  Sn  Sn5  1  0.874634  0.871718  0.249452  1
  Sn  Sn6  1  0.375526  0.876325  0.249700  1
  Sn  Sn7  1  0.091861  0.091861  0.500000  1
  Sn  Sn8  1  0.408145  0.408145  0.500000  1
  Sn  Sn9  1  0.908470  0.590018  0.499481  1
  Sn  Sn10  1  0.590537  0.908989  0.500519  1
  Sn  Sn11  1  0.122265  0.125181  0.750548  1
  Sn  Sn12  1  0.624692  0.126232  0.752780  1
  Sn  Sn13  1  0.126626  0.625826  0.750300  1
  Sn  Sn14  1  0.627593  0.625053  0.750487  1
  Hg  Hg15  1  0.847113  0.347113  0.000000  1
  Pd  Pd16  1  0.062721  0.054685  0.119442  1
  Pd  Pd17  1  0.554692  0.562208  0.119061  1
  Pd  Pd18  1  0.691168  0.191481  0.382716  1
  Pd  Pd19  1  0.192068  0.691917  0.383358  1
  Pd  Pd20  1  0.808560  0.308710  0.616642  1
  Pd  Pd21  1  0.308765  0.808452  0.617284  1
  Pd  Pd22  1  0.435243  0.443279  0.880558  1
  Pd  Pd23  1  0.943148  0.935631  0.880939  1
