# generated using pymatgen
data_YTm9FeSb5
_symmetry_space_group_name_H-M   'P 1'
_cell_length_a   7.88506000
_cell_length_b   9.11179100
_cell_length_c   11.78872500
_cell_angle_alpha   90.00000000
_cell_angle_beta   90.00000000
_cell_angle_gamma   90.00000000
_symmetry_Int_Tables_number   1
_chemical_formula_structural   YTm9FeSb5
_chemical_formula_sum   'Y2 Tm18 Fe2 Sb10'
_cell_volume   846.98474602
_cell_formula_units_Z   2
loop_
 _symmetry_equiv_pos_site_id
 _symmetry_equiv_pos_as_xyz
  1  'x, y, z'
loop_
 _atom_site_type_symbol
 _atom_site_label
 _atom_site_symmetry_multiplicity
 _atom_site_fract_x
 _atom_site_fract_y
 _atom_site_fract_z
 _atom_site_occupancy
  Y  Y0  1  0.573969  0.500000  0.773296  1
  Y  Y1  1  0.426031  0.500000  0.273296  1
  Tm  Tm2  1  0.431025  0.181213  0.564029  1
  Tm  Tm3  1  0.568975  0.818787  0.064029  1
  Tm  Tm4  1  0.071112  0.726762  0.435490  1
  Tm  Tm5  1  0.928888  0.273238  0.935490  1
  Tm  Tm6  1  0.071112  0.273238  0.435490  1
  Tm  Tm7  1  0.928888  0.726762  0.935490  1
  Tm  Tm8  1  0.431025  0.818787  0.564029  1
  Tm  Tm9  1  0.568975  0.181213  0.064029  1
  Tm  Tm10  1  0.909708  0.000000  0.204507  1
  Tm  Tm11  1  0.090292  0.000000  0.704507  1
  Tm  Tm12  1  0.263075  0.500000  0.994352  1
  Tm  Tm13  1  0.736925  0.500000  0.494352  1
  Tm  Tm14  1  0.196882  0.000000  0.996395  1
  Tm  Tm15  1  0.803118  0.000000  0.496395  1
  Tm  Tm16  1  0.090329  0.500000  0.716857  1
  Tm  Tm17  1  0.909671  0.500000  0.216857  1
  Tm  Tm18  1  0.373549  0.000000  0.305897  1
  Tm  Tm19  1  0.626451  0.000000  0.805897  1
  Fe  Fe20  1  0.172585  0.000000  0.486818  1
  Fe  Fe21  1  0.827415  0.000000  0.986818  1
  Sb  Sb22  1  0.816175  0.741180  0.670875  1
  Sb  Sb23  1  0.183825  0.258820  0.170875  1
  Sb  Sb24  1  0.682764  0.241857  0.326450  1
  Sb  Sb25  1  0.317236  0.758143  0.826450  1
  Sb  Sb26  1  0.682764  0.758143  0.326450  1
  Sb  Sb27  1  0.317236  0.241857  0.826450  1
  Sb  Sb28  1  0.816175  0.258820  0.670875  1
  Sb  Sb29  1  0.183825  0.741180  0.170875  1
  Sb  Sb30  1  0.344735  0.500000  0.528192  1
  Sb  Sb31  1  0.655265  0.500000  0.028192  1
