# generated using pymatgen
data_Gd5ReOsO12
_symmetry_space_group_name_H-M   'P 1'
_cell_length_a   6.94678833
_cell_length_b   6.94678772
_cell_length_c   7.63842000
_cell_angle_alpha   73.75957668
_cell_angle_beta   73.75957816
_cell_angle_gamma   48.61083364
_symmetry_Int_Tables_number   1
_chemical_formula_structural   Gd5ReOsO12
_chemical_formula_sum   'Gd5 Re1 Os1 O12'
_cell_volume   263.20457102
_cell_formula_units_Z   1
loop_
 _symmetry_equiv_pos_site_id
 _symmetry_equiv_pos_as_xyz
  1  'x, y, z'
loop_
 _atom_site_type_symbol
 _atom_site_label
 _atom_site_symmetry_multiplicity
 _atom_site_fract_x
 _atom_site_fract_y
 _atom_site_fract_z
 _atom_site_occupancy
  Gd  Gd0  1  0.183475  0.208458  0.643263  1
  Gd  Gd1  1  0.181474  0.190874  0.171921  1
  Gd  Gd2  1  0.489718  0.510282  0.500000  1
  Gd  Gd3  1  0.791542  0.816525  0.356737  1
  Gd  Gd4  1  0.809126  0.818526  0.828079  1
  Re  Re5  1  0.297949  0.702051  0.000000  1
  Os  Os6  1  0.728947  0.271053  0.000000  1
  O  O7  1  0.411781  0.904565  0.917669  1
  O  O8  1  0.926656  0.412839  0.916415  1
  O  O9  1  0.899052  0.412541  0.422675  1
  O  O10  1  0.392224  0.911295  0.428988  1
  O  O11  1  0.504188  0.497398  0.201819  1
  O  O12  1  0.010304  0.987800  0.171316  1
  O  O13  1  0.012200  0.989696  0.828684  1
  O  O14  1  0.502602  0.495812  0.798181  1
  O  O15  1  0.095435  0.588219  0.082331  1
  O  O16  1  0.587161  0.073344  0.083585  1
  O  O17  1  0.088705  0.607776  0.571012  1
  O  O18  1  0.587459  0.100948  0.577325  1
