# generated using pymatgen
data_Eu(CrSe2)3
_symmetry_space_group_name_H-M   'P 1'
_cell_length_a   6.39830652
_cell_length_b   6.39830656
_cell_length_c   7.27740558
_cell_angle_alpha   98.47232380
_cell_angle_beta   98.47232786
_cell_angle_gamma   120.04923044
_symmetry_Int_Tables_number   1
_chemical_formula_structural   Eu(CrSe2)3
_chemical_formula_sum   'Eu1 Cr3 Se6'
_cell_volume   246.41521407
_cell_formula_units_Z   1
loop_
 _symmetry_equiv_pos_site_id
 _symmetry_equiv_pos_as_xyz
  1  'x, y, z'
loop_
 _atom_site_type_symbol
 _atom_site_label
 _atom_site_symmetry_multiplicity
 _atom_site_fract_x
 _atom_site_fract_y
 _atom_site_fract_z
 _atom_site_occupancy
  Eu  Eu0  1  0.000000  0.000000  0.500000  1
  Cr  Cr1  1  0.836422  0.163579  0.000000  1
  Cr  Cr2  1  0.500001  0.500001  0.000000  1
  Cr  Cr3  1  0.163579  0.836422  0.000000  1
  Se  Se4  1  0.237703  0.237703  0.201272  1
  Se  Se5  1  0.901154  0.564692  0.200829  1
  Se  Se6  1  0.564692  0.901154  0.200829  1
  Se  Se7  1  0.435307  0.098846  0.799170  1
  Se  Se8  1  0.098846  0.435307  0.799170  1
  Se  Se9  1  0.762298  0.762298  0.798727  1
