# generated using pymatgen
data_Ta4Nb2Re3(B2Ru)3
_symmetry_space_group_name_H-M   'P 1'
_cell_length_a   3.15508400
_cell_length_b   6.48197048
_cell_length_c   11.01850209
_cell_angle_alpha   90.10519552
_cell_angle_beta   90.00000000
_cell_angle_gamma   90.00000000
_symmetry_Int_Tables_number   1
_chemical_formula_structural   Ta4Nb2Re3(B2Ru)3
_chemical_formula_sum   'Ta4 Nb2 Re3 B6 Ru3'
_cell_volume   225.34078416
_cell_formula_units_Z   1
loop_
 _symmetry_equiv_pos_site_id
 _symmetry_equiv_pos_as_xyz
  1  'x, y, z'
loop_
 _atom_site_type_symbol
 _atom_site_label
 _atom_site_symmetry_multiplicity
 _atom_site_fract_x
 _atom_site_fract_y
 _atom_site_fract_z
 _atom_site_occupancy
  Ta  Ta0  1  0.000000  0.280017  0.954983  1
  Ta  Ta1  1  0.000000  0.723269  0.045819  1
  Ta  Ta2  1  0.000000  0.277947  0.544469  1
  Ta  Ta3  1  0.000000  0.723110  0.455276  1
  Nb  Nb4  1  0.000000  0.350900  0.249386  1
  Nb  Nb5  1  0.000000  0.646418  0.749585  1
  Re  Re6  1  0.500000  0.074855  0.122356  1
  Re  Re7  1  0.500000  0.697996  0.251263  1
  Re  Re8  1  0.500000  0.300017  0.749132  1
  B  B9  1  0.000000  0.949749  0.247292  1
  B  B10  1  0.000000  0.051041  0.750429  1
  B  B11  1  0.500000  0.448487  0.087309  1
  B  B12  1  0.500000  0.552197  0.912733  1
  B  B13  1  0.500000  0.452241  0.416083  1
  B  B14  1  0.500000  0.547561  0.584776  1
  Ru  Ru15  1  0.500000  0.925671  0.875859  1
  Ru  Ru16  1  0.500000  0.073435  0.379896  1
  Ru  Ru17  1  0.500000  0.925088  0.623352  1
