# generated using pymatgen
data_Ti8Al15Fe5Pt2
_symmetry_space_group_name_H-M   'P 1'
_cell_length_a   8.55380657
_cell_length_b   8.54588459
_cell_length_c   8.55380736
_cell_angle_alpha   120.33985231
_cell_angle_beta   119.73263073
_cell_angle_gamma   89.96482125
_symmetry_Int_Tables_number   1
_chemical_formula_structural   Ti8Al15Fe5Pt2
_chemical_formula_sum   'Ti8 Al15 Fe5 Pt2'
_cell_volume   441.77986507
_cell_formula_units_Z   1
loop_
 _symmetry_equiv_pos_site_id
 _symmetry_equiv_pos_as_xyz
  1  'x, y, z'
loop_
 _atom_site_type_symbol
 _atom_site_label
 _atom_site_symmetry_multiplicity
 _atom_site_fract_x
 _atom_site_fract_y
 _atom_site_fract_z
 _atom_site_occupancy
  Ti  Ti0  1  0.794159  0.287876  0.068203  1
  Ti  Ti1  1  0.219673  0.287876  0.493716  1
  Ti  Ti2  1  0.212564  0.704260  0.491696  1
  Ti  Ti3  1  0.211888  0.718586  0.931598  1
  Ti  Ti4  1  0.786989  0.718586  0.506698  1
  Ti  Ti5  1  0.780629  0.288171  0.507542  1
  Ti  Ti6  1  0.388688  0.131883  0.743194  1
  Ti  Ti7  1  0.379102  0.639755  0.260651  1
  Al  Al8  1  0.996732  0.496771  0.500039  1
  Al  Al9  1  0.159472  0.339516  0.180043  1
  Al  Al10  1  0.152301  0.968681  0.816380  1
  Al  Al11  1  0.159291  0.353796  0.818821  1
  Al  Al12  1  0.534973  0.353796  0.194505  1
  Al  Al13  1  0.841169  0.657587  0.816419  1
  Al  Al14  1  0.850395  0.037249  0.186853  1
  Al  Al15  1  0.836365  0.646973  0.176822  1
  Al  Al16  1  0.470150  0.646973  0.810606  1
  Al  Al17  1  0.379851  0.123404  0.266168  1
  Al  Al18  1  0.857238  0.123404  0.743554  1
  Al  Al19  1  0.613688  0.871091  0.257402  1
  Al  Al20  1  0.620675  0.361714  0.741038  1
  Al  Al21  1  0.620616  0.875197  0.734468  1
  Al  Al22  1  0.140727  0.875197  0.254579  1
  Fe  Fe23  1  0.497317  0.494294  0.996977  1
  Fe  Fe24  1  0.497521  0.499535  0.498080  1
  Fe  Fe25  1  0.001455  0.499535  0.002014  1
  Fe  Fe26  1  0.000229  0.998934  0.998705  1
  Fe  Fe27  1  0.497564  0.000158  0.502593  1
  Pt  Pt28  1  0.998386  0.999604  0.499417  1
  Pt  Pt29  1  0.500186  0.999604  0.001217  1
