# generated using pymatgen
data_Yb2HoGa2B4Rh9
_symmetry_space_group_name_H-M   'P 1'
_cell_length_a   5.53389809
_cell_length_b   5.52157906
_cell_length_c   9.91079400
_cell_angle_alpha   89.99990097
_cell_angle_beta   90.00025842
_cell_angle_gamma   119.95513040
_symmetry_Int_Tables_number   1
_chemical_formula_structural   Yb2HoGa2B4Rh9
_chemical_formula_sum   'Yb2 Ho1 Ga2 B4 Rh9'
_cell_volume   262.37938861
_cell_formula_units_Z   1
loop_
 _symmetry_equiv_pos_site_id
 _symmetry_equiv_pos_as_xyz
  1  'x, y, z'
loop_
 _atom_site_type_symbol
 _atom_site_label
 _atom_site_symmetry_multiplicity
 _atom_site_fract_x
 _atom_site_fract_y
 _atom_site_fract_z
 _atom_site_occupancy
  Yb  Yb0  1  0.999992  0.999999  0.005156  1
  Yb  Yb1  1  0.999996  0.000000  0.333813  1
  Ho  Ho2  1  0.999999  0.000002  0.659835  1
  Ga  Ga3  1  0.333531  0.666836  0.000280  1
  Ga  Ga4  1  0.666453  0.333162  0.000282  1
  B  B5  1  0.333302  0.666628  0.347177  1
  B  B6  1  0.666684  0.333371  0.347178  1
  B  B7  1  0.666661  0.333358  0.652246  1
  B  B8  1  0.333327  0.666642  0.652247  1
  Rh  Rh9  1  0.499995  0.000001  0.499550  1
  Rh  Rh10  1  0.499994  0.499999  0.499569  1
  Rh  Rh11  1  0.999997  0.500001  0.499564  1
  Rh  Rh12  1  0.499991  0.999998  0.208020  1
  Rh  Rh13  1  0.499991  0.499999  0.207997  1
  Rh  Rh14  1  0.999991  0.499999  0.208016  1
  Rh  Rh15  1  0.499997  0.999998  0.793032  1
  Rh  Rh16  1  0.499994  0.500004  0.793042  1
  Rh  Rh17  1  0.000000  0.500001  0.792997  1
