# generated using pymatgen
data_La12ZnGe11Pd12
_symmetry_space_group_name_H-M   'P 1'
_cell_length_a   4.57067400
_cell_length_b   7.75400908
_cell_length_c   22.51505938
_cell_angle_alpha   89.86969133
_cell_angle_beta   90.00000000
_cell_angle_gamma   90.00000000
_symmetry_Int_Tables_number   1
_chemical_formula_structural   La12ZnGe11Pd12
_chemical_formula_sum   'La12 Zn1 Ge11 Pd12'
_cell_volume   797.95522916
_cell_formula_units_Z   1
loop_
 _symmetry_equiv_pos_site_id
 _symmetry_equiv_pos_as_xyz
  1  'x, y, z'
loop_
 _atom_site_type_symbol
 _atom_site_label
 _atom_site_symmetry_multiplicity
 _atom_site_fract_x
 _atom_site_fract_y
 _atom_site_fract_z
 _atom_site_occupancy
  La  La0  1  0.250000  0.712436  0.333068  1
  La  La1  1  0.750000  0.290591  0.666449  1
  La  La2  1  0.750000  0.212019  0.167158  1
  La  La3  1  0.250000  0.786619  0.830786  1
  La  La4  1  0.250000  0.792208  0.166872  1
  La  La5  1  0.750000  0.208886  0.831855  1
  La  La6  1  0.750000  0.292514  0.333462  1
  La  La7  1  0.250000  0.704454  0.666243  1
  La  La8  1  0.250000  0.718964  0.003868  1
  La  La9  1  0.750000  0.283877  0.998732  1
  La  La10  1  0.750000  0.215520  0.497136  1
  La  La11  1  0.250000  0.782556  0.502396  1
  Zn  Zn12  1  0.250000  0.410763  0.895349  1
  Ge  Ge13  1  0.250000  0.090793  0.071048  1
  Ge  Ge14  1  0.750000  0.918360  0.928501  1
  Ge  Ge15  1  0.750000  0.589257  0.429055  1
  Ge  Ge16  1  0.250000  0.409514  0.568851  1
  Ge  Ge17  1  0.250000  0.085469  0.270307  1
  Ge  Ge18  1  0.750000  0.914319  0.728685  1
  Ge  Ge19  1  0.750000  0.584978  0.229454  1
  Ge  Ge20  1  0.250000  0.410917  0.768907  1
  Ge  Ge21  1  0.250000  0.084919  0.395841  1
  Ge  Ge22  1  0.750000  0.915403  0.604327  1
  Ge  Ge23  1  0.750000  0.585627  0.104891  1
  Pd  Pd24  1  0.250000  0.419236  0.238599  1
  Pd  Pd25  1  0.750000  0.582483  0.762364  1
  Pd  Pd26  1  0.750000  0.919472  0.261439  1
  Pd  Pd27  1  0.250000  0.076962  0.737542  1
  Pd  Pd28  1  0.250000  0.416637  0.434202  1
  Pd  Pd29  1  0.750000  0.582584  0.565732  1
  Pd  Pd30  1  0.750000  0.915121  0.067596  1
  Pd  Pd31  1  0.250000  0.076154  0.936762  1
  Pd  Pd32  1  0.250000  0.422004  0.093139  1
  Pd  Pd33  1  0.750000  0.588919  0.909325  1
  Pd  Pd34  1  0.750000  0.920786  0.406903  1
  Pd  Pd35  1  0.250000  0.078680  0.593154  1
