# generated using pymatgen
data_Tm11Th8Si16Au
_symmetry_space_group_name_H-M   'P 1'
_cell_length_a   7.36348400
_cell_length_b   7.64726726
_cell_length_c   14.66171300
_cell_angle_alpha   90.00000000
_cell_angle_beta   90.00000000
_cell_angle_gamma   89.88936083
_symmetry_Int_Tables_number   1
_chemical_formula_structural   Tm11Th8Si16Au
_chemical_formula_sum   'Tm11 Th8 Si16 Au1'
_cell_volume   825.60729186
_cell_formula_units_Z   1
loop_
 _symmetry_equiv_pos_site_id
 _symmetry_equiv_pos_as_xyz
  1  'x, y, z'
loop_
 _atom_site_type_symbol
 _atom_site_label
 _atom_site_symmetry_multiplicity
 _atom_site_fract_x
 _atom_site_fract_y
 _atom_site_fract_z
 _atom_site_occupancy
  Tm  Tm0  1  0.834683  0.491173  0.250000  1
  Tm  Tm1  1  0.334388  0.011247  0.250000  1
  Tm  Tm2  1  0.661487  0.994444  0.750000  1
  Tm  Tm3  1  0.328066  0.189257  0.625592  1
  Tm  Tm4  1  0.663940  0.823138  0.377814  1
  Tm  Tm5  1  0.166412  0.682510  0.375145  1
  Tm  Tm6  1  0.663940  0.823138  0.122186  1
  Tm  Tm7  1  0.851842  0.324473  0.625844  1
  Tm  Tm8  1  0.328066  0.189257  0.874408  1
  Tm  Tm9  1  0.851842  0.324473  0.874156  1
  Tm  Tm10  1  0.166412  0.682510  0.124855  1
  Th  Th11  1  0.009177  0.176082  0.095614  1
  Th  Th12  1  0.995605  0.815102  0.899810  1
  Th  Th13  1  0.483495  0.671011  0.898151  1
  Th  Th14  1  0.995605  0.815102  0.600190  1
  Th  Th15  1  0.507744  0.323224  0.096067  1
  Th  Th16  1  0.009177  0.176082  0.404386  1
  Th  Th17  1  0.507744  0.323224  0.403933  1
  Th  Th18  1  0.483495  0.671011  0.601849  1
  Si  Si19  1  0.036819  0.089996  0.750000  1
  Si  Si20  1  0.958802  0.888869  0.250000  1
  Si  Si21  1  0.462892  0.610872  0.250000  1
  Si  Si22  1  0.554078  0.384455  0.750000  1
  Si  Si23  1  0.290421  0.884819  0.750000  1
  Si  Si24  1  0.714602  0.128645  0.250000  1
  Si  Si25  1  0.213654  0.373851  0.250000  1
  Si  Si26  1  0.775154  0.627266  0.750000  1
  Si  Si27  1  0.167528  0.463203  0.527280  1
  Si  Si28  1  0.837310  0.532923  0.462548  1
  Si  Si29  1  0.336637  0.966285  0.466174  1
  Si  Si30  1  0.837310  0.532923  0.037452  1
  Si  Si31  1  0.663412  0.029892  0.542193  1
  Si  Si32  1  0.167528  0.463203  0.972720  1
  Si  Si33  1  0.663412  0.029892  0.957807  1
  Si  Si34  1  0.336637  0.966285  0.033826  1
  Au  Au35  1  0.140684  0.520160  0.750000  1
