# generated using pymatgen
data_LaCe(EuPd2)2
_symmetry_space_group_name_H-M   'P 1'
_cell_length_a   5.09569481
_cell_length_b   5.09733268
_cell_length_c   7.39662068
_cell_angle_alpha   89.97183646
_cell_angle_beta   89.99315381
_cell_angle_gamma   89.81647868
_symmetry_Int_Tables_number   1
_chemical_formula_structural   LaCe(EuPd2)2
_chemical_formula_sum   'La1 Ce1 Eu2 Pd4'
_cell_volume   192.12215628
_cell_formula_units_Z   1
loop_
 _symmetry_equiv_pos_site_id
 _symmetry_equiv_pos_as_xyz
  1  'x, y, z'
loop_
 _atom_site_type_symbol
 _atom_site_label
 _atom_site_symmetry_multiplicity
 _atom_site_fract_x
 _atom_site_fract_y
 _atom_site_fract_z
 _atom_site_occupancy
  La  La0  1  0.001225  0.999304  0.499897  1
  Ce  Ce1  1  0.998987  0.000229  0.998941  1
  Eu  Eu2  1  0.499259  0.500063  0.000209  1
  Eu  Eu3  1  0.501094  0.499914  0.500969  1
  Pd  Pd4  1  0.500637  0.000656  0.245926  1
  Pd  Pd5  1  0.499699  0.001234  0.754133  1
  Pd  Pd6  1  0.999423  0.499776  0.245735  1
  Pd  Pd7  1  0.999676  0.498823  0.754191  1
