# generated using pymatgen
data_MgNb2(CoAs)3
_symmetry_space_group_name_H-M   'P 1'
_cell_length_a   7.02402853
_cell_length_b   7.02402830
_cell_length_c   7.03015828
_cell_angle_alpha   99.60037463
_cell_angle_beta   99.60037349
_cell_angle_gamma   119.99883150
_symmetry_Int_Tables_number   1
_chemical_formula_structural   MgNb2(CoAs)3
_chemical_formula_sum   'Mg2 Nb4 Co6 As6'
_cell_volume   283.18008390
_cell_formula_units_Z   2
loop_
 _symmetry_equiv_pos_site_id
 _symmetry_equiv_pos_as_xyz
  1  'x, y, z'
loop_
 _atom_site_type_symbol
 _atom_site_label
 _atom_site_symmetry_multiplicity
 _atom_site_fract_x
 _atom_site_fract_y
 _atom_site_fract_z
 _atom_site_occupancy
  Mg  Mg0  1  0.836100  0.666918  0.002150  1
  Mg  Mg1  1  0.666919  0.836101  0.502149  1
  Nb  Nb2  1  0.001176  0.499501  0.499208  1
  Nb  Nb3  1  0.330957  0.164960  0.499044  1
  Nb  Nb4  1  0.499501  0.001176  0.999207  1
  Nb  Nb5  1  0.164960  0.330957  0.999044  1
  Co  Co6  1  0.276842  0.443246  0.368357  1
  Co  Co7  1  0.621827  0.137323  0.368679  1
  Co  Co8  1  0.976935  0.794106  0.387505  1
  Co  Co9  1  0.443246  0.276842  0.868357  1
  Co  Co10  1  0.137322  0.621827  0.868679  1
  Co  Co11  1  0.794106  0.976935  0.887507  1
  As  As12  1  0.251964  0.749470  0.247893  1
  As  As13  1  0.587434  0.427070  0.249147  1
  As  As14  1  0.911115  0.073054  0.253017  1
  As  As15  1  0.749471  0.251965  0.747893  1
  As  As16  1  0.427071  0.587435  0.749147  1
  As  As17  1  0.073054  0.911115  0.753017  1
