# generated using pymatgen
data_Pr2FeC4
_symmetry_space_group_name_H-M   'P 1'
_cell_length_a   6.92105654
_cell_length_b   6.92105722
_cell_length_c   6.92105686
_cell_angle_alpha   135.48599158
_cell_angle_beta   113.90699631
_cell_angle_gamma   83.20413995
_symmetry_Int_Tables_number   1
_chemical_formula_structural   Pr2FeC4
_chemical_formula_sum   'Pr4 Fe2 C8'
_cell_volume   204.81645333
_cell_formula_units_Z   2
loop_
 _symmetry_equiv_pos_site_id
 _symmetry_equiv_pos_as_xyz
  1  'x, y, z'
loop_
 _atom_site_type_symbol
 _atom_site_label
 _atom_site_symmetry_multiplicity
 _atom_site_fract_x
 _atom_site_fract_y
 _atom_site_fract_z
 _atom_site_occupancy
  Pr  Pr0  1  0.192178  0.356499  0.835679  1
  Pr  Pr1  1  0.807822  0.643501  0.164321  1
  Pr  Pr2  1  0.520819  0.856499  0.664321  1
  Pr  Pr3  1  0.479181  0.143501  0.335679  1
  Fe  Fe4  1  0.000000  0.250000  0.250000  1
  Fe  Fe5  1  0.000000  0.750000  0.750000  1
  C  C6  1  0.795241  0.123865  0.671377  1
  C  C7  1  0.204759  0.876135  0.328623  1
  C  C8  1  0.452487  0.623865  0.828623  1
  C  C9  1  0.547513  0.376135  0.171377  1
  C  C10  1  0.919182  0.077842  0.841340  1
  C  C11  1  0.080818  0.922158  0.158660  1
  C  C12  1  0.236502  0.577842  0.658660  1
  C  C13  1  0.763498  0.422158  0.341340  1
