# generated using pymatgen
data_Ba3TaGa3(SiO7)2
_symmetry_space_group_name_H-M   'P 1'
_cell_length_a   8.62912700
_cell_length_b   8.62912641
_cell_length_c   5.26703000
_cell_angle_alpha   89.99999495
_cell_angle_beta   89.99994137
_cell_angle_gamma   119.99999582
_symmetry_Int_Tables_number   1
_chemical_formula_structural   Ba3TaGa3(SiO7)2
_chemical_formula_sum   'Ba3 Ta1 Ga3 Si2 O14'
_cell_volume   339.64883870
_cell_formula_units_Z   1
loop_
 _symmetry_equiv_pos_site_id
 _symmetry_equiv_pos_as_xyz
  1  'x, y, z'
loop_
 _atom_site_type_symbol
 _atom_site_label
 _atom_site_symmetry_multiplicity
 _atom_site_fract_x
 _atom_site_fract_y
 _atom_site_fract_z
 _atom_site_occupancy
  Ba  Ba0  1  0.429816  0.000000  0.000001  1
  Ba  Ba1  1  0.000000  0.429818  0.000000  1
  Ba  Ba2  1  0.570184  0.570183  0.999999  1
  Ta  Ta3  1  0.000000  0.000001  0.000000  1
  Ga  Ga4  1  0.744042  0.999999  0.500000  1
  Ga  Ga5  1  0.000000  0.744041  0.500001  1
  Ga  Ga6  1  0.255959  0.255960  0.500001  1
  Si  Si7  1  0.333335  0.666667  0.480528  1
  Si  Si8  1  0.666665  0.333331  0.519473  1
  O  O9  1  0.666664  0.333331  0.213741  1
  O  O10  1  0.891491  0.783534  0.225446  1
  O  O11  1  0.892045  0.108512  0.225447  1
  O  O12  1  0.216466  0.107956  0.225446  1
  O  O13  1  0.524866  0.824118  0.353969  1
  O  O14  1  0.299257  0.475136  0.353970  1
  O  O15  1  0.175883  0.700746  0.353973  1
  O  O16  1  0.824118  0.524863  0.646028  1
  O  O17  1  0.700744  0.175880  0.646030  1
  O  O18  1  0.475134  0.299252  0.646032  1
  O  O19  1  0.783535  0.891490  0.774555  1
  O  O20  1  0.107955  0.216466  0.774554  1
  O  O21  1  0.108509  0.892043  0.774555  1
  O  O22  1  0.333337  0.666667  0.786259  1
