# generated using pymatgen
data_CsNaRuF6
_symmetry_space_group_name_H-M   'P 1'
_cell_length_a   6.61331300
_cell_length_b   8.56465700
_cell_length_c   11.68003800
_cell_angle_alpha   90.00000000
_cell_angle_beta   90.00000000
_cell_angle_gamma   90.00000000
_symmetry_Int_Tables_number   1
_chemical_formula_structural   CsNaRuF6
_chemical_formula_sum   'Cs4 Na4 Ru4 F24'
_cell_volume   661.56619970
_cell_formula_units_Z   4
loop_
 _symmetry_equiv_pos_site_id
 _symmetry_equiv_pos_as_xyz
  1  'x, y, z'
loop_
 _atom_site_type_symbol
 _atom_site_label
 _atom_site_symmetry_multiplicity
 _atom_site_fract_x
 _atom_site_fract_y
 _atom_site_fract_z
 _atom_site_occupancy
  Cs  Cs0  1  0.028609  0.750072  0.461634  1
  Cs  Cs1  1  0.528609  0.250072  0.038366  1
  Cs  Cs2  1  0.471391  0.750072  0.961634  1
  Cs  Cs3  1  0.971391  0.250072  0.538366  1
  Na  Na4  1  0.450421  0.501200  0.647213  1
  Na  Na5  1  0.549579  0.001200  0.352787  1
  Na  Na6  1  0.950421  0.001200  0.852787  1
  Na  Na7  1  0.049579  0.501200  0.147213  1
  Ru  Ru8  1  0.458941  0.002227  0.641769  1
  Ru  Ru9  1  0.041059  0.002227  0.141769  1
  Ru  Ru10  1  0.541059  0.502227  0.358231  1
  Ru  Ru11  1  0.958941  0.502227  0.858231  1
  F  F12  1  0.598520  0.282539  0.358537  1
  F  F13  1  0.204747  0.038668  0.726067  1
  F  F14  1  0.796522  0.967536  0.046562  1
  F  F15  1  0.487558  0.722207  0.358249  1
  F  F16  1  0.401480  0.782539  0.641463  1
  F  F17  1  0.512442  0.222207  0.641751  1
  F  F18  1  0.118385  0.482472  0.715035  1
  F  F19  1  0.296522  0.467536  0.453438  1
  F  F20  1  0.692114  0.523178  0.503682  1
  F  F21  1  0.704747  0.538668  0.773933  1
  F  F22  1  0.381615  0.482472  0.215035  1
  F  F23  1  0.881615  0.982472  0.284965  1
  F  F24  1  0.203478  0.467536  0.953438  1
  F  F25  1  0.703478  0.967536  0.546562  1
  F  F26  1  0.192114  0.023178  0.996318  1
  F  F27  1  0.987558  0.222207  0.141751  1
  F  F28  1  0.807886  0.523178  0.003682  1
  F  F29  1  0.795253  0.538668  0.273933  1
  F  F30  1  0.012442  0.722207  0.858249  1
  F  F31  1  0.295253  0.038668  0.226067  1
  F  F32  1  0.307886  0.023178  0.496318  1
  F  F33  1  0.901480  0.282539  0.858537  1
  F  F34  1  0.618385  0.982472  0.784965  1
  F  F35  1  0.098520  0.782539  0.141463  1
