# generated using pymatgen
data_Nd15Th(CdOs)4
_symmetry_space_group_name_H-M   'P 1'
_cell_length_a   10.01574715
_cell_length_b   10.01574599
_cell_length_c   10.01574608
_cell_angle_alpha   59.24632489
_cell_angle_beta   59.24633172
_cell_angle_gamma   59.24631897
_symmetry_Int_Tables_number   1
_chemical_formula_structural   Nd15Th(CdOs)4
_chemical_formula_sum   'Nd15 Th1 Cd4 Os4'
_cell_volume   698.25621507
_cell_formula_units_Z   1
loop_
 _symmetry_equiv_pos_site_id
 _symmetry_equiv_pos_as_xyz
  1  'x, y, z'
loop_
 _atom_site_type_symbol
 _atom_site_label
 _atom_site_symmetry_multiplicity
 _atom_site_fract_x
 _atom_site_fract_y
 _atom_site_fract_z
 _atom_site_occupancy
  Nd  Nd0  1  0.596067  0.596067  0.209848  1
  Nd  Nd1  1  0.596067  0.209848  0.596067  1
  Nd  Nd2  1  0.209848  0.596067  0.596067  1
  Nd  Nd3  1  0.059416  0.441255  0.441255  1
  Nd  Nd4  1  0.441966  0.059853  0.059853  1
  Nd  Nd5  1  0.441255  0.059416  0.441255  1
  Nd  Nd6  1  0.059853  0.441966  0.059853  1
  Nd  Nd7  1  0.441255  0.441255  0.059416  1
  Nd  Nd8  1  0.059853  0.059853  0.441966  1
  Nd  Nd9  1  0.188853  0.810976  0.810976  1
  Nd  Nd10  1  0.809515  0.191781  0.191781  1
  Nd  Nd11  1  0.810976  0.188853  0.810976  1
  Nd  Nd12  1  0.191781  0.809515  0.191781  1
  Nd  Nd13  1  0.810976  0.810976  0.188853  1
  Nd  Nd14  1  0.191781  0.191781  0.809515  1
  Th  Th15  1  0.591789  0.591789  0.591789  1
  Cd  Cd16  1  0.828700  0.828700  0.828700  1
  Cd  Cd17  1  0.827940  0.827940  0.511218  1
  Cd  Cd18  1  0.827940  0.511218  0.827940  1
  Cd  Cd19  1  0.511218  0.827940  0.827940  1
  Os  Os20  1  0.388264  0.388264  0.388264  1
  Os  Os21  1  0.392580  0.392580  0.829528  1
  Os  Os22  1  0.392580  0.829528  0.392580  1
  Os  Os23  1  0.829528  0.392580  0.392580  1
