# generated using pymatgen
data_Ba2HoAg5S6
_symmetry_space_group_name_H-M   'P 1'
_cell_length_a   4.21546500
_cell_length_b   7.34052223
_cell_length_c   11.26571146
_cell_angle_alpha   94.95378768
_cell_angle_beta   90.00000000
_cell_angle_gamma   106.68660915
_symmetry_Int_Tables_number   1
_chemical_formula_structural   Ba2HoAg5S6
_chemical_formula_sum   'Ba2 Ho1 Ag5 S6'
_cell_volume   332.56353882
_cell_formula_units_Z   1
loop_
 _symmetry_equiv_pos_site_id
 _symmetry_equiv_pos_as_xyz
  1  'x, y, z'
loop_
 _atom_site_type_symbol
 _atom_site_label
 _atom_site_symmetry_multiplicity
 _atom_site_fract_x
 _atom_site_fract_y
 _atom_site_fract_z
 _atom_site_occupancy
  Ba  Ba0  1  0.252572  0.505144  0.702885  1
  Ba  Ba1  1  0.747428  0.494856  0.297115  1
  Ho  Ho2  1  0.500000  0.000000  0.500000  1
  Ag  Ag3  1  0.018659  0.037319  0.256376  1
  Ag  Ag4  1  0.981341  0.962681  0.743624  1
  Ag  Ag5  1  0.352463  0.704928  0.039358  1
  Ag  Ag6  1  0.647537  0.295072  0.960642  1
  Ag  Ag7  1  0.000000  0.000000  0.000000  1
  S  S8  1  0.124091  0.248180  0.454560  1
  S  S9  1  0.875909  0.751820  0.545440  1
  S  S10  1  0.157652  0.315303  0.101853  1
  S  S11  1  0.842348  0.684697  0.898147  1
  S  S12  1  0.413453  0.826906  0.267333  1
  S  S13  1  0.586547  0.173094  0.732667  1
