# generated using pymatgen
data_Sc2P4Pb3O16
_symmetry_space_group_name_H-M   'P 1'
_cell_length_a   9.13920906
_cell_length_b   9.20638000
_cell_length_c   9.45989100
_cell_angle_alpha   90.00000000
_cell_angle_beta   117.01591621
_cell_angle_gamma   90.00000000
_symmetry_Int_Tables_number   1
_chemical_formula_structural   Sc2P4Pb3O16
_chemical_formula_sum   'Sc4 P8 Pb6 O32'
_cell_volume   709.09273102
_cell_formula_units_Z   2
loop_
 _symmetry_equiv_pos_site_id
 _symmetry_equiv_pos_as_xyz
  1  'x, y, z'
loop_
 _atom_site_type_symbol
 _atom_site_label
 _atom_site_symmetry_multiplicity
 _atom_site_fract_x
 _atom_site_fract_y
 _atom_site_fract_z
 _atom_site_occupancy
  Sc  Sc0  1  0.246688  0.634563  0.240836  1
  Sc  Sc1  1  0.753312  0.134563  0.259164  1
  Sc  Sc2  1  0.753312  0.365437  0.759164  1
  Sc  Sc3  1  0.246688  0.865437  0.740836  1
  P  P4  1  0.428468  0.913044  0.142835  1
  P  P5  1  0.982957  0.363578  0.161732  1
  P  P6  1  0.017043  0.636422  0.838268  1
  P  P7  1  0.428468  0.586956  0.642835  1
  P  P8  1  0.571532  0.086956  0.857165  1
  P  P9  1  0.571532  0.413044  0.357165  1
  P  P10  1  0.982957  0.136422  0.661732  1
  P  P11  1  0.017043  0.863578  0.338268  1
  Pb  Pb12  1  0.701365  0.791238  0.469291  1
  Pb  Pb13  1  0.298635  0.291238  0.030709  1
  Pb  Pb14  1  0.298635  0.208762  0.530709  1
  Pb  Pb15  1  0.000000  0.000000  0.000000  1
  Pb  Pb16  1  0.701365  0.708762  0.969291  1
  Pb  Pb17  1  0.000000  0.500000  0.500000  1
  O  O18  1  0.841899  0.087187  0.502334  1
  O  O19  1  0.916436  0.205901  0.770886  1
  O  O20  1  0.387535  0.046791  0.755456  1
  O  O21  1  0.916436  0.294099  0.270886  1
  O  O22  1  0.920503  0.503608  0.739274  1
  O  O23  1  0.387535  0.453209  0.255456  1
  O  O24  1  0.841899  0.412813  0.002334  1
  O  O25  1  0.920503  0.996392  0.239274  1
  O  O26  1  0.591477  0.291619  0.253689  1
  O  O27  1  0.612465  0.546791  0.744544  1
  O  O28  1  0.902503  0.754964  0.365797  1
  O  O29  1  0.158101  0.587187  0.997666  1
  O  O30  1  0.599675  0.149474  0.016970  1
  O  O31  1  0.158101  0.912813  0.497666  1
  O  O32  1  0.079497  0.496392  0.260726  1
  O  O33  1  0.400325  0.649474  0.483030  1
  O  O34  1  0.599675  0.350526  0.516970  1
  O  O35  1  0.097497  0.245036  0.634203  1
  O  O36  1  0.314540  0.042739  0.126295  1
  O  O37  1  0.408523  0.708381  0.746311  1
  O  O38  1  0.902503  0.745036  0.865797  1
  O  O39  1  0.591477  0.208381  0.753689  1
  O  O40  1  0.083564  0.705901  0.729114  1
  O  O41  1  0.097497  0.254964  0.134203  1
  O  O42  1  0.408523  0.791619  0.246311  1
  O  O43  1  0.400325  0.850526  0.983030  1
  O  O44  1  0.685460  0.542739  0.373705  1
  O  O45  1  0.685460  0.957261  0.873705  1
  O  O46  1  0.612465  0.953209  0.244544  1
  O  O47  1  0.083564  0.794099  0.229114  1
  O  O48  1  0.314540  0.457261  0.626295  1
  O  O49  1  0.079497  0.003608  0.760726  1
