# generated using pymatgen
data_Cs3Np7Se12
_symmetry_space_group_name_H-M   'P 1'
_cell_length_a   4.18443400
_cell_length_b   12.95306100
_cell_length_c   26.49189200
_cell_angle_alpha   90.00000000
_cell_angle_beta   90.00000000
_cell_angle_gamma   90.00000000
_symmetry_Int_Tables_number   1
_chemical_formula_structural   Cs3Np7Se12
_chemical_formula_sum   'Cs6 Np14 Se24'
_cell_volume   1435.89310103
_cell_formula_units_Z   2
loop_
 _symmetry_equiv_pos_site_id
 _symmetry_equiv_pos_as_xyz
  1  'x, y, z'
loop_
 _atom_site_type_symbol
 _atom_site_label
 _atom_site_symmetry_multiplicity
 _atom_site_fract_x
 _atom_site_fract_y
 _atom_site_fract_z
 _atom_site_occupancy
  Cs  Cs0  1  0.500000  0.521167  0.129357  1
  Cs  Cs1  1  0.500000  0.969351  0.865230  1
  Cs  Cs2  1  0.000000  0.030649  0.365230  1
  Cs  Cs3  1  0.000000  0.478833  0.629357  1
  Cs  Cs4  1  0.500000  0.804358  0.473145  1
  Cs  Cs5  1  0.000000  0.195642  0.973145  1
  Np  Np6  1  0.500000  0.463357  0.414549  1
  Np  Np7  1  0.500000  0.036271  0.587239  1
  Np  Np8  1  0.000000  0.963729  0.087239  1
  Np  Np9  1  0.000000  0.536643  0.914549  1
  Np  Np10  1  0.500000  0.660967  0.788432  1
  Np  Np11  1  0.500000  0.837948  0.212206  1
  Np  Np12  1  0.000000  0.162052  0.712206  1
  Np  Np13  1  0.000000  0.339033  0.288432  1
  Np  Np14  1  0.000000  0.248397  0.499889  1
  Np  Np15  1  0.500000  0.751603  0.999889  1
  Np  Np16  1  0.500000  0.342077  0.815056  1
  Np  Np17  1  0.500000  0.159021  0.183879  1
  Np  Np18  1  0.000000  0.840979  0.683879  1
  Np  Np19  1  0.000000  0.657923  0.315056  1
  Se  Se20  1  0.500000  0.687230  0.896752  1
  Se  Se21  1  0.500000  0.812396  0.103315  1
  Se  Se22  1  0.000000  0.187604  0.603315  1
  Se  Se23  1  0.000000  0.312770  0.396752  1
  Se  Se24  1  0.500000  0.496421  0.303015  1
  Se  Se25  1  0.500000  0.003134  0.697555  1
  Se  Se26  1  0.000000  0.996866  0.197555  1
  Se  Se27  1  0.000000  0.503579  0.803015  1
  Se  Se28  1  0.500000  0.384953  0.922367  1
  Se  Se29  1  0.500000  0.116829  0.077007  1
  Se  Se30  1  0.000000  0.883171  0.577007  1
  Se  Se31  1  0.000000  0.615047  0.422367  1
  Se  Se32  1  0.500000  0.312296  0.709147  1
  Se  Se33  1  0.500000  0.189475  0.290302  1
  Se  Se34  1  0.000000  0.810525  0.790302  1
  Se  Se35  1  0.000000  0.687704  0.209147  1
  Se  Se36  1  0.500000  0.688052  0.680601  1
  Se  Se37  1  0.500000  0.812916  0.321984  1
  Se  Se38  1  0.000000  0.187084  0.821984  1
  Se  Se39  1  0.000000  0.311948  0.180601  1
  Se  Se40  1  0.500000  0.399210  0.517488  1
  Se  Se41  1  0.500000  0.094988  0.481895  1
  Se  Se42  1  0.000000  0.905012  0.981895  1
  Se  Se43  1  0.000000  0.600790  0.017488  1
