# generated using pymatgen
data_CaAcGeN3
_symmetry_space_group_name_H-M   'P 1'
_cell_length_a   6.16889100
_cell_length_b   6.16889167
_cell_length_c   12.12432900
_cell_angle_alpha   90.00000000
_cell_angle_beta   90.00000000
_cell_angle_gamma   125.75356043
_symmetry_Int_Tables_number   1
_chemical_formula_structural   CaAcGeN3
_chemical_formula_sum   'Ca4 Ac4 Ge4 N12'
_cell_volume   374.43862281
_cell_formula_units_Z   4
loop_
 _symmetry_equiv_pos_site_id
 _symmetry_equiv_pos_as_xyz
  1  'x, y, z'
loop_
 _atom_site_type_symbol
 _atom_site_label
 _atom_site_symmetry_multiplicity
 _atom_site_fract_x
 _atom_site_fract_y
 _atom_site_fract_z
 _atom_site_occupancy
  Ca  Ca0  1  0.641445  0.358555  0.071952  1
  Ca  Ca1  1  0.358555  0.641445  0.928048  1
  Ca  Ca2  1  0.858555  0.141445  0.571952  1
  Ca  Ca3  1  0.141445  0.858555  0.428048  1
  Ac  Ac4  1  0.043419  0.956581  0.853447  1
  Ac  Ac5  1  0.956581  0.043419  0.146553  1
  Ac  Ac6  1  0.456581  0.543419  0.353447  1
  Ac  Ac7  1  0.543419  0.456581  0.646553  1
  Ge  Ge8  1  0.746216  0.253784  0.838461  1
  Ge  Ge9  1  0.253784  0.746216  0.161539  1
  Ge  Ge10  1  0.753784  0.246216  0.338461  1
  Ge  Ge11  1  0.246216  0.753784  0.661539  1
  N  N12  1  0.576619  0.423381  0.864690  1
  N  N13  1  0.423381  0.576619  0.135310  1
  N  N14  1  0.923381  0.076619  0.364690  1
  N  N15  1  0.076619  0.923381  0.635310  1
  N  N16  1  0.555108  0.944892  0.750000  1
  N  N17  1  0.944892  0.555108  0.250000  1
  N  N18  1  0.444892  0.055108  0.250000  1
  N  N19  1  0.055108  0.444892  0.750000  1
  N  N20  1  0.844689  0.155311  0.966111  1
  N  N21  1  0.155311  0.844689  0.033889  1
  N  N22  1  0.655311  0.344689  0.466111  1
  N  N23  1  0.344689  0.655311  0.533889  1
