# generated using pymatgen
data_TbEu3Co16(P3Ru)4
_symmetry_space_group_name_H-M   'P 1'
_cell_length_a   3.70817100
_cell_length_b   10.49400023
_cell_length_c   11.86565062
_cell_angle_alpha   89.94236413
_cell_angle_beta   90.00000000
_cell_angle_gamma   90.00000000
_symmetry_Int_Tables_number   1
_chemical_formula_structural   TbEu3Co16(P3Ru)4
_chemical_formula_sum   'Tb1 Eu3 Co16 P12 Ru4'
_cell_volume   461.73432317
_cell_formula_units_Z   1
loop_
 _symmetry_equiv_pos_site_id
 _symmetry_equiv_pos_as_xyz
  1  'x, y, z'
loop_
 _atom_site_type_symbol
 _atom_site_label
 _atom_site_symmetry_multiplicity
 _atom_site_fract_x
 _atom_site_fract_y
 _atom_site_fract_z
 _atom_site_occupancy
  Tb  Tb0  1  0.750000  0.086964  0.796806  1
  Eu  Eu1  1  0.250000  0.588001  0.704349  1
  Eu  Eu2  1  0.250000  0.912748  0.203355  1
  Eu  Eu3  1  0.750000  0.411927  0.295986  1
  Co  Co4  1  0.250000  0.407719  0.493122  1
  Co  Co5  1  0.250000  0.093250  0.988089  1
  Co  Co6  1  0.750000  0.591598  0.507887  1
  Co  Co7  1  0.750000  0.910443  0.006072  1
  Co  Co8  1  0.250000  0.217859  0.174621  1
  Co  Co9  1  0.250000  0.277615  0.677177  1
  Co  Co10  1  0.750000  0.782156  0.823826  1
  Co  Co11  1  0.750000  0.718895  0.324943  1
  Co  Co12  1  0.250000  0.890386  0.701989  1
  Co  Co13  1  0.250000  0.613029  0.200480  1
  Co  Co14  1  0.750000  0.113198  0.299719  1
  Co  Co15  1  0.750000  0.385201  0.798946  1
  Co  Co16  1  0.250000  0.465160  0.932347  1
  Co  Co17  1  0.250000  0.034367  0.433643  1
  Co  Co18  1  0.750000  0.534119  0.066706  1
  Co  Co19  1  0.750000  0.966311  0.568953  1
  P  P20  1  0.250000  0.418772  0.111564  1
  P  P21  1  0.250000  0.080856  0.612664  1
  P  P22  1  0.750000  0.581115  0.887964  1
  P  P23  1  0.750000  0.919194  0.388754  1
  P  P24  1  0.250000  0.273801  0.866599  1
  P  P25  1  0.250000  0.224609  0.366627  1
  P  P26  1  0.750000  0.724628  0.133766  1
  P  P27  1  0.750000  0.774681  0.633071  1
  P  P28  1  0.250000  0.597218  0.390802  1
  P  P29  1  0.250000  0.904013  0.890281  1
  P  P30  1  0.750000  0.403258  0.609533  1
  P  P31  1  0.750000  0.097284  0.109549  1
  Ru  Ru32  1  0.250000  0.716267  0.989868  1
  Ru  Ru33  1  0.250000  0.784610  0.491834  1
  Ru  Ru34  1  0.750000  0.283221  0.007976  1
  Ru  Ru35  1  0.750000  0.215532  0.510132  1
