# generated using pymatgen
data_UCu2Ir3S8
_symmetry_space_group_name_H-M   'P 1'
_cell_length_a   7.30190952
_cell_length_b   7.30190959
_cell_length_c   6.92050518
_cell_angle_alpha   58.15951955
_cell_angle_beta   58.15951666
_cell_angle_gamma   59.99999627
_symmetry_Int_Tables_number   1
_chemical_formula_structural   UCu2Ir3S8
_chemical_formula_sum   'U1 Cu2 Ir3 S8'
_cell_volume   253.41743594
_cell_formula_units_Z   1
loop_
 _symmetry_equiv_pos_site_id
 _symmetry_equiv_pos_as_xyz
  1  'x, y, z'
loop_
 _atom_site_type_symbol
 _atom_site_label
 _atom_site_symmetry_multiplicity
 _atom_site_fract_x
 _atom_site_fract_y
 _atom_site_fract_z
 _atom_site_occupancy
  U  U0  1  0.625000  0.625000  0.125000  1
  Cu  Cu1  1  0.002364  0.002364  0.992909  1
  Cu  Cu2  1  0.247636  0.247636  0.257091  1
  Ir  Ir3  1  0.625000  0.625000  0.625000  1
  Ir  Ir4  1  0.125000  0.625000  0.625000  1
  Ir  Ir5  1  0.625000  0.125000  0.625000  1
  S  S6  1  0.386700  0.386700  0.839902  1
  S  S7  1  0.366491  0.366491  0.406674  1
  S  S8  1  0.883509  0.883509  0.843326  1
  S  S9  1  0.863300  0.863300  0.410098  1
  S  S10  1  0.366491  0.860346  0.406674  1
  S  S11  1  0.860346  0.366491  0.406674  1
  S  S12  1  0.389654  0.883509  0.843326  1
  S  S13  1  0.883509  0.389654  0.843326  1
