# generated using pymatgen
data_TbYCl6
_symmetry_space_group_name_H-M   'P 1'
_cell_length_a   7.00674038
_cell_length_b   7.00674037
_cell_length_c   7.07848400
_cell_angle_alpha   80.23776439
_cell_angle_beta   80.23776631
_cell_angle_gamma   119.84716260
_symmetry_Int_Tables_number   1
_chemical_formula_structural   TbYCl6
_chemical_formula_sum   'Tb1 Y1 Cl6'
_cell_volume   283.64206274
_cell_formula_units_Z   1
loop_
 _symmetry_equiv_pos_site_id
 _symmetry_equiv_pos_as_xyz
  1  'x, y, z'
loop_
 _atom_site_type_symbol
 _atom_site_label
 _atom_site_symmetry_multiplicity
 _atom_site_fract_x
 _atom_site_fract_y
 _atom_site_fract_z
 _atom_site_occupancy
  Tb  Tb0  1  0.166533  0.833467  0.000000  1
  Y  Y1  1  0.833468  0.166532  0.000000  1
  Cl  Cl2  1  0.949480  0.576180  0.775587  1
  Cl  Cl3  1  0.423820  0.050520  0.224413  1
  Cl  Cl4  1  0.800979  0.801410  0.229292  1
  Cl  Cl5  1  0.198590  0.199021  0.770708  1
  Cl  Cl6  1  0.577042  0.949912  0.775585  1
  Cl  Cl7  1  0.050088  0.422958  0.224415  1
