# generated using pymatgen
data_TbHo3Al4Pt3Rh
_symmetry_space_group_name_H-M   'P 1'
_cell_length_a   4.40558000
_cell_length_b   6.81345205
_cell_length_c   7.80783278
_cell_angle_alpha   89.95830519
_cell_angle_beta   90.00000000
_cell_angle_gamma   90.00000000
_symmetry_Int_Tables_number   1
_chemical_formula_structural   TbHo3Al4Pt3Rh
_chemical_formula_sum   'Tb1 Ho3 Al4 Pt3 Rh1'
_cell_volume   234.36927896
_cell_formula_units_Z   1
loop_
 _symmetry_equiv_pos_site_id
 _symmetry_equiv_pos_as_xyz
  1  'x, y, z'
loop_
 _atom_site_type_symbol
 _atom_site_label
 _atom_site_symmetry_multiplicity
 _atom_site_fract_x
 _atom_site_fract_y
 _atom_site_fract_z
 _atom_site_occupancy
  Tb  Tb0  1  0.750000  0.466938  0.819133  1
  Ho  Ho1  1  0.250000  0.532462  0.179738  1
  Ho  Ho2  1  0.750000  0.970127  0.678764  1
  Ho  Ho3  1  0.250000  0.034910  0.323089  1
  Al  Al4  1  0.250000  0.637869  0.561224  1
  Al  Al5  1  0.750000  0.358483  0.439770  1
  Al  Al6  1  0.750000  0.857866  0.061034  1
  Al  Al7  1  0.250000  0.142621  0.938589  1
  Pt  Pt8  1  0.250000  0.771479  0.879559  1
  Pt  Pt9  1  0.750000  0.230379  0.121862  1
  Pt  Pt10  1  0.750000  0.731653  0.378757  1
  Rh  Rh11  1  0.250000  0.265212  0.618478  1
