# generated using pymatgen
data_ErMg4(SbPt)5
_symmetry_space_group_name_H-M   'P 1'
_cell_length_a   18.85437968
_cell_length_b   18.85437960
_cell_length_c   18.85437900
_cell_angle_alpha   13.73718470
_cell_angle_beta   13.73718577
_cell_angle_gamma   13.73718830
_symmetry_Int_Tables_number   1
_chemical_formula_structural   ErMg4(SbPt)5
_chemical_formula_sum   'Er1 Mg4 Sb5 Pt5'
_cell_volume   328.89349025
_cell_formula_units_Z   1
loop_
 _symmetry_equiv_pos_site_id
 _symmetry_equiv_pos_as_xyz
  1  'x, y, z'
loop_
 _atom_site_type_symbol
 _atom_site_label
 _atom_site_symmetry_multiplicity
 _atom_site_fract_x
 _atom_site_fract_y
 _atom_site_fract_z
 _atom_site_occupancy
  Er  Er0  1  0.299456  0.299456  0.299456  1
  Mg  Mg1  1  0.700505  0.700505  0.700505  1
  Mg  Mg2  1  0.100219  0.100219  0.100219  1
  Mg  Mg3  1  0.499371  0.499371  0.499371  1
  Mg  Mg4  1  0.898460  0.898460  0.898460  1
  Sb  Sb5  1  0.598277  0.598277  0.598277  1
  Sb  Sb6  1  0.800782  0.800782  0.800782  1
  Sb  Sb7  1  0.199712  0.199712  0.199712  1
  Sb  Sb8  1  0.002199  0.002199  0.002199  1
  Sb  Sb9  1  0.401777  0.401777  0.401777  1
  Pt  Pt10  1  0.050844  0.050844  0.050844  1
  Pt  Pt11  1  0.449940  0.449940  0.449940  1
  Pt  Pt12  1  0.849090  0.849090  0.849090  1
  Pt  Pt13  1  0.248314  0.248314  0.248314  1
  Pt  Pt14  1  0.651050  0.651050  0.651050  1
