# generated using pymatgen
data_La8MgTcHgPd
_symmetry_space_group_name_H-M   'P 1'
_cell_length_a   10.15257928
_cell_length_b   10.15257940
_cell_length_c   10.33863300
_cell_angle_alpha   59.39191805
_cell_angle_beta   59.39191765
_cell_angle_gamma   59.41541671
_symmetry_Int_Tables_number   1
_chemical_formula_structural   La8MgTcHgPd
_chemical_formula_sum   'La16 Mg2 Tc2 Hg2 Pd2'
_cell_volume   743.23764678
_cell_formula_units_Z   2
loop_
 _symmetry_equiv_pos_site_id
 _symmetry_equiv_pos_as_xyz
  1  'x, y, z'
loop_
 _atom_site_type_symbol
 _atom_site_label
 _atom_site_symmetry_multiplicity
 _atom_site_fract_x
 _atom_site_fract_y
 _atom_site_fract_z
 _atom_site_occupancy
  La  La0  1  0.344703  0.344703  0.355407  1
  La  La1  1  0.344703  0.344703  0.955184  1
  La  La2  1  0.343475  0.959158  0.348683  1
  La  La3  1  0.959158  0.343475  0.348683  1
  La  La4  1  0.819401  0.188455  0.189427  1
  La  La5  1  0.188455  0.819401  0.802718  1
  La  La6  1  0.188455  0.819401  0.189427  1
  La  La7  1  0.819401  0.188455  0.802718  1
  La  La8  1  0.186483  0.186483  0.813517  1
  La  La9  1  0.800305  0.800305  0.199695  1
  La  La10  1  0.937881  0.555221  0.565581  1
  La  La11  1  0.555221  0.937881  0.941317  1
  La  La12  1  0.555221  0.937881  0.565581  1
  La  La13  1  0.937881  0.555221  0.941317  1
  La  La14  1  0.560991  0.560991  0.939009  1
  La  La15  1  0.941141  0.941141  0.558859  1
  Mg  Mg16  1  0.578573  0.272001  0.574713  1
  Mg  Mg17  1  0.272001  0.578573  0.574713  1
  Tc  Tc18  1  0.139880  0.139880  0.133243  1
  Tc  Tc19  1  0.139880  0.139880  0.586997  1
  Hg  Hg20  1  0.581116  0.581116  0.586867  1
  Hg  Hg21  1  0.581116  0.581116  0.250901  1
  Pd  Pd22  1  0.147186  0.577372  0.137723  1
  Pd  Pd23  1  0.577372  0.147186  0.137723  1
