# generated using pymatgen
data_Er11LuIr4
_symmetry_space_group_name_H-M   'P 1'
_cell_length_a   6.34836374
_cell_length_b   7.21586587
_cell_length_c   9.09901259
_cell_angle_alpha   90.06264476
_cell_angle_beta   90.13537981
_cell_angle_gamma   90.07364060
_symmetry_Int_Tables_number   1
_chemical_formula_structural   Er11LuIr4
_chemical_formula_sum   'Er11 Lu1 Ir4'
_cell_volume   416.81437454
_cell_formula_units_Z   1
loop_
 _symmetry_equiv_pos_site_id
 _symmetry_equiv_pos_as_xyz
  1  'x, y, z'
loop_
 _atom_site_type_symbol
 _atom_site_label
 _atom_site_symmetry_multiplicity
 _atom_site_fract_x
 _atom_site_fract_y
 _atom_site_fract_z
 _atom_site_occupancy
  Er  Er0  1  0.327839  0.677648  0.061677  1
  Er  Er1  1  0.172570  0.177314  0.436946  1
  Er  Er2  1  0.672657  0.322591  0.562442  1
  Er  Er3  1  0.828446  0.822757  0.938761  1
  Er  Er4  1  0.672023  0.322004  0.938823  1
  Er  Er5  1  0.827776  0.822655  0.562495  1
  Er  Er6  1  0.327707  0.677155  0.437634  1
  Er  Er7  1  0.871041  0.533563  0.249946  1
  Er  Er8  1  0.629287  0.034369  0.249709  1
  Er  Er9  1  0.129623  0.465856  0.750288  1
  Er  Er10  1  0.370432  0.966347  0.750425  1
  Lu  Lu11  1  0.171679  0.177346  0.062066  1
  Ir  Ir12  1  0.042890  0.884274  0.249074  1
  Ir  Ir13  1  0.455527  0.383003  0.248924  1
  Ir  Ir14  1  0.957351  0.116585  0.750886  1
  Ir  Ir15  1  0.543155  0.616532  0.749901  1
