# generated using pymatgen
data_DyBi2SbO7
_symmetry_space_group_name_H-M   'P 1'
_cell_length_a   6.52594531
_cell_length_b   6.80855455
_cell_length_c   7.66211683
_cell_angle_alpha   106.44849654
_cell_angle_beta   89.61705962
_cell_angle_gamma   99.06552943
_symmetry_Int_Tables_number   1
_chemical_formula_structural   DyBi2SbO7
_chemical_formula_sum   'Dy2 Bi4 Sb2 O14'
_cell_volume   322.17505548
_cell_formula_units_Z   2
loop_
 _symmetry_equiv_pos_site_id
 _symmetry_equiv_pos_as_xyz
  1  'x, y, z'
loop_
 _atom_site_type_symbol
 _atom_site_label
 _atom_site_symmetry_multiplicity
 _atom_site_fract_x
 _atom_site_fract_y
 _atom_site_fract_z
 _atom_site_occupancy
  Dy  Dy0  1  0.542902  0.997679  0.752229  1
  Dy  Dy1  1  0.457098  0.002321  0.247771  1
  Bi  Bi2  1  0.255775  0.511924  0.877678  1
  Bi  Bi3  1  0.744225  0.488076  0.122322  1
  Bi  Bi4  1  0.730104  0.465519  0.609937  1
  Bi  Bi5  1  0.269896  0.534481  0.390063  1
  Sb  Sb6  1  0.000000  0.000000  0.500000  1
  Sb  Sb7  1  0.000000  0.000000  0.000000  1
  O  O8  1  0.459412  0.656594  0.179693  1
  O  O9  1  0.540588  0.343406  0.820307  1
  O  O10  1  0.292080  0.951329  0.954345  1
  O  O11  1  0.707920  0.048671  0.045655  1
  O  O12  1  0.286884  0.928997  0.514423  1
  O  O13  1  0.713116  0.071003  0.485577  1
  O  O14  1  0.529536  0.348441  0.349591  1
  O  O15  1  0.470464  0.651559  0.650409  1
  O  O16  1  0.914650  0.689089  0.956056  1
  O  O17  1  0.085350  0.310911  0.043944  1
  O  O18  1  0.097131  0.307712  0.612346  1
  O  O19  1  0.902869  0.692288  0.387654  1
  O  O20  1  0.901173  0.953438  0.738084  1
  O  O21  1  0.098827  0.046562  0.261916  1
