# generated using pymatgen
data_Tm5Lu5Sn5Sb
_symmetry_space_group_name_H-M   'P 1'
_cell_length_a   8.80320729
_cell_length_b   8.81020855
_cell_length_c   6.35678100
_cell_angle_alpha   90.00000000
_cell_angle_beta   90.00000000
_cell_angle_gamma   119.97681498
_symmetry_Int_Tables_number   1
_chemical_formula_structural   Tm5Lu5Sn5Sb
_chemical_formula_sum   'Tm5 Lu5 Sn5 Sb1'
_cell_volume   427.06739383
_cell_formula_units_Z   1
loop_
 _symmetry_equiv_pos_site_id
 _symmetry_equiv_pos_as_xyz
  1  'x, y, z'
loop_
 _atom_site_type_symbol
 _atom_site_label
 _atom_site_symmetry_multiplicity
 _atom_site_fract_x
 _atom_site_fract_y
 _atom_site_fract_z
 _atom_site_occupancy
  Tm  Tm0  1  0.762394  0.762280  0.750000  1
  Tm  Tm1  1  0.237744  0.997960  0.750000  1
  Tm  Tm2  1  0.998046  0.238103  0.750000  1
  Tm  Tm3  1  0.238559  0.238444  0.250000  1
  Tm  Tm4  1  0.761734  0.000539  0.250000  1
  Lu  Lu5  1  0.667488  0.333169  0.000151  1
  Lu  Lu6  1  0.333196  0.667530  0.000181  1
  Lu  Lu7  1  0.333196  0.667530  0.499819  1
  Lu  Lu8  1  0.667488  0.333169  0.499849  1
  Lu  Lu9  1  0.000667  0.761637  0.250000  1
  Sn  Sn10  1  0.603895  0.999606  0.750000  1
  Sn  Sn11  1  0.999625  0.603861  0.750000  1
  Sn  Sn12  1  0.606009  0.605561  0.250000  1
  Sn  Sn13  1  0.395036  0.000606  0.250000  1
  Sn  Sn14  1  0.001050  0.396132  0.250000  1
  Sb  Sb15  1  0.393873  0.393872  0.750000  1
