# generated using pymatgen
data_Y8Er2Ir5Pd
_symmetry_space_group_name_H-M   'P 1'
_cell_length_a   10.98588758
_cell_length_b   10.98797000
_cell_length_c   6.35874134
_cell_angle_alpha   90.00000000
_cell_angle_beta   89.96251530
_cell_angle_gamma   90.00000000
_symmetry_Int_Tables_number   1
_chemical_formula_structural   Y8Er2Ir5Pd
_chemical_formula_sum   'Y16 Er4 Ir10 Pd2'
_cell_volume   767.58005623
_cell_formula_units_Z   2
loop_
 _symmetry_equiv_pos_site_id
 _symmetry_equiv_pos_as_xyz
  1  'x, y, z'
loop_
 _atom_site_type_symbol
 _atom_site_label
 _atom_site_symmetry_multiplicity
 _atom_site_fract_x
 _atom_site_fract_y
 _atom_site_fract_z
 _atom_site_occupancy
  Y  Y0  1  0.291004  0.088050  0.376203  1
  Y  Y1  1  0.291004  0.911950  0.876203  1
  Y  Y2  1  0.704817  0.090860  0.872716  1
  Y  Y3  1  0.704817  0.909140  0.372716  1
  Y  Y4  1  0.582790  0.789749  0.878977  1
  Y  Y5  1  0.582790  0.210251  0.378977  1
  Y  Y6  1  0.411068  0.790743  0.378005  1
  Y  Y7  1  0.411068  0.209257  0.878005  1
  Y  Y8  1  0.209561  0.411784  0.621694  1
  Y  Y9  1  0.209561  0.588216  0.121694  1
  Y  Y10  1  0.789675  0.416524  0.121628  1
  Y  Y11  1  0.789675  0.583476  0.621628  1
  Y  Y12  1  0.913863  0.706924  0.128392  1
  Y  Y13  1  0.913863  0.293076  0.628392  1
  Y  Y14  1  0.092595  0.706919  0.622374  1
  Y  Y15  1  0.092595  0.293081  0.122374  1
  Er  Er16  1  0.004265  0.999716  0.500009  1
  Er  Er17  1  0.004265  0.000284  0.000009  1
  Er  Er18  1  0.499837  0.499680  0.999903  1
  Er  Er19  1  0.499837  0.500320  0.499903  1
  Ir  Ir20  1  0.150427  0.151716  0.750034  1
  Ir  Ir21  1  0.150427  0.848284  0.250034  1
  Ir  Ir22  1  0.653519  0.347083  0.749631  1
  Ir  Ir23  1  0.653519  0.652917  0.249631  1
  Ir  Ir24  1  0.348305  0.348047  0.250456  1
  Ir  Ir25  1  0.348305  0.651953  0.750456  1
  Ir  Ir26  1  0.501624  0.000033  0.124091  1
  Ir  Ir27  1  0.501624  0.999967  0.624091  1
  Ir  Ir28  1  0.999195  0.500484  0.876204  1
  Ir  Ir29  1  0.999195  0.499516  0.376204  1
  Pd  Pd30  1  0.847456  0.151418  0.249682  1
  Pd  Pd31  1  0.847456  0.848582  0.749682  1
