# generated using pymatgen
data_SbPCl10
_symmetry_space_group_name_H-M   'P 1'
_cell_length_a   10.28803000
_cell_length_b   10.28803000
_cell_length_c   8.03537400
_cell_angle_alpha   90.00000000
_cell_angle_beta   90.00000000
_cell_angle_gamma   90.00000000
_symmetry_Int_Tables_number   1
_chemical_formula_structural   SbPCl10
_chemical_formula_sum   'Sb2 P2 Cl20'
_cell_volume   850.49260038
_cell_formula_units_Z   2
loop_
 _symmetry_equiv_pos_site_id
 _symmetry_equiv_pos_as_xyz
  1  'x, y, z'
loop_
 _atom_site_type_symbol
 _atom_site_label
 _atom_site_symmetry_multiplicity
 _atom_site_fract_x
 _atom_site_fract_y
 _atom_site_fract_z
 _atom_site_occupancy
  Sb  Sb0  1  0.000000  0.500000  0.619772  1
  Sb  Sb1  1  0.500000  0.000000  0.380228  1
  P  P2  1  0.000000  0.000000  0.000000  1
  P  P3  1  0.500000  0.500000  0.000000  1
  Cl  Cl4  1  0.351332  0.543999  0.141264  1
  Cl  Cl5  1  0.043999  0.148668  0.141264  1
  Cl  Cl6  1  0.956001  0.851332  0.141264  1
  Cl  Cl7  1  0.648668  0.456001  0.141264  1
  Cl  Cl8  1  0.148668  0.956001  0.858736  1
  Cl  Cl9  1  0.456001  0.351332  0.858736  1
  Cl  Cl10  1  0.543999  0.648668  0.858736  1
  Cl  Cl11  1  0.851332  0.043999  0.858736  1
  Cl  Cl12  1  0.000000  0.500000  0.919538  1
  Cl  Cl13  1  0.500000  0.000000  0.080462  1
  Cl  Cl14  1  0.000000  0.500000  0.318195  1
  Cl  Cl15  1  0.500000  0.000000  0.681805  1
  Cl  Cl16  1  0.215384  0.592789  0.618018  1
  Cl  Cl17  1  0.092789  0.284616  0.618018  1
  Cl  Cl18  1  0.907211  0.715384  0.618018  1
  Cl  Cl19  1  0.784616  0.407211  0.618018  1
  Cl  Cl20  1  0.284616  0.907211  0.381982  1
  Cl  Cl21  1  0.407211  0.215384  0.381982  1
  Cl  Cl22  1  0.592789  0.784616  0.381982  1
  Cl  Cl23  1  0.715384  0.092789  0.381982  1
