# generated using pymatgen
data_Ca10TaTi8FeO30
_symmetry_space_group_name_H-M   'P 1'
_cell_length_a   5.42782265
_cell_length_b   5.53673652
_cell_length_c   38.60964117
_cell_angle_alpha   90.06732124
_cell_angle_beta   90.05456699
_cell_angle_gamma   90.06933122
_symmetry_Int_Tables_number   1
_chemical_formula_structural   Ca10TaTi8FeO30
_chemical_formula_sum   'Ca20 Ta2 Ti16 Fe2 O60'
_cell_volume   1160.31112542
_cell_formula_units_Z   2
loop_
 _symmetry_equiv_pos_site_id
 _symmetry_equiv_pos_as_xyz
  1  'x, y, z'
loop_
 _atom_site_type_symbol
 _atom_site_label
 _atom_site_symmetry_multiplicity
 _atom_site_fract_x
 _atom_site_fract_y
 _atom_site_fract_z
 _atom_site_occupancy
  Ca  Ca0  1  0.008794  0.951944  0.950551  1
  Ca  Ca1  1  0.013809  0.964270  0.346830  1
  Ca  Ca2  1  0.008064  0.966432  0.148791  1
  Ca  Ca3  1  0.007231  0.957331  0.549076  1
  Ca  Ca4  1  0.006532  0.947223  0.752158  1
  Ca  Ca5  1  0.493002  0.462701  0.148698  1
  Ca  Ca6  1  0.489428  0.452536  0.950334  1
  Ca  Ca7  1  0.491794  0.455945  0.347390  1
  Ca  Ca8  1  0.486166  0.449351  0.549623  1
  Ca  Ca9  1  0.488477  0.449584  0.752236  1
  Ca  Ca10  1  0.506998  0.537299  0.851302  1
  Ca  Ca11  1  0.510572  0.547464  0.049666  1
  Ca  Ca12  1  0.513834  0.550649  0.450377  1
  Ca  Ca13  1  0.511523  0.550416  0.247764  1
  Ca  Ca14  1  0.508206  0.544055  0.652610  1
  Ca  Ca15  1  0.991206  0.048056  0.049449  1
  Ca  Ca16  1  0.991936  0.033568  0.851209  1
  Ca  Ca17  1  0.992769  0.042669  0.450924  1
  Ca  Ca18  1  0.993468  0.052777  0.247842  1
  Ca  Ca19  1  0.986191  0.035730  0.653170  1
  Ta  Ta20  1  0.996899  0.496401  0.601433  1
  Ta  Ta21  1  0.003101  0.503599  0.398567  1
  Ti  Ti22  1  0.000000  0.500000  0.000000  1
  Ti  Ti23  1  0.993596  0.513265  0.198072  1
  Ti  Ti24  1  0.996231  0.508326  0.296159  1
  Ti  Ti25  1  0.003769  0.491674  0.703841  1
  Ti  Ti26  1  0.503689  0.987299  0.900545  1
  Ti  Ti27  1  0.496311  0.012701  0.099455  1
  Ti  Ti28  1  0.508903  0.992505  0.801259  1
  Ti  Ti29  1  0.498425  0.002018  0.299771  1
  Ti  Ti30  1  0.501575  0.997982  0.700229  1
  Ti  Ti31  1  0.500000  0.000000  0.000000  1
  Ti  Ti32  1  0.491097  0.007495  0.198741  1
  Ti  Ti33  1  0.500000  0.000000  0.500000  1
  Ti  Ti34  1  0.999449  0.484759  0.901556  1
  Ti  Ti35  1  0.006404  0.486735  0.801928  1
  Ti  Ti36  1  0.000551  0.515241  0.098444  1
  Ti  Ti37  1  0.000000  0.500000  0.500000  1
  Fe  Fe38  1  0.503028  0.003502  0.399505  1
  Fe  Fe39  1  0.496972  0.996498  0.600495  1
  O  O40  1  0.072958  0.476512  0.851210  1
  O  O41  1  0.082073  0.479717  0.049510  1
  O  O42  1  0.087939  0.485407  0.248223  1
  O  O43  1  0.418972  0.977686  0.450829  1
  O  O44  1  0.078525  0.471262  0.651838  1
  O  O45  1  0.209248  0.210387  0.991755  1
  O  O46  1  0.218780  0.214080  0.190153  1
  O  O47  1  0.203846  0.210079  0.389294  1
  O  O48  1  0.195221  0.203066  0.591527  1
  O  O49  1  0.198425  0.206089  0.793464  1
  O  O50  1  0.203556  0.211234  0.909296  1
  O  O51  1  0.215279  0.210184  0.107312  1
  O  O52  1  0.220520  0.218361  0.306205  1
  O  O53  1  0.208869  0.213766  0.508429  1
  O  O54  1  0.198460  0.203933  0.710604  1
  O  O55  1  0.285942  0.710176  0.909203  1
  O  O56  1  0.289677  0.710047  0.991699  1
  O  O57  1  0.294352  0.710058  0.107065  1
  O  O58  1  0.299212  0.714593  0.190234  1
  O  O59  1  0.300406  0.704457  0.389872  1
  O  O60  1  0.278709  0.701229  0.710734  1
  O  O61  1  0.286009  0.710001  0.508736  1
  O  O62  1  0.291707  0.697796  0.592029  1
  O  O63  1  0.299095  0.718260  0.306440  1
  O  O64  1  0.280432  0.703980  0.793455  1
  O  O65  1  0.416439  0.976743  0.851439  1
  O  O66  1  0.422737  0.980253  0.049513  1
  O  O67  1  0.086500  0.478835  0.449716  1
  O  O68  1  0.429693  0.985482  0.247842  1
  O  O69  1  0.410005  0.971060  0.652866  1
  O  O70  1  0.583561  0.023257  0.148561  1
  O  O71  1  0.577263  0.019747  0.950487  1
  O  O72  1  0.589995  0.028940  0.347134  1
  O  O73  1  0.913500  0.521165  0.550284  1
  O  O74  1  0.570307  0.014518  0.752158  1
  O  O75  1  0.700788  0.285407  0.809766  1
  O  O76  1  0.705648  0.289942  0.892935  1
  O  O77  1  0.710323  0.289953  0.008301  1
  O  O78  1  0.714058  0.289824  0.090797  1
  O  O79  1  0.708293  0.302204  0.407971  1
  O  O80  1  0.719568  0.296020  0.206545  1
  O  O81  1  0.721291  0.298771  0.289266  1
  O  O82  1  0.699594  0.295543  0.610128  1
  O  O83  1  0.713991  0.289999  0.491264  1
  O  O84  1  0.700905  0.281740  0.693560  1
  O  O85  1  0.784721  0.789816  0.892688  1
  O  O86  1  0.791131  0.786234  0.491571  1
  O  O87  1  0.796444  0.788766  0.090704  1
  O  O88  1  0.801540  0.796067  0.289396  1
  O  O89  1  0.779480  0.781639  0.693795  1
  O  O90  1  0.781220  0.785920  0.809847  1
  O  O91  1  0.790752  0.789613  0.008245  1
  O  O92  1  0.801575  0.793911  0.206536  1
  O  O93  1  0.804779  0.796934  0.408473  1
  O  O94  1  0.796154  0.789921  0.610706  1
  O  O95  1  0.917927  0.520283  0.950490  1
  O  O96  1  0.927042  0.523488  0.148790  1
  O  O97  1  0.921475  0.528738  0.348162  1
  O  O98  1  0.581028  0.022314  0.549171  1
  O  O99  1  0.912061  0.514593  0.751777  1
