# generated using pymatgen
data_Tb3Ho2In4IrPd
_symmetry_space_group_name_H-M   'P 1'
_cell_length_a   3.64016500
_cell_length_b   8.14258020
_cell_length_c   18.28441489
_cell_angle_alpha   90.10653877
_cell_angle_beta   90.00000000
_cell_angle_gamma   90.00000000
_symmetry_Int_Tables_number   1
_chemical_formula_structural   Tb3Ho2In4IrPd
_chemical_formula_sum   'Tb6 Ho4 In8 Ir2 Pd2'
_cell_volume   541.95525425
_cell_formula_units_Z   2
loop_
 _symmetry_equiv_pos_site_id
 _symmetry_equiv_pos_as_xyz
  1  'x, y, z'
loop_
 _atom_site_type_symbol
 _atom_site_label
 _atom_site_symmetry_multiplicity
 _atom_site_fract_x
 _atom_site_fract_y
 _atom_site_fract_z
 _atom_site_occupancy
  Tb  Tb0  1  0.000000  0.500000  0.500000  1
  Tb  Tb1  1  0.000000  0.000000  0.000000  1
  Tb  Tb2  1  0.000000  0.728912  0.277738  1
  Tb  Tb3  1  0.000000  0.271088  0.722262  1
  Tb  Tb4  1  0.000000  0.747569  0.780040  1
  Tb  Tb5  1  0.000000  0.252431  0.219960  1
  Ho  Ho6  1  0.000000  0.612965  0.087081  1
  Ho  Ho7  1  0.000000  0.387035  0.912919  1
  Ho  Ho8  1  0.000000  0.884944  0.584507  1
  Ho  Ho9  1  0.000000  0.115056  0.415493  1
  In  In10  1  0.500000  0.708676  0.931968  1
  In  In11  1  0.500000  0.291324  0.068032  1
  In  In12  1  0.500000  0.791963  0.431982  1
  In  In13  1  0.500000  0.208037  0.568018  1
  In  In14  1  0.500000  0.579243  0.648537  1
  In  In15  1  0.500000  0.420757  0.351463  1
  In  In16  1  0.500000  0.921173  0.149943  1
  In  In17  1  0.500000  0.078827  0.850057  1
  Ir  Ir18  1  0.500000  0.519611  0.195016  1
  Ir  Ir19  1  0.500000  0.480389  0.804984  1
  Pd  Pd20  1  0.500000  0.979794  0.695671  1
  Pd  Pd21  1  0.500000  0.020206  0.304329  1
