# generated using pymatgen
data_Tb3Dy4Pa(ReB6)4
_symmetry_space_group_name_H-M   'P 1'
_cell_length_a   3.70172500
_cell_length_b   9.18730516
_cell_length_c   11.56307603
_cell_angle_alpha   90.16956827
_cell_angle_beta   90.00000000
_cell_angle_gamma   90.00000000
_symmetry_Int_Tables_number   1
_chemical_formula_structural   Tb3Dy4Pa(ReB6)4
_chemical_formula_sum   'Tb3 Dy4 Pa1 Re4 B24'
_cell_volume   393.24551032
_cell_formula_units_Z   1
loop_
 _symmetry_equiv_pos_site_id
 _symmetry_equiv_pos_as_xyz
  1  'x, y, z'
loop_
 _atom_site_type_symbol
 _atom_site_label
 _atom_site_symmetry_multiplicity
 _atom_site_fract_x
 _atom_site_fract_y
 _atom_site_fract_z
 _atom_site_occupancy
  Tb  Tb0  1  0.000000  0.678781  0.586891  1
  Tb  Tb1  1  0.000000  0.823657  0.085615  1
  Tb  Tb2  1  0.000000  0.175712  0.913464  1
  Dy  Dy3  1  0.000000  0.942574  0.371738  1
  Dy  Dy4  1  0.000000  0.055393  0.629050  1
  Dy  Dy5  1  0.000000  0.443335  0.127755  1
  Dy  Dy6  1  0.000000  0.557204  0.870042  1
  Pa  Pa7  1  0.000000  0.323534  0.414036  1
  Re  Re8  1  0.000000  0.635269  0.322322  1
  Re  Re9  1  0.000000  0.362123  0.675784  1
  Re  Re10  1  0.000000  0.141176  0.182152  1
  Re  Re11  1  0.000000  0.861620  0.821148  1
  B  B12  1  0.500000  0.552428  0.431847  1
  B  B13  1  0.500000  0.445520  0.566926  1
  B  B14  1  0.500000  0.054030  0.067948  1
  B  B15  1  0.500000  0.946941  0.933287  1
  B  B16  1  0.500000  0.748035  0.418393  1
  B  B17  1  0.500000  0.251460  0.580839  1
  B  B18  1  0.500000  0.248314  0.081124  1
  B  B19  1  0.500000  0.751582  0.918700  1
  B  B20  1  0.500000  0.791026  0.266425  1
  B  B21  1  0.500000  0.208511  0.734004  1
  B  B22  1  0.500000  0.291633  0.234518  1
  B  B23  1  0.500000  0.708642  0.766049  1
  B  B24  1  0.500000  0.631177  0.185452  1
  B  B25  1  0.500000  0.369338  0.813421  1
  B  B26  1  0.500000  0.132464  0.314707  1
  B  B27  1  0.500000  0.868557  0.686424  1
  B  B28  1  0.500000  0.983324  0.212601  1
  B  B29  1  0.500000  0.017090  0.787963  1
  B  B30  1  0.500000  0.482877  0.287583  1
  B  B31  1  0.500000  0.517105  0.712600  1
  B  B32  1  0.500000  0.602274  0.028026  1
  B  B33  1  0.500000  0.397785  0.970671  1
  B  B34  1  0.500000  0.106553  0.470554  1
  B  B35  1  0.500000  0.892957  0.529939  1
