# generated using pymatgen
data_Y8Tm9Lu3Sn16
_symmetry_space_group_name_H-M   'P 1'
_cell_length_a   7.97647565
_cell_length_b   8.11332466
_cell_length_c   15.34527400
_cell_angle_alpha   90.00000000
_cell_angle_beta   90.00000000
_cell_angle_gamma   89.95388504
_symmetry_Int_Tables_number   1
_chemical_formula_structural   Y8Tm9Lu3Sn16
_chemical_formula_sum   'Y8 Tm9 Lu3 Sn16'
_cell_volume   993.08038756
_cell_formula_units_Z   1
loop_
 _symmetry_equiv_pos_site_id
 _symmetry_equiv_pos_as_xyz
  1  'x, y, z'
loop_
 _atom_site_type_symbol
 _atom_site_label
 _atom_site_symmetry_multiplicity
 _atom_site_fract_x
 _atom_site_fract_y
 _atom_site_fract_z
 _atom_site_occupancy
  Y  Y0  1  0.521886  0.321307  0.902998  1
  Y  Y1  1  0.021933  0.178651  0.597060  1
  Y  Y2  1  0.478202  0.678535  0.403004  1
  Y  Y3  1  0.977935  0.821171  0.096977  1
  Y  Y4  1  0.478202  0.678535  0.096996  1
  Y  Y5  1  0.977935  0.821171  0.403023  1
  Y  Y6  1  0.521886  0.321307  0.597002  1
  Y  Y7  1  0.021933  0.178651  0.902940  1
  Tm  Tm8  1  0.367220  0.837153  0.877090  1
  Tm  Tm9  1  0.867231  0.662885  0.622825  1
  Tm  Tm10  1  0.633083  0.163069  0.377162  1
  Tm  Tm11  1  0.132580  0.337314  0.122839  1
  Tm  Tm12  1  0.633083  0.163069  0.122838  1
  Tm  Tm13  1  0.132580  0.337314  0.377161  1
  Tm  Tm14  1  0.367220  0.837153  0.622910  1
  Tm  Tm15  1  0.867231  0.662885  0.877175  1
  Tm  Tm16  1  0.301823  0.004231  0.250000  1
  Lu  Lu17  1  0.198356  0.504383  0.750000  1
  Lu  Lu18  1  0.698348  0.995620  0.750000  1
  Lu  Lu19  1  0.801536  0.495582  0.250000  1
  Sn  Sn20  1  0.294638  0.037761  0.041683  1
  Sn  Sn21  1  0.794629  0.462216  0.458039  1
  Sn  Sn22  1  0.705418  0.962330  0.541990  1
  Sn  Sn23  1  0.205400  0.537782  0.958025  1
  Sn  Sn24  1  0.705418  0.962330  0.958010  1
  Sn  Sn25  1  0.205400  0.537782  0.541975  1
  Sn  Sn26  1  0.294638  0.037761  0.458317  1
  Sn  Sn27  1  0.794629  0.462216  0.041961  1
  Sn  Sn28  1  0.564014  0.620449  0.750000  1
  Sn  Sn29  1  0.063879  0.879431  0.750000  1
  Sn  Sn30  1  0.436220  0.379818  0.250000  1
  Sn  Sn31  1  0.935230  0.120886  0.250000  1
  Sn  Sn32  1  0.331784  0.149038  0.750000  1
  Sn  Sn33  1  0.831499  0.351175  0.750000  1
  Sn  Sn34  1  0.668636  0.850961  0.250000  1
  Sn  Sn35  1  0.168366  0.648083  0.250000  1
