# generated using pymatgen
data_SeF35
_symmetry_space_group_name_H-M   'P 1'
_cell_length_a   9.00872147
_cell_length_b   8.21311361
_cell_length_c   10.49454898
_cell_angle_alpha   81.18762518
_cell_angle_beta   89.32654322
_cell_angle_gamma   64.34907362
_symmetry_Int_Tables_number   1
_chemical_formula_structural   SeF35
_chemical_formula_sum   'Se1 F35'
_cell_volume   690.40202108
_cell_formula_units_Z   1
loop_
 _symmetry_equiv_pos_site_id
 _symmetry_equiv_pos_as_xyz
  1  'x, y, z'
loop_
 _atom_site_type_symbol
 _atom_site_label
 _atom_site_symmetry_multiplicity
 _atom_site_fract_x
 _atom_site_fract_y
 _atom_site_fract_z
 _atom_site_occupancy
  Se  Se0  1  0.862195  0.248819  0.764588  1
  F  F1  1  0.044435  0.755894  0.144260  1
  F  F2  1  0.609524  0.206754  0.483755  1
  F  F3  1  0.390584  0.792825  0.507955  1
  F  F4  1  0.821722  0.727100  0.733523  1
  F  F5  1  0.164676  0.311753  0.297065  1
  F  F6  1  0.116364  0.730254  0.873337  1
  F  F7  1  0.929146  0.209055  0.152948  1
  F  F8  1  0.558021  0.149912  0.377338  1
  F  F9  1  0.446038  0.844617  0.615017  1
  F  F10  1  0.659347  0.327954  0.704879  1
  F  F11  1  0.353500  0.756949  0.231520  1
  F  F12  1  0.924961  0.074965  0.672303  1
  F  F13  1  0.042471  0.860830  0.421699  1
  F  F14  1  0.894775  0.389328  0.637540  1
  F  F15  1  0.112746  0.666970  0.429138  1
  F  F16  1  0.860332  0.790886  0.609480  1
  F  F17  1  0.146610  0.174347  0.391390  1
  F  F18  1  0.799677  0.422297  0.857626  1
  F  F19  1  0.209665  0.501883  0.142397  1
  F  F20  1  0.216592  0.693546  0.765563  1
  F  F21  1  0.787603  0.302843  0.221250  1
  F  F22  1  0.866398  0.838526  0.143622  1
  F  F23  1  0.064313  0.170099  0.825556  1
  F  F24  1  0.828702  0.107570  0.891292  1
  F  F25  1  0.272907  0.891956  0.121043  1
  F  F26  1  0.489426  0.590576  0.984113  1
  F  F27  1  0.505084  0.408446  0.011682  1
  F  F28  1  0.439126  0.099963  0.870581  1
  F  F29  1  0.572084  0.935299  0.127627  1
  F  F30  1  0.284552  0.250144  0.605663  1
  F  F31  1  0.714105  0.745588  0.389014  1
  F  F32  1  0.257390  0.399142  0.672085  1
  F  F33  1  0.752695  0.590691  0.326336  1
  F  F34  1  0.546054  0.925795  0.838644  1
  F  F35  1  0.456180  0.106426  0.158170  1
