# generated using pymatgen
data_Ho2Ta3Ni9As7
_symmetry_space_group_name_H-M   'P 1'
_cell_length_a   3.82950400
_cell_length_b   9.66762315
_cell_length_c   9.66762300
_cell_angle_alpha   120.00000290
_cell_angle_beta   90.00000000
_cell_angle_gamma   90.00000000
_symmetry_Int_Tables_number   1
_chemical_formula_structural   Ho2Ta3Ni9As7
_chemical_formula_sum   'Ho2 Ta3 Ni9 As7'
_cell_volume   309.96493438
_cell_formula_units_Z   1
loop_
 _symmetry_equiv_pos_site_id
 _symmetry_equiv_pos_as_xyz
  1  'x, y, z'
loop_
 _atom_site_type_symbol
 _atom_site_label
 _atom_site_symmetry_multiplicity
 _atom_site_fract_x
 _atom_site_fract_y
 _atom_site_fract_z
 _atom_site_occupancy
  Ho  Ho0  1  0.000000  0.666667  0.333333  1
  Ho  Ho1  1  0.500000  0.333333  0.666667  1
  Ta  Ta2  1  0.500000  0.776693  0.893784  1
  Ta  Ta3  1  0.500000  0.117092  0.223307  1
  Ta  Ta4  1  0.500000  0.106216  0.882908  1
  Ni  Ni5  1  0.000000  0.573685  0.933032  1
  Ni  Ni6  1  0.000000  0.359348  0.426315  1
  Ni  Ni7  1  0.000000  0.066968  0.640652  1
  Ni  Ni8  1  0.000000  0.871038  0.152782  1
  Ni  Ni9  1  0.000000  0.281745  0.128962  1
  Ni  Ni10  1  0.000000  0.847218  0.718255  1
  Ni  Ni11  1  0.500000  0.938404  0.373013  1
  Ni  Ni12  1  0.500000  0.434608  0.061596  1
  Ni  Ni13  1  0.500000  0.626987  0.565392  1
  As  As14  1  0.500000  0.700885  0.115852  1
  As  As15  1  0.500000  0.414967  0.299115  1
  As  As16  1  0.500000  0.884148  0.585033  1
  As  As17  1  0.000000  0.000000  0.000000  1
  As  As18  1  0.000000  0.580950  0.691130  1
  As  As19  1  0.000000  0.110181  0.419050  1
  As  As20  1  0.000000  0.308870  0.889819  1
