# generated using pymatgen
data_La8Zn8AgIr3Rh4
_symmetry_space_group_name_H-M   'P 1'
_cell_length_a   4.05783300
_cell_length_b   7.53507486
_cell_length_c   16.89499199
_cell_angle_alpha   90.37975231
_cell_angle_beta   90.00000000
_cell_angle_gamma   90.00000000
_symmetry_Int_Tables_number   1
_chemical_formula_structural   La8Zn8AgIr3Rh4
_chemical_formula_sum   'La8 Zn8 Ag1 Ir3 Rh4'
_cell_volume   516.57120311
_cell_formula_units_Z   1
loop_
 _symmetry_equiv_pos_site_id
 _symmetry_equiv_pos_as_xyz
  1  'x, y, z'
loop_
 _atom_site_type_symbol
 _atom_site_label
 _atom_site_symmetry_multiplicity
 _atom_site_fract_x
 _atom_site_fract_y
 _atom_site_fract_z
 _atom_site_occupancy
  La  La0  1  0.750000  0.449531  0.213147  1
  La  La1  1  0.750000  0.947385  0.280540  1
  La  La2  1  0.750000  0.828751  0.060354  1
  La  La3  1  0.250000  0.039220  0.726705  1
  La  La4  1  0.250000  0.174049  0.941913  1
  La  La5  1  0.250000  0.550099  0.787905  1
  La  La6  1  0.750000  0.332473  0.427886  1
  La  La7  1  0.250000  0.679240  0.559302  1
  Zn  Zn8  1  0.250000  0.990142  0.432951  1
  Zn  Zn9  1  0.750000  0.501572  0.941952  1
  Zn  Zn10  1  0.750000  0.995746  0.558689  1
  Zn  Zn11  1  0.250000  0.624738  0.347119  1
  Zn  Zn12  1  0.750000  0.385149  0.660416  1
  Zn  Zn13  1  0.750000  0.875144  0.855848  1
  Zn  Zn14  1  0.250000  0.499235  0.058796  1
  Zn  Zn15  1  0.250000  0.123342  0.147957  1
  Ag  Ag16  1  0.250000  0.242760  0.568687  1
  Ir  Ir17  1  0.750000  0.261224  0.066059  1
  Ir  Ir18  1  0.250000  0.241809  0.315087  1
  Ir  Ir19  1  0.750000  0.253041  0.812773  1
  Rh  Rh20  1  0.250000  0.740622  0.935739  1
  Rh  Rh21  1  0.750000  0.755888  0.682527  1
  Rh  Rh22  1  0.750000  0.756498  0.434311  1
  Rh  Rh23  1  0.250000  0.752345  0.183339  1
