# generated using pymatgen
data_Tb10Si6N
_symmetry_space_group_name_H-M   'P 1'
_cell_length_a   8.46455600
_cell_length_b   8.46455504
_cell_length_c   6.39501600
_cell_angle_alpha   90.00000000
_cell_angle_beta   90.00000000
_cell_angle_gamma   119.99999592
_symmetry_Int_Tables_number   1
_chemical_formula_structural   Tb10Si6N
_chemical_formula_sum   'Tb10 Si6 N1'
_cell_volume   396.80816592
_cell_formula_units_Z   1
loop_
 _symmetry_equiv_pos_site_id
 _symmetry_equiv_pos_as_xyz
  1  'x, y, z'
loop_
 _atom_site_type_symbol
 _atom_site_label
 _atom_site_symmetry_multiplicity
 _atom_site_fract_x
 _atom_site_fract_y
 _atom_site_fract_z
 _atom_site_occupancy
  Tb  Tb0  1  0.333333  0.666667  0.500000  1
  Tb  Tb1  1  0.666667  0.333333  0.500000  1
  Tb  Tb2  1  0.666667  0.333333  0.000000  1
  Tb  Tb3  1  0.333333  0.666667  0.000000  1
  Tb  Tb4  1  0.000000  0.767203  0.266609  1
  Tb  Tb5  1  0.232797  0.232797  0.266609  1
  Tb  Tb6  1  0.767203  0.000000  0.266609  1
  Tb  Tb7  1  0.000000  0.232797  0.733391  1
  Tb  Tb8  1  0.767203  0.767203  0.733391  1
  Tb  Tb9  1  0.232797  0.000000  0.733391  1
  Si  Si10  1  0.000000  0.399412  0.251514  1
  Si  Si11  1  0.600588  0.600588  0.251514  1
  Si  Si12  1  0.399412  0.000000  0.251514  1
  Si  Si13  1  0.000000  0.600588  0.748486  1
  Si  Si14  1  0.399412  0.399412  0.748486  1
  Si  Si15  1  0.600588  0.000000  0.748486  1
  N  N16  1  0.000000  0.000000  0.500000  1
