# generated using pymatgen
data_HoPu(GePd2)2
_symmetry_space_group_name_H-M   'P 1'
_cell_length_a   5.55320070
_cell_length_b   7.09765100
_cell_length_c   7.55084587
_cell_angle_alpha   90.00000000
_cell_angle_beta   90.28729231
_cell_angle_gamma   90.00000000
_symmetry_Int_Tables_number   1
_chemical_formula_structural   HoPu(GePd2)2
_chemical_formula_sum   'Ho2 Pu2 Ge4 Pd8'
_cell_volume   297.61043572
_cell_formula_units_Z   2
loop_
 _symmetry_equiv_pos_site_id
 _symmetry_equiv_pos_as_xyz
  1  'x, y, z'
loop_
 _atom_site_type_symbol
 _atom_site_label
 _atom_site_symmetry_multiplicity
 _atom_site_fract_x
 _atom_site_fract_y
 _atom_site_fract_z
 _atom_site_occupancy
  Ho  Ho0  1  0.641773  0.250000  0.964632  1
  Ho  Ho1  1  0.358227  0.750000  0.035368  1
  Pu  Pu2  1  0.144602  0.750000  0.535571  1
  Pu  Pu3  1  0.855398  0.250000  0.464429  1
  Ge  Ge4  1  0.855537  0.750000  0.883835  1
  Ge  Ge5  1  0.144463  0.250000  0.116165  1
  Ge  Ge6  1  0.347588  0.250000  0.614574  1
  Ge  Ge7  1  0.652412  0.750000  0.385426  1
  Pd  Pd8  1  0.587893  0.550215  0.685048  1
  Pd  Pd9  1  0.412107  0.449785  0.314952  1
  Pd  Pd10  1  0.090215  0.449070  0.820629  1
  Pd  Pd11  1  0.412107  0.050215  0.314952  1
  Pd  Pd12  1  0.909785  0.550930  0.179371  1
  Pd  Pd13  1  0.587893  0.949785  0.685048  1
  Pd  Pd14  1  0.909785  0.949070  0.179371  1
  Pd  Pd15  1  0.090215  0.050930  0.820629  1
