# generated using pymatgen
data_Sm2FeC4
_symmetry_space_group_name_H-M   'P 1'
_cell_length_a   6.76740533
_cell_length_b   6.76740610
_cell_length_c   6.76740565
_cell_angle_alpha   135.31163818
_cell_angle_beta   112.63563230
_cell_angle_gamma   84.50196350
_symmetry_Int_Tables_number   1
_chemical_formula_structural   Sm2FeC4
_chemical_formula_sum   'Sm4 Fe2 C8'
_cell_volume   193.47528821
_cell_formula_units_Z   2
loop_
 _symmetry_equiv_pos_site_id
 _symmetry_equiv_pos_as_xyz
  1  'x, y, z'
loop_
 _atom_site_type_symbol
 _atom_site_label
 _atom_site_symmetry_multiplicity
 _atom_site_fract_x
 _atom_site_fract_y
 _atom_site_fract_z
 _atom_site_occupancy
  Sm  Sm0  1  0.195273  0.356631  0.838642  1
  Sm  Sm1  1  0.804727  0.643369  0.161358  1
  Sm  Sm2  1  0.517987  0.856631  0.661358  1
  Sm  Sm3  1  0.482013  0.143369  0.338642  1
  Fe  Fe4  1  0.000000  0.250000  0.250000  1
  Fe  Fe5  1  0.000000  0.750000  0.750000  1
  C  C6  1  0.793971  0.126567  0.667405  1
  C  C7  1  0.206029  0.873433  0.332595  1
  C  C8  1  0.459162  0.626567  0.832595  1
  C  C9  1  0.540838  0.373433  0.167405  1
  C  C10  1  0.916876  0.078347  0.838529  1
  C  C11  1  0.083124  0.921653  0.161471  1
  C  C12  1  0.239818  0.578347  0.661471  1
  C  C13  1  0.760182  0.421653  0.338529  1
