# generated using pymatgen
data_Dy7ErLu2(In2Pt)4
_symmetry_space_group_name_H-M   'P 1'
_cell_length_a   3.62296500
_cell_length_b   8.13816776
_cell_length_c   18.15682123
_cell_angle_alpha   89.94718402
_cell_angle_beta   90.00000000
_cell_angle_gamma   90.00000000
_symmetry_Int_Tables_number   1
_chemical_formula_structural   Dy7ErLu2(In2Pt)4
_chemical_formula_sum   'Dy7 Er1 Lu2 In8 Pt4'
_cell_volume   535.34088132
_cell_formula_units_Z   1
loop_
 _symmetry_equiv_pos_site_id
 _symmetry_equiv_pos_as_xyz
  1  'x, y, z'
loop_
 _atom_site_type_symbol
 _atom_site_label
 _atom_site_symmetry_multiplicity
 _atom_site_fract_x
 _atom_site_fract_y
 _atom_site_fract_z
 _atom_site_occupancy
  Dy  Dy0  1  0.000000  0.617445  0.084449  1
  Dy  Dy1  1  0.000000  0.243189  0.219886  1
  Dy  Dy2  1  0.000000  0.757626  0.780319  1
  Dy  Dy3  1  0.000000  0.257362  0.719110  1
  Dy  Dy4  1  0.000000  0.742109  0.281086  1
  Dy  Dy5  1  0.000000  0.999658  0.999527  1
  Dy  Dy6  1  0.000000  0.500348  0.500198  1
  Er  Er7  1  0.000000  0.117274  0.415010  1
  Lu  Lu8  1  0.000000  0.883353  0.586136  1
  Lu  Lu9  1  0.000000  0.383295  0.913585  1
  In  In10  1  0.500000  0.420872  0.351534  1
  In  In11  1  0.500000  0.579414  0.648904  1
  In  In12  1  0.500000  0.079226  0.850885  1
  In  In13  1  0.500000  0.923379  0.149639  1
  In  In14  1  0.500000  0.293601  0.064895  1
  In  In15  1  0.500000  0.704177  0.933367  1
  In  In16  1  0.500000  0.203060  0.564982  1
  In  In17  1  0.500000  0.796517  0.435544  1
  Pt  Pt18  1  0.500000  0.025881  0.304812  1
  Pt  Pt19  1  0.500000  0.973660  0.694708  1
  Pt  Pt20  1  0.500000  0.473092  0.804769  1
  Pt  Pt21  1  0.500000  0.525461  0.196654  1
