# generated using pymatgen
data_BaNa4(IrN)3
_symmetry_space_group_name_H-M   'P 1'
_cell_length_a   8.10237300
_cell_length_b   8.47742343
_cell_length_c   3.72473300
_cell_angle_alpha   90.00000000
_cell_angle_beta   90.00000000
_cell_angle_gamma   118.54700116
_symmetry_Int_Tables_number   1
_chemical_formula_structural   BaNa4(IrN)3
_chemical_formula_sum   'Ba1 Na4 Ir3 N3'
_cell_volume   224.73780565
_cell_formula_units_Z   1
loop_
 _symmetry_equiv_pos_site_id
 _symmetry_equiv_pos_as_xyz
  1  'x, y, z'
loop_
 _atom_site_type_symbol
 _atom_site_label
 _atom_site_symmetry_multiplicity
 _atom_site_fract_x
 _atom_site_fract_y
 _atom_site_fract_z
 _atom_site_occupancy
  Ba  Ba0  1  0.731200  0.000000  0.500001  1
  Na  Na1  1  0.265426  0.264127  0.500001  1
  Na  Na2  1  0.668396  0.348291  0.500001  1
  Na  Na3  1  0.320106  0.651710  0.500001  1
  Na  Na4  1  0.001299  0.735874  0.500001  1
  Ir  Ir5  1  0.366297  0.000000  0.000000  1
  Ir  Ir6  1  0.006218  0.371085  0.000000  1
  Ir  Ir7  1  0.635133  0.628915  0.000000  1
  N  N8  1  0.365237  0.000000  0.500001  1
  N  N9  1  0.007566  0.374446  0.500001  1
  N  N10  1  0.633122  0.625556  0.500001  1
