# generated using pymatgen
data_Er3Mg2CdSn2Pd
_symmetry_space_group_name_H-M   'P 1'
_cell_length_a   7.38161044
_cell_length_b   7.38161057
_cell_length_c   4.49073800
_cell_angle_alpha   90.00000000
_cell_angle_beta   90.00000000
_cell_angle_gamma   119.66556063
_symmetry_Int_Tables_number   1
_chemical_formula_structural   Er3Mg2CdSn2Pd
_chemical_formula_sum   'Er3 Mg2 Cd1 Sn2 Pd1'
_cell_volume   212.62011319
_cell_formula_units_Z   1
loop_
 _symmetry_equiv_pos_site_id
 _symmetry_equiv_pos_as_xyz
  1  'x, y, z'
loop_
 _atom_site_type_symbol
 _atom_site_label
 _atom_site_symmetry_multiplicity
 _atom_site_fract_x
 _atom_site_fract_y
 _atom_site_fract_z
 _atom_site_occupancy
  Er  Er0  1  0.405873  0.405873  0.500000  1
  Er  Er1  1  0.595983  0.999171  0.500000  1
  Er  Er2  1  0.999171  0.595983  0.500000  1
  Mg  Mg3  1  0.230463  0.999520  0.000000  1
  Mg  Mg4  1  0.999520  0.230463  0.000000  1
  Cd  Cd5  1  0.765297  0.765297  0.000000  1
  Sn  Sn6  1  0.665702  0.329929  0.000000  1
  Sn  Sn7  1  0.329929  0.665702  0.000000  1
  Pd  Pd8  1  0.008062  0.008062  0.500000  1
