# generated using pymatgen
data_Yb2SmDyAl8
_symmetry_space_group_name_H-M   'P 1'
_cell_length_a   9.61721434
_cell_length_b   9.61721345
_cell_length_c   9.61721261
_cell_angle_alpha   34.10605881
_cell_angle_beta   34.10605535
_cell_angle_gamma   34.10606455
_symmetry_Int_Tables_number   1
_chemical_formula_structural   Yb2SmDyAl8
_chemical_formula_sum   'Yb2 Sm1 Dy1 Al8'
_cell_volume   249.33761498
_cell_formula_units_Z   1
loop_
 _symmetry_equiv_pos_site_id
 _symmetry_equiv_pos_as_xyz
  1  'x, y, z'
loop_
 _atom_site_type_symbol
 _atom_site_label
 _atom_site_symmetry_multiplicity
 _atom_site_fract_x
 _atom_site_fract_y
 _atom_site_fract_z
 _atom_site_occupancy
  Yb  Yb0  1  0.313259  0.313259  0.313259  1
  Yb  Yb1  1  0.686619  0.686619  0.686619  1
  Sm  Sm2  1  0.811256  0.811256  0.811256  1
  Dy  Dy3  1  0.188674  0.188674  0.188674  1
  Al  Al4  1  0.500201  0.500201  0.500201  1
  Al  Al5  1  0.999847  0.999847  0.999847  1
  Al  Al6  1  0.250203  0.250203  0.754893  1
  Al  Al7  1  0.749660  0.749660  0.245523  1
  Al  Al8  1  0.250203  0.754893  0.250203  1
  Al  Al9  1  0.749660  0.245523  0.749660  1
  Al  Al10  1  0.754893  0.250203  0.250203  1
  Al  Al11  1  0.245523  0.749660  0.749660  1
