# generated using pymatgen
data_La13Pr3(In3Co)2
_symmetry_space_group_name_H-M   'P 1'
_cell_length_a   11.01381202
_cell_length_b   11.01416766
_cell_length_c   7.14718101
_cell_angle_alpha   90.00271482
_cell_angle_beta   89.99366601
_cell_angle_gamma   119.99681623
_symmetry_Int_Tables_number   1
_chemical_formula_structural   La13Pr3(In3Co)2
_chemical_formula_sum   'La13 Pr3 In6 Co2'
_cell_volume   750.87679869
_cell_formula_units_Z   1
loop_
 _symmetry_equiv_pos_site_id
 _symmetry_equiv_pos_as_xyz
  1  'x, y, z'
loop_
 _atom_site_type_symbol
 _atom_site_label
 _atom_site_symmetry_multiplicity
 _atom_site_fract_x
 _atom_site_fract_y
 _atom_site_fract_z
 _atom_site_occupancy
  La  La0  1  0.461868  0.538135  0.496428  1
  La  La1  1  0.076231  0.538116  0.496455  1
  La  La2  1  0.461890  0.923756  0.496461  1
  La  La3  1  0.538336  0.461643  0.995283  1
  La  La4  1  0.923345  0.461678  0.995312  1
  La  La5  1  0.538305  0.076654  0.995314  1
  La  La6  1  0.822205  0.177795  0.261859  1
  La  La7  1  0.355606  0.177809  0.261917  1
  La  La8  1  0.822200  0.644397  0.261901  1
  La  La9  1  0.176968  0.823030  0.762064  1
  La  La10  1  0.646067  0.823025  0.762075  1
  La  La11  1  0.176957  0.353936  0.762062  1
  La  La12  1  0.333323  0.666672  0.090539  1
  Pr  Pr13  1  0.666671  0.333336  0.595496  1
  Pr  Pr14  1  0.999988  0.999997  0.483923  1
  Pr  Pr15  1  0.000014  0.999997  0.983674  1
  In  In16  1  0.163613  0.836433  0.239612  1
  In  In17  1  0.672663  0.836269  0.239667  1
  In  In18  1  0.163756  0.327390  0.239748  1
  In  In19  1  0.835657  0.164204  0.739072  1
  In  In20  1  0.328595  0.164308  0.739061  1
  In  In21  1  0.835739  0.671427  0.739064  1
  Co  Co22  1  0.333328  0.666665  0.709393  1
  Co  Co23  1  0.666673  0.333326  0.198170  1
