# generated using pymatgen
data_PrYSiRhI2
_symmetry_space_group_name_H-M   'P 1'
_cell_length_a   4.21078800
_cell_length_b   4.21078854
_cell_length_c   12.03512900
_cell_angle_alpha   90.00000000
_cell_angle_beta   90.00000000
_cell_angle_gamma   119.99999577
_symmetry_Int_Tables_number   1
_chemical_formula_structural   PrYSiRhI2
_chemical_formula_sum   'Pr1 Y1 Si1 Rh1 I2'
_cell_volume   184.80265600
_cell_formula_units_Z   1
loop_
 _symmetry_equiv_pos_site_id
 _symmetry_equiv_pos_as_xyz
  1  'x, y, z'
loop_
 _atom_site_type_symbol
 _atom_site_label
 _atom_site_symmetry_multiplicity
 _atom_site_fract_x
 _atom_site_fract_y
 _atom_site_fract_z
 _atom_site_occupancy
  Pr  Pr0  1  0.000000  0.000000  0.838990  1
  Y  Y1  1  0.000000  0.000000  0.158565  1
  Si  Si2  1  0.666667  0.333333  0.998321  1
  Rh  Rh3  1  0.333333  0.666667  0.013822  1
  I  I4  1  0.333333  0.666667  0.658018  1
  I  I5  1  0.666667  0.333333  0.332283  1
