# generated using pymatgen
data_Pr11Tl9Pt4
_symmetry_space_group_name_H-M   'P 1'
_cell_length_a   3.83976900
_cell_length_b   13.77199371
_cell_length_c   13.77162596
_cell_angle_alpha   111.23199910
_cell_angle_beta   90.00000000
_cell_angle_gamma   90.00000000
_symmetry_Int_Tables_number   1
_chemical_formula_structural   Pr11Tl9Pt4
_chemical_formula_sum   'Pr11 Tl9 Pt4'
_cell_volume   678.82799945
_cell_formula_units_Z   1
loop_
 _symmetry_equiv_pos_site_id
 _symmetry_equiv_pos_as_xyz
  1  'x, y, z'
loop_
 _atom_site_type_symbol
 _atom_site_label
 _atom_site_symmetry_multiplicity
 _atom_site_fract_x
 _atom_site_fract_y
 _atom_site_fract_z
 _atom_site_occupancy
  Pr  Pr0  1  0.000000  0.999994  0.999992  1
  Pr  Pr1  1  0.000000  0.417906  0.076644  1
  Pr  Pr2  1  0.000000  0.838593  0.161411  1
  Pr  Pr3  1  0.000000  0.311575  0.311524  1
  Pr  Pr4  1  0.000000  0.627888  0.372116  1
  Pr  Pr5  1  0.000000  0.076706  0.417966  1
  Pr  Pr6  1  0.000000  0.923361  0.582097  1
  Pr  Pr7  1  0.000000  0.372047  0.627948  1
  Pr  Pr8  1  0.000000  0.688486  0.688422  1
  Pr  Pr9  1  0.000000  0.161376  0.838621  1
  Pr  Pr10  1  0.000000  0.582036  0.923295  1
  Tl  Tl11  1  0.499999  0.215482  0.070524  1
  Tl  Tl12  1  0.499999  0.633475  0.157053  1
  Tl  Tl13  1  0.499999  0.070565  0.215523  1
  Tl  Tl14  1  0.499999  0.842946  0.366528  1
  Tl  Tl15  1  0.499999  0.499979  0.500026  1
  Tl  Tl16  1  0.499999  0.157075  0.633505  1
  Tl  Tl17  1  0.499999  0.929478  0.784517  1
  Tl  Tl18  1  0.499999  0.366493  0.842921  1
  Tl  Tl19  1  0.499999  0.784478  0.929439  1
  Pt  Pt20  1  0.499999  0.450734  0.248086  1
  Pt  Pt21  1  0.499999  0.248156  0.450740  1
  Pt  Pt22  1  0.499999  0.751917  0.549267  1
  Pt  Pt23  1  0.499999  0.549259  0.751842  1
