# generated using pymatgen
data_TbGeF36
_symmetry_space_group_name_H-M   'P 1'
_cell_length_a   6.90104829
_cell_length_b   8.52795316
_cell_length_c   13.48132597
_cell_angle_alpha   108.49889140
_cell_angle_beta   86.18503208
_cell_angle_gamma   111.61954165
_symmetry_Int_Tables_number   1
_chemical_formula_structural   TbGeF36
_chemical_formula_sum   'Tb1 Ge1 F36'
_cell_volume   698.33186990
_cell_formula_units_Z   1
loop_
 _symmetry_equiv_pos_site_id
 _symmetry_equiv_pos_as_xyz
  1  'x, y, z'
loop_
 _atom_site_type_symbol
 _atom_site_label
 _atom_site_symmetry_multiplicity
 _atom_site_fract_x
 _atom_site_fract_y
 _atom_site_fract_z
 _atom_site_occupancy
  Tb  Tb0  1  0.074098  0.914590  0.240066  1
  Ge  Ge1  1  0.962972  0.072390  0.720386  1
  F  F2  1  0.681606  0.602028  0.390669  1
  F  F3  1  0.345606  0.415708  0.608862  1
  F  F4  1  0.052083  0.360188  0.366309  1
  F  F5  1  0.939747  0.628119  0.621882  1
  F  F6  1  0.203246  0.904874  0.955779  1
  F  F7  1  0.810043  0.098498  0.038911  1
  F  F8  1  0.821245  0.874520  0.347369  1
  F  F9  1  0.197895  0.127879  0.663090  1
  F  F10  1  0.145306  0.681054  0.185647  1
  F  F11  1  0.912179  0.262934  0.777988  1
  F  F12  1  0.596103  0.424909  0.396585  1
  F  F13  1  0.438301  0.592896  0.604314  1
  F  F14  1  0.024517  0.059850  0.154755  1
  F  F15  1  0.973792  0.974382  0.811970  1
  F  F16  1  0.102397  0.060486  0.409996  1
  F  F17  1  0.772420  0.923637  0.625466  1
  F  F18  1  0.076297  0.461919  0.296666  1
  F  F19  1  0.959822  0.547231  0.696396  1
  F  F20  1  0.836520  0.774144  0.081070  1
  F  F21  1  0.289951  0.314136  0.938316  1
  F  F22  1  0.752289  0.576716  0.037740  1
  F  F23  1  0.213271  0.439933  0.008933  1
  F  F24  1  0.590342  0.592298  0.841132  1
  F  F25  1  0.446345  0.414034  0.174034  1
  F  F26  1  0.598454  0.081809  0.276786  1
  F  F27  1  0.351508  0.885737  0.733301  1
  F  F28  1  0.252430  0.865422  0.461049  1
  F  F29  1  0.735895  0.151384  0.505883  1
  F  F30  1  0.264532  0.841487  0.030042  1
  F  F31  1  0.676422  0.100787  0.962336  1
  F  F32  1  0.417470  0.902606  0.237348  1
  F  F33  1  0.485915  0.063504  0.785882  1
  F  F34  1  0.596852  0.331463  0.159583  1
  F  F35  1  0.437218  0.667902  0.841704  1
  F  F36  1  0.361442  0.757289  0.471737  1
  F  F37  1  0.603465  0.251252  0.540018  1
