# generated using pymatgen
data_K6ErLuF12
_symmetry_space_group_name_H-M   'P 1'
_cell_length_a   6.58773815
_cell_length_b   6.36876056
_cell_length_c   11.08653331
_cell_angle_alpha   55.27089206
_cell_angle_beta   90.00764453
_cell_angle_gamma   89.98502920
_symmetry_Int_Tables_number   1
_chemical_formula_structural   K6ErLuF12
_chemical_formula_sum   'K6 Er1 Lu1 F12'
_cell_volume   382.28040020
_cell_formula_units_Z   1
loop_
 _symmetry_equiv_pos_site_id
 _symmetry_equiv_pos_as_xyz
  1  'x, y, z'
loop_
 _atom_site_type_symbol
 _atom_site_label
 _atom_site_symmetry_multiplicity
 _atom_site_fract_x
 _atom_site_fract_y
 _atom_site_fract_z
 _atom_site_occupancy
  K  K0  1  0.500000  0.500000  0.000000  1
  K  K1  1  0.000000  0.500000  0.500000  1
  K  K2  1  0.049111  0.732141  0.754942  1
  K  K3  1  0.950889  0.267859  0.245058  1
  K  K4  1  0.549910  0.264835  0.748151  1
  K  K5  1  0.450090  0.735165  0.251849  1
  Er  Er6  1  0.500000  0.000000  0.500000  1
  Lu  Lu7  1  0.000000  0.000000  0.000000  1
  F  F8  1  0.772558  0.766451  0.566421  1
  F  F9  1  0.227442  0.233549  0.433579  1
  F  F10  1  0.267853  0.229915  0.935071  1
  F  F11  1  0.732147  0.770085  0.064929  1
  F  F12  1  0.447596  0.884065  0.723516  1
  F  F13  1  0.552404  0.115935  0.276484  1
  F  F14  1  0.948823  0.113951  0.780282  1
  F  F15  1  0.051177  0.886049  0.219718  1
  F  F16  1  0.325727  0.671939  0.549163  1
  F  F17  1  0.674273  0.328061  0.450837  1
  F  F18  1  0.826932  0.321810  0.952074  1
  F  F19  1  0.173068  0.678190  0.047926  1
