# generated using pymatgen
data_Ho2Mn16SiC2
_symmetry_space_group_name_H-M   'P 1'
_cell_length_a   6.39417943
_cell_length_b   6.45000198
_cell_length_c   6.39417984
_cell_angle_alpha   83.72733761
_cell_angle_beta   83.45943465
_cell_angle_gamma   83.72732663
_symmetry_Int_Tables_number   1
_chemical_formula_structural   Ho2Mn16SiC2
_chemical_formula_sum   'Ho2 Mn16 Si1 C2'
_cell_volume   259.17236735
_cell_formula_units_Z   1
loop_
 _symmetry_equiv_pos_site_id
 _symmetry_equiv_pos_as_xyz
  1  'x, y, z'
loop_
 _atom_site_type_symbol
 _atom_site_label
 _atom_site_symmetry_multiplicity
 _atom_site_fract_x
 _atom_site_fract_y
 _atom_site_fract_z
 _atom_site_occupancy
  Ho  Ho0  1  0.648192  0.653681  0.648192  1
  Ho  Ho1  1  0.351808  0.346319  0.351808  1
  Mn  Mn2  1  0.905179  0.907356  0.905179  1
  Mn  Mn3  1  0.094821  0.092644  0.094821  1
  Mn  Mn4  1  0.727443  0.000000  0.272557  1
  Mn  Mn5  1  0.991763  0.279189  0.718216  1
  Mn  Mn6  1  0.281784  0.720811  0.008237  1
  Mn  Mn7  1  0.008237  0.720811  0.281784  1
  Mn  Mn8  1  0.718216  0.279189  0.991763  1
  Mn  Mn9  1  0.272557  0.000000  0.727443  1
  Mn  Mn10  1  0.340319  0.338082  0.859855  1
  Mn  Mn11  1  0.352444  0.870683  0.352444  1
  Mn  Mn12  1  0.859855  0.338082  0.340319  1
  Mn  Mn13  1  0.659681  0.661918  0.140145  1
  Mn  Mn14  1  0.647556  0.129317  0.647556  1
  Mn  Mn15  1  0.140145  0.661918  0.659681  1
  Mn  Mn16  1  0.500000  0.000000  0.000000  1
  Mn  Mn17  1  0.000000  0.000000  0.500000  1
  Si  Si18  1  0.000000  0.500000  0.000000  1
  C  C19  1  0.000000  0.500000  0.500000  1
  C  C20  1  0.500000  0.500000  0.000000  1
