# generated using pymatgen
data_Ho3Er5Tc(B8Os)3
_symmetry_space_group_name_H-M   'P 1'
_cell_length_a   3.64423000
_cell_length_b   9.12185445
_cell_length_c   11.50687400
_cell_angle_alpha   89.95035713
_cell_angle_beta   90.00000000
_cell_angle_gamma   90.00000000
_symmetry_Int_Tables_number   1
_chemical_formula_structural   Ho3Er5Tc(B8Os)3
_chemical_formula_sum   'Ho3 Er5 Tc1 B24 Os3'
_cell_volume   382.51292270
_cell_formula_units_Z   1
loop_
 _symmetry_equiv_pos_site_id
 _symmetry_equiv_pos_as_xyz
  1  'x, y, z'
loop_
 _atom_site_type_symbol
 _atom_site_label
 _atom_site_symmetry_multiplicity
 _atom_site_fract_x
 _atom_site_fract_y
 _atom_site_fract_z
 _atom_site_occupancy
  Ho  Ho0  1  0.000000  0.323855  0.412968  1
  Ho  Ho1  1  0.000000  0.677253  0.583706  1
  Ho  Ho2  1  0.000000  0.820276  0.088160  1
  Er  Er3  1  0.000000  0.177813  0.914795  1
  Er  Er4  1  0.000000  0.942927  0.372714  1
  Er  Er5  1  0.000000  0.056662  0.627361  1
  Er  Er6  1  0.000000  0.444734  0.127963  1
  Er  Er7  1  0.000000  0.556358  0.872420  1
  Tc  Tc8  1  0.000000  0.637818  0.321175  1
  B  B9  1  0.500000  0.552985  0.433132  1
  B  B10  1  0.500000  0.446427  0.567231  1
  B  B11  1  0.500000  0.053721  0.066878  1
  B  B12  1  0.500000  0.946479  0.933220  1
  B  B13  1  0.500000  0.748442  0.419625  1
  B  B14  1  0.500000  0.251706  0.580326  1
  B  B15  1  0.500000  0.248603  0.080045  1
  B  B16  1  0.500000  0.751483  0.919715  1
  B  B17  1  0.500000  0.791723  0.266293  1
  B  B18  1  0.500000  0.208518  0.733784  1
  B  B19  1  0.500000  0.291374  0.233070  1
  B  B20  1  0.500000  0.709024  0.766338  1
  B  B21  1  0.500000  0.631576  0.185613  1
  B  B22  1  0.500000  0.368099  0.814900  1
  B  B23  1  0.500000  0.131539  0.314182  1
  B  B24  1  0.500000  0.868731  0.685393  1
  B  B25  1  0.500000  0.982793  0.212859  1
  B  B26  1  0.500000  0.017367  0.787493  1
  B  B27  1  0.500000  0.482289  0.287095  1
  B  B28  1  0.500000  0.516882  0.712986  1
  B  B29  1  0.500000  0.606789  0.029171  1
  B  B30  1  0.500000  0.392757  0.970146  1
  B  B31  1  0.500000  0.107221  0.470436  1
  B  B32  1  0.500000  0.893792  0.529902  1
  Os  Os33  1  0.000000  0.361706  0.679489  1
  Os  Os34  1  0.000000  0.137690  0.178024  1
  Os  Os35  1  0.000000  0.862590  0.821397  1
