# generated using pymatgen
data_Pr3In3Pd2Pt
_symmetry_space_group_name_H-M   'P 1'
_cell_length_a   7.84258900
_cell_length_b   7.84258899
_cell_length_c   4.04739600
_cell_angle_alpha   90.00000000
_cell_angle_beta   90.00000000
_cell_angle_gamma   120.00000428
_symmetry_Int_Tables_number   1
_chemical_formula_structural   Pr3In3Pd2Pt
_chemical_formula_sum   'Pr3 In3 Pd2 Pt1'
_cell_volume   215.58831696
_cell_formula_units_Z   1
loop_
 _symmetry_equiv_pos_site_id
 _symmetry_equiv_pos_as_xyz
  1  'x, y, z'
loop_
 _atom_site_type_symbol
 _atom_site_label
 _atom_site_symmetry_multiplicity
 _atom_site_fract_x
 _atom_site_fract_y
 _atom_site_fract_z
 _atom_site_occupancy
  Pr  Pr0  1  0.414831  0.409602  0.500000  1
  Pr  Pr1  1  0.590398  0.005230  0.500000  1
  Pr  Pr2  1  0.994770  0.585169  0.500000  1
  In  In3  1  0.747634  0.748949  0.000000  1
  In  In4  1  0.251051  0.998685  0.000000  1
  In  In5  1  0.001315  0.252366  0.000000  1
  Pd  Pd6  1  0.333333  0.666667  0.000000  1
  Pd  Pd7  1  0.000000  0.000000  0.500000  1
  Pt  Pt8  1  0.666667  0.333333  0.000000  1
