# generated using pymatgen
data_La3TbAs7Ir8
_symmetry_space_group_name_H-M   'P 1'
_cell_length_a   4.14915600
_cell_length_b   13.22203012
_cell_length_c   13.68464120
_cell_angle_alpha   82.14988050
_cell_angle_beta   90.00000000
_cell_angle_gamma   90.00000000
_symmetry_Int_Tables_number   1
_chemical_formula_structural   La3TbAs7Ir8
_chemical_formula_sum   'La6 Tb2 As14 Ir16'
_cell_volume   743.70764628
_cell_formula_units_Z   2
loop_
 _symmetry_equiv_pos_site_id
 _symmetry_equiv_pos_as_xyz
  1  'x, y, z'
loop_
 _atom_site_type_symbol
 _atom_site_label
 _atom_site_symmetry_multiplicity
 _atom_site_fract_x
 _atom_site_fract_y
 _atom_site_fract_z
 _atom_site_occupancy
  La  La0  1  0.250000  0.100196  0.794062  1
  La  La1  1  0.750000  0.899804  0.205938  1
  La  La2  1  0.250000  0.286925  0.103820  1
  La  La3  1  0.750000  0.713075  0.896180  1
  La  La4  1  0.250000  0.517883  0.292710  1
  La  La5  1  0.750000  0.482117  0.707290  1
  Tb  Tb6  1  0.250000  0.206332  0.440330  1
  Tb  Tb7  1  0.750000  0.793668  0.559670  1
  As  As8  1  0.250000  0.057795  0.100651  1
  As  As9  1  0.750000  0.942205  0.899349  1
  As  As10  1  0.250000  0.310957  0.686168  1
  As  As11  1  0.750000  0.689043  0.313832  1
  As  As12  1  0.250000  0.608898  0.566095  1
  As  As13  1  0.750000  0.391102  0.433905  1
  As  As14  1  0.250000  0.847501  0.717176  1
  As  As15  1  0.750000  0.152499  0.282824  1
  As  As16  1  0.750000  0.255187  0.917603  1
  As  As17  1  0.250000  0.744813  0.082397  1
  As  As18  1  0.750000  0.095736  0.585557  1
  As  As19  1  0.250000  0.904264  0.414443  1
  As  As20  1  0.750000  0.471784  0.127889  1
  As  As21  1  0.250000  0.528216  0.872111  1
  Ir  Ir22  1  0.250000  0.988593  0.572848  1
  Ir  Ir23  1  0.750000  0.011407  0.427152  1
  Ir  Ir24  1  0.250000  0.665409  0.732045  1
  Ir  Ir25  1  0.750000  0.334591  0.267955  1
  Ir  Ir26  1  0.250000  0.555376  0.046313  1
  Ir  Ir27  1  0.750000  0.444624  0.953687  1
  Ir  Ir28  1  0.250000  0.054800  0.280754  1
  Ir  Ir29  1  0.750000  0.945200  0.719246  1
  Ir  Ir30  1  0.250000  0.424395  0.525191  1
  Ir  Ir31  1  0.750000  0.575605  0.474809  1
  Ir  Ir32  1  0.250000  0.920269  0.996587  1
  Ir  Ir33  1  0.750000  0.079731  0.003413  1
  Ir  Ir34  1  0.250000  0.722858  0.404470  1
  Ir  Ir35  1  0.750000  0.277142  0.595530  1
  Ir  Ir36  1  0.250000  0.342395  0.860367  1
  Ir  Ir37  1  0.750000  0.657605  0.139633  1
