# generated using pymatgen
data_Tb2Al19Co6
_symmetry_space_group_name_H-M   'P 1'
_cell_length_a   10.61423232
_cell_length_b   10.61423283
_cell_length_c   8.15856300
_cell_angle_alpha   78.53480491
_cell_angle_beta   78.53480435
_cell_angle_gamma   68.88765937
_symmetry_Int_Tables_number   1
_chemical_formula_structural   Tb2Al19Co6
_chemical_formula_sum   'Tb4 Al38 Co12'
_cell_volume   832.18188295
_cell_formula_units_Z   2
loop_
 _symmetry_equiv_pos_site_id
 _symmetry_equiv_pos_as_xyz
  1  'x, y, z'
loop_
 _atom_site_type_symbol
 _atom_site_label
 _atom_site_symmetry_multiplicity
 _atom_site_fract_x
 _atom_site_fract_y
 _atom_site_fract_z
 _atom_site_occupancy
  Tb  Tb0  1  0.279689  0.279689  0.744040  1
  Tb  Tb1  1  0.720311  0.720311  0.255960  1
  Tb  Tb2  1  0.281012  0.281012  0.227126  1
  Tb  Tb3  1  0.718988  0.718988  0.772874  1
  Al  Al4  1  0.200143  0.853703  0.637050  1
  Al  Al5  1  0.534477  0.186976  0.945231  1
  Al  Al6  1  0.329484  0.565403  0.154718  1
  Al  Al7  1  0.815024  0.482467  0.551506  1
  Al  Al8  1  0.001830  0.503181  0.760284  1
  Al  Al9  1  0.496819  0.998170  0.239716  1
  Al  Al10  1  0.167381  0.832619  0.000000  1
  Al  Al11  1  0.910547  0.910547  0.184759  1
  Al  Al12  1  0.089453  0.089453  0.815241  1
  Al  Al13  1  0.918419  0.918419  0.644309  1
  Al  Al14  1  0.565403  0.329484  0.154718  1
  Al  Al15  1  0.813024  0.465523  0.054769  1
  Al  Al16  1  0.081581  0.081581  0.355691  1
  Al  Al17  1  0.832619  0.167381  0.000000  1
  Al  Al18  1  0.434597  0.670516  0.845282  1
  Al  Al19  1  0.701467  0.933010  0.466436  1
  Al  Al20  1  0.066990  0.298533  0.533564  1
  Al  Al21  1  0.799857  0.146297  0.362950  1
  Al  Al22  1  0.277292  0.052955  0.047629  1
  Al  Al23  1  0.947045  0.722708  0.952371  1
  Al  Al24  1  0.186976  0.534477  0.945231  1
  Al  Al25  1  0.853703  0.200143  0.637050  1
  Al  Al26  1  0.298533  0.066990  0.533564  1
  Al  Al27  1  0.328753  0.562230  0.648494  1
  Al  Al28  1  0.052955  0.277292  0.047629  1
  Al  Al29  1  0.184976  0.517533  0.448494  1
  Al  Al30  1  0.933010  0.701467  0.466436  1
  Al  Al31  1  0.562230  0.328753  0.648494  1
  Al  Al32  1  0.670516  0.434597  0.845282  1
  Al  Al33  1  0.671247  0.437770  0.351506  1
  Al  Al34  1  0.722708  0.947045  0.952371  1
  Al  Al35  1  0.146297  0.799857  0.362950  1
  Al  Al36  1  0.465523  0.813024  0.054769  1
  Al  Al37  1  0.517533  0.184976  0.448494  1
  Al  Al38  1  0.482467  0.815024  0.551506  1
  Al  Al39  1  0.503181  0.001830  0.760284  1
  Al  Al40  1  0.437770  0.671247  0.351506  1
  Al  Al41  1  0.998170  0.496819  0.239716  1
  Co  Co42  1  0.320318  0.921543  0.811543  1
  Co  Co43  1  0.082312  0.686879  0.670156  1
  Co  Co44  1  0.562499  0.562499  0.093532  1
  Co  Co45  1  0.921543  0.320318  0.811543  1
  Co  Co46  1  0.313121  0.917688  0.329844  1
  Co  Co47  1  0.437501  0.437501  0.906468  1
  Co  Co48  1  0.438033  0.438033  0.405464  1
  Co  Co49  1  0.917688  0.313121  0.329844  1
  Co  Co50  1  0.679682  0.078457  0.188457  1
  Co  Co51  1  0.686879  0.082312  0.670156  1
  Co  Co52  1  0.561967  0.561967  0.594536  1
  Co  Co53  1  0.078457  0.679682  0.188457  1
