# generated using pymatgen
data_La7Yb6Pr7Ir12
_symmetry_space_group_name_H-M   'P 1'
_cell_length_a   11.24869646
_cell_length_b   11.32159189
_cell_length_c   6.48717278
_cell_angle_alpha   90.00217679
_cell_angle_beta   90.40607741
_cell_angle_gamma   89.95450363
_symmetry_Int_Tables_number   1
_chemical_formula_structural   La7Yb6Pr7Ir12
_chemical_formula_sum   'La7 Yb6 Pr7 Ir12'
_cell_volume   826.14088144
_cell_formula_units_Z   1
loop_
 _symmetry_equiv_pos_site_id
 _symmetry_equiv_pos_as_xyz
  1  'x, y, z'
loop_
 _atom_site_type_symbol
 _atom_site_label
 _atom_site_symmetry_multiplicity
 _atom_site_fract_x
 _atom_site_fract_y
 _atom_site_fract_z
 _atom_site_occupancy
  La  La0  1  0.712468  0.089443  0.890128  1
  La  La1  1  0.712567  0.910284  0.389964  1
  La  La2  1  0.583875  0.788267  0.885503  1
  La  La3  1  0.584537  0.211626  0.385764  1
  La  La4  1  0.403969  0.792895  0.385717  1
  La  La5  1  0.404214  0.206996  0.886163  1
  La  La6  1  0.212901  0.409980  0.615583  1
  Yb  Yb7  1  0.289522  0.085329  0.380715  1
  Yb  Yb8  1  0.289428  0.914360  0.881035  1
  Yb  Yb9  1  0.004873  0.001245  0.496743  1
  Yb  Yb10  1  0.004896  0.998824  0.996666  1
  Yb  Yb11  1  0.499052  0.498798  0.995843  1
  Yb  Yb12  1  0.499487  0.501469  0.495138  1
  Pr  Pr13  1  0.212567  0.589589  0.117075  1
  Pr  Pr14  1  0.789156  0.411498  0.115972  1
  Pr  Pr15  1  0.788783  0.588664  0.616275  1
  Pr  Pr16  1  0.912299  0.711758  0.119103  1
  Pr  Pr17  1  0.911215  0.287723  0.619551  1
  Pr  Pr18  1  0.090595  0.714636  0.619737  1
  Pr  Pr19  1  0.090253  0.285568  0.119544  1
  Ir  Ir20  1  0.847205  0.155160  0.246754  1
  Ir  Ir21  1  0.847289  0.844916  0.747256  1
  Ir  Ir22  1  0.152996  0.159743  0.746002  1
  Ir  Ir23  1  0.152591  0.840646  0.246435  1
  Ir  Ir24  1  0.652614  0.342680  0.747404  1
  Ir  Ir25  1  0.652826  0.657144  0.247109  1
  Ir  Ir26  1  0.344751  0.346814  0.245681  1
  Ir  Ir27  1  0.346027  0.654323  0.743847  1
  Ir  Ir28  1  0.501980  0.000540  0.121760  1
  Ir  Ir29  1  0.502082  0.999512  0.621838  1
  Ir  Ir30  1  0.001745  0.499917  0.885795  1
  Ir  Ir31  1  0.001239  0.499655  0.387903  1
