# generated using pymatgen
data_Nd5Y11Cd4OsPt3
_symmetry_space_group_name_H-M   'P 1'
_cell_length_a   9.81436249
_cell_length_b   9.80575134
_cell_length_c   9.80575163
_cell_angle_alpha   59.79355652
_cell_angle_beta   59.75692417
_cell_angle_gamma   59.75692121
_symmetry_Int_Tables_number   1
_chemical_formula_structural   Nd5Y11Cd4OsPt3
_chemical_formula_sum   'Nd5 Y11 Cd4 Os1 Pt3'
_cell_volume   663.78318118
_cell_formula_units_Z   1
loop_
 _symmetry_equiv_pos_site_id
 _symmetry_equiv_pos_as_xyz
  1  'x, y, z'
loop_
 _atom_site_type_symbol
 _atom_site_label
 _atom_site_symmetry_multiplicity
 _atom_site_fract_x
 _atom_site_fract_y
 _atom_site_fract_z
 _atom_site_occupancy
  Nd  Nd0  1  0.556713  0.939973  0.939973  1
  Nd  Nd1  1  0.564111  0.936064  0.563183  1
  Nd  Nd2  1  0.939498  0.557288  0.937030  1
  Nd  Nd3  1  0.564111  0.563183  0.936064  1
  Nd  Nd4  1  0.939498  0.937030  0.557288  1
  Y  Y5  1  0.351999  0.351691  0.351691  1
  Y  Y6  1  0.347373  0.349369  0.953019  1
  Y  Y7  1  0.347373  0.953019  0.349369  1
  Y  Y8  1  0.951766  0.349018  0.349018  1
  Y  Y9  1  0.816143  0.187488  0.187488  1
  Y  Y10  1  0.186230  0.810473  0.810473  1
  Y  Y11  1  0.186837  0.815216  0.189268  1
  Y  Y12  1  0.810783  0.186478  0.809953  1
  Y  Y13  1  0.186837  0.189268  0.815216  1
  Y  Y14  1  0.810783  0.809953  0.186478  1
  Y  Y15  1  0.939741  0.560001  0.560001  1
  Cd  Cd16  1  0.581938  0.578914  0.578914  1
  Cd  Cd17  1  0.579342  0.580303  0.259525  1
  Cd  Cd18  1  0.579342  0.259525  0.580303  1
  Cd  Cd19  1  0.257475  0.579592  0.579592  1
  Os  Os20  1  0.142066  0.142671  0.142671  1
  Pt  Pt21  1  0.142865  0.145642  0.574339  1
  Pt  Pt22  1  0.142865  0.574339  0.145642  1
  Pt  Pt23  1  0.574311  0.143504  0.143504  1
