# generated using pymatgen
data_Dy6P13IrRh19
_symmetry_space_group_name_H-M   'P 1'
_cell_length_a   13.33188400
_cell_length_b   13.33188417
_cell_length_c   3.92682700
_cell_angle_alpha   90.00000000
_cell_angle_beta   90.00000000
_cell_angle_gamma   119.99999461
_symmetry_Int_Tables_number   1
_chemical_formula_structural   Dy6P13IrRh19
_chemical_formula_sum   'Dy6 P13 Ir1 Rh19'
_cell_volume   604.44318004
_cell_formula_units_Z   1
loop_
 _symmetry_equiv_pos_site_id
 _symmetry_equiv_pos_as_xyz
  1  'x, y, z'
loop_
 _atom_site_type_symbol
 _atom_site_label
 _atom_site_symmetry_multiplicity
 _atom_site_fract_x
 _atom_site_fract_y
 _atom_site_fract_z
 _atom_site_occupancy
  Dy  Dy0  1  0.528825  0.717414  0.248054  1
  Dy  Dy1  1  0.282586  0.811411  0.248054  1
  Dy  Dy2  1  0.188589  0.471175  0.248054  1
  Dy  Dy3  1  0.470654  0.282180  0.751968  1
  Dy  Dy4  1  0.717820  0.188474  0.751968  1
  Dy  Dy5  1  0.811526  0.529346  0.751968  1
  P  P6  1  0.525701  0.138797  0.250205  1
  P  P7  1  0.861203  0.386906  0.250205  1
  P  P8  1  0.613094  0.474299  0.250205  1
  P  P9  1  0.944497  0.714420  0.255039  1
  P  P10  1  0.285580  0.230076  0.255039  1
  P  P11  1  0.769924  0.055503  0.255039  1
  P  P12  1  0.386594  0.525590  0.749487  1
  P  P13  1  0.474410  0.861004  0.749487  1
  P  P14  1  0.138996  0.613406  0.749487  1
  P  P15  1  0.714497  0.770148  0.745077  1
  P  P16  1  0.229852  0.944348  0.745077  1
  P  P17  1  0.055652  0.285503  0.745077  1
  P  P18  1  0.000000  0.000000  0.001249  1
  Ir  Ir19  1  0.333333  0.666667  0.751864  1
  Rh  Rh20  1  0.922153  0.250650  0.254280  1
  Rh  Rh21  1  0.749350  0.671504  0.254280  1
  Rh  Rh22  1  0.328496  0.077847  0.254280  1
  Rh  Rh23  1  0.438272  0.022216  0.751545  1
  Rh  Rh24  1  0.977784  0.416057  0.751545  1
  Rh  Rh25  1  0.583943  0.561728  0.751545  1
  Rh  Rh26  1  0.666667  0.333333  0.247909  1
  Rh  Rh27  1  0.094852  0.186671  0.247296  1
  Rh  Rh28  1  0.813329  0.908181  0.247296  1
  Rh  Rh29  1  0.091819  0.905148  0.247296  1
  Rh  Rh30  1  0.022052  0.583754  0.248289  1
  Rh  Rh31  1  0.416246  0.438298  0.248289  1
  Rh  Rh32  1  0.561702  0.977948  0.248289  1
  Rh  Rh33  1  0.671430  0.922223  0.745726  1
  Rh  Rh34  1  0.077777  0.749207  0.745726  1
  Rh  Rh35  1  0.250793  0.328570  0.745726  1
  Rh  Rh36  1  0.905168  0.813584  0.752693  1
  Rh  Rh37  1  0.186416  0.091583  0.752693  1
  Rh  Rh38  1  0.908417  0.094832  0.752693  1
