# generated using pymatgen
data_Pr2ZrPaRh4
_symmetry_space_group_name_H-M   'P 1'
_cell_length_a   4.41316900
_cell_length_b   5.53069722
_cell_length_c   6.99158400
_cell_angle_alpha   91.28284251
_cell_angle_beta   90.00000000
_cell_angle_gamma   90.00000000
_symmetry_Int_Tables_number   1
_chemical_formula_structural   Pr2ZrPaRh4
_chemical_formula_sum   'Pr2 Zr1 Pa1 Rh4'
_cell_volume   170.60712186
_cell_formula_units_Z   1
loop_
 _symmetry_equiv_pos_site_id
 _symmetry_equiv_pos_as_xyz
  1  'x, y, z'
loop_
 _atom_site_type_symbol
 _atom_site_label
 _atom_site_symmetry_multiplicity
 _atom_site_fract_x
 _atom_site_fract_y
 _atom_site_fract_z
 _atom_site_occupancy
  Pr  Pr0  1  0.750000  0.858422  0.821669  1
  Pr  Pr1  1  0.250000  0.350784  0.682301  1
  Zr  Zr2  1  0.250000  0.144196  0.178121  1
  Pa  Pa3  1  0.750000  0.641320  0.315926  1
  Rh  Rh4  1  0.750000  0.162195  0.412967  1
  Rh  Rh5  1  0.250000  0.832824  0.503356  1
  Rh  Rh6  1  0.250000  0.665781  0.085157  1
  Rh  Rh7  1  0.750000  0.344481  0.000502  1
