# generated using pymatgen
data_Lu2Sc2AlB12Ir
_symmetry_space_group_name_H-M   'P 1'
_cell_length_a   3.49809500
_cell_length_b   8.98319151
_cell_length_c   11.31398910
_cell_angle_alpha   90.07651585
_cell_angle_beta   90.00000000
_cell_angle_gamma   90.00000000
_symmetry_Int_Tables_number   1
_chemical_formula_structural   Lu2Sc2AlB12Ir
_chemical_formula_sum   'Lu4 Sc4 Al2 B24 Ir2'
_cell_volume   355.53112461
_cell_formula_units_Z   2
loop_
 _symmetry_equiv_pos_site_id
 _symmetry_equiv_pos_as_xyz
  1  'x, y, z'
loop_
 _atom_site_type_symbol
 _atom_site_label
 _atom_site_symmetry_multiplicity
 _atom_site_fract_x
 _atom_site_fract_y
 _atom_site_fract_z
 _atom_site_occupancy
  Lu  Lu0  1  0.500000  0.317357  0.411903  1
  Lu  Lu1  1  0.500000  0.682643  0.588097  1
  Lu  Lu2  1  0.500000  0.180687  0.913223  1
  Lu  Lu3  1  0.500000  0.819313  0.086777  1
  Sc  Sc4  1  0.500000  0.442404  0.126049  1
  Sc  Sc5  1  0.500000  0.557596  0.873951  1
  Sc  Sc6  1  0.500000  0.053580  0.627464  1
  Sc  Sc7  1  0.500000  0.946420  0.372536  1
  Al  Al8  1  0.500000  0.140553  0.181823  1
  Al  Al9  1  0.500000  0.859447  0.818177  1
  B  B10  1  0.000000  0.099562  0.472698  1
  B  B11  1  0.000000  0.900438  0.527302  1
  B  B12  1  0.000000  0.399476  0.972154  1
  B  B13  1  0.000000  0.600524  0.027846  1
  B  B14  1  0.000000  0.129785  0.319229  1
  B  B15  1  0.000000  0.870215  0.680771  1
  B  B16  1  0.000000  0.370345  0.817631  1
  B  B17  1  0.000000  0.629655  0.182369  1
  B  B18  1  0.000000  0.051656  0.063751  1
  B  B19  1  0.000000  0.948344  0.936249  1
  B  B20  1  0.000000  0.446918  0.565703  1
  B  B21  1  0.000000  0.553082  0.434297  1
  B  B22  1  0.000000  0.479455  0.286302  1
  B  B23  1  0.000000  0.520545  0.713698  1
  B  B24  1  0.000000  0.021110  0.787186  1
  B  B25  1  0.000000  0.978890  0.212814  1
  B  B26  1  0.000000  0.252218  0.077979  1
  B  B27  1  0.000000  0.747782  0.922021  1
  B  B28  1  0.000000  0.245004  0.579721  1
  B  B29  1  0.000000  0.754996  0.420279  1
  B  B30  1  0.000000  0.297197  0.236369  1
  B  B31  1  0.000000  0.702803  0.763631  1
  B  B32  1  0.000000  0.204336  0.735923  1
  B  B33  1  0.000000  0.795664  0.264077  1
  Ir  Ir34  1  0.500000  0.359008  0.679111  1
  Ir  Ir35  1  0.500000  0.640992  0.320889  1
