# generated using pymatgen
data_Dy9Er5Tm2(Ga3Co)2
_symmetry_space_group_name_H-M   'P 1'
_cell_length_a   9.94784800
_cell_length_b   9.94759897
_cell_length_c   6.94961600
_cell_angle_alpha   89.99333958
_cell_angle_beta   90.00000000
_cell_angle_gamma   120.00082148
_symmetry_Int_Tables_number   1
_chemical_formula_structural   Dy9Er5Tm2(Ga3Co)2
_chemical_formula_sum   'Dy9 Er5 Tm2 Ga6 Co2'
_cell_volume   595.57334230
_cell_formula_units_Z   1
loop_
 _symmetry_equiv_pos_site_id
 _symmetry_equiv_pos_as_xyz
  1  'x, y, z'
loop_
 _atom_site_type_symbol
 _atom_site_label
 _atom_site_symmetry_multiplicity
 _atom_site_fract_x
 _atom_site_fract_y
 _atom_site_fract_z
 _atom_site_occupancy
  Dy  Dy0  1  0.666753  0.333507  0.327066  1
  Dy  Dy1  1  0.463153  0.537095  0.207441  1
  Dy  Dy2  1  0.073942  0.537095  0.207441  1
  Dy  Dy3  1  0.462951  0.925904  0.207529  1
  Dy  Dy4  1  0.536748  0.463546  0.708592  1
  Dy  Dy5  1  0.926797  0.463546  0.708592  1
  Dy  Dy6  1  0.536593  0.073185  0.708419  1
  Dy  Dy7  1  0.999952  0.999905  0.232318  1
  Dy  Dy8  1  0.999903  0.999806  0.731565  1
  Er  Er9  1  0.173485  0.826523  0.512627  1
  Er  Er10  1  0.653037  0.826523  0.512627  1
  Er  Er11  1  0.173510  0.347023  0.512569  1
  Er  Er12  1  0.827020  0.172967  0.011417  1
  Er  Er13  1  0.345947  0.172967  0.011417  1
  Tm  Tm14  1  0.826891  0.653782  0.011434  1
  Tm  Tm15  1  0.333330  0.666663  0.825137  1
  Ga  Ga16  1  0.163411  0.836037  0.957310  1
  Ga  Ga17  1  0.672628  0.836037  0.957310  1
  Ga  Ga18  1  0.163778  0.327554  0.957266  1
  Ga  Ga19  1  0.837097  0.162915  0.458338  1
  Ga  Ga20  1  0.325817  0.162915  0.458338  1
  Ga  Ga21  1  0.837109  0.674219  0.458041  1
  Co  Co22  1  0.333333  0.666666  0.445448  1
  Co  Co23  1  0.666813  0.333624  0.946594  1
