# generated using pymatgen
data_Ba2BiPd4Pb3
_symmetry_space_group_name_H-M   'P 1'
_cell_length_a   4.93811600
_cell_length_b   5.00681344
_cell_length_c   10.98707619
_cell_angle_alpha   88.05385691
_cell_angle_beta   90.00000000
_cell_angle_gamma   90.00000000
_symmetry_Int_Tables_number   1
_chemical_formula_structural   Ba2BiPd4Pb3
_chemical_formula_sum   'Ba2 Bi1 Pd4 Pb3'
_cell_volume   271.49026112
_cell_formula_units_Z   1
loop_
 _symmetry_equiv_pos_site_id
 _symmetry_equiv_pos_as_xyz
  1  'x, y, z'
loop_
 _atom_site_type_symbol
 _atom_site_label
 _atom_site_symmetry_multiplicity
 _atom_site_fract_x
 _atom_site_fract_y
 _atom_site_fract_z
 _atom_site_occupancy
  Ba  Ba0  1  0.750000  0.260630  0.242781  1
  Ba  Ba1  1  0.250000  0.736451  0.755766  1
  Bi  Bi2  1  0.250000  0.797179  0.111718  1
  Pd  Pd3  1  0.250000  0.755723  0.368517  1
  Pd  Pd4  1  0.250000  0.311844  0.998240  1
  Pd  Pd5  1  0.750000  0.242008  0.631209  1
  Pd  Pd6  1  0.750000  0.690429  0.005419  1
  Pb  Pb7  1  0.750000  0.207949  0.885406  1
  Pb  Pb8  1  0.250000  0.249286  0.500242  1
  Pb  Pb9  1  0.750000  0.748501  0.500700  1
