# generated using pymatgen
data_Y2Ho2Pa(ReB3)2
_symmetry_space_group_name_H-M   'P 1'
_cell_length_a   5.51406175
_cell_length_b   5.51405983
_cell_length_c   8.40959562
_cell_angle_alpha   70.86206597
_cell_angle_beta   70.86207184
_cell_angle_gamma   59.99999479
_symmetry_Int_Tables_number   1
_chemical_formula_structural   Y2Ho2Pa(ReB3)2
_chemical_formula_sum   'Y2 Ho2 Pa1 Re2 B6'
_cell_volume   204.95620824
_cell_formula_units_Z   1
loop_
 _symmetry_equiv_pos_site_id
 _symmetry_equiv_pos_as_xyz
  1  'x, y, z'
loop_
 _atom_site_type_symbol
 _atom_site_label
 _atom_site_symmetry_multiplicity
 _atom_site_fract_x
 _atom_site_fract_y
 _atom_site_fract_z
 _atom_site_occupancy
  Y  Y0  1  0.584322  0.584322  0.247035  1
  Y  Y1  1  0.415678  0.415678  0.752965  1
  Ho  Ho2  1  0.750220  0.750220  0.749341  1
  Ho  Ho3  1  0.249780  0.249780  0.250659  1
  Pa  Pa4  1  0.000000  0.000000  0.000000  1
  Re  Re5  1  0.891120  0.891120  0.326638  1
  Re  Re6  1  0.108880  0.108880  0.673362  1
  B  B7  1  0.500000  0.171655  0.500000  1
  B  B8  1  0.828345  0.500000  0.500000  1
  B  B9  1  0.171655  0.828345  0.500000  1
  B  B10  1  0.171655  0.500000  0.500000  1
  B  B11  1  0.828345  0.171655  0.500000  1
  B  B12  1  0.500000  0.828345  0.500000  1
