# generated using pymatgen
data_Pr4Al4Ni3Rh
_symmetry_space_group_name_H-M   'P 1'
_cell_length_a   4.39581200
_cell_length_b   6.95571098
_cell_length_c   7.86551999
_cell_angle_alpha   89.42168797
_cell_angle_beta   90.00000000
_cell_angle_gamma   90.00000000
_symmetry_Int_Tables_number   1
_chemical_formula_structural   Pr4Al4Ni3Rh
_chemical_formula_sum   'Pr4 Al4 Ni3 Rh1'
_cell_volume   240.48387135
_cell_formula_units_Z   1
loop_
 _symmetry_equiv_pos_site_id
 _symmetry_equiv_pos_as_xyz
  1  'x, y, z'
loop_
 _atom_site_type_symbol
 _atom_site_label
 _atom_site_symmetry_multiplicity
 _atom_site_fract_x
 _atom_site_fract_y
 _atom_site_fract_z
 _atom_site_occupancy
  Pr  Pr0  1  0.250000  0.543871  0.177056  1
  Pr  Pr1  1  0.750000  0.458401  0.828336  1
  Pr  Pr2  1  0.750000  0.956920  0.675969  1
  Pr  Pr3  1  0.250000  0.039286  0.320523  1
  Al  Al4  1  0.250000  0.637115  0.561437  1
  Al  Al5  1  0.750000  0.366508  0.437214  1
  Al  Al6  1  0.750000  0.865147  0.060698  1
  Al  Al7  1  0.250000  0.135219  0.939069  1
  Ni  Ni8  1  0.250000  0.781934  0.883043  1
  Ni  Ni9  1  0.750000  0.220155  0.120311  1
  Ni  Ni10  1  0.750000  0.722752  0.379517  1
  Rh  Rh11  1  0.250000  0.272694  0.616828  1
