# generated using pymatgen
data_Pr5SnBi2S
_symmetry_space_group_name_H-M   'P 1'
_cell_length_a   9.57848692
_cell_length_b   9.57848607
_cell_length_c   6.83921400
_cell_angle_alpha   90.00000000
_cell_angle_beta   90.00000000
_cell_angle_gamma   120.13770239
_symmetry_Int_Tables_number   1
_chemical_formula_structural   Pr5SnBi2S
_chemical_formula_sum   'Pr10 Sn2 Bi4 S2'
_cell_volume   542.65813059
_cell_formula_units_Z   2
loop_
 _symmetry_equiv_pos_site_id
 _symmetry_equiv_pos_as_xyz
  1  'x, y, z'
loop_
 _atom_site_type_symbol
 _atom_site_label
 _atom_site_symmetry_multiplicity
 _atom_site_fract_x
 _atom_site_fract_y
 _atom_site_fract_z
 _atom_site_occupancy
  Pr  Pr0  1  0.667339  0.331257  0.002440  1
  Pr  Pr1  1  0.331257  0.667339  0.002440  1
  Pr  Pr2  1  0.331257  0.667339  0.497560  1
  Pr  Pr3  1  0.667339  0.331257  0.497560  1
  Pr  Pr4  1  0.755424  0.755424  0.750000  1
  Pr  Pr5  1  0.245253  0.000208  0.750000  1
  Pr  Pr6  1  0.000208  0.245253  0.750000  1
  Pr  Pr7  1  0.242908  0.242908  0.250000  1
  Pr  Pr8  1  0.756199  0.004334  0.250000  1
  Pr  Pr9  1  0.004334  0.756199  0.250000  1
  Sn  Sn10  1  0.396003  0.000290  0.250000  1
  Sn  Sn11  1  0.000290  0.396003  0.250000  1
  Bi  Bi12  1  0.395414  0.395414  0.750000  1
  Bi  Bi13  1  0.603999  0.999862  0.750000  1
  Bi  Bi14  1  0.999862  0.603999  0.750000  1
  Bi  Bi15  1  0.604877  0.604877  0.250000  1
  S  S16  1  0.999017  0.999017  0.999477  1
  S  S17  1  0.999017  0.999017  0.500523  1
