# generated using pymatgen
data_Nd6Sm4Be3Al2Si15
_symmetry_space_group_name_H-M   'P 1'
_cell_length_a   4.19570995
_cell_length_b   4.13272984
_cell_length_c   34.67474245
_cell_angle_alpha   86.58477009
_cell_angle_beta   86.53153887
_cell_angle_gamma   89.99257275
_symmetry_Int_Tables_number   1
_chemical_formula_structural   Nd6Sm4Be3Al2Si15
_chemical_formula_sum   'Nd6 Sm4 Be3 Al2 Si15'
_cell_volume   599.08004006
_cell_formula_units_Z   1
loop_
 _symmetry_equiv_pos_site_id
 _symmetry_equiv_pos_as_xyz
  1  'x, y, z'
loop_
 _atom_site_type_symbol
 _atom_site_label
 _atom_site_symmetry_multiplicity
 _atom_site_fract_x
 _atom_site_fract_y
 _atom_site_fract_z
 _atom_site_occupancy
  Nd  Nd0  1  0.547088  0.047116  0.905720  1
  Nd  Nd1  1  0.997669  0.997654  0.004725  1
  Nd  Nd2  1  0.399660  0.399658  0.200638  1
  Nd  Nd3  1  0.801736  0.801843  0.396277  1
  Nd  Nd4  1  0.203183  0.203099  0.593710  1
  Nd  Nd5  1  0.600271  0.600275  0.799578  1
  Sm  Sm6  1  0.948421  0.448373  0.103169  1
  Sm  Sm7  1  0.350766  0.850711  0.298573  1
  Sm  Sm8  1  0.752790  0.252791  0.494447  1
  Sm  Sm9  1  0.150156  0.650237  0.699607  1
  Be  Be10  1  0.464903  0.964981  0.070024  1
  Be  Be11  1  0.867469  0.367456  0.265204  1
  Be  Be12  1  0.269635  0.769607  0.460684  1
  Al  Al13  1  0.685822  0.685593  0.628687  1
  Al  Al14  1  0.082397  0.082199  0.835650  1
  Si  Si15  1  0.667509  0.167571  0.664812  1
  Si  Si16  1  0.063855  0.564171  0.871748  1
  Si  Si17  1  0.916422  0.916427  0.167152  1
  Si  Si18  1  0.318779  0.318847  0.362461  1
  Si  Si19  1  0.720959  0.721033  0.558102  1
  Si  Si20  1  0.117250  0.117262  0.765410  1
  Si  Si21  1  0.513715  0.513708  0.972517  1
  Si  Si22  1  0.433218  0.933219  0.133502  1
  Si  Si23  1  0.835557  0.335473  0.328878  1
  Si  Si24  1  0.237849  0.737838  0.524296  1
  Si  Si25  1  0.633530  0.133671  0.732903  1
  Si  Si26  1  0.029985  0.530025  0.939902  1
  Si  Si27  1  0.479613  0.479521  0.040897  1
  Si  Si28  1  0.882336  0.882283  0.235561  1
  Si  Si29  1  0.284661  0.284561  0.430772  1
