# generated using pymatgen
data_Tb4Er8TlCo4Ir
_symmetry_space_group_name_H-M   'P 1'
_cell_length_a   8.27294761
_cell_length_b   8.27295803
_cell_length_c   8.27294861
_cell_angle_alpha   110.95014354
_cell_angle_beta   110.82976866
_cell_angle_gamma   106.66952226
_symmetry_Int_Tables_number   1
_chemical_formula_structural   Tb4Er8TlCo4Ir
_chemical_formula_sum   'Tb4 Er8 Tl1 Co4 Ir1'
_cell_volume   435.09555286
_cell_formula_units_Z   1
loop_
 _symmetry_equiv_pos_site_id
 _symmetry_equiv_pos_as_xyz
  1  'x, y, z'
loop_
 _atom_site_type_symbol
 _atom_site_label
 _atom_site_symmetry_multiplicity
 _atom_site_fract_x
 _atom_site_fract_y
 _atom_site_fract_z
 _atom_site_occupancy
  Tb  Tb0  1  0.184894  0.285289  0.470178  1
  Tb  Tb1  1  0.815106  0.714711  0.529822  1
  Tb  Tb2  1  0.184889  0.714711  0.899606  1
  Tb  Tb3  1  0.815111  0.285289  0.100394  1
  Er  Er4  1  0.315268  0.622291  0.307023  1
  Er  Er5  1  0.684732  0.377709  0.692977  1
  Er  Er6  1  0.315267  0.008241  0.692975  1
  Er  Er7  1  0.684733  0.991759  0.307025  1
  Er  Er8  1  0.411089  0.216972  0.194118  1
  Er  Er9  1  0.588911  0.783028  0.805882  1
  Er  Er10  1  0.022855  0.216972  0.805883  1
  Er  Er11  1  0.977145  0.783028  0.194117  1
  Tl  Tl12  1  0.500000  0.500000  0.000000  1
  Co  Co13  1  0.112599  0.612598  0.499999  1
  Co  Co14  1  0.887401  0.387402  0.500001  1
  Co  Co15  1  0.377406  0.000000  0.377406  1
  Co  Co16  1  0.622594  0.000000  0.622594  1
  Ir  Ir17  1  0.000000  0.000000  0.000000  1
