# generated using pymatgen
data_Rb3PaO4
_symmetry_space_group_name_H-M   'P 1'
_cell_length_a   7.93173300
_cell_length_b   6.20266389
_cell_length_c   7.02442200
_cell_angle_alpha   71.38914601
_cell_angle_beta   90.00000000
_cell_angle_gamma   90.00000000
_symmetry_Int_Tables_number   1
_chemical_formula_structural   Rb3PaO4
_chemical_formula_sum   'Rb6 Pa2 O8'
_cell_volume   327.51520102
_cell_formula_units_Z   2
loop_
 _symmetry_equiv_pos_site_id
 _symmetry_equiv_pos_as_xyz
  1  'x, y, z'
loop_
 _atom_site_type_symbol
 _atom_site_label
 _atom_site_symmetry_multiplicity
 _atom_site_fract_x
 _atom_site_fract_y
 _atom_site_fract_z
 _atom_site_occupancy
  Rb  Rb0  1  0.623735  0.250000  0.000000  1
  Rb  Rb1  1  0.376265  0.750000  0.000000  1
  Rb  Rb2  1  0.610328  0.750000  0.500000  1
  Rb  Rb3  1  0.389672  0.250000  0.500000  1
  Rb  Rb4  1  0.886104  0.750000  0.000000  1
  Rb  Rb5  1  0.113896  0.250000  0.000000  1
  Pa  Pa6  1  0.882531  0.250000  0.500000  1
  Pa  Pa7  1  0.117469  0.750000  0.500000  1
  O  O8  1  0.084098  0.008124  0.669441  1
  O  O9  1  0.084098  0.491876  0.330559  1
  O  O10  1  0.697502  0.432069  0.294319  1
  O  O11  1  0.697502  0.067931  0.705681  1
  O  O12  1  0.302498  0.567931  0.705681  1
  O  O13  1  0.302498  0.932069  0.294319  1
  O  O14  1  0.915902  0.991876  0.330559  1
  O  O15  1  0.915902  0.508124  0.669441  1
