# generated using pymatgen
data_SmPaNi2(AsH)2
_symmetry_space_group_name_H-M   'P 1'
_cell_length_a   4.00527500
_cell_length_b   8.20190275
_cell_length_c   7.07173792
_cell_angle_alpha   90.01683569
_cell_angle_beta   90.00000000
_cell_angle_gamma   90.00000000
_symmetry_Int_Tables_number   1
_chemical_formula_structural   SmPaNi2(AsH)2
_chemical_formula_sum   'Sm2 Pa2 Ni4 As4 H4'
_cell_volume   232.31277584
_cell_formula_units_Z   2
loop_
 _symmetry_equiv_pos_site_id
 _symmetry_equiv_pos_as_xyz
  1  'x, y, z'
loop_
 _atom_site_type_symbol
 _atom_site_label
 _atom_site_symmetry_multiplicity
 _atom_site_fract_x
 _atom_site_fract_y
 _atom_site_fract_z
 _atom_site_occupancy
  Sm  Sm0  1  0.750000  0.505396  0.757133  1
  Sm  Sm1  1  0.250000  0.494604  0.242867  1
  Pa  Pa2  1  0.250000  0.991922  0.254513  1
  Pa  Pa3  1  0.750000  0.008078  0.745487  1
  Ni  Ni4  1  0.750000  0.220840  0.412465  1
  Ni  Ni5  1  0.250000  0.779160  0.587535  1
  Ni  Ni6  1  0.250000  0.248713  0.908855  1
  Ni  Ni7  1  0.750000  0.751287  0.091145  1
  As  As8  1  0.750000  0.217140  0.079948  1
  As  As9  1  0.250000  0.782860  0.920052  1
  As  As10  1  0.250000  0.272226  0.576485  1
  As  As11  1  0.750000  0.727774  0.423515  1
  H  H12  1  0.250000  0.975498  0.579481  1
  H  H13  1  0.750000  0.024502  0.420519  1
  H  H14  1  0.750000  0.551142  0.078906  1
  H  H15  1  0.250000  0.448858  0.921094  1
