# generated using pymatgen
data_HoHf7(Ta3Si4)4
_symmetry_space_group_name_H-M   'P 1'
_cell_length_a   6.85617325
_cell_length_b   6.85874929
_cell_length_c   12.71400029
_cell_angle_alpha   89.94163569
_cell_angle_beta   89.98652894
_cell_angle_gamma   89.95332009
_symmetry_Int_Tables_number   1
_chemical_formula_structural   HoHf7(Ta3Si4)4
_chemical_formula_sum   'Ho1 Hf7 Ta12 Si16'
_cell_volume   597.87245773
_cell_formula_units_Z   1
loop_
 _symmetry_equiv_pos_site_id
 _symmetry_equiv_pos_as_xyz
  1  'x, y, z'
loop_
 _atom_site_type_symbol
 _atom_site_label
 _atom_site_symmetry_multiplicity
 _atom_site_fract_x
 _atom_site_fract_y
 _atom_site_fract_z
 _atom_site_occupancy
  Ho  Ho0  1  0.996579  0.660758  0.030555  1
  Hf  Hf1  1  0.339692  0.000082  0.470138  1
  Hf  Hf2  1  0.500309  0.840396  0.718791  1
  Hf  Hf3  1  0.498770  0.161048  0.221687  1
  Hf  Hf4  1  0.840548  0.501033  0.281457  1
  Hf  Hf5  1  0.160988  0.498752  0.779615  1
  Hf  Hf6  1  0.655643  0.003709  0.968594  1
  Hf  Hf7  1  0.999822  0.339690  0.529858  1
  Ta  Ta8  1  0.332223  0.327382  0.000013  1
  Ta  Ta9  1  0.170844  0.831324  0.251511  1
  Ta  Ta10  1  0.830199  0.169878  0.749150  1
  Ta  Ta11  1  0.670251  0.670172  0.500294  1
  Ta  Ta12  1  0.154753  0.003171  0.871364  1
  Ta  Ta13  1  0.497125  0.651553  0.124742  1
  Ta  Ta14  1  0.503490  0.348594  0.622818  1
  Ta  Ta15  1  0.652122  0.493164  0.874055  1
  Ta  Ta16  1  0.348663  0.503748  0.377297  1
  Ta  Ta17  1  0.847868  0.997158  0.375292  1
  Ta  Ta18  1  0.005272  0.152258  0.127367  1
  Ta  Ta19  1  0.996069  0.848220  0.625088  1
  Si  Si20  1  0.207442  0.136782  0.676229  1
  Si  Si21  1  0.367019  0.706768  0.926360  1
  Si  Si22  1  0.636824  0.292331  0.426692  1
  Si  Si23  1  0.704848  0.359984  0.072673  1
  Si  Si24  1  0.291773  0.636853  0.573484  1
  Si  Si25  1  0.788995  0.867609  0.179864  1
  Si  Si26  1  0.136669  0.207913  0.324008  1
  Si  Si27  1  0.861831  0.794123  0.820832  1
  Si  Si28  1  0.301395  0.956315  0.063816  1
  Si  Si29  1  0.543574  0.800464  0.314462  1
  Si  Si30  1  0.454715  0.200599  0.812395  1
  Si  Si31  1  0.800479  0.543939  0.685715  1
  Si  Si32  1  0.202314  0.454509  0.187936  1
  Si  Si33  1  0.699596  0.044357  0.563492  1
  Si  Si34  1  0.956449  0.294954  0.935717  1
  Si  Si35  1  0.044850  0.700409  0.436634  1
