# generated using pymatgen
data_Ca(Re2P)2
_symmetry_space_group_name_H-M   'P 1'
_cell_length_a   7.20837967
_cell_length_b   7.20837903
_cell_length_c   4.04072900
_cell_angle_alpha   90.00000000
_cell_angle_beta   90.00000000
_cell_angle_gamma   147.01740304
_symmetry_Int_Tables_number   1
_chemical_formula_structural   Ca(Re2P)2
_chemical_formula_sum   'Ca1 Re4 P2'
_cell_volume   114.29850809
_cell_formula_units_Z   1
loop_
 _symmetry_equiv_pos_site_id
 _symmetry_equiv_pos_as_xyz
  1  'x, y, z'
loop_
 _atom_site_type_symbol
 _atom_site_label
 _atom_site_symmetry_multiplicity
 _atom_site_fract_x
 _atom_site_fract_y
 _atom_site_fract_z
 _atom_site_occupancy
  Ca  Ca0  1  0.000000  0.000000  0.000000  1
  Re  Re1  1  0.693973  0.306025  0.000000  1
  Re  Re2  1  0.306025  0.693973  0.000000  1
  Re  Re3  1  0.817193  0.182805  0.500001  1
  Re  Re4  1  0.182805  0.817193  0.500001  1
  P  P5  1  0.586409  0.413589  0.500001  1
  P  P6  1  0.413589  0.586409  0.500001  1
