# generated using pymatgen
data_LiLa8CdRu2
_symmetry_space_group_name_H-M   'P 1'
_cell_length_a   10.11024856
_cell_length_b   10.07201077
_cell_length_c   10.11024838
_cell_angle_alpha   60.12503047
_cell_angle_beta   59.76653778
_cell_angle_gamma   60.12503197
_symmetry_Int_Tables_number   1
_chemical_formula_structural   LiLa8CdRu2
_chemical_formula_sum   'Li2 La16 Cd2 Ru4'
_cell_volume   728.06141460
_cell_formula_units_Z   2
loop_
 _symmetry_equiv_pos_site_id
 _symmetry_equiv_pos_as_xyz
  1  'x, y, z'
loop_
 _atom_site_type_symbol
 _atom_site_label
 _atom_site_symmetry_multiplicity
 _atom_site_fract_x
 _atom_site_fract_y
 _atom_site_fract_z
 _atom_site_occupancy
  Li  Li0  1  0.673521  0.678170  0.970138  1
  Li  Li1  1  0.970138  0.678170  0.673521  1
  La  La2  1  0.905438  0.906809  0.905438  1
  La  La3  1  0.437434  0.437053  0.061853  1
  La  La4  1  0.061853  0.063660  0.437434  1
  La  La5  1  0.437434  0.063660  0.061853  1
  La  La6  1  0.309305  0.690695  0.309305  1
  La  La7  1  0.690546  0.691936  0.311691  1
  La  La8  1  0.690546  0.305827  0.311691  1
  La  La9  1  0.285367  0.904683  0.905268  1
  La  La10  1  0.905438  0.282317  0.905438  1
  La  La11  1  0.311691  0.691936  0.690546  1
  La  La12  1  0.905268  0.904683  0.285367  1
  La  La13  1  0.065448  0.434552  0.065448  1
  La  La14  1  0.311691  0.305827  0.690546  1
  La  La15  1  0.061853  0.437053  0.437434  1
  La  La16  1  0.438722  0.061278  0.438722  1
  La  La17  1  0.688712  0.311288  0.688712  1
  Cd  Cd18  1  0.671863  0.986334  0.671863  1
  Cd  Cd19  1  0.671863  0.669939  0.671863  1
  Ru  Ru20  1  0.113636  0.110931  0.664500  1
  Ru  Ru21  1  0.113866  0.112649  0.113866  1
  Ru  Ru22  1  0.113866  0.659618  0.113866  1
  Ru  Ru23  1  0.664500  0.110931  0.113636  1
