# generated using pymatgen
data_Dy7YCd2(SnAu4)2
_symmetry_space_group_name_H-M   'P 1'
_cell_length_a   8.01596640
_cell_length_b   8.01596640
_cell_length_c   7.36145200
_cell_angle_alpha   90.00154204
_cell_angle_beta   90.00154204
_cell_angle_gamma   90.06771737
_symmetry_Int_Tables_number   1
_chemical_formula_structural   Dy7YCd2(SnAu4)2
_chemical_formula_sum   'Dy7 Y1 Cd2 Sn2 Au8'
_cell_volume   473.01504824
_cell_formula_units_Z   1
loop_
 _symmetry_equiv_pos_site_id
 _symmetry_equiv_pos_as_xyz
  1  'x, y, z'
loop_
 _atom_site_type_symbol
 _atom_site_label
 _atom_site_symmetry_multiplicity
 _atom_site_fract_x
 _atom_site_fract_y
 _atom_site_fract_z
 _atom_site_occupancy
  Dy  Dy0  1  0.159182  0.840818  0.500000  1
  Dy  Dy1  1  0.340890  0.340992  0.999986  1
  Dy  Dy2  1  0.659008  0.659110  0.000014  1
  Dy  Dy3  1  0.682481  0.682408  0.499996  1
  Dy  Dy4  1  0.317592  0.317519  0.500004  1
  Dy  Dy5  1  0.182485  0.817515  0.000000  1
  Dy  Dy6  1  0.817564  0.182436  0.000000  1
  Y  Y7  1  0.840760  0.159240  0.500000  1
  Cd  Cd8  1  0.499972  0.000036  0.250004  1
  Cd  Cd9  1  0.999964  0.500028  0.749996  1
  Sn  Sn10  1  0.500026  0.000034  0.750086  1
  Sn  Sn11  1  0.999966  0.499974  0.249914  1
  Au  Au12  1  0.624477  0.368731  0.272935  1
  Au  Au13  1  0.375199  0.631584  0.273327  1
  Au  Au14  1  0.125077  0.131414  0.773626  1
  Au  Au15  1  0.875291  0.868207  0.773600  1
  Au  Au16  1  0.368416  0.624801  0.726673  1
  Au  Au17  1  0.631269  0.375523  0.727065  1
  Au  Au18  1  0.868586  0.874923  0.226374  1
  Au  Au19  1  0.131793  0.124709  0.226400  1
