# generated using pymatgen
data_Er12InNi4Rh
_symmetry_space_group_name_H-M   'P 1'
_cell_length_a   8.26076071
_cell_length_b   8.27304315
_cell_length_c   8.26076096
_cell_angle_alpha   111.51013297
_cell_angle_beta   109.82584697
_cell_angle_gamma   107.04907239
_symmetry_Int_Tables_number   1
_chemical_formula_structural   Er12InNi4Rh
_chemical_formula_sum   'Er12 In1 Ni4 Rh1'
_cell_volume   434.24522426
_cell_formula_units_Z   1
loop_
 _symmetry_equiv_pos_site_id
 _symmetry_equiv_pos_as_xyz
  1  'x, y, z'
loop_
 _atom_site_type_symbol
 _atom_site_label
 _atom_site_symmetry_multiplicity
 _atom_site_fract_x
 _atom_site_fract_y
 _atom_site_fract_z
 _atom_site_occupancy
  Er  Er0  1  0.319550  0.623866  0.304315  1
  Er  Er1  1  0.680450  0.376134  0.695685  1
  Er  Er2  1  0.319665  0.015513  0.695849  1
  Er  Er3  1  0.680335  0.984487  0.304151  1
  Er  Er4  1  0.184763  0.293396  0.478115  1
  Er  Er5  1  0.815237  0.706604  0.521885  1
  Er  Er6  1  0.184719  0.706604  0.891369  1
  Er  Er7  1  0.815281  0.293396  0.108631  1
  Er  Er8  1  0.406546  0.214357  0.192085  1
  Er  Er9  1  0.593454  0.785643  0.807915  1
  Er  Er10  1  0.022272  0.214357  0.807812  1
  Er  Er11  1  0.977728  0.785643  0.192188  1
  In  In12  1  0.500000  0.500000  0.000000  1
  Ni  Ni13  1  0.122549  0.623519  0.500970  1
  Ni  Ni14  1  0.877451  0.376481  0.499030  1
  Ni  Ni15  1  0.366829  0.000000  0.366829  1
  Ni  Ni16  1  0.633171  0.000000  0.633171  1
  Rh  Rh17  1  0.000000  0.000000  0.000000  1
