# generated using pymatgen
data_Tb3DyLu8(GaCo2)2
_symmetry_space_group_name_H-M   'P 1'
_cell_length_a   8.16086579
_cell_length_b   8.16086700
_cell_length_c   8.16510605
_cell_angle_alpha   106.67989966
_cell_angle_beta   109.31637795
_cell_angle_gamma   112.44958920
_symmetry_Int_Tables_number   1
_chemical_formula_structural   Tb3DyLu8(GaCo2)2
_chemical_formula_sum   'Tb3 Dy1 Lu8 Ga2 Co4'
_cell_volume   417.64712974
_cell_formula_units_Z   1
loop_
 _symmetry_equiv_pos_site_id
 _symmetry_equiv_pos_as_xyz
  1  'x, y, z'
loop_
 _atom_site_type_symbol
 _atom_site_label
 _atom_site_symmetry_multiplicity
 _atom_site_fract_x
 _atom_site_fract_y
 _atom_site_fract_z
 _atom_site_occupancy
  Tb  Tb0  1  0.301689  0.740134  0.041823  1
  Tb  Tb1  1  0.698497  0.739946  0.438444  1
  Tb  Tb2  1  0.301663  0.259970  0.561632  1
  Dy  Dy3  1  0.698771  0.260006  0.958776  1
  Lu  Lu4  1  0.811625  0.140069  0.327959  1
  Lu  Lu5  1  0.811685  0.483380  0.672060  1
  Lu  Lu6  1  0.188681  0.860376  0.672060  1
  Lu  Lu7  1  0.187890  0.516335  0.327959  1
  Lu  Lu8  1  0.602087  0.781157  0.821216  1
  Lu  Lu9  1  0.959341  0.780548  0.178637  1
  Lu  Lu10  1  0.040060  0.219128  0.821216  1
  Lu  Lu11  1  0.398089  0.219296  0.178637  1
  Ga  Ga12  1  0.500374  0.499381  0.999755  1
  Ga  Ga13  1  0.500527  0.000310  0.500836  1
  Co  Co14  1  0.838573  0.499852  0.338425  1
  Co  Co15  1  0.161040  0.500064  0.661104  1
  Co  Co16  1  0.999299  0.116319  0.115619  1
  Co  Co17  1  0.000109  0.883731  0.883840  1
