# generated using pymatgen
data_Tm3FeCo6(P3Ir)2
_symmetry_space_group_name_H-M   'P 1'
_cell_length_a   3.71776000
_cell_length_b   10.68614300
_cell_length_c   12.26323200
_cell_angle_alpha   90.00000000
_cell_angle_beta   90.00000000
_cell_angle_gamma   90.00000000
_symmetry_Int_Tables_number   1
_chemical_formula_structural   Tm3FeCo6(P3Ir)2
_chemical_formula_sum   'Tm6 Fe2 Co12 P12 Ir4'
_cell_volume   487.19999646
_cell_formula_units_Z   2
loop_
 _symmetry_equiv_pos_site_id
 _symmetry_equiv_pos_as_xyz
  1  'x, y, z'
loop_
 _atom_site_type_symbol
 _atom_site_label
 _atom_site_symmetry_multiplicity
 _atom_site_fract_x
 _atom_site_fract_y
 _atom_site_fract_z
 _atom_site_occupancy
  Tm  Tm0  1  0.000000  0.500000  0.520404  1
  Tm  Tm1  1  0.500000  0.000000  0.479596  1
  Tm  Tm2  1  0.500000  0.815849  0.203879  1
  Tm  Tm3  1  0.500000  0.184151  0.203879  1
  Tm  Tm4  1  0.000000  0.684151  0.796121  1
  Tm  Tm5  1  0.000000  0.315849  0.796121  1
  Fe  Fe6  1  0.000000  0.500000  0.991143  1
  Fe  Fe7  1  0.500000  0.000000  0.008857  1
  Co  Co8  1  0.500000  0.331504  0.994197  1
  Co  Co9  1  0.500000  0.668496  0.994197  1
  Co  Co10  1  0.000000  0.168496  0.005803  1
  Co  Co11  1  0.000000  0.831504  0.005803  1
  Co  Co12  1  0.500000  0.299814  0.428854  1
  Co  Co13  1  0.500000  0.700186  0.428854  1
  Co  Co14  1  0.000000  0.200186  0.571146  1
  Co  Co15  1  0.000000  0.799814  0.571146  1
  Co  Co16  1  0.500000  0.879526  0.711243  1
  Co  Co17  1  0.500000  0.120474  0.711243  1
  Co  Co18  1  0.000000  0.620474  0.288757  1
  Co  Co19  1  0.000000  0.379526  0.288757  1
  P  P20  1  0.500000  0.500000  0.890398  1
  P  P21  1  0.000000  0.000000  0.109602  1
  P  P22  1  0.500000  0.500000  0.351214  1
  P  P23  1  0.000000  0.000000  0.648786  1
  P  P24  1  0.500000  0.302698  0.614540  1
  P  P25  1  0.500000  0.697302  0.614540  1
  P  P26  1  0.000000  0.197302  0.385460  1
  P  P27  1  0.000000  0.802698  0.385460  1
  P  P28  1  0.500000  0.843543  0.894799  1
  P  P29  1  0.500000  0.156457  0.894799  1
  P  P30  1  0.000000  0.656457  0.105201  1
  P  P31  1  0.000000  0.343543  0.105201  1
  Ir  Ir32  1  0.500000  0.500000  0.159636  1
  Ir  Ir33  1  0.000000  0.000000  0.840364  1
  Ir  Ir34  1  0.500000  0.500000  0.701561  1
  Ir  Ir35  1  0.000000  0.000000  0.298439  1
