# generated using pymatgen
data_CeSmZn3AgRu
_symmetry_space_group_name_H-M   'P 1'
_cell_length_a   7.33278400
_cell_length_b   7.31670055
_cell_length_c   5.13329567
_cell_angle_alpha   89.78620127
_cell_angle_beta   90.00000000
_cell_angle_gamma   90.00000000
_symmetry_Int_Tables_number   1
_chemical_formula_structural   CeSmZn3AgRu
_chemical_formula_sum   'Ce2 Sm2 Zn6 Ag2 Ru2'
_cell_volume   275.40855691
_cell_formula_units_Z   2
loop_
 _symmetry_equiv_pos_site_id
 _symmetry_equiv_pos_as_xyz
  1  'x, y, z'
loop_
 _atom_site_type_symbol
 _atom_site_label
 _atom_site_symmetry_multiplicity
 _atom_site_fract_x
 _atom_site_fract_y
 _atom_site_fract_z
 _atom_site_occupancy
  Ce  Ce0  1  0.000000  0.006114  0.996501  1
  Ce  Ce1  1  0.500000  0.494935  0.992830  1
  Sm  Sm2  1  0.000000  0.504148  0.754142  1
  Sm  Sm3  1  0.500000  0.998757  0.236949  1
  Zn  Zn4  1  0.810760  0.311161  0.287665  1
  Zn  Zn5  1  0.313681  0.184379  0.715138  1
  Zn  Zn6  1  0.189240  0.311161  0.287665  1
  Zn  Zn7  1  0.686319  0.184379  0.715138  1
  Zn  Zn8  1  0.687811  0.812711  0.719594  1
  Zn  Zn9  1  0.312189  0.812711  0.719594  1
  Ag  Ag10  1  0.192128  0.687872  0.268848  1
  Ag  Ag11  1  0.807872  0.687872  0.268848  1
  Ru  Ru12  1  0.500000  0.486887  0.519600  1
  Ru  Ru13  1  0.000000  0.016912  0.517485  1
