# generated using pymatgen
data_RbGd(NCl3)2
_symmetry_space_group_name_H-M   'P 1'
_cell_length_a   14.35401506
_cell_length_b   14.35401373
_cell_length_c   14.35401400
_cell_angle_alpha   59.99999939
_cell_angle_beta   60.00000245
_cell_angle_gamma   59.99999990
_symmetry_Int_Tables_number   1
_chemical_formula_structural   RbGd(NCl3)2
_chemical_formula_sum   'Rb1 Gd1 N2 Cl6'
_cell_volume   2091.24602498
_cell_formula_units_Z   1
loop_
 _symmetry_equiv_pos_site_id
 _symmetry_equiv_pos_as_xyz
  1  'x, y, z'
loop_
 _atom_site_type_symbol
 _atom_site_label
 _atom_site_symmetry_multiplicity
 _atom_site_fract_x
 _atom_site_fract_y
 _atom_site_fract_z
 _atom_site_occupancy
  Rb  Rb0  1  0.250000  0.250000  0.250000  1
  Gd  Gd1  1  0.000000  0.000000  0.000000  1
  N  N2  1  0.750000  0.750000  0.750000  1
  N  N3  1  0.500000  0.500000  0.500000  1
  Cl  Cl4  1  0.730154  0.269846  0.269846  1
  Cl  Cl5  1  0.269846  0.269846  0.730154  1
  Cl  Cl6  1  0.269846  0.730154  0.730154  1
  Cl  Cl7  1  0.269846  0.730154  0.269846  1
  Cl  Cl8  1  0.730154  0.269846  0.730154  1
  Cl  Cl9  1  0.730154  0.730154  0.269846  1
