# generated using pymatgen
data_Tb12CoPd3
_symmetry_space_group_name_H-M   'P 1'
_cell_length_a   7.06174453
_cell_length_b   9.65495700
_cell_length_c   6.43605192
_cell_angle_alpha   90.00000000
_cell_angle_beta   89.83231220
_cell_angle_gamma   90.00000000
_symmetry_Int_Tables_number   1
_chemical_formula_structural   Tb12CoPd3
_chemical_formula_sum   'Tb12 Co1 Pd3'
_cell_volume   438.81354539
_cell_formula_units_Z   1
loop_
 _symmetry_equiv_pos_site_id
 _symmetry_equiv_pos_as_xyz
  1  'x, y, z'
loop_
 _atom_site_type_symbol
 _atom_site_label
 _atom_site_symmetry_multiplicity
 _atom_site_fract_x
 _atom_site_fract_y
 _atom_site_fract_z
 _atom_site_occupancy
  Tb  Tb0  1  0.473442  0.750000  0.132069  1
  Tb  Tb1  1  0.169039  0.066820  0.170296  1
  Tb  Tb2  1  0.169039  0.433181  0.170296  1
  Tb  Tb3  1  0.688430  0.064539  0.319059  1
  Tb  Tb4  1  0.688430  0.435462  0.319059  1
  Tb  Tb5  1  0.976246  0.750000  0.367301  1
  Tb  Tb6  1  0.021370  0.250000  0.646326  1
  Tb  Tb7  1  0.320386  0.556342  0.671266  1
  Tb  Tb8  1  0.320386  0.943658  0.671266  1
  Tb  Tb9  1  0.818408  0.557304  0.825794  1
  Tb  Tb10  1  0.818408  0.942696  0.825794  1
  Tb  Tb11  1  0.543080  0.250000  0.878652  1
  Co  Co12  1  0.883725  0.250000  0.059000  1
  Pd  Pd13  1  0.389662  0.250000  0.445574  1
  Pd  Pd14  1  0.609613  0.750000  0.562670  1
  Pd  Pd15  1  0.110342  0.750000  0.935590  1
