# generated using pymatgen
data_Pr16Mg4IrOs3
_symmetry_space_group_name_H-M   'P 1'
_cell_length_a   10.05754157
_cell_length_b   10.14111116
_cell_length_c   10.14288602
_cell_angle_alpha   60.00086138
_cell_angle_beta   59.72435716
_cell_angle_gamma   59.72171159
_symmetry_Int_Tables_number   1
_chemical_formula_structural   Pr16Mg4IrOs3
_chemical_formula_sum   'Pr16 Mg4 Ir1 Os3'
_cell_volume   728.44352220
_cell_formula_units_Z   1
loop_
 _symmetry_equiv_pos_site_id
 _symmetry_equiv_pos_as_xyz
  1  'x, y, z'
loop_
 _atom_site_type_symbol
 _atom_site_label
 _atom_site_symmetry_multiplicity
 _atom_site_fract_x
 _atom_site_fract_y
 _atom_site_fract_z
 _atom_site_occupancy
  Pr  Pr0  1  0.342616  0.344586  0.344580  1
  Pr  Pr1  1  0.342614  0.344588  0.968217  1
  Pr  Pr2  1  0.342617  0.968220  0.344582  1
  Pr  Pr3  1  0.972125  0.342624  0.342628  1
  Pr  Pr4  1  0.812277  0.189222  0.189228  1
  Pr  Pr5  1  0.188748  0.811272  0.811258  1
  Pr  Pr6  1  0.188747  0.811269  0.188725  1
  Pr  Pr7  1  0.812285  0.189225  0.809264  1
  Pr  Pr8  1  0.188747  0.188723  0.811263  1
  Pr  Pr9  1  0.812278  0.809267  0.189228  1
  Pr  Pr10  1  0.937329  0.561805  0.561815  1
  Pr  Pr11  1  0.560293  0.938384  0.938393  1
  Pr  Pr12  1  0.560289  0.938385  0.562936  1
  Pr  Pr13  1  0.937331  0.561805  0.939053  1
  Pr  Pr14  1  0.560290  0.562934  0.938388  1
  Pr  Pr15  1  0.937327  0.939048  0.561815  1
  Mg  Mg16  1  0.577675  0.578628  0.578641  1
  Mg  Mg17  1  0.577683  0.578627  0.265054  1
  Mg  Mg18  1  0.577668  0.265053  0.578643  1
  Mg  Mg19  1  0.263974  0.578671  0.578680  1
  Ir  Ir20  1  0.583923  0.138697  0.138684  1
  Os  Os21  1  0.141052  0.136960  0.136949  1
  Os  Os22  1  0.141053  0.136962  0.585034  1
  Os  Os23  1  0.141061  0.585046  0.136944  1
