# generated using pymatgen
data_Fe8Si15P
_symmetry_space_group_name_H-M   'P 1'
_cell_length_a   6.31203601
_cell_length_b   6.26723206
_cell_length_c   7.81593984
_cell_angle_alpha   89.80092223
_cell_angle_beta   90.72521435
_cell_angle_gamma   103.88322422
_symmetry_Int_Tables_number   1
_chemical_formula_structural   Fe8Si15P
_chemical_formula_sum   'Fe8 Si15 P1'
_cell_volume   300.13418904
_cell_formula_units_Z   1
loop_
 _symmetry_equiv_pos_site_id
 _symmetry_equiv_pos_as_xyz
  1  'x, y, z'
loop_
 _atom_site_type_symbol
 _atom_site_label
 _atom_site_symmetry_multiplicity
 _atom_site_fract_x
 _atom_site_fract_y
 _atom_site_fract_z
 _atom_site_occupancy
  Fe  Fe0  1  0.196368  0.191472  0.809555  1
  Fe  Fe1  1  0.305144  0.314258  0.310463  1
  Fe  Fe2  1  0.697460  0.692920  0.687633  1
  Fe  Fe3  1  0.791748  0.806727  0.194188  1
  Fe  Fe4  1  0.282755  0.714196  0.496311  1
  Fe  Fe5  1  0.228905  0.780134  0.001294  1
  Fe  Fe6  1  0.716741  0.284202  0.499832  1
  Fe  Fe7  1  0.780383  0.215946  0.000765  1
  Si  Si8  1  0.084831  0.826158  0.728126  1
  Si  Si9  1  0.163300  0.916550  0.268678  1
  Si  Si10  1  0.334309  0.581234  0.771523  1
  Si  Si11  1  0.585271  0.328735  0.772136  1
  Si  Si12  1  0.914634  0.172808  0.273182  1
  Si  Si13  1  0.831589  0.082754  0.728317  1
  Si  Si14  1  0.668648  0.417228  0.226642  1
  Si  Si15  1  0.143617  0.398245  0.045553  1
  Si  Si16  1  0.354442  0.098526  0.546579  1
  Si  Si17  1  0.900149  0.646201  0.450878  1
  Si  Si18  1  0.602965  0.854469  0.946173  1
  Si  Si19  1  0.858422  0.601820  0.956997  1
  Si  Si20  1  0.645493  0.904061  0.454996  1
  Si  Si21  1  0.096101  0.352799  0.550090  1
  Si  Si22  1  0.402880  0.145369  0.048279  1
  P  P23  1  0.413847  0.673187  0.231810  1
