# generated using pymatgen
data_Hf4Ta6Si5Ge
_symmetry_space_group_name_H-M   'P 1'
_cell_length_a   7.78191368
_cell_length_b   7.78191311
_cell_length_c   7.78191237
_cell_angle_alpha   129.43708086
_cell_angle_beta   129.43707674
_cell_angle_gamma   74.30829779
_symmetry_Int_Tables_number   1
_chemical_formula_structural   Hf4Ta6Si5Ge
_chemical_formula_sum   'Hf4 Ta6 Si5 Ge1'
_cell_volume   274.01438769
_cell_formula_units_Z   1
loop_
 _symmetry_equiv_pos_site_id
 _symmetry_equiv_pos_as_xyz
  1  'x, y, z'
loop_
 _atom_site_type_symbol
 _atom_site_label
 _atom_site_symmetry_multiplicity
 _atom_site_fract_x
 _atom_site_fract_y
 _atom_site_fract_z
 _atom_site_occupancy
  Hf  Hf0  1  0.017726  0.187664  0.504536  1
  Hf  Hf1  1  0.683128  0.513190  0.495464  1
  Hf  Hf2  1  0.513190  0.017726  0.830063  1
  Hf  Hf3  1  0.187664  0.683128  0.169937  1
  Ta  Ta4  1  0.987274  0.811696  0.505045  1
  Ta  Ta5  1  0.306651  0.482229  0.494955  1
  Ta  Ta6  1  0.482229  0.987274  0.175578  1
  Ta  Ta7  1  0.811696  0.306651  0.824422  1
  Ta  Ta8  1  0.008940  0.008940  0.000000  1
  Ta  Ta9  1  0.507705  0.507705  0.000000  1
  Si  Si10  1  0.242380  0.242380  0.000000  1
  Si  Si11  1  0.370636  0.133603  0.500313  1
  Si  Si12  1  0.633290  0.870322  0.499687  1
  Si  Si13  1  0.870322  0.370636  0.237033  1
  Si  Si14  1  0.133603  0.633290  0.762967  1
  Ge  Ge15  1  0.743568  0.743568  0.000000  1
