# generated using pymatgen
data_BaV5SbO12
_symmetry_space_group_name_H-M   'P 1'
_cell_length_a   8.44924959
_cell_length_b   8.44925055
_cell_length_c   9.85056900
_cell_angle_alpha   54.31843456
_cell_angle_beta   54.31842989
_cell_angle_gamma   65.79598698
_symmetry_Int_Tables_number   1
_chemical_formula_structural   BaV5SbO12
_chemical_formula_sum   'Ba2 V10 Sb2 O24'
_cell_volume   461.37894407
_cell_formula_units_Z   2
loop_
 _symmetry_equiv_pos_site_id
 _symmetry_equiv_pos_as_xyz
  1  'x, y, z'
loop_
 _atom_site_type_symbol
 _atom_site_label
 _atom_site_symmetry_multiplicity
 _atom_site_fract_x
 _atom_site_fract_y
 _atom_site_fract_z
 _atom_site_occupancy
  Ba  Ba0  1  0.288606  0.718360  0.995426  1
  Ba  Ba1  1  0.718360  0.288606  0.995426  1
  V  V2  1  0.673921  0.000541  0.820613  1
  V  V3  1  0.185104  0.515599  0.477751  1
  V  V4  1  0.814866  0.483925  0.515199  1
  V  V5  1  0.333248  0.988652  0.194384  1
  V  V6  1  0.988652  0.333248  0.194384  1
  V  V7  1  0.000541  0.673921  0.820613  1
  V  V8  1  0.515599  0.185104  0.477751  1
  V  V9  1  0.483925  0.814866  0.515199  1
  V  V10  1  0.147828  0.147828  0.528231  1
  V  V11  1  0.663217  0.663217  0.182722  1
  Sb  Sb12  1  0.851901  0.851901  0.479562  1
  Sb  Sb13  1  0.335640  0.335640  0.819071  1
  O  O14  1  0.700036  0.700036  0.953121  1
  O  O15  1  0.007629  0.683995  0.344887  1
  O  O16  1  0.683995  0.007629  0.344887  1
  O  O17  1  0.676238  0.008731  0.617474  1
  O  O18  1  0.008731  0.676238  0.617474  1
  O  O19  1  0.044808  0.044808  0.281791  1
  O  O20  1  0.713028  0.375094  0.270919  1
  O  O21  1  0.375094  0.713028  0.270919  1
  O  O22  1  0.993843  0.318919  0.379866  1
  O  O23  1  0.989517  0.323095  0.645487  1
  O  O24  1  0.039698  0.365153  0.950861  1
  O  O25  1  0.365153  0.039698  0.950861  1
  O  O26  1  0.298485  0.298485  0.057170  1
  O  O27  1  0.958485  0.624735  0.063471  1
  O  O28  1  0.339148  0.339148  0.344380  1
  O  O29  1  0.351459  0.351459  0.606895  1
  O  O30  1  0.291735  0.625740  0.723531  1
  O  O31  1  0.625740  0.291735  0.723531  1
  O  O32  1  0.968346  0.968346  0.704175  1
  O  O33  1  0.646629  0.646629  0.386318  1
  O  O34  1  0.318919  0.993843  0.379866  1
  O  O35  1  0.654044  0.654044  0.656826  1
  O  O36  1  0.323095  0.989517  0.645487  1
  O  O37  1  0.624735  0.958485  0.063471  1
