# generated using pymatgen
data_La8NdEr11Si16
_symmetry_space_group_name_H-M   'P 1'
_cell_length_a   7.81756010
_cell_length_b   7.81294294
_cell_length_c   14.44992486
_cell_angle_alpha   89.82515978
_cell_angle_beta   89.86843969
_cell_angle_gamma   89.98856742
_symmetry_Int_Tables_number   1
_chemical_formula_structural   La8NdEr11Si16
_chemical_formula_sum   'La8 Nd1 Er11 Si16'
_cell_volume   882.56824058
_cell_formula_units_Z   1
loop_
 _symmetry_equiv_pos_site_id
 _symmetry_equiv_pos_as_xyz
  1  'x, y, z'
loop_
 _atom_site_type_symbol
 _atom_site_label
 _atom_site_symmetry_multiplicity
 _atom_site_fract_x
 _atom_site_fract_y
 _atom_site_fract_z
 _atom_site_occupancy
  La  La0  1  0.990240  0.641971  0.039643  1
  La  La1  1  0.009218  0.360069  0.542758  1
  La  La2  1  0.640863  0.992597  0.958817  1
  La  La3  1  0.141784  0.508755  0.790493  1
  La  La4  1  0.859291  0.490872  0.290939  1
  La  La5  1  0.507099  0.140644  0.206960  1
  La  La6  1  0.493029  0.859066  0.710551  1
  La  La7  1  0.359252  0.006898  0.459244  1
  Nd  Nd8  1  0.361361  0.490086  0.375415  1
  Er  Er9  1  0.861148  0.009035  0.374512  1
  Er  Er10  1  0.991211  0.137174  0.123207  1
  Er  Er11  1  0.007105  0.861586  0.627034  1
  Er  Er12  1  0.638441  0.507303  0.874954  1
  Er  Er13  1  0.493122  0.360934  0.626265  1
  Er  Er14  1  0.507167  0.638806  0.123689  1
  Er  Er15  1  0.138840  0.993172  0.874763  1
  Er  Er16  1  0.684568  0.684381  0.500978  1
  Er  Er17  1  0.817789  0.183833  0.750382  1
  Er  Er18  1  0.182581  0.816114  0.249735  1
  Er  Er19  1  0.316388  0.317900  0.998764  1
  Si  Si20  1  0.061268  0.714921  0.440580  1
  Si  Si21  1  0.934568  0.289165  0.937624  1
  Si  Si22  1  0.712887  0.065139  0.562881  1
  Si  Si23  1  0.207499  0.433002  0.184776  1
  Si  Si24  1  0.789002  0.565364  0.689226  1
  Si  Si25  1  0.434947  0.211993  0.811753  1
  Si  Si26  1  0.568900  0.790646  0.309966  1
  Si  Si27  1  0.287337  0.933927  0.060852  1
  Si  Si28  1  0.849150  0.795068  0.811120  1
  Si  Si29  1  0.149141  0.198538  0.305765  1
  Si  Si30  1  0.794681  0.848248  0.189610  1
  Si  Si31  1  0.294571  0.654443  0.563893  1
  Si  Si32  1  0.704542  0.348882  0.058997  1
  Si  Si33  1  0.656901  0.292429  0.443930  1
  Si  Si34  1  0.348373  0.705748  0.939279  1
  Si  Si35  1  0.205736  0.151293  0.690644  1
