# generated using pymatgen
data_Mg4Sn2Pd9Pt
_symmetry_space_group_name_H-M   'P 1'
_cell_length_a   4.22944200
_cell_length_b   5.61165118
_cell_length_c   10.99802733
_cell_angle_alpha   90.07449681
_cell_angle_beta   90.00000000
_cell_angle_gamma   90.00000000
_symmetry_Int_Tables_number   1
_chemical_formula_structural   Mg4Sn2Pd9Pt
_chemical_formula_sum   'Mg4 Sn2 Pd9 Pt1'
_cell_volume   261.02864493
_cell_formula_units_Z   1
loop_
 _symmetry_equiv_pos_site_id
 _symmetry_equiv_pos_as_xyz
  1  'x, y, z'
loop_
 _atom_site_type_symbol
 _atom_site_label
 _atom_site_symmetry_multiplicity
 _atom_site_fract_x
 _atom_site_fract_y
 _atom_site_fract_z
 _atom_site_occupancy
  Mg  Mg0  1  0.500000  0.173225  0.141319  1
  Mg  Mg1  1  0.500000  0.826755  0.859139  1
  Mg  Mg2  1  0.500000  0.326814  0.640263  1
  Mg  Mg3  1  0.500000  0.674316  0.358765  1
  Sn  Sn4  1  0.000000  0.998625  0.500688  1
  Sn  Sn5  1  0.000000  0.500003  0.000116  1
  Pd  Pd6  1  0.500000  0.803375  0.614303  1
  Pd  Pd7  1  0.500000  0.305245  0.886610  1
  Pd  Pd8  1  0.500000  0.694529  0.113190  1
  Pd  Pd9  1  0.000000  0.424480  0.244732  1
  Pd  Pd10  1  0.000000  0.575350  0.755403  1
  Pd  Pd11  1  0.000000  0.075238  0.744622  1
  Pd  Pd12  1  0.000000  0.925177  0.254835  1
  Pd  Pd13  1  0.000000  0.000041  0.999747  1
  Pd  Pd14  1  0.000000  0.501122  0.499771  1
  Pt  Pt15  1  0.500000  0.195704  0.386497  1
