# generated using pymatgen
data_Dy3Ho4Zn(Co3Sn11)2
_symmetry_space_group_name_H-M   'P 1'
_cell_length_a   9.66523601
_cell_length_b   9.66517459
_cell_length_c   9.94367207
_cell_angle_alpha   89.98678431
_cell_angle_beta   90.00340340
_cell_angle_gamma   119.99902983
_symmetry_Int_Tables_number   1
_chemical_formula_structural   Dy3Ho4Zn(Co3Sn11)2
_chemical_formula_sum   'Dy3 Ho4 Zn1 Co6 Sn22'
_cell_volume   804.45883338
_cell_formula_units_Z   1
loop_
 _symmetry_equiv_pos_site_id
 _symmetry_equiv_pos_as_xyz
  1  'x, y, z'
loop_
 _atom_site_type_symbol
 _atom_site_label
 _atom_site_symmetry_multiplicity
 _atom_site_fract_x
 _atom_site_fract_y
 _atom_site_fract_z
 _atom_site_occupancy
  Dy  Dy0  1  0.999915  0.999952  0.000217  1
  Dy  Dy1  1  0.520604  0.479337  0.693981  1
  Dy  Dy2  1  0.520568  0.041260  0.693969  1
  Ho  Ho3  1  0.959124  0.479572  0.694046  1
  Ho  Ho4  1  0.040824  0.520398  0.305821  1
  Ho  Ho5  1  0.479602  0.959222  0.305826  1
  Ho  Ho6  1  0.479576  0.520408  0.305776  1
  Zn  Zn7  1  0.999970  0.999970  0.499931  1
  Co  Co8  1  0.167633  0.831969  0.802645  1
  Co  Co9  1  0.167708  0.335760  0.802663  1
  Co  Co10  1  0.664538  0.832233  0.802695  1
  Co  Co11  1  0.335651  0.167855  0.197318  1
  Co  Co12  1  0.832102  0.664278  0.197396  1
  Co  Co13  1  0.832188  0.167822  0.197396  1
  Sn  Sn14  1  0.666679  0.333369  0.180996  1
  Sn  Sn15  1  0.667382  0.333705  0.880302  1
  Sn  Sn16  1  0.333325  0.666674  0.120435  1
  Sn  Sn17  1  0.346084  0.346018  0.000177  1
  Sn  Sn18  1  0.999838  0.653826  0.000098  1
  Sn  Sn19  1  0.654021  0.000059  0.000127  1
  Sn  Sn20  1  0.653992  0.653911  0.000122  1
  Sn  Sn21  1  0.333285  0.666664  0.819055  1
  Sn  Sn22  1  0.433613  0.216822  0.453393  1
  Sn  Sn23  1  0.216516  0.782878  0.546056  1
  Sn  Sn24  1  0.216520  0.433618  0.546029  1
  Sn  Sn25  1  0.566444  0.783208  0.545977  1
  Sn  Sn26  1  0.113742  0.886218  0.276791  1
  Sn  Sn27  1  0.783316  0.566341  0.453537  1
  Sn  Sn28  1  0.783291  0.216989  0.453610  1
  Sn  Sn29  1  0.346032  0.000075  0.000132  1
  Sn  Sn30  1  0.113783  0.227562  0.276821  1
  Sn  Sn31  1  0.772476  0.886221  0.276850  1
  Sn  Sn32  1  0.227135  0.113517  0.723195  1
  Sn  Sn33  1  0.886333  0.772566  0.723212  1
  Sn  Sn34  1  0.886335  0.113686  0.723237  1
  Sn  Sn35  1  0.999857  0.346037  0.000168  1
