# generated using pymatgen
data_Ca2AlPbAu2
_symmetry_space_group_name_H-M   'P 1'
_cell_length_a   4.65065100
_cell_length_b   7.41808652
_cell_length_c   8.36086743
_cell_angle_alpha   88.00620189
_cell_angle_beta   90.00000000
_cell_angle_gamma   90.00000000
_symmetry_Int_Tables_number   1
_chemical_formula_structural   Ca2AlPbAu2
_chemical_formula_sum   'Ca4 Al2 Pb2 Au4'
_cell_volume   288.26637003
_cell_formula_units_Z   2
loop_
 _symmetry_equiv_pos_site_id
 _symmetry_equiv_pos_as_xyz
  1  'x, y, z'
loop_
 _atom_site_type_symbol
 _atom_site_label
 _atom_site_symmetry_multiplicity
 _atom_site_fract_x
 _atom_site_fract_y
 _atom_site_fract_z
 _atom_site_occupancy
  Ca  Ca0  1  0.250000  0.011865  0.314329  1
  Ca  Ca1  1  0.250000  0.509499  0.206463  1
  Ca  Ca2  1  0.750000  0.988135  0.685671  1
  Ca  Ca3  1  0.750000  0.490501  0.793537  1
  Al  Al4  1  0.250000  0.669158  0.566424  1
  Al  Al5  1  0.750000  0.330842  0.433576  1
  Pb  Pb6  1  0.750000  0.821476  0.074481  1
  Pb  Pb7  1  0.250000  0.178524  0.925519  1
  Au  Au8  1  0.250000  0.760493  0.862785  1
  Au  Au9  1  0.750000  0.239507  0.137215  1
  Au  Au10  1  0.750000  0.700951  0.423792  1
  Au  Au11  1  0.250000  0.299049  0.576208  1
