# generated using pymatgen
data_YCoSbH
_symmetry_space_group_name_H-M   'P 1'
_cell_length_a   4.33524000
_cell_length_b   7.04177000
_cell_length_c   8.06554500
_cell_angle_alpha   90.00000000
_cell_angle_beta   90.00000000
_cell_angle_gamma   90.00000000
_symmetry_Int_Tables_number   1
_chemical_formula_structural   YCoSbH
_chemical_formula_sum   'Y4 Co4 Sb4 H4'
_cell_volume   246.22304602
_cell_formula_units_Z   4
loop_
 _symmetry_equiv_pos_site_id
 _symmetry_equiv_pos_as_xyz
  1  'x, y, z'
loop_
 _atom_site_type_symbol
 _atom_site_label
 _atom_site_symmetry_multiplicity
 _atom_site_fract_x
 _atom_site_fract_y
 _atom_site_fract_z
 _atom_site_occupancy
  Y  Y0  1  0.750000  0.012338  0.690625  1
  Y  Y1  1  0.250000  0.987662  0.309375  1
  Y  Y2  1  0.250000  0.487662  0.190625  1
  Y  Y3  1  0.750000  0.512338  0.809375  1
  Co  Co4  1  0.750000  0.784538  0.092377  1
  Co  Co5  1  0.250000  0.215462  0.907623  1
  Co  Co6  1  0.250000  0.715462  0.592377  1
  Co  Co7  1  0.750000  0.284538  0.407623  1
  Sb  Sb8  1  0.750000  0.666228  0.418052  1
  Sb  Sb9  1  0.250000  0.333772  0.581948  1
  Sb  Sb10  1  0.250000  0.833772  0.918052  1
  Sb  Sb11  1  0.750000  0.166228  0.081948  1
  H  H12  1  0.250000  0.440201  0.919696  1
  H  H13  1  0.750000  0.559799  0.080304  1
  H  H14  1  0.750000  0.059799  0.419696  1
  H  H15  1  0.250000  0.940201  0.580304  1
