# generated using pymatgen
data_Ho10InHg7Rh4
_symmetry_space_group_name_H-M   'P 1'
_cell_length_a   3.67285100
_cell_length_b   7.88973232
_cell_length_c   17.86955925
_cell_angle_alpha   89.78413570
_cell_angle_beta   90.00000000
_cell_angle_gamma   90.00000000
_symmetry_Int_Tables_number   1
_chemical_formula_structural   Ho10InHg7Rh4
_chemical_formula_sum   'Ho10 In1 Hg7 Rh4'
_cell_volume   517.81703990
_cell_formula_units_Z   1
loop_
 _symmetry_equiv_pos_site_id
 _symmetry_equiv_pos_as_xyz
  1  'x, y, z'
loop_
 _atom_site_type_symbol
 _atom_site_label
 _atom_site_symmetry_multiplicity
 _atom_site_fract_x
 _atom_site_fract_y
 _atom_site_fract_z
 _atom_site_occupancy
  Ho  Ho0  1  0.000000  0.499653  0.500582  1
  Ho  Ho1  1  0.000000  0.002461  0.002070  1
  Ho  Ho2  1  0.000000  0.736575  0.284622  1
  Ho  Ho3  1  0.000000  0.264697  0.712607  1
  Ho  Ho4  1  0.000000  0.754510  0.781154  1
  Ho  Ho5  1  0.000000  0.239482  0.217163  1
  Ho  Ho6  1  0.000000  0.611351  0.089094  1
  Ho  Ho7  1  0.000000  0.394823  0.913210  1
  Ho  Ho8  1  0.000000  0.889664  0.589255  1
  Ho  Ho9  1  0.000000  0.108165  0.411299  1
  In  In10  1  0.500000  0.087950  0.849147  1
  Hg  Hg11  1  0.500000  0.716086  0.936799  1
  Hg  Hg12  1  0.500000  0.291631  0.063306  1
  Hg  Hg13  1  0.500000  0.789174  0.438361  1
  Hg  Hg14  1  0.500000  0.208036  0.560101  1
  Hg  Hg15  1  0.500000  0.585918  0.646220  1
  Hg  Hg16  1  0.500000  0.413465  0.354504  1
  Hg  Hg17  1  0.500000  0.914836  0.147511  1
  Rh  Rh18  1  0.500000  0.526402  0.198322  1
  Rh  Rh19  1  0.500000  0.465462  0.803293  1
  Rh  Rh20  1  0.500000  0.974509  0.699282  1
  Rh  Rh21  1  0.500000  0.025148  0.302098  1
