# generated using pymatgen
data_Sm5Dy7Fe2I17
_symmetry_space_group_name_H-M   'P 1'
_cell_length_a   9.80453244
_cell_length_b   11.76319762
_cell_length_c   11.78279456
_cell_angle_alpha   93.27612964
_cell_angle_beta   105.00304037
_cell_angle_gamma   114.06031169
_symmetry_Int_Tables_number   1
_chemical_formula_structural   Sm5Dy7Fe2I17
_chemical_formula_sum   'Sm5 Dy7 Fe2 I17'
_cell_volume   1178.00636319
_cell_formula_units_Z   1
loop_
 _symmetry_equiv_pos_site_id
 _symmetry_equiv_pos_as_xyz
  1  'x, y, z'
loop_
 _atom_site_type_symbol
 _atom_site_label
 _atom_site_symmetry_multiplicity
 _atom_site_fract_x
 _atom_site_fract_y
 _atom_site_fract_z
 _atom_site_occupancy
  Sm  Sm0  1  0.053729  0.505255  0.319307  1
  Sm  Sm1  1  0.993677  0.806407  0.591756  1
  Sm  Sm2  1  0.649519  0.240663  0.280796  1
  Sm  Sm3  1  0.009372  0.189698  0.413964  1
  Sm  Sm4  1  0.216751  0.671564  0.978989  1
  Dy  Dy5  1  0.255309  0.979275  0.890422  1
  Dy  Dy6  1  0.349750  0.758761  0.717542  1
  Dy  Dy7  1  0.946930  0.495498  0.679564  1
  Dy  Dy8  1  0.750328  0.026877  0.112283  1
  Dy  Dy9  1  0.138543  0.285221  0.152304  1
  Dy  Dy10  1  0.780787  0.326667  0.018292  1
  Dy  Dy11  1  0.853889  0.713376  0.847598  1
  Fe  Fe12  1  0.103913  0.738004  0.785498  1
  Fe  Fe13  1  0.895799  0.262507  0.214751  1
  I  I14  1  0.783905  0.528891  0.420899  1
  I  I15  1  0.647822  0.421625  0.762286  1
  I  I16  1  0.839558  0.892618  0.322879  1
  I  I17  1  0.328089  0.214465  0.366397  1
  I  I18  1  0.160052  0.103929  0.678862  1
  I  I19  1  0.582326  0.052080  0.843179  1
  I  I20  1  0.760951  0.191502  0.544223  1
  I  I21  1  0.553127  0.713461  0.952312  1
  I  I22  1  0.357939  0.575721  0.236535  1
  I  I23  1  0.217074  0.472748  0.586658  1
  I  I24  1  0.052837  0.366873  0.894692  1
  I  I25  1  0.445187  0.287541  0.038838  1
  I  I26  1  0.000622  0.999535  0.998769  1
  I  I27  1  0.248479  0.815880  0.464641  1
  I  I28  1  0.414344  0.945056  0.152438  1
  I  I29  1  0.669842  0.786013  0.634379  1
  I  I30  1  0.939551  0.632287  0.098946  1
