# generated using pymatgen
data_Tb6Er4Si5As
_symmetry_space_group_name_H-M   'P 1'
_cell_length_a   8.44537400
_cell_length_b   8.45845175
_cell_length_c   6.30430400
_cell_angle_alpha   90.00000000
_cell_angle_beta   90.00000000
_cell_angle_gamma   119.94886023
_symmetry_Int_Tables_number   1
_chemical_formula_structural   Tb6Er4Si5As
_chemical_formula_sum   'Tb6 Er4 Si5 As1'
_cell_volume   390.21244056
_cell_formula_units_Z   1
loop_
 _symmetry_equiv_pos_site_id
 _symmetry_equiv_pos_as_xyz
  1  'x, y, z'
loop_
 _atom_site_type_symbol
 _atom_site_label
 _atom_site_symmetry_multiplicity
 _atom_site_fract_x
 _atom_site_fract_y
 _atom_site_fract_z
 _atom_site_occupancy
  Tb  Tb0  1  0.996738  0.753198  0.750000  1
  Tb  Tb1  1  0.000305  0.244830  0.250000  1
  Tb  Tb2  1  0.755475  0.755170  0.250000  1
  Tb  Tb3  1  0.757243  0.000000  0.750000  1
  Tb  Tb4  1  0.243540  0.246802  0.750000  1
  Tb  Tb5  1  0.244029  0.000000  0.250000  1
  Er  Er6  1  0.332996  0.664161  0.498777  1
  Er  Er7  1  0.668836  0.335839  0.001223  1
  Er  Er8  1  0.668836  0.335839  0.498777  1
  Er  Er9  1  0.332996  0.664161  0.001223  1
  Si  Si10  1  0.395000  0.394110  0.250000  1
  Si  Si11  1  0.000890  0.605890  0.250000  1
  Si  Si12  1  0.999792  0.394797  0.750000  1
  Si  Si13  1  0.604995  0.605203  0.750000  1
  Si  Si14  1  0.605987  0.000000  0.250000  1
  As  As15  1  0.392339  0.000000  0.750000  1
