# generated using pymatgen
data_PrSm3B4Br5
_symmetry_space_group_name_H-M   'P 1'
_cell_length_a   9.26519649
_cell_length_b   9.26519813
_cell_length_c   19.01310734
_cell_angle_alpha   75.38477585
_cell_angle_beta   75.38477300
_cell_angle_gamma   26.66406340
_symmetry_Int_Tables_number   1
_chemical_formula_structural   PrSm3B4Br5
_chemical_formula_sum   'Pr2 Sm6 B8 Br10'
_cell_volume   707.39041028
_cell_formula_units_Z   2
loop_
 _symmetry_equiv_pos_site_id
 _symmetry_equiv_pos_as_xyz
  1  'x, y, z'
loop_
 _atom_site_type_symbol
 _atom_site_label
 _atom_site_symmetry_multiplicity
 _atom_site_fract_x
 _atom_site_fract_y
 _atom_site_fract_z
 _atom_site_occupancy
  Pr  Pr0  1  0.610212  0.610212  0.721998  1
  Pr  Pr1  1  0.389788  0.389788  0.278002  1
  Sm  Sm2  1  0.974671  0.974671  0.628013  1
  Sm  Sm3  1  0.025329  0.025329  0.371987  1
  Sm  Sm4  1  0.332056  0.332056  0.791652  1
  Sm  Sm5  1  0.667944  0.667944  0.208348  1
  Sm  Sm6  1  0.967538  0.967538  0.886010  1
  Sm  Sm7  1  0.032462  0.032462  0.113990  1
  B  B8  1  0.155130  0.784222  0.757379  1
  B  B9  1  0.215778  0.844870  0.242621  1
  B  B10  1  0.844870  0.215778  0.242621  1
  B  B11  1  0.784222  0.155130  0.757379  1
  B  B12  1  0.468795  0.468795  0.808470  1
  B  B13  1  0.531205  0.531205  0.191530  1
  B  B14  1  0.469007  0.469007  0.706680  1
  B  B15  1  0.530993  0.530993  0.293320  1
  Br  Br16  1  0.143848  0.143848  0.599202  1
  Br  Br17  1  0.856152  0.856152  0.400798  1
  Br  Br18  1  0.144629  0.144629  0.830764  1
  Br  Br19  1  0.855371  0.855371  0.169236  1
  Br  Br20  1  0.796987  0.796987  0.909446  1
  Br  Br21  1  0.203013  0.203013  0.090554  1
  Br  Br22  1  0.797889  0.797889  0.686332  1
  Br  Br23  1  0.202111  0.202111  0.313668  1
  Br  Br24  1  0.500000  0.500000  0.500000  1
  Br  Br25  1  0.500000  0.500000  0.000000  1
