# generated using pymatgen
data_Pr8Zn8AgRh7
_symmetry_space_group_name_H-M   'P 1'
_cell_length_a   4.03219600
_cell_length_b   7.41724471
_cell_length_c   16.78759207
_cell_angle_alpha   90.22213988
_cell_angle_beta   90.00000000
_cell_angle_gamma   90.00000000
_symmetry_Int_Tables_number   1
_chemical_formula_structural   Pr8Zn8AgRh7
_chemical_formula_sum   'Pr8 Zn8 Ag1 Rh7'
_cell_volume   502.07591125
_cell_formula_units_Z   1
loop_
 _symmetry_equiv_pos_site_id
 _symmetry_equiv_pos_as_xyz
  1  'x, y, z'
loop_
 _atom_site_type_symbol
 _atom_site_label
 _atom_site_symmetry_multiplicity
 _atom_site_fract_x
 _atom_site_fract_y
 _atom_site_fract_z
 _atom_site_occupancy
  Pr  Pr0  1  0.750000  0.453130  0.212708  1
  Pr  Pr1  1  0.750000  0.948224  0.282231  1
  Pr  Pr2  1  0.750000  0.830036  0.060347  1
  Pr  Pr3  1  0.250000  0.038899  0.724693  1
  Pr  Pr4  1  0.250000  0.170928  0.941119  1
  Pr  Pr5  1  0.250000  0.550451  0.787074  1
  Pr  Pr6  1  0.750000  0.334733  0.428742  1
  Pr  Pr7  1  0.250000  0.675801  0.559476  1
  Zn  Zn8  1  0.250000  0.992136  0.433003  1
  Zn  Zn9  1  0.750000  0.501509  0.940440  1
  Zn  Zn10  1  0.750000  0.993383  0.560436  1
  Zn  Zn11  1  0.250000  0.624640  0.346991  1
  Zn  Zn12  1  0.750000  0.385196  0.659553  1
  Zn  Zn13  1  0.750000  0.874115  0.853078  1
  Zn  Zn14  1  0.250000  0.499343  0.059337  1
  Zn  Zn15  1  0.250000  0.123523  0.150093  1
  Ag  Ag16  1  0.250000  0.243815  0.567350  1
  Rh  Rh17  1  0.750000  0.257749  0.065552  1
  Rh  Rh18  1  0.250000  0.245454  0.313280  1
  Rh  Rh19  1  0.750000  0.252218  0.813183  1
  Rh  Rh20  1  0.250000  0.743499  0.935739  1
  Rh  Rh21  1  0.750000  0.754423  0.685445  1
  Rh  Rh22  1  0.750000  0.756749  0.434474  1
  Rh  Rh23  1  0.250000  0.750047  0.185656  1
