# generated using pymatgen
data_NdHoBi2O7
_symmetry_space_group_name_H-M   'P 1'
_cell_length_a   6.66859975
_cell_length_b   6.76726031
_cell_length_c   7.83463636
_cell_angle_alpha   106.50176710
_cell_angle_beta   89.60595721
_cell_angle_gamma   98.36245956
_symmetry_Int_Tables_number   1
_chemical_formula_structural   NdHoBi2O7
_chemical_formula_sum   'Nd2 Ho2 Bi4 O14'
_cell_volume   335.17442594
_cell_formula_units_Z   2
loop_
 _symmetry_equiv_pos_site_id
 _symmetry_equiv_pos_as_xyz
  1  'x, y, z'
loop_
 _atom_site_type_symbol
 _atom_site_label
 _atom_site_symmetry_multiplicity
 _atom_site_fract_x
 _atom_site_fract_y
 _atom_site_fract_z
 _atom_site_occupancy
  Nd  Nd0  1  0.260608  0.539786  0.884998  1
  Nd  Nd1  1  0.739392  0.460214  0.115002  1
  Ho  Ho2  1  0.459549  0.005638  0.252691  1
  Ho  Ho3  1  0.540451  0.994362  0.747309  1
  Bi  Bi4  1  0.000000  0.000000  0.500000  1
  Bi  Bi5  1  0.000000  0.000000  0.000000  1
  Bi  Bi6  1  0.724643  0.458594  0.610807  1
  Bi  Bi7  1  0.275357  0.541406  0.389193  1
  O  O8  1  0.445207  0.657757  0.173062  1
  O  O9  1  0.554793  0.342243  0.826938  1
  O  O10  1  0.303956  0.932470  0.948873  1
  O  O11  1  0.696044  0.067530  0.051127  1
  O  O12  1  0.301268  0.922429  0.513740  1
  O  O13  1  0.698732  0.077571  0.486260  1
  O  O14  1  0.536492  0.355112  0.346063  1
  O  O15  1  0.463508  0.644888  0.653937  1
  O  O16  1  0.932225  0.674586  0.961044  1
  O  O17  1  0.067775  0.325414  0.038956  1
  O  O18  1  0.087994  0.322297  0.623248  1
  O  O19  1  0.912006  0.677703  0.376752  1
  O  O20  1  0.875391  0.928284  0.732854  1
  O  O21  1  0.124609  0.071716  0.267146  1
