# generated using pymatgen
data_Yb12Lu8Si15Sn
_symmetry_space_group_name_H-M   'P 1'
_cell_length_a   7.31409266
_cell_length_b   7.80017953
_cell_length_c   15.01800839
_cell_angle_alpha   89.70256940
_cell_angle_beta   90.30562604
_cell_angle_gamma   90.03367794
_symmetry_Int_Tables_number   1
_chemical_formula_structural   Yb12Lu8Si15Sn
_chemical_formula_sum   'Yb12 Lu8 Si15 Sn1'
_cell_volume   856.77207095
_cell_formula_units_Z   1
loop_
 _symmetry_equiv_pos_site_id
 _symmetry_equiv_pos_as_xyz
  1  'x, y, z'
loop_
 _atom_site_type_symbol
 _atom_site_label
 _atom_site_symmetry_multiplicity
 _atom_site_fract_x
 _atom_site_fract_y
 _atom_site_fract_z
 _atom_site_occupancy
  Yb  Yb0  1  0.982135  0.821189  0.402279  1
  Yb  Yb1  1  0.477464  0.682482  0.094727  1
  Yb  Yb2  1  0.510148  0.310709  0.596213  1
  Yb  Yb3  1  0.022526  0.183160  0.906238  1
  Yb  Yb4  1  0.022577  0.177639  0.595593  1
  Yb  Yb5  1  0.522654  0.317788  0.905802  1
  Yb  Yb6  1  0.480077  0.682563  0.403481  1
  Yb  Yb7  1  0.977477  0.816163  0.094804  1
  Yb  Yb8  1  0.346193  0.022743  0.752906  1
  Yb  Yb9  1  0.847846  0.480300  0.753218  1
  Yb  Yb10  1  0.152593  0.520076  0.249571  1
  Yb  Yb11  1  0.651830  0.977258  0.248646  1
  Lu  Lu12  1  0.316944  0.175957  0.120365  1
  Lu  Lu13  1  0.818578  0.316382  0.373814  1
  Lu  Lu14  1  0.183969  0.676849  0.879519  1
  Lu  Lu15  1  0.675917  0.837940  0.626211  1
  Lu  Lu16  1  0.319302  0.175402  0.376507  1
  Lu  Lu17  1  0.816327  0.323599  0.120539  1
  Lu  Lu18  1  0.190173  0.678259  0.622313  1
  Lu  Lu19  1  0.684653  0.824250  0.879780  1
  Si  Si20  1  0.354940  0.966051  0.962269  1
  Si  Si21  1  0.645665  0.034365  0.461469  1
  Si  Si22  1  0.145488  0.465943  0.038347  1
  Si  Si23  1  0.157419  0.462595  0.459955  1
  Si  Si24  1  0.646024  0.033810  0.038066  1
  Si  Si25  1  0.354039  0.964860  0.536200  1
  Si  Si26  1  0.855196  0.534368  0.962193  1
  Si  Si27  1  0.974619  0.877411  0.751381  1
  Si  Si28  1  0.474922  0.625493  0.752281  1
  Si  Si29  1  0.525995  0.375412  0.247444  1
  Si  Si30  1  0.026670  0.120812  0.248069  1
  Si  Si31  1  0.246407  0.399755  0.751227  1
  Si  Si32  1  0.746773  0.104889  0.752535  1
  Si  Si33  1  0.254975  0.896816  0.248698  1
  Si  Si34  1  0.754249  0.600587  0.248703  1
  Sn  Sn35  1  0.837234  0.536125  0.538636  1
