# generated using pymatgen
data_SmTh3(Ga3Rh)6
_symmetry_space_group_name_H-M   'P 1'
_cell_length_a   7.68808495
_cell_length_b   7.68831150
_cell_length_c   9.56161300
_cell_angle_alpha   90.00000000
_cell_angle_beta   90.00000000
_cell_angle_gamma   119.60578603
_symmetry_Int_Tables_number   1
_chemical_formula_structural   SmTh3(Ga3Rh)6
_chemical_formula_sum   'Sm1 Th3 Ga18 Rh6'
_cell_volume   491.38561954
_cell_formula_units_Z   1
loop_
 _symmetry_equiv_pos_site_id
 _symmetry_equiv_pos_as_xyz
  1  'x, y, z'
loop_
 _atom_site_type_symbol
 _atom_site_label
 _atom_site_symmetry_multiplicity
 _atom_site_fract_x
 _atom_site_fract_y
 _atom_site_fract_z
 _atom_site_occupancy
  Sm  Sm0  1  0.329380  0.003608  0.750000  1
  Th  Th1  1  0.997403  0.670177  0.250000  1
  Th  Th2  1  0.001978  0.330233  0.750000  1
  Th  Th3  1  0.670026  0.997041  0.250000  1
  Ga  Ga4  1  0.134519  0.132740  0.250000  1
  Ga  Ga5  1  0.869803  0.869225  0.750000  1
  Ga  Ga6  1  0.005052  0.335287  0.078314  1
  Ga  Ga7  1  0.999979  0.669206  0.919673  1
  Ga  Ga8  1  0.999979  0.669206  0.580327  1
  Ga  Ga9  1  0.335200  0.003933  0.425827  1
  Ga  Ga10  1  0.005052  0.335287  0.421686  1
  Ga  Ga11  1  0.660657  0.995865  0.580249  1
  Ga  Ga12  1  0.660657  0.995865  0.919751  1
  Ga  Ga13  1  0.335200  0.003933  0.074173  1
  Ga  Ga14  1  0.335952  0.332498  0.561711  1
  Ga  Ga15  1  0.663270  0.663179  0.442161  1
  Ga  Ga16  1  0.663270  0.663179  0.057839  1
  Ga  Ga17  1  0.335952  0.332498  0.938289  1
  Ga  Ga18  1  0.341259  0.543528  0.250000  1
  Ga  Ga19  1  0.658049  0.452607  0.750000  1
  Ga  Ga20  1  0.543408  0.339176  0.250000  1
  Ga  Ga21  1  0.454524  0.661301  0.750000  1
  Rh  Rh22  1  0.674780  0.329979  0.001082  1
  Rh  Rh23  1  0.327720  0.670624  0.001113  1
  Rh  Rh24  1  0.327720  0.670624  0.498887  1
  Rh  Rh25  1  0.674780  0.329979  0.498918  1
  Rh  Rh26  1  0.997215  0.999610  0.001597  1
  Rh  Rh27  1  0.997215  0.999610  0.498403  1
