# generated using pymatgen
data_Dy2Sc3Sn3Au
_symmetry_space_group_name_H-M   'P 1'
_cell_length_a   7.53916500
_cell_length_b   8.00043200
_cell_length_c   14.70822100
_cell_angle_alpha   90.00000000
_cell_angle_beta   90.00000000
_cell_angle_gamma   90.00000000
_symmetry_Int_Tables_number   1
_chemical_formula_structural   Dy2Sc3Sn3Au
_chemical_formula_sum   'Dy8 Sc12 Sn12 Au4'
_cell_volume   887.14954329
_cell_formula_units_Z   4
loop_
 _symmetry_equiv_pos_site_id
 _symmetry_equiv_pos_as_xyz
  1  'x, y, z'
loop_
 _atom_site_type_symbol
 _atom_site_label
 _atom_site_symmetry_multiplicity
 _atom_site_fract_x
 _atom_site_fract_y
 _atom_site_fract_z
 _atom_site_occupancy
  Dy  Dy0  1  0.995700  0.178655  0.093114  1
  Dy  Dy1  1  0.004300  0.821345  0.906886  1
  Dy  Dy2  1  0.504300  0.678655  0.906886  1
  Dy  Dy3  1  0.004300  0.821345  0.593114  1
  Dy  Dy4  1  0.495700  0.321345  0.093114  1
  Dy  Dy5  1  0.995700  0.178655  0.406886  1
  Dy  Dy6  1  0.495700  0.321345  0.406886  1
  Dy  Dy7  1  0.504300  0.678655  0.593114  1
  Sc  Sc8  1  0.176475  0.493839  0.750000  1
  Sc  Sc9  1  0.823525  0.506161  0.250000  1
  Sc  Sc10  1  0.323525  0.993839  0.250000  1
  Sc  Sc11  1  0.676475  0.006161  0.750000  1
  Sc  Sc12  1  0.332604  0.165722  0.631923  1
  Sc  Sc13  1  0.667396  0.834278  0.368077  1
  Sc  Sc14  1  0.167396  0.665722  0.368077  1
  Sc  Sc15  1  0.667396  0.834278  0.131923  1
  Sc  Sc16  1  0.832604  0.334278  0.631923  1
  Sc  Sc17  1  0.332604  0.165722  0.868077  1
  Sc  Sc18  1  0.832604  0.334278  0.868077  1
  Sc  Sc19  1  0.167396  0.665722  0.131923  1
  Sn  Sn20  1  0.298379  0.858089  0.750000  1
  Sn  Sn21  1  0.701621  0.141911  0.250000  1
  Sn  Sn22  1  0.201621  0.358089  0.250000  1
  Sn  Sn23  1  0.798379  0.641911  0.750000  1
  Sn  Sn24  1  0.180453  0.459838  0.541809  1
  Sn  Sn25  1  0.819547  0.540162  0.458191  1
  Sn  Sn26  1  0.319547  0.959838  0.458191  1
  Sn  Sn27  1  0.819547  0.540162  0.041809  1
  Sn  Sn28  1  0.680453  0.040162  0.541809  1
  Sn  Sn29  1  0.180453  0.459838  0.958191  1
  Sn  Sn30  1  0.680453  0.040162  0.958191  1
  Sn  Sn31  1  0.319547  0.959838  0.041809  1
  Au  Au32  1  0.029644  0.122205  0.750000  1
  Au  Au33  1  0.970356  0.877795  0.250000  1
  Au  Au34  1  0.470356  0.622205  0.250000  1
  Au  Au35  1  0.529644  0.377795  0.750000  1
