# generated using pymatgen
data_Tb16Lu4Ir5Pt7
_symmetry_space_group_name_H-M   'P 1'
_cell_length_a   11.03505606
_cell_length_b   11.03505606
_cell_length_c   6.33786341
_cell_angle_alpha   90.17256915
_cell_angle_beta   90.17256915
_cell_angle_gamma   90.18586336
_symmetry_Int_Tables_number   1
_chemical_formula_structural   Tb16Lu4Ir5Pt7
_chemical_formula_sum   'Tb16 Lu4 Ir5 Pt7'
_cell_volume   771.76614782
_cell_formula_units_Z   1
loop_
 _symmetry_equiv_pos_site_id
 _symmetry_equiv_pos_as_xyz
  1  'x, y, z'
loop_
 _atom_site_type_symbol
 _atom_site_label
 _atom_site_symmetry_multiplicity
 _atom_site_fract_x
 _atom_site_fract_y
 _atom_site_fract_z
 _atom_site_occupancy
  Tb  Tb0  1  0.292875  0.085403  0.373394  1
  Tb  Tb1  1  0.293263  0.909910  0.874087  1
  Tb  Tb2  1  0.706621  0.085746  0.873586  1
  Tb  Tb3  1  0.706454  0.912935  0.373223  1
  Tb  Tb4  1  0.582691  0.789970  0.872589  1
  Tb  Tb5  1  0.586142  0.208031  0.374522  1
  Tb  Tb6  1  0.411700  0.789922  0.377988  1
  Tb  Tb7  1  0.412919  0.206187  0.874010  1
  Tb  Tb8  1  0.210030  0.417309  0.627411  1
  Tb  Tb9  1  0.210078  0.588300  0.122012  1
  Tb  Tb10  1  0.791969  0.413858  0.125478  1
  Tb  Tb11  1  0.793813  0.587081  0.625990  1
  Tb  Tb12  1  0.914597  0.707125  0.126606  1
  Tb  Tb13  1  0.914254  0.293379  0.626414  1
  Tb  Tb14  1  0.090090  0.706737  0.625913  1
  Tb  Tb15  1  0.087065  0.293546  0.126777  1
  Lu  Lu16  1  0.999400  0.999635  0.500303  1
  Lu  Lu17  1  0.000365  0.000600  0.999697  1
  Lu  Lu18  1  0.497701  0.500563  0.999175  1
  Lu  Lu19  1  0.499437  0.502299  0.500825  1
  Ir  Ir20  1  0.350135  0.649865  0.750000  1
  Ir  Ir21  1  0.499955  0.999904  0.120208  1
  Ir  Ir22  1  0.499864  0.000084  0.618812  1
  Ir  Ir23  1  0.999916  0.500136  0.881188  1
  Ir  Ir24  1  0.000096  0.500045  0.379792  1
  Pt  Pt25  1  0.849926  0.150074  0.250000  1
  Pt  Pt26  1  0.849205  0.850125  0.750635  1
  Pt  Pt27  1  0.149875  0.150795  0.749365  1
  Pt  Pt28  1  0.149446  0.850554  0.250000  1
  Pt  Pt29  1  0.649725  0.350275  0.750000  1
  Pt  Pt30  1  0.651321  0.650929  0.251017  1
  Pt  Pt31  1  0.349071  0.348679  0.248983  1
