# generated using pymatgen
data_Tb2Al6Si4Pd
_symmetry_space_group_name_H-M   'P 1'
_cell_length_a   4.16764194
_cell_length_b   4.16819917
_cell_length_c   17.10684394
_cell_angle_alpha   90.03888773
_cell_angle_beta   96.89765526
_cell_angle_gamma   120.10085928
_symmetry_Int_Tables_number   1
_chemical_formula_structural   Tb2Al6Si4Pd
_chemical_formula_sum   'Tb2 Al6 Si4 Pd1'
_cell_volume   254.59361625
_cell_formula_units_Z   1
loop_
 _symmetry_equiv_pos_site_id
 _symmetry_equiv_pos_as_xyz
  1  'x, y, z'
loop_
 _atom_site_type_symbol
 _atom_site_label
 _atom_site_symmetry_multiplicity
 _atom_site_fract_x
 _atom_site_fract_y
 _atom_site_fract_z
 _atom_site_occupancy
  Tb  Tb0  1  0.868626  0.434425  0.303588  1
  Tb  Tb1  1  0.131366  0.565569  0.696407  1
  Al  Al2  1  0.364898  0.682336  0.048492  1
  Al  Al3  1  0.102328  0.051344  0.151419  1
  Al  Al4  1  0.628752  0.813980  0.444607  1
  Al  Al5  1  0.371246  0.186015  0.555389  1
  Al  Al6  1  0.897673  0.948657  0.848585  1
  Al  Al7  1  0.635111  0.317669  0.951514  1
  Si  Si8  1  0.468677  0.734129  0.202500  1
  Si  Si9  1  0.270711  0.135531  0.406166  1
  Si  Si10  1  0.729285  0.864465  0.593834  1
  Si  Si11  1  0.531326  0.265875  0.797502  1
  Pd  Pd12  1  0.000001  0.000003  0.999998  1
