# generated using pymatgen
data_Rb5Cd6
_symmetry_space_group_name_H-M   'P 1'
_cell_length_a   18.86801483
_cell_length_b   18.86801410
_cell_length_c   5.92222600
_cell_angle_alpha   90.00000000
_cell_angle_beta   90.00000000
_cell_angle_gamma   166.58796503
_symmetry_Int_Tables_number   1
_chemical_formula_structural   Rb5Cd6
_chemical_formula_sum   'Rb5 Cd6'
_cell_volume   489.03048121
_cell_formula_units_Z   1
loop_
 _symmetry_equiv_pos_site_id
 _symmetry_equiv_pos_as_xyz
  1  'x, y, z'
loop_
 _atom_site_type_symbol
 _atom_site_label
 _atom_site_symmetry_multiplicity
 _atom_site_fract_x
 _atom_site_fract_y
 _atom_site_fract_z
 _atom_site_occupancy
  Rb  Rb0  1  0.000000  0.000000  0.000000  1
  Rb  Rb1  1  0.617171  0.382827  0.000000  1
  Rb  Rb2  1  0.382827  0.617171  0.000000  1
  Rb  Rb3  1  0.806066  0.193932  0.500001  1
  Rb  Rb4  1  0.193932  0.806066  0.500001  1
  Cd  Cd5  1  0.723922  0.276076  0.000000  1
  Cd  Cd6  1  0.276076  0.723922  0.000000  1
  Cd  Cd7  1  0.908141  0.091858  0.500001  1
  Cd  Cd8  1  0.539732  0.460266  0.500001  1
  Cd  Cd9  1  0.460266  0.539732  0.500001  1
  Cd  Cd10  1  0.091858  0.908141  0.500001  1
