# generated using pymatgen
data_DyTm11(GaCo2)2
_symmetry_space_group_name_H-M   'P 1'
_cell_length_a   8.19426100
_cell_length_b   8.17259721
_cell_length_c   8.17259730
_cell_angle_alpha   111.99321006
_cell_angle_beta   109.51415767
_cell_angle_gamma   106.84657102
_symmetry_Int_Tables_number   1
_chemical_formula_structural   DyTm11(GaCo2)2
_chemical_formula_sum   'Dy1 Tm11 Ga2 Co4'
_cell_volume   420.98852214
_cell_formula_units_Z   1
loop_
 _symmetry_equiv_pos_site_id
 _symmetry_equiv_pos_as_xyz
  1  'x, y, z'
loop_
 _atom_site_type_symbol
 _atom_site_label
 _atom_site_symmetry_multiplicity
 _atom_site_fract_x
 _atom_site_fract_y
 _atom_site_fract_z
 _atom_site_occupancy
  Dy  Dy0  1  0.565580  0.262690  0.302889  1
  Tm  Tm1  1  0.180200  0.219586  0.399798  1
  Tm  Tm2  1  0.180200  0.780401  0.960614  1
  Tm  Tm3  1  0.673603  0.484092  0.811773  1
  Tm  Tm4  1  0.673603  0.861830  0.189511  1
  Tm  Tm5  1  0.960331  0.261249  0.699083  1
  Tm  Tm6  1  0.040562  0.738877  0.301685  1
  Tm  Tm7  1  0.325668  0.136603  0.809693  1
  Tm  Tm8  1  0.325668  0.515976  0.189065  1
  Tm  Tm9  1  0.819226  0.218974  0.038021  1
  Tm  Tm10  1  0.819226  0.781204  0.600252  1
  Tm  Tm11  1  0.437188  0.737990  0.699198  1
  Ga  Ga12  1  0.003953  0.502074  0.501879  1
  Ga  Ga13  1  0.500810  0.999265  0.501546  1
  Co  Co14  1  0.885558  0.884016  0.001542  1
  Co  Co15  1  0.338912  0.499390  0.839522  1
  Co  Co16  1  0.658836  0.500654  0.158182  1
  Co  Co17  1  0.110876  0.115128  0.995747  1
