# generated using pymatgen
data_Sr2B4Ir3Ru
_symmetry_space_group_name_H-M   'P 1'
_cell_length_a   7.09817343
_cell_length_b   6.15041465
_cell_length_c   5.66096519
_cell_angle_alpha   73.74632859
_cell_angle_beta   56.28893052
_cell_angle_gamma   49.59387683
_symmetry_Int_Tables_number   1
_chemical_formula_structural   Sr2B4Ir3Ru
_chemical_formula_sum   'Sr2 B4 Ir3 Ru1'
_cell_volume   155.29497849
_cell_formula_units_Z   1
loop_
 _symmetry_equiv_pos_site_id
 _symmetry_equiv_pos_as_xyz
  1  'x, y, z'
loop_
 _atom_site_type_symbol
 _atom_site_label
 _atom_site_symmetry_multiplicity
 _atom_site_fract_x
 _atom_site_fract_y
 _atom_site_fract_z
 _atom_site_occupancy
  Sr  Sr0  1  0.500129  0.500129  0.499871  1
  Sr  Sr1  1  0.749483  0.749483  0.750517  1
  B  B2  1  0.827240  0.176444  0.825658  1
  B  B3  1  0.071962  0.425297  0.075441  1
  B  B4  1  0.176444  0.827240  0.170658  1
  B  B5  1  0.425297  0.071962  0.427301  1
  Ir  Ir6  1  0.381770  0.381770  0.118230  1
  Ir  Ir7  1  0.117903  0.117903  0.382097  1
  Ir  Ir8  1  0.867731  0.867731  0.132269  1
  Ru  Ru9  1  0.132041  0.132041  0.867959  1
