# generated using pymatgen
data_Ca10ZnCd2Cu2Ir
_symmetry_space_group_name_H-M   'P 1'
_cell_length_a   9.30467021
_cell_length_b   9.30467094
_cell_length_c   9.27404374
_cell_angle_alpha   129.63378677
_cell_angle_beta   129.63379158
_cell_angle_gamma   74.24303960
_symmetry_Int_Tables_number   1
_chemical_formula_structural   Ca10ZnCd2Cu2Ir
_chemical_formula_sum   'Ca10 Zn1 Cd2 Cu2 Ir1'
_cell_volume   463.65742446
_cell_formula_units_Z   1
loop_
 _symmetry_equiv_pos_site_id
 _symmetry_equiv_pos_as_xyz
  1  'x, y, z'
loop_
 _atom_site_type_symbol
 _atom_site_label
 _atom_site_symmetry_multiplicity
 _atom_site_fract_x
 _atom_site_fract_y
 _atom_site_fract_z
 _atom_site_occupancy
  Ca  Ca0  1  0.491256  0.503621  0.994876  1
  Ca  Ca1  1  0.003621  0.991256  0.994876  1
  Ca  Ca2  1  0.524722  0.024722  0.827251  1
  Ca  Ca3  1  0.187424  0.687424  0.144291  1
  Ca  Ca4  1  0.035594  0.203359  0.514023  1
  Ca  Ca5  1  0.703359  0.535594  0.514023  1
  Ca  Ca6  1  0.456869  0.956869  0.144291  1
  Ca  Ca7  1  0.802528  0.302528  0.827251  1
  Ca  Ca8  1  0.978429  0.810664  0.514023  1
  Ca  Ca9  1  0.310664  0.478429  0.514023  1
  Zn  Zn10  1  0.883156  0.383156  0.266309  1
  Cd  Cd11  1  0.254522  0.254522  0.009043  1
  Cd  Cd12  1  0.754522  0.754522  0.009043  1
  Cu  Cu13  1  0.614013  0.884157  0.498170  1
  Cu  Cu14  1  0.384157  0.114013  0.498170  1
  Ir  Ir15  1  0.115163  0.615163  0.730326  1
