# generated using pymatgen
data_Tb5NdCo2(P3Ir4)4
_symmetry_space_group_name_H-M   'P 1'
_cell_length_a   3.94133700
_cell_length_b   11.11846800
_cell_length_c   12.82764600
_cell_angle_alpha   90.00000000
_cell_angle_beta   90.00000000
_cell_angle_gamma   90.00000000
_symmetry_Int_Tables_number   1
_chemical_formula_structural   Tb5NdCo2(P3Ir4)4
_chemical_formula_sum   'Tb5 Nd1 Co2 P12 Ir16'
_cell_volume   562.12834795
_cell_formula_units_Z   1
loop_
 _symmetry_equiv_pos_site_id
 _symmetry_equiv_pos_as_xyz
  1  'x, y, z'
loop_
 _atom_site_type_symbol
 _atom_site_label
 _atom_site_symmetry_multiplicity
 _atom_site_fract_x
 _atom_site_fract_y
 _atom_site_fract_z
 _atom_site_occupancy
  Tb  Tb0  1  0.500000  0.000000  0.477267  1
  Tb  Tb1  1  0.500000  0.815907  0.200418  1
  Tb  Tb2  1  0.500000  0.184093  0.200418  1
  Tb  Tb3  1  0.000000  0.684345  0.799826  1
  Tb  Tb4  1  0.000000  0.315655  0.799826  1
  Nd  Nd5  1  0.000000  0.500000  0.522606  1
  Co  Co6  1  0.000000  0.500000  0.978287  1
  Co  Co7  1  0.500000  0.000000  0.022241  1
  P  P8  1  0.500000  0.500000  0.882006  1
  P  P9  1  0.000000  0.000000  0.119192  1
  P  P10  1  0.500000  0.500000  0.355213  1
  P  P11  1  0.000000  0.000000  0.642456  1
  P  P12  1  0.500000  0.314121  0.620275  1
  P  P13  1  0.500000  0.685879  0.620275  1
  P  P14  1  0.000000  0.184343  0.380716  1
  P  P15  1  0.000000  0.815657  0.380716  1
  P  P16  1  0.500000  0.852213  0.896972  1
  P  P17  1  0.500000  0.147787  0.896972  1
  P  P18  1  0.000000  0.648157  0.102873  1
  P  P19  1  0.000000  0.351843  0.102873  1
  Ir  Ir20  1  0.500000  0.500000  0.176431  1
  Ir  Ir21  1  0.000000  0.000000  0.821911  1
  Ir  Ir22  1  0.500000  0.500000  0.705493  1
  Ir  Ir23  1  0.000000  0.000000  0.296968  1
  Ir  Ir24  1  0.500000  0.338665  0.997998  1
  Ir  Ir25  1  0.500000  0.661335  0.997998  1
  Ir  Ir26  1  0.000000  0.160626  0.001909  1
  Ir  Ir27  1  0.000000  0.839374  0.001909  1
  Ir  Ir28  1  0.500000  0.289492  0.428302  1
  Ir  Ir29  1  0.500000  0.710508  0.428302  1
  Ir  Ir30  1  0.000000  0.205661  0.570879  1
  Ir  Ir31  1  0.000000  0.794339  0.570879  1
  Ir  Ir32  1  0.500000  0.871163  0.715160  1
  Ir  Ir33  1  0.500000  0.128837  0.715160  1
  Ir  Ir34  1  0.000000  0.629196  0.284636  1
  Ir  Ir35  1  0.000000  0.370804  0.284636  1
