# generated using pymatgen
data_ThTc6PbO24
_symmetry_space_group_name_H-M   'P 1'
_cell_length_a   10.07336900
_cell_length_b   10.07336972
_cell_length_c   6.15744800
_cell_angle_alpha   90.00000000
_cell_angle_beta   90.00000000
_cell_angle_gamma   120.00000091
_symmetry_Int_Tables_number   1
_chemical_formula_structural   ThTc6PbO24
_chemical_formula_sum   'Th1 Tc6 Pb1 O24'
_cell_volume   541.10419097
_cell_formula_units_Z   1
loop_
 _symmetry_equiv_pos_site_id
 _symmetry_equiv_pos_as_xyz
  1  'x, y, z'
loop_
 _atom_site_type_symbol
 _atom_site_label
 _atom_site_symmetry_multiplicity
 _atom_site_fract_x
 _atom_site_fract_y
 _atom_site_fract_z
 _atom_site_occupancy
  Th  Th0  1  0.666667  0.333333  0.750000  1
  Tc  Tc1  1  0.078738  0.377719  0.750000  1
  Tc  Tc2  1  0.386088  0.291834  0.250000  1
  Tc  Tc3  1  0.622281  0.701017  0.750000  1
  Tc  Tc4  1  0.905745  0.613912  0.250000  1
  Tc  Tc5  1  0.298983  0.921262  0.750000  1
  Tc  Tc6  1  0.708166  0.094255  0.250000  1
  Pb  Pb7  1  0.333333  0.666667  0.250000  1
  O  O8  1  0.504418  0.643547  0.522893  1
  O  O9  1  0.356453  0.860872  0.522893  1
  O  O10  1  0.818860  0.722539  0.250000  1
  O  O11  1  0.104210  0.847606  0.750000  1
  O  O12  1  0.277461  0.096322  0.250000  1
  O  O13  1  0.152394  0.256604  0.750000  1
  O  O14  1  0.507988  0.357702  0.021616  1
  O  O15  1  0.903678  0.181140  0.250000  1
  O  O16  1  0.100944  0.732691  0.250000  1
  O  O17  1  0.139128  0.495582  0.977107  1
  O  O18  1  0.139128  0.495582  0.522893  1
  O  O19  1  0.876647  0.276103  0.750000  1
  O  O20  1  0.267309  0.368252  0.250000  1
  O  O21  1  0.723897  0.600545  0.750000  1
  O  O22  1  0.849714  0.492012  0.478384  1
  O  O23  1  0.399455  0.123353  0.750000  1
  O  O24  1  0.642298  0.150286  0.021616  1
  O  O25  1  0.504418  0.643547  0.977107  1
  O  O26  1  0.356453  0.860872  0.977107  1
  O  O27  1  0.642298  0.150286  0.478384  1
  O  O28  1  0.507988  0.357702  0.478384  1
  O  O29  1  0.849714  0.492012  0.021616  1
  O  O30  1  0.743396  0.895790  0.750000  1
  O  O31  1  0.631748  0.899056  0.250000  1
