# generated using pymatgen
data_Hf16Ni4Mo2IrRu
_symmetry_space_group_name_H-M   'P 1'
_cell_length_a   8.66607313
_cell_length_b   8.66607228
_cell_length_c   8.62852348
_cell_angle_alpha   60.13708014
_cell_angle_beta   60.13708200
_cell_angle_gamma   60.07037459
_symmetry_Int_Tables_number   1
_chemical_formula_structural   Hf16Ni4Mo2IrRu
_chemical_formula_sum   'Hf16 Ni4 Mo2 Ir1 Ru1'
_cell_volume   459.40349613
_cell_formula_units_Z   1
loop_
 _symmetry_equiv_pos_site_id
 _symmetry_equiv_pos_as_xyz
  1  'x, y, z'
loop_
 _atom_site_type_symbol
 _atom_site_label
 _atom_site_symmetry_multiplicity
 _atom_site_fract_x
 _atom_site_fract_y
 _atom_site_fract_z
 _atom_site_occupancy
  Hf  Hf0  1  0.683279  0.106912  0.104768  1
  Hf  Hf1  1  0.106912  0.683279  0.104768  1
  Hf  Hf2  1  0.103447  0.103447  0.689570  1
  Hf  Hf3  1  0.104231  0.104231  0.103029  1
  Hf  Hf4  1  0.316289  0.316289  0.681078  1
  Hf  Hf5  1  0.684729  0.684729  0.315159  1
  Hf  Hf6  1  0.316568  0.686461  0.315237  1
  Hf  Hf7  1  0.687849  0.316538  0.680051  1
  Hf  Hf8  1  0.686461  0.316568  0.315237  1
  Hf  Hf9  1  0.316538  0.687849  0.680051  1
  Hf  Hf10  1  0.952322  0.952322  0.548046  1
  Hf  Hf11  1  0.548185  0.548185  0.951818  1
  Hf  Hf12  1  0.950223  0.549284  0.950644  1
  Hf  Hf13  1  0.548260  0.950536  0.549871  1
  Hf  Hf14  1  0.549284  0.950223  0.950644  1
  Hf  Hf15  1  0.950536  0.548260  0.549871  1
  Ni  Ni16  1  0.322876  0.889361  0.894266  1
  Ni  Ni17  1  0.889361  0.322876  0.894266  1
  Ni  Ni18  1  0.891540  0.891540  0.322446  1
  Ni  Ni19  1  0.891545  0.891545  0.895120  1
  Mo  Mo20  1  0.000090  0.332920  0.333970  1
  Mo  Mo21  1  0.332920  0.000090  0.333970  1
  Ir  Ir22  1  0.333137  0.333137  0.998310  1
  Ru  Ru23  1  0.333415  0.333415  0.337808  1
