# generated using pymatgen
data_Ho6ErCoBr12
_symmetry_space_group_name_H-M   'P 1'
_cell_length_a   9.14616541
_cell_length_b   9.14616567
_cell_length_c   9.14616543
_cell_angle_alpha   106.72009164
_cell_angle_beta   106.72009779
_cell_angle_gamma   106.72009405
_symmetry_Int_Tables_number   1
_chemical_formula_structural   Ho6ErCoBr12
_chemical_formula_sum   'Ho6 Er1 Co1 Br12'
_cell_volume   641.98415440
_cell_formula_units_Z   1
loop_
 _symmetry_equiv_pos_site_id
 _symmetry_equiv_pos_as_xyz
  1  'x, y, z'
loop_
 _atom_site_type_symbol
 _atom_site_label
 _atom_site_symmetry_multiplicity
 _atom_site_fract_x
 _atom_site_fract_y
 _atom_site_fract_z
 _atom_site_occupancy
  Ho  Ho0  1  0.300609  0.096485  0.021724  1
  Ho  Ho1  1  0.096485  0.021724  0.300609  1
  Ho  Ho2  1  0.021724  0.300609  0.096485  1
  Ho  Ho3  1  0.699391  0.903515  0.978276  1
  Ho  Ho4  1  0.903515  0.978276  0.699391  1
  Ho  Ho5  1  0.978276  0.699391  0.903515  1
  Er  Er6  1  0.500000  0.500000  0.500000  1
  Co  Co7  1  0.000000  0.000000  0.000000  1
  Br  Br8  1  0.221958  0.070551  0.677593  1
  Br  Br9  1  0.070551  0.677593  0.221958  1
  Br  Br10  1  0.677593  0.221958  0.070551  1
  Br  Br11  1  0.778042  0.929449  0.322407  1
  Br  Br12  1  0.929449  0.322407  0.778042  1
  Br  Br13  1  0.322407  0.778042  0.929449  1
  Br  Br14  1  0.387350  0.461329  0.166377  1
  Br  Br15  1  0.461329  0.166377  0.387350  1
  Br  Br16  1  0.166377  0.387350  0.461329  1
  Br  Br17  1  0.612650  0.538671  0.833623  1
  Br  Br18  1  0.538671  0.833623  0.612650  1
  Br  Br19  1  0.833623  0.612650  0.538671  1
