# generated using pymatgen
data_Y12Zn(InFe)2
_symmetry_space_group_name_H-M   'P 1'
_cell_length_a   8.45240931
_cell_length_b   8.45239849
_cell_length_c   8.45240831
_cell_angle_alpha   109.73536825
_cell_angle_beta   109.73540746
_cell_angle_gamma   108.94422093
_symmetry_Int_Tables_number   1
_chemical_formula_structural   Y12Zn(InFe)2
_chemical_formula_sum   'Y12 Zn1 In2 Fe2'
_cell_volume   464.82689581
_cell_formula_units_Z   1
loop_
 _symmetry_equiv_pos_site_id
 _symmetry_equiv_pos_as_xyz
  1  'x, y, z'
loop_
 _atom_site_type_symbol
 _atom_site_label
 _atom_site_symmetry_multiplicity
 _atom_site_fract_x
 _atom_site_fract_y
 _atom_site_fract_z
 _atom_site_occupancy
  Y  Y0  1  0.445770  0.202020  0.243749  1
  Y  Y1  1  0.554230  0.797980  0.756251  1
  Y  Y2  1  0.958271  0.202020  0.756251  1
  Y  Y3  1  0.202020  0.958271  0.756251  1
  Y  Y4  1  0.041729  0.797980  0.243749  1
  Y  Y5  1  0.797980  0.041729  0.243749  1
  Y  Y6  1  0.202020  0.445770  0.243750  1
  Y  Y7  1  0.797980  0.554230  0.756250  1
  Y  Y8  1  0.305092  0.305091  0.610184  1
  Y  Y9  1  0.694908  0.694909  0.389816  1
  Y  Y10  1  0.305091  0.694909  0.000000  1
  Y  Y11  1  0.694909  0.305091  0.000000  1
  Zn  Zn12  1  0.000000  0.000000  0.000000  1
  In  In13  1  0.500000  0.000000  0.500000  1
  In  In14  1  0.000000  0.500000  0.500000  1
  Fe  Fe15  1  0.388572  0.388572  0.000001  1
  Fe  Fe16  1  0.611428  0.611428  0.999999  1
