# generated using pymatgen
data_Li8Dy8HgSb7
_symmetry_space_group_name_H-M   'P 1'
_cell_length_a   9.43116500
_cell_length_b   9.43116657
_cell_length_c   7.02640500
_cell_angle_alpha   90.00000000
_cell_angle_beta   90.00000000
_cell_angle_gamma   119.99999801
_symmetry_Int_Tables_number   1
_chemical_formula_structural   Li8Dy8HgSb7
_chemical_formula_sum   'Li8 Dy8 Hg1 Sb7'
_cell_volume   541.24584750
_cell_formula_units_Z   1
loop_
 _symmetry_equiv_pos_site_id
 _symmetry_equiv_pos_as_xyz
  1  'x, y, z'
loop_
 _atom_site_type_symbol
 _atom_site_label
 _atom_site_symmetry_multiplicity
 _atom_site_fract_x
 _atom_site_fract_y
 _atom_site_fract_z
 _atom_site_occupancy
  Li  Li0  1  0.167279  0.334559  0.275216  1
  Li  Li1  1  0.167279  0.832721  0.275216  1
  Li  Li2  1  0.665441  0.832721  0.275216  1
  Li  Li3  1  0.831294  0.662590  0.775228  1
  Li  Li4  1  0.831294  0.168706  0.775228  1
  Li  Li5  1  0.337410  0.168706  0.775228  1
  Li  Li6  1  0.333333  0.666667  0.687383  1
  Li  Li7  1  0.666667  0.333333  0.194315  1
  Dy  Dy8  1  0.512209  0.024419  0.497482  1
  Dy  Dy9  1  0.512209  0.487791  0.497482  1
  Dy  Dy10  1  0.975581  0.487791  0.497482  1
  Dy  Dy11  1  0.494049  0.988098  0.991837  1
  Dy  Dy12  1  0.494049  0.505951  0.991837  1
  Dy  Dy13  1  0.011902  0.505951  0.991837  1
  Dy  Dy14  1  0.000000  0.000000  0.502939  1
  Dy  Dy15  1  0.000000  0.000000  0.000392  1
  Hg  Hg16  1  0.666667  0.333333  0.756491  1
  Sb  Sb17  1  0.165838  0.331677  0.738205  1
  Sb  Sb18  1  0.165838  0.834162  0.738205  1
  Sb  Sb19  1  0.668323  0.834162  0.738205  1
  Sb  Sb20  1  0.833676  0.667351  0.236617  1
  Sb  Sb21  1  0.833676  0.166324  0.236617  1
  Sb  Sb22  1  0.332649  0.166324  0.236617  1
  Sb  Sb23  1  0.333333  0.666667  0.256720  1
