# generated using pymatgen
data_Ho3Tm5B24(IrRu)2
_symmetry_space_group_name_H-M   'P 1'
_cell_length_a   3.62267500
_cell_length_b   9.11860835
_cell_length_c   11.44234500
_cell_angle_alpha   90.06246784
_cell_angle_beta   90.00000000
_cell_angle_gamma   90.00000000
_symmetry_Int_Tables_number   1
_chemical_formula_structural   Ho3Tm5B24(IrRu)2
_chemical_formula_sum   'Ho3 Tm5 B24 Ir2 Ru2'
_cell_volume   377.98339088
_cell_formula_units_Z   1
loop_
 _symmetry_equiv_pos_site_id
 _symmetry_equiv_pos_as_xyz
  1  'x, y, z'
loop_
 _atom_site_type_symbol
 _atom_site_label
 _atom_site_symmetry_multiplicity
 _atom_site_fract_x
 _atom_site_fract_y
 _atom_site_fract_z
 _atom_site_occupancy
  Ho  Ho0  1  0.000000  0.318733  0.411941  1
  Ho  Ho1  1  0.000000  0.681258  0.588064  1
  Ho  Ho2  1  0.000000  0.822857  0.085225  1
  Tm  Tm3  1  0.000000  0.177268  0.914948  1
  Tm  Tm4  1  0.000000  0.945827  0.373075  1
  Tm  Tm5  1  0.000000  0.054258  0.626997  1
  Tm  Tm6  1  0.000000  0.442229  0.125389  1
  Tm  Tm7  1  0.000000  0.557535  0.874511  1
  B  B8  1  0.500000  0.553187  0.433968  1
  B  B9  1  0.500000  0.446788  0.566068  1
  B  B10  1  0.500000  0.054170  0.066444  1
  B  B11  1  0.500000  0.946340  0.933278  1
  B  B12  1  0.500000  0.750787  0.420418  1
  B  B13  1  0.500000  0.249210  0.579646  1
  B  B14  1  0.500000  0.248455  0.079519  1
  B  B15  1  0.500000  0.751472  0.920059  1
  B  B16  1  0.500000  0.793210  0.265604  1
  B  B17  1  0.500000  0.206660  0.734727  1
  B  B18  1  0.500000  0.292267  0.234086  1
  B  B19  1  0.500000  0.707742  0.765868  1
  B  B20  1  0.500000  0.631363  0.183805  1
  B  B21  1  0.500000  0.368260  0.816374  1
  B  B22  1  0.500000  0.131637  0.314942  1
  B  B23  1  0.500000  0.868437  0.685063  1
  B  B24  1  0.500000  0.983157  0.213030  1
  B  B25  1  0.500000  0.017310  0.787129  1
  B  B26  1  0.500000  0.481452  0.286325  1
  B  B27  1  0.500000  0.518460  0.713657  1
  B  B28  1  0.500000  0.608619  0.030137  1
  B  B29  1  0.500000  0.390803  0.969681  1
  B  B30  1  0.500000  0.108297  0.470617  1
  B  B31  1  0.500000  0.891726  0.529419  1
  Ir  Ir32  1  0.000000  0.637630  0.321587  1
  Ir  Ir33  1  0.000000  0.362219  0.678550  1
  Ru  Ru34  1  0.000000  0.138267  0.179063  1
  Ru  Ru35  1  0.000000  0.862112  0.820784  1
