# generated using pymatgen
data_Ho20Si3GeBi8
_symmetry_space_group_name_H-M   'P 1'
_cell_length_a   8.02601941
_cell_length_b   9.15946200
_cell_length_c   12.01214561
_cell_angle_alpha   90.00000000
_cell_angle_beta   90.03645303
_cell_angle_gamma   90.00000000
_symmetry_Int_Tables_number   1
_chemical_formula_structural   Ho20Si3GeBi8
_chemical_formula_sum   'Ho20 Si3 Ge1 Bi8'
_cell_volume   883.06093086
_cell_formula_units_Z   1
loop_
 _symmetry_equiv_pos_site_id
 _symmetry_equiv_pos_as_xyz
  1  'x, y, z'
loop_
 _atom_site_type_symbol
 _atom_site_label
 _atom_site_symmetry_multiplicity
 _atom_site_fract_x
 _atom_site_fract_y
 _atom_site_fract_z
 _atom_site_occupancy
  Ho  Ho0  1  0.820750  0.553208  0.062533  1
  Ho  Ho1  1  0.681454  0.948644  0.563370  1
  Ho  Ho2  1  0.179313  0.053336  0.937388  1
  Ho  Ho3  1  0.320165  0.443904  0.437054  1
  Ho  Ho4  1  0.179313  0.446664  0.937388  1
  Ho  Ho5  1  0.320165  0.056096  0.437054  1
  Ho  Ho6  1  0.820750  0.946792  0.062533  1
  Ho  Ho7  1  0.681454  0.551356  0.563370  1
  Ho  Ho8  1  0.165461  0.750000  0.211339  1
  Ho  Ho9  1  0.333149  0.750000  0.714419  1
  Ho  Ho10  1  0.834204  0.250000  0.788201  1
  Ho  Ho11  1  0.665740  0.250000  0.288269  1
  Ho  Ho12  1  0.460930  0.750000  0.001586  1
  Ho  Ho13  1  0.036264  0.750000  0.501658  1
  Ho  Ho14  1  0.539121  0.250000  0.998677  1
  Ho  Ho15  1  0.960808  0.250000  0.498494  1
  Ho  Ho16  1  0.639134  0.750000  0.293359  1
  Ho  Ho17  1  0.863065  0.750000  0.795101  1
  Ho  Ho18  1  0.363262  0.250000  0.704656  1
  Ho  Ho19  1  0.136807  0.250000  0.204773  1
  Si  Si20  1  0.088079  0.750000  0.978907  1
  Si  Si21  1  0.587772  0.250000  0.520732  1
  Si  Si22  1  0.911964  0.250000  0.020890  1
  Ge  Ge23  1  0.410601  0.750000  0.477862  1
  Bi  Bi24  1  0.932515  0.510991  0.325674  1
  Bi  Bi25  1  0.567485  0.989054  0.825652  1
  Bi  Bi26  1  0.067610  0.010752  0.674409  1
  Bi  Bi27  1  0.432528  0.489182  0.174457  1
  Bi  Bi28  1  0.067610  0.489248  0.674409  1
  Bi  Bi29  1  0.432528  0.010818  0.174457  1
  Bi  Bi30  1  0.932515  0.989009  0.325674  1
  Bi  Bi31  1  0.567485  0.510946  0.825652  1
