# generated using pymatgen
data_Ti5SiSnSb2
_symmetry_space_group_name_H-M   'P 1'
_cell_length_a   8.21781704
_cell_length_b   8.23750296
_cell_length_c   5.50979300
_cell_angle_alpha   90.00000000
_cell_angle_beta   90.00000000
_cell_angle_gamma   120.07927878
_symmetry_Int_Tables_number   1
_chemical_formula_structural   Ti5SiSnSb2
_chemical_formula_sum   'Ti10 Si2 Sn2 Sb4'
_cell_volume   322.75313481
_cell_formula_units_Z   2
loop_
 _symmetry_equiv_pos_site_id
 _symmetry_equiv_pos_as_xyz
  1  'x, y, z'
loop_
 _atom_site_type_symbol
 _atom_site_label
 _atom_site_symmetry_multiplicity
 _atom_site_fract_x
 _atom_site_fract_y
 _atom_site_fract_z
 _atom_site_occupancy
  Ti  Ti0  1  0.667777  0.334315  0.498613  1
  Ti  Ti1  1  0.332223  0.666539  0.498613  1
  Ti  Ti2  1  0.332223  0.666539  0.001387  1
  Ti  Ti3  1  0.667777  0.334315  0.001387  1
  Ti  Ti4  1  0.739521  0.738246  0.250000  1
  Ti  Ti5  1  0.260479  0.998726  0.250000  1
  Ti  Ti6  1  0.000000  0.264339  0.250000  1
  Ti  Ti7  1  0.257472  0.256601  0.750000  1
  Ti  Ti8  1  0.742528  0.999130  0.750000  1
  Ti  Ti9  1  0.000000  0.742181  0.750000  1
  Si  Si10  1  0.000000  0.001280  0.004696  1
  Si  Si11  1  0.000000  0.001280  0.495304  1
  Sn  Sn12  1  0.391700  0.391650  0.250000  1
  Sn  Sn13  1  0.608300  0.999950  0.250000  1
  Sb  Sb14  1  0.000000  0.607013  0.250000  1
  Sb  Sb15  1  0.601932  0.602646  0.750000  1
  Sb  Sb16  1  0.398068  0.000714  0.750000  1
  Sb  Sb17  1  0.000000  0.394538  0.750000  1
