# generated using pymatgen
data_CoSi2Pb2O7
_symmetry_space_group_name_H-M   'P 1'
_cell_length_a   5.35799600
_cell_length_b   8.16362400
_cell_length_c   8.16362400
_cell_angle_alpha   90.00000000
_cell_angle_beta   90.00000000
_cell_angle_gamma   90.00000000
_symmetry_Int_Tables_number   1
_chemical_formula_structural   CoSi2Pb2O7
_chemical_formula_sum   'Co2 Si4 Pb4 O14'
_cell_volume   357.08234043
_cell_formula_units_Z   2
loop_
 _symmetry_equiv_pos_site_id
 _symmetry_equiv_pos_as_xyz
  1  'x, y, z'
loop_
 _atom_site_type_symbol
 _atom_site_label
 _atom_site_symmetry_multiplicity
 _atom_site_fract_x
 _atom_site_fract_y
 _atom_site_fract_z
 _atom_site_occupancy
  Co  Co0  1  0.500000  0.500000  0.500000  1
  Co  Co1  1  0.500000  0.000000  0.000000  1
  Si  Si2  1  0.547926  0.640077  0.140077  1
  Si  Si3  1  0.452074  0.140077  0.359923  1
  Si  Si4  1  0.452074  0.859923  0.640077  1
  Si  Si5  1  0.547926  0.359923  0.859923  1
  Pb  Pb6  1  0.008187  0.322283  0.177717  1
  Pb  Pb7  1  0.991813  0.177717  0.677717  1
  Pb  Pb8  1  0.991813  0.822283  0.322283  1
  Pb  Pb9  1  0.008187  0.677717  0.822283  1
  O  O10  1  0.623990  0.500000  0.000000  1
  O  O11  1  0.376010  0.000000  0.500000  1
  O  O12  1  0.246604  0.653405  0.153405  1
  O  O13  1  0.753397  0.153405  0.346595  1
  O  O14  1  0.753397  0.846595  0.653405  1
  O  O15  1  0.246604  0.346595  0.846595  1
  O  O16  1  0.694012  0.809885  0.083290  1
  O  O17  1  0.305988  0.083290  0.190115  1
  O  O18  1  0.305988  0.916710  0.809885  1
  O  O19  1  0.694012  0.190115  0.916710  1
  O  O20  1  0.305988  0.309885  0.416710  1
  O  O21  1  0.305988  0.690115  0.583290  1
  O  O22  1  0.694012  0.416710  0.690115  1
  O  O23  1  0.694012  0.583290  0.309885  1
