# generated using pymatgen
data_Ho3Lu(Sc3Si4)2
_symmetry_space_group_name_H-M   'P 1'
_cell_length_a   7.05726292
_cell_length_b   7.35476093
_cell_length_c   13.94432581
_cell_angle_alpha   89.94188598
_cell_angle_beta   89.99507815
_cell_angle_gamma   89.91566815
_symmetry_Int_Tables_number   1
_chemical_formula_structural   Ho3Lu(Sc3Si4)2
_chemical_formula_sum   'Ho6 Lu2 Sc12 Si16'
_cell_volume   723.77184377
_cell_formula_units_Z   2
loop_
 _symmetry_equiv_pos_site_id
 _symmetry_equiv_pos_as_xyz
  1  'x, y, z'
loop_
 _atom_site_type_symbol
 _atom_site_label
 _atom_site_symmetry_multiplicity
 _atom_site_fract_x
 _atom_site_fract_y
 _atom_site_fract_z
 _atom_site_occupancy
  Ho  Ho0  1  0.487958  0.677026  0.903795  1
  Ho  Ho1  1  0.988283  0.823861  0.596630  1
  Ho  Ho2  1  0.512042  0.322974  0.096205  1
  Ho  Ho3  1  0.011717  0.176139  0.403370  1
  Ho  Ho4  1  0.511476  0.323547  0.402554  1
  Ho  Ho5  1  0.488524  0.676453  0.597446  1
  Lu  Lu6  1  0.010695  0.176866  0.096777  1
  Lu  Lu7  1  0.989305  0.823134  0.903223  1
  Sc  Sc8  1  0.161638  0.502976  0.750679  1
  Sc  Sc9  1  0.838362  0.497024  0.249321  1
  Sc  Sc10  1  0.338537  0.003053  0.249505  1
  Sc  Sc11  1  0.661463  0.996947  0.750495  1
  Sc  Sc12  1  0.331266  0.175882  0.625967  1
  Sc  Sc13  1  0.668734  0.824118  0.374033  1
  Sc  Sc14  1  0.168231  0.676358  0.373666  1
  Sc  Sc15  1  0.669228  0.825060  0.124938  1
  Sc  Sc16  1  0.831769  0.323642  0.626334  1
  Sc  Sc17  1  0.330772  0.174940  0.875062  1
  Sc  Sc18  1  0.832842  0.322328  0.874538  1
  Sc  Sc19  1  0.167158  0.677672  0.125462  1
  Si  Si20  1  0.033245  0.113755  0.750471  1
  Si  Si21  1  0.966755  0.886245  0.249529  1
  Si  Si22  1  0.467180  0.615237  0.249171  1
  Si  Si23  1  0.532820  0.384763  0.750829  1
  Si  Si24  1  0.284988  0.871394  0.750914  1
  Si  Si25  1  0.715012  0.128606  0.249086  1
  Si  Si26  1  0.213520  0.371267  0.248983  1
  Si  Si27  1  0.786480  0.628733  0.751017  1
  Si  Si28  1  0.158997  0.464206  0.539012  1
  Si  Si29  1  0.841003  0.535794  0.460988  1
  Si  Si30  1  0.341773  0.964251  0.460391  1
  Si  Si31  1  0.842399  0.535418  0.039013  1
  Si  Si32  1  0.658227  0.035749  0.539609  1
  Si  Si33  1  0.157601  0.464582  0.960987  1
  Si  Si34  1  0.661920  0.034684  0.960308  1
  Si  Si35  1  0.338080  0.965316  0.039692  1
