# generated using pymatgen
data_Pr3Sm3RuI10
_symmetry_space_group_name_H-M   'P 1'
_cell_length_a   7.98030086
_cell_length_b   10.01355426
_cell_length_c   10.03615329
_cell_angle_alpha   107.22765613
_cell_angle_beta   96.26274386
_cell_angle_gamma   104.91547318
_symmetry_Int_Tables_number   1
_chemical_formula_structural   Pr3Sm3RuI10
_chemical_formula_sum   'Pr3 Sm3 Ru1 I10'
_cell_volume   725.13474735
_cell_formula_units_Z   1
loop_
 _symmetry_equiv_pos_site_id
 _symmetry_equiv_pos_as_xyz
  1  'x, y, z'
loop_
 _atom_site_type_symbol
 _atom_site_label
 _atom_site_symmetry_multiplicity
 _atom_site_fract_x
 _atom_site_fract_y
 _atom_site_fract_z
 _atom_site_occupancy
  Pr  Pr0  1  0.116422  0.042943  0.759168  1
  Pr  Pr1  1  0.880753  0.957660  0.240036  1
  Pr  Pr2  1  0.969177  0.284037  0.084528  1
  Sm  Sm3  1  0.647523  0.872592  0.832566  1
  Sm  Sm4  1  0.351784  0.125203  0.166970  1
  Sm  Sm5  1  0.032889  0.722552  0.917450  1
  Ru  Ru6  1  0.999496  0.000689  0.000008  1
  I  I7  1  0.354509  0.447129  0.271225  1
  I  I8  1  0.656143  0.553181  0.731716  1
  I  I9  1  0.737962  0.912182  0.544240  1
  I  I10  1  0.087285  0.372023  0.818988  1
  I  I11  1  0.915676  0.631313  0.177383  1
  I  I12  1  0.449846  0.815708  0.088719  1
  I  I13  1  0.546240  0.180374  0.909104  1
  I  I14  1  0.774866  0.256022  0.345736  1
  I  I15  1  0.220887  0.741559  0.657515  1
  I  I16  1  0.258541  0.084835  0.454649  1
