# generated using pymatgen
data_YHo3(MnOs)4
_symmetry_space_group_name_H-M   'P 1'
_cell_length_a   5.30397530
_cell_length_b   5.23277703
_cell_length_c   9.19296701
_cell_angle_alpha   73.46460889
_cell_angle_beta   89.80214500
_cell_angle_gamma   119.55693303
_symmetry_Int_Tables_number   1
_chemical_formula_structural   YHo3(MnOs)4
_chemical_formula_sum   'Y1 Ho3 Mn4 Os4'
_cell_volume   209.57504236
_cell_formula_units_Z   1
loop_
 _symmetry_equiv_pos_site_id
 _symmetry_equiv_pos_as_xyz
  1  'x, y, z'
loop_
 _atom_site_type_symbol
 _atom_site_label
 _atom_site_symmetry_multiplicity
 _atom_site_fract_x
 _atom_site_fract_y
 _atom_site_fract_z
 _atom_site_occupancy
  Y  Y0  1  0.877723  0.751701  0.374321  1
  Ho  Ho1  1  0.378150  0.751915  0.874321  1
  Ho  Ho2  1  0.996885  0.998156  0.000573  1
  Ho  Ho3  1  0.496569  0.997773  0.501023  1
  Mn  Mn4  1  0.187684  0.375053  0.437580  1
  Mn  Mn5  1  0.687582  0.375060  0.937462  1
  Mn  Mn6  1  0.937645  0.375477  0.186690  1
  Mn  Mn7  1  0.437374  0.374603  0.688168  1
  Os  Os8  1  0.437698  0.375543  0.186754  1
  Os  Os9  1  0.937495  0.374446  0.688179  1
  Os  Os10  1  0.437698  0.875403  0.186754  1
  Os  Os11  1  0.937495  0.874870  0.688179  1
