# generated using pymatgen
data_Sr3OsBr2O5
_symmetry_space_group_name_H-M   'P 1'
_cell_length_a   7.44239521
_cell_length_b   7.44239493
_cell_length_c   11.32548900
_cell_angle_alpha   90.00000000
_cell_angle_beta   90.00000000
_cell_angle_gamma   134.46700185
_symmetry_Int_Tables_number   1
_chemical_formula_structural   Sr3OsBr2O5
_chemical_formula_sum   'Sr6 Os2 Br4 O10'
_cell_volume   447.68249102
_cell_formula_units_Z   2
loop_
 _symmetry_equiv_pos_site_id
 _symmetry_equiv_pos_as_xyz
  1  'x, y, z'
loop_
 _atom_site_type_symbol
 _atom_site_label
 _atom_site_symmetry_multiplicity
 _atom_site_fract_x
 _atom_site_fract_y
 _atom_site_fract_z
 _atom_site_occupancy
  Sr  Sr0  1  0.662025  0.337975  0.537228  1
  Sr  Sr1  1  0.337975  0.662025  0.037228  1
  Sr  Sr2  1  0.662025  0.337975  0.962772  1
  Sr  Sr3  1  0.887465  0.112535  0.750000  1
  Sr  Sr4  1  0.337975  0.662025  0.462772  1
  Sr  Sr5  1  0.112535  0.887465  0.250000  1
  Os  Os6  1  0.768835  0.231165  0.250000  1
  Os  Os7  1  0.231165  0.768835  0.750000  1
  Br  Br8  1  0.497240  0.502760  0.250000  1
  Br  Br9  1  0.000000  0.000000  0.500000  1
  Br  Br10  1  0.502760  0.497240  0.750000  1
  Br  Br11  1  0.000000  0.000000  0.000000  1
  O  O12  1  0.496847  0.051013  0.364898  1
  O  O13  1  0.051013  0.496847  0.635102  1
  O  O14  1  0.503153  0.948987  0.864898  1
  O  O15  1  0.503153  0.948987  0.635102  1
  O  O16  1  0.107162  0.892838  0.750000  1
  O  O17  1  0.051013  0.496847  0.864898  1
  O  O18  1  0.496847  0.051013  0.135102  1
  O  O19  1  0.948987  0.503153  0.364898  1
  O  O20  1  0.892838  0.107162  0.250000  1
  O  O21  1  0.948987  0.503153  0.135102  1
