# generated using pymatgen
data_BaNdNi12P5
_symmetry_space_group_name_H-M   'P 1'
_cell_length_a   3.69277300
_cell_length_b   11.00411115
_cell_length_c   13.39274523
_cell_angle_alpha   71.94341766
_cell_angle_beta   90.00000000
_cell_angle_gamma   90.00000000
_symmetry_Int_Tables_number   1
_chemical_formula_structural   BaNdNi12P5
_chemical_formula_sum   'Ba2 Nd2 Ni24 P10'
_cell_volume   517.42085025
_cell_formula_units_Z   2
loop_
 _symmetry_equiv_pos_site_id
 _symmetry_equiv_pos_as_xyz
  1  'x, y, z'
loop_
 _atom_site_type_symbol
 _atom_site_label
 _atom_site_symmetry_multiplicity
 _atom_site_fract_x
 _atom_site_fract_y
 _atom_site_fract_z
 _atom_site_occupancy
  Ba  Ba0  1  0.250000  0.748214  0.187737  1
  Ba  Ba1  1  0.750000  0.251786  0.812263  1
  Nd  Nd2  1  0.250000  0.781813  0.681066  1
  Nd  Nd3  1  0.750000  0.218187  0.318934  1
  Ni  Ni4  1  0.250000  0.569473  0.013811  1
  Ni  Ni5  1  0.250000  0.565189  0.449771  1
  Ni  Ni6  1  0.750000  0.501459  0.343662  1
  Ni  Ni7  1  0.250000  0.498541  0.656338  1
  Ni  Ni8  1  0.750000  0.504246  0.151569  1
  Ni  Ni9  1  0.250000  0.495754  0.848431  1
  Ni  Ni10  1  0.750000  0.434811  0.550229  1
  Ni  Ni11  1  0.250000  0.341617  0.138555  1
  Ni  Ni12  1  0.750000  0.659011  0.562870  1
  Ni  Ni13  1  0.250000  0.340989  0.437130  1
  Ni  Ni14  1  0.750000  0.910380  0.307390  1
  Ni  Ni15  1  0.250000  0.089620  0.692610  1
  Ni  Ni16  1  0.750000  0.920506  0.986870  1
  Ni  Ni17  1  0.250000  0.079494  0.013130  1
  Ni  Ni18  1  0.750000  0.921258  0.492090  1
  Ni  Ni19  1  0.250000  0.078742  0.507910  1
  Ni  Ni20  1  0.750000  0.934761  0.794271  1
  Ni  Ni21  1  0.250000  0.065239  0.205729  1
  Ni  Ni22  1  0.250000  0.787508  0.441574  1
  Ni  Ni23  1  0.750000  0.212492  0.558426  1
  Ni  Ni24  1  0.250000  0.795484  0.914477  1
  Ni  Ni25  1  0.750000  0.204516  0.085523  1
  Ni  Ni26  1  0.750000  0.658383  0.861445  1
  Ni  Ni27  1  0.750000  0.430527  0.986189  1
  P  P28  1  0.250000  0.002239  0.872135  1
  P  P29  1  0.750000  0.997761  0.127865  1
  P  P30  1  0.250000  0.303919  0.988419  1
  P  P31  1  0.750000  0.696081  0.011581  1
  P  P32  1  0.250000  0.444662  0.261885  1
  P  P33  1  0.750000  0.555338  0.738115  1
  P  P34  1  0.250000  0.993394  0.378947  1
  P  P35  1  0.750000  0.006606  0.621053  1
  P  P36  1  0.250000  0.312371  0.605927  1
  P  P37  1  0.750000  0.687629  0.394073  1
