# generated using pymatgen
data_LiNd8(MgAg4)5
_symmetry_space_group_name_H-M   'P 1'
_cell_length_a   8.74441911
_cell_length_b   8.74441966
_cell_length_c   10.42627234
_cell_angle_alpha   90.08990816
_cell_angle_beta   90.08991352
_cell_angle_gamma   108.21670331
_symmetry_Int_Tables_number   1
_chemical_formula_structural   LiNd8(MgAg4)5
_chemical_formula_sum   'Li1 Nd8 Mg5 Ag20'
_cell_volume   757.28376550
_cell_formula_units_Z   1
loop_
 _symmetry_equiv_pos_site_id
 _symmetry_equiv_pos_as_xyz
  1  'x, y, z'
loop_
 _atom_site_type_symbol
 _atom_site_label
 _atom_site_symmetry_multiplicity
 _atom_site_fract_x
 _atom_site_fract_y
 _atom_site_fract_z
 _atom_site_occupancy
  Li  Li0  1  0.000000  0.000000  0.000000  1
  Nd  Nd1  1  0.699721  0.300279  0.000000  1
  Nd  Nd2  1  0.300279  0.699721  0.000000  1
  Nd  Nd3  1  0.798829  0.201171  0.500000  1
  Nd  Nd4  1  0.201171  0.798829  0.500000  1
  Nd  Nd5  1  0.303624  0.303624  0.202073  1
  Nd  Nd6  1  0.696376  0.696376  0.797927  1
  Nd  Nd7  1  0.195578  0.195578  0.702673  1
  Nd  Nd8  1  0.804422  0.804422  0.297327  1
  Mg  Mg9  1  0.019271  0.519481  0.248969  1
  Mg  Mg10  1  0.980729  0.480519  0.751031  1
  Mg  Mg11  1  0.480519  0.980729  0.751031  1
  Mg  Mg12  1  0.519481  0.019271  0.248969  1
  Mg  Mg13  1  0.500000  0.500000  0.500000  1
  Ag  Ag14  1  0.097592  0.097592  0.404234  1
  Ag  Ag15  1  0.902408  0.902408  0.595766  1
  Ag  Ag16  1  0.402132  0.402132  0.904226  1
  Ag  Ag17  1  0.597868  0.597868  0.095774  1
  Ag  Ag18  1  0.893263  0.170675  0.203067  1
  Ag  Ag19  1  0.106737  0.829325  0.796933  1
  Ag  Ag20  1  0.607764  0.328759  0.704971  1
  Ag  Ag21  1  0.671241  0.392236  0.295029  1
  Ag  Ag22  1  0.392236  0.671241  0.295029  1
  Ag  Ag23  1  0.328759  0.607764  0.704971  1
  Ag  Ag24  1  0.829325  0.106737  0.796933  1
  Ag  Ag25  1  0.170675  0.893263  0.203067  1
  Ag  Ag26  1  0.933467  0.663793  0.024209  1
  Ag  Ag27  1  0.066533  0.336207  0.975791  1
  Ag  Ag28  1  0.566863  0.841252  0.524287  1
  Ag  Ag29  1  0.158748  0.433137  0.475713  1
  Ag  Ag30  1  0.433137  0.158748  0.475713  1
  Ag  Ag31  1  0.841252  0.566863  0.524287  1
  Ag  Ag32  1  0.336207  0.066533  0.975791  1
  Ag  Ag33  1  0.663793  0.933467  0.024209  1
