# generated using pymatgen
data_YTh(MgIr)2
_symmetry_space_group_name_H-M   'P 1'
_cell_length_a   4.17133000
_cell_length_b   7.11400400
_cell_length_c   8.65501100
_cell_angle_alpha   90.00000000
_cell_angle_beta   90.00000000
_cell_angle_gamma   90.00000000
_symmetry_Int_Tables_number   1
_chemical_formula_structural   YTh(MgIr)2
_chemical_formula_sum   'Y2 Th2 Mg4 Ir4'
_cell_volume   256.83622506
_cell_formula_units_Z   2
loop_
 _symmetry_equiv_pos_site_id
 _symmetry_equiv_pos_as_xyz
  1  'x, y, z'
loop_
 _atom_site_type_symbol
 _atom_site_label
 _atom_site_symmetry_multiplicity
 _atom_site_fract_x
 _atom_site_fract_y
 _atom_site_fract_z
 _atom_site_occupancy
  Y  Y0  1  0.750000  0.959385  0.680838  1
  Y  Y1  1  0.750000  0.459385  0.819162  1
  Th  Th2  1  0.250000  0.037564  0.326400  1
  Th  Th3  1  0.250000  0.537564  0.173600  1
  Mg  Mg4  1  0.250000  0.135088  0.934858  1
  Mg  Mg5  1  0.250000  0.635088  0.565142  1
  Mg  Mg6  1  0.750000  0.869602  0.052615  1
  Mg  Mg7  1  0.750000  0.369602  0.447385  1
  Ir  Ir8  1  0.250000  0.243367  0.620527  1
  Ir  Ir9  1  0.250000  0.743367  0.879473  1
  Ir  Ir10  1  0.750000  0.754996  0.369030  1
  Ir  Ir11  1  0.750000  0.254996  0.130970  1
