# generated using pymatgen
data_SmEr3Pb4F28
_symmetry_space_group_name_H-M   'P 1'
_cell_length_a   5.85677140
_cell_length_b   9.26838136
_cell_length_c   12.44812800
_cell_angle_alpha   62.36940284
_cell_angle_beta   89.97882018
_cell_angle_gamma   90.02063544
_symmetry_Int_Tables_number   1
_chemical_formula_structural   SmEr3Pb4F28
_chemical_formula_sum   'Sm1 Er3 Pb4 F28'
_cell_volume   598.65729730
_cell_formula_units_Z   1
loop_
 _symmetry_equiv_pos_site_id
 _symmetry_equiv_pos_as_xyz
  1  'x, y, z'
loop_
 _atom_site_type_symbol
 _atom_site_label
 _atom_site_symmetry_multiplicity
 _atom_site_fract_x
 _atom_site_fract_y
 _atom_site_fract_z
 _atom_site_occupancy
  Sm  Sm0  1  0.756247  0.817643  0.766569  1
  Er  Er1  1  0.744637  0.819719  0.265834  1
  Er  Er2  1  0.244719  0.181939  0.234270  1
  Er  Er3  1  0.257578  0.185668  0.733499  1
  Pb  Pb4  1  0.743211  0.275102  0.454014  1
  Pb  Pb5  1  0.244068  0.727414  0.048031  1
  Pb  Pb6  1  0.255113  0.726167  0.540742  1
  Pb  Pb7  1  0.756329  0.269689  0.957259  1
  F  F8  1  0.468436  0.707377  0.923221  1
  F  F9  1  0.972805  0.292213  0.578338  1
  F  F10  1  0.525282  0.291433  0.079285  1
  F  F11  1  0.025911  0.706146  0.418123  1
  F  F12  1  0.448504  0.281939  0.551736  1
  F  F13  1  0.949325  0.717597  0.953229  1
  F  F14  1  0.552377  0.718438  0.445649  1
  F  F15  1  0.050503  0.279479  0.054300  1
  F  F16  1  0.770728  0.522736  0.857228  1
  F  F17  1  0.267497  0.471895  0.642848  1
  F  F18  1  0.234587  0.473047  0.146283  1
  F  F19  1  0.732674  0.528208  0.353857  1
  F  F20  1  0.756582  0.015510  0.059026  1
  F  F21  1  0.256229  0.981302  0.439832  1
  F  F22  1  0.243700  0.981497  0.943622  1
  F  F23  1  0.741751  0.020885  0.555196  1
  F  F24  1  0.982785  0.733562  0.648995  1
  F  F25  1  0.484833  0.264944  0.846304  1
  F  F26  1  0.011523  0.263065  0.343665  1
  F  F27  1  0.514052  0.737087  0.157460  1
  F  F28  1  0.026741  0.748856  0.176644  1
  F  F29  1  0.523912  0.252504  0.325890  1
  F  F30  1  0.973656  0.249722  0.827373  1
  F  F31  1  0.465659  0.745413  0.671767  1
  F  F32  1  0.449826  0.982109  0.239784  1
  F  F33  1  0.949399  0.018906  0.260281  1
  F  F34  1  0.553346  0.027816  0.761408  1
  F  F35  1  0.065476  0.982968  0.738435  1
