# generated using pymatgen
data_Er2Ga10Tc2Ni
_symmetry_space_group_name_H-M   'P 1'
_cell_length_a   8.96926800
_cell_length_b   8.96926800
_cell_length_c   6.32982000
_cell_angle_alpha   90.00000000
_cell_angle_beta   90.00000000
_cell_angle_gamma   90.00000000
_symmetry_Int_Tables_number   1
_chemical_formula_structural   Er2Ga10Tc2Ni
_chemical_formula_sum   'Er4 Ga20 Tc4 Ni2'
_cell_volume   509.21989373
_cell_formula_units_Z   2
loop_
 _symmetry_equiv_pos_site_id
 _symmetry_equiv_pos_as_xyz
  1  'x, y, z'
loop_
 _atom_site_type_symbol
 _atom_site_label
 _atom_site_symmetry_multiplicity
 _atom_site_fract_x
 _atom_site_fract_y
 _atom_site_fract_z
 _atom_site_occupancy
  Er  Er0  1  0.683140  0.183140  0.000000  1
  Er  Er1  1  0.316860  0.816860  0.000000  1
  Er  Er2  1  0.816860  0.683140  0.000000  1
  Er  Er3  1  0.183140  0.316860  0.000000  1
  Ga  Ga4  1  0.940353  0.205160  0.291665  1
  Ga  Ga5  1  0.705160  0.440353  0.291665  1
  Ga  Ga6  1  0.500000  0.000000  0.284091  1
  Ga  Ga7  1  0.559647  0.705160  0.708335  1
  Ga  Ga8  1  0.294840  0.559647  0.708335  1
  Ga  Ga9  1  0.794840  0.940353  0.291665  1
  Ga  Ga10  1  0.940353  0.205160  0.708335  1
  Ga  Ga11  1  0.294840  0.559647  0.291665  1
  Ga  Ga12  1  0.059647  0.794840  0.291665  1
  Ga  Ga13  1  0.705160  0.440353  0.708335  1
  Ga  Ga14  1  0.440353  0.294840  0.708335  1
  Ga  Ga15  1  0.059647  0.794840  0.708335  1
  Ga  Ga16  1  0.205160  0.059647  0.708335  1
  Ga  Ga17  1  0.794840  0.940353  0.708335  1
  Ga  Ga18  1  0.205160  0.059647  0.291665  1
  Ga  Ga19  1  0.000000  0.500000  0.715909  1
  Ga  Ga20  1  0.000000  0.500000  0.284091  1
  Ga  Ga21  1  0.559647  0.705160  0.291665  1
  Ga  Ga22  1  0.440353  0.294840  0.291665  1
  Ga  Ga23  1  0.500000  0.000000  0.715909  1
  Tc  Tc24  1  0.679565  0.179565  0.500000  1
  Tc  Tc25  1  0.820435  0.679565  0.500000  1
  Tc  Tc26  1  0.179565  0.320435  0.500000  1
  Tc  Tc27  1  0.320435  0.820435  0.500000  1
  Ni  Ni28  1  0.000000  0.000000  0.000000  1
  Ni  Ni29  1  0.500000  0.500000  0.000000  1
