# generated using pymatgen
data_Dy17Y3Cd6NiOs
_symmetry_space_group_name_H-M   'P 1'
_cell_length_a   9.62216900
_cell_length_b   9.62216979
_cell_length_c   9.80408900
_cell_angle_alpha   90.00000000
_cell_angle_beta   90.00000000
_cell_angle_gamma   119.99999383
_symmetry_Int_Tables_number   1
_chemical_formula_structural   Dy17Y3Cd6NiOs
_chemical_formula_sum   'Dy17 Y3 Cd6 Ni1 Os1'
_cell_volume   786.11104902
_cell_formula_units_Z   1
loop_
 _symmetry_equiv_pos_site_id
 _symmetry_equiv_pos_as_xyz
  1  'x, y, z'
loop_
 _atom_site_type_symbol
 _atom_site_label
 _atom_site_symmetry_multiplicity
 _atom_site_fract_x
 _atom_site_fract_y
 _atom_site_fract_z
 _atom_site_occupancy
  Dy  Dy0  1  0.000000  0.000000  0.499866  1
  Dy  Dy1  1  0.000000  0.000000  0.000134  1
  Dy  Dy2  1  0.457032  0.542968  0.750000  1
  Dy  Dy3  1  0.457032  0.914064  0.750000  1
  Dy  Dy4  1  0.085936  0.542968  0.750000  1
  Dy  Dy5  1  0.209244  0.790756  0.440208  1
  Dy  Dy6  1  0.209244  0.418489  0.440208  1
  Dy  Dy7  1  0.581511  0.790756  0.440208  1
  Dy  Dy8  1  0.788850  0.211150  0.562802  1
  Dy  Dy9  1  0.788850  0.577700  0.562802  1
  Dy  Dy10  1  0.422300  0.211150  0.562802  1
  Dy  Dy11  1  0.788850  0.211150  0.937198  1
  Dy  Dy12  1  0.788850  0.577700  0.937198  1
  Dy  Dy13  1  0.422300  0.211150  0.937198  1
  Dy  Dy14  1  0.209244  0.790756  0.059792  1
  Dy  Dy15  1  0.209244  0.418489  0.059792  1
  Dy  Dy16  1  0.581511  0.790756  0.059792  1
  Y  Y17  1  0.540556  0.459444  0.250000  1
  Y  Y18  1  0.540556  0.081111  0.250000  1
  Y  Y19  1  0.918889  0.459444  0.250000  1
  Cd  Cd20  1  0.884960  0.115040  0.250000  1
  Cd  Cd21  1  0.884960  0.769919  0.250000  1
  Cd  Cd22  1  0.230081  0.115040  0.250000  1
  Cd  Cd23  1  0.115114  0.884886  0.750000  1
  Cd  Cd24  1  0.115114  0.230227  0.750000  1
  Cd  Cd25  1  0.769773  0.884886  0.750000  1
  Ni  Ni26  1  0.666667  0.333333  0.750000  1
  Os  Os27  1  0.333333  0.666667  0.250000  1
