# generated using pymatgen
data_Ru2O2F3
_symmetry_space_group_name_H-M   'P 1'
_cell_length_a   4.97047011
_cell_length_b   5.48585596
_cell_length_c   6.69015439
_cell_angle_alpha   104.64768415
_cell_angle_beta   111.80670352
_cell_angle_gamma   89.99999741
_symmetry_Int_Tables_number   1
_chemical_formula_structural   Ru2O2F3
_chemical_formula_sum   'Ru4 O4 F6'
_cell_volume   162.96550480
_cell_formula_units_Z   2
loop_
 _symmetry_equiv_pos_site_id
 _symmetry_equiv_pos_as_xyz
  1  'x, y, z'
loop_
 _atom_site_type_symbol
 _atom_site_label
 _atom_site_symmetry_multiplicity
 _atom_site_fract_x
 _atom_site_fract_y
 _atom_site_fract_z
 _atom_site_occupancy
  Ru  Ru0  1  0.403839  0.822352  0.319632  1
  Ru  Ru1  1  0.084207  0.677648  0.680368  1
  Ru  Ru2  1  0.596161  0.177648  0.680368  1
  Ru  Ru3  1  0.915793  0.322352  0.319632  1
  O  O4  1  0.721073  0.836799  0.607931  1
  O  O5  1  0.113142  0.663201  0.392069  1
  O  O6  1  0.278927  0.163201  0.392069  1
  O  O7  1  0.886858  0.336799  0.607931  1
  F  F8  1  0.523086  0.472522  0.211248  1
  F  F9  1  0.311839  0.027478  0.788752  1
  F  F10  1  0.476914  0.527478  0.788752  1
  F  F11  1  0.688161  0.972522  0.211248  1
  F  F12  1  0.096305  0.750000  0.000000  1
  F  F13  1  0.903695  0.250000  0.000000  1
