# generated using pymatgen
data_ScGaF6
_symmetry_space_group_name_H-M   'P 1'
_cell_length_a   5.57674471
_cell_length_b   5.57674467
_cell_length_c   5.57674446
_cell_angle_alpha   120.03935807
_cell_angle_beta   120.03936734
_cell_angle_gamma   89.93183895
_symmetry_Int_Tables_number   1
_chemical_formula_structural   ScGaF6
_chemical_formula_sum   'Sc1 Ga1 F6'
_cell_volume   122.56556100
_cell_formula_units_Z   1
loop_
 _symmetry_equiv_pos_site_id
 _symmetry_equiv_pos_as_xyz
  1  'x, y, z'
loop_
 _atom_site_type_symbol
 _atom_site_label
 _atom_site_symmetry_multiplicity
 _atom_site_fract_x
 _atom_site_fract_y
 _atom_site_fract_z
 _atom_site_occupancy
  Sc  Sc0  1  0.000000  0.000000  0.000000  1
  Ga  Ga1  1  0.500000  0.500000  0.000000  1
  F  F2  1  0.742794  0.257205  0.000000  1
  F  F3  1  0.257226  0.257226  0.000000  1
  F  F4  1  0.742775  0.742775  0.000000  1
  F  F5  1  0.257205  0.742794  0.000000  1
  F  F6  1  0.742794  0.742794  0.485588  1
  F  F7  1  0.257206  0.257206  0.514412  1
