# generated using pymatgen
data_Yb5Eu3Sn4
_symmetry_space_group_name_H-M   'P 1'
_cell_length_a   5.25108200
_cell_length_b   7.49552992
_cell_length_c   9.59673527
_cell_angle_alpha   90.21263593
_cell_angle_beta   90.00000000
_cell_angle_gamma   90.00000000
_symmetry_Int_Tables_number   1
_chemical_formula_structural   Yb5Eu3Sn4
_chemical_formula_sum   'Yb5 Eu3 Sn4'
_cell_volume   377.72146589
_cell_formula_units_Z   1
loop_
 _symmetry_equiv_pos_site_id
 _symmetry_equiv_pos_as_xyz
  1  'x, y, z'
loop_
 _atom_site_type_symbol
 _atom_site_label
 _atom_site_symmetry_multiplicity
 _atom_site_fract_x
 _atom_site_fract_y
 _atom_site_fract_z
 _atom_site_occupancy
  Yb  Yb0  1  0.250000  0.677557  0.572756  1
  Yb  Yb1  1  0.750000  0.323034  0.425446  1
  Yb  Yb2  1  0.750000  0.818368  0.074633  1
  Yb  Yb3  1  0.250000  0.181407  0.927872  1
  Yb  Yb4  1  0.250000  0.520861  0.201773  1
  Eu  Eu5  1  0.750000  0.479141  0.794439  1
  Eu  Eu6  1  0.750000  0.979345  0.706677  1
  Eu  Eu7  1  0.250000  0.020033  0.294358  1
  Sn  Sn8  1  0.250000  0.741989  0.901267  1
  Sn  Sn9  1  0.750000  0.260020  0.100673  1
  Sn  Sn10  1  0.750000  0.756531  0.399071  1
  Sn  Sn11  1  0.250000  0.241716  0.601034  1
