# generated using pymatgen
data_Er4As6Ru3Rh4
_symmetry_space_group_name_H-M   'P 1'
_cell_length_a   7.22063985
_cell_length_b   7.23224540
_cell_length_c   7.22064054
_cell_angle_alpha   109.47681280
_cell_angle_beta   109.39493311
_cell_angle_gamma   109.47681135
_symmetry_Int_Tables_number   1
_chemical_formula_structural   Er4As6Ru3Rh4
_chemical_formula_sum   'Er4 As6 Ru3 Rh4'
_cell_volume   290.50319076
_cell_formula_units_Z   1
loop_
 _symmetry_equiv_pos_site_id
 _symmetry_equiv_pos_as_xyz
  1  'x, y, z'
loop_
 _atom_site_type_symbol
 _atom_site_label
 _atom_site_symmetry_multiplicity
 _atom_site_fract_x
 _atom_site_fract_y
 _atom_site_fract_z
 _atom_site_occupancy
  Er  Er0  1  0.500149  0.500000  0.499851  1
  Er  Er1  1  0.000149  0.500000  0.999851  1
  Er  Er2  1  0.500214  0.000000  0.000448  1
  Er  Er3  1  0.999552  0.000000  0.499786  1
  As  As4  1  0.684719  0.000000  0.679548  1
  As  As5  1  0.683468  0.685990  0.002523  1
  As  As6  1  0.316603  0.318621  0.002018  1
  As  As7  1  0.997982  0.681379  0.683397  1
  As  As8  1  0.997477  0.314010  0.316532  1
  As  As9  1  0.320452  0.000000  0.315281  1
  Ru  Ru10  1  0.500556  0.749845  0.249290  1
  Ru  Ru11  1  0.750710  0.250155  0.499444  1
  Ru  Ru12  1  0.000052  0.000000  0.999948  1
  Rh  Rh13  1  0.249254  0.748204  0.498950  1
  Rh  Rh14  1  0.248806  0.500000  0.751194  1
  Rh  Rh15  1  0.501050  0.251796  0.750746  1
  Rh  Rh16  1  0.748806  0.500000  0.251194  1
