# generated using pymatgen
data_Ba2SeS7O26
_symmetry_space_group_name_H-M   'P 1'
_cell_length_a   7.70044573
_cell_length_b   7.73432115
_cell_length_c   9.94199535
_cell_angle_alpha   84.14158005
_cell_angle_beta   84.76472716
_cell_angle_gamma   102.92336341
_symmetry_Int_Tables_number   1
_chemical_formula_structural   Ba2SeS7O26
_chemical_formula_sum   'Ba2 Se1 S7 O26'
_cell_volume   570.12263183
_cell_formula_units_Z   1
loop_
 _symmetry_equiv_pos_site_id
 _symmetry_equiv_pos_as_xyz
  1  'x, y, z'
loop_
 _atom_site_type_symbol
 _atom_site_label
 _atom_site_symmetry_multiplicity
 _atom_site_fract_x
 _atom_site_fract_y
 _atom_site_fract_z
 _atom_site_occupancy
  Ba  Ba0  1  0.801223  0.189550  0.248925  1
  Ba  Ba1  1  0.197259  0.806235  0.754824  1
  Se  Se2  1  0.223187  0.575138  0.384072  1
  S  S3  1  0.433174  0.771997  0.112769  1
  S  S4  1  0.767716  0.427160  0.620208  1
  S  S5  1  0.572874  0.232080  0.880261  1
  S  S6  1  0.288410  0.191528  0.424603  1
  S  S7  1  0.807075  0.712710  0.076584  1
  S  S8  1  0.712939  0.804864  0.580336  1
  S  S9  1  0.194348  0.287296  0.920872  1
  O  O10  1  0.032611  0.510100  0.325532  1
  O  O11  1  0.494043  0.937871  0.166393  1
  O  O12  1  0.937090  0.489569  0.670077  1
  O  O13  1  0.509785  0.066063  0.827802  1
  O  O14  1  0.255637  0.748652  0.465445  1
  O  O15  1  0.277400  0.750004  0.040983  1
  O  O16  1  0.741911  0.271341  0.550553  1
  O  O17  1  0.728548  0.253838  0.951974  1
  O  O18  1  0.399972  0.610145  0.238179  1
  O  O19  1  0.609639  0.393216  0.751215  1
  O  O20  1  0.294542  0.407656  0.479163  1
  O  O21  1  0.581688  0.716675  0.024687  1
  O  O22  1  0.706179  0.574219  0.534956  1
  O  O23  1  0.426314  0.292268  0.965885  1
  O  O24  1  0.449821  0.226346  0.330122  1
  O  O25  1  0.764273  0.548469  0.168387  1
  O  O26  1  0.551168  0.769823  0.673889  1
  O  O27  1  0.229347  0.449665  0.827410  1
  O  O28  1  0.295702  0.100806  0.557715  1
  O  O29  1  0.892461  0.707164  0.942285  1
  O  O30  1  0.705355  0.885710  0.444206  1
  O  O31  1  0.113839  0.293160  0.056695  1
  O  O32  1  0.120313  0.148187  0.367516  1
  O  O33  1  0.856624  0.877874  0.134685  1
  O  O34  1  0.881245  0.852060  0.635857  1
  O  O35  1  0.146285  0.120563  0.864934  1
