# generated using pymatgen
data_Y4AlCo4
_symmetry_space_group_name_H-M   'P 1'
_cell_length_a   5.51370667
_cell_length_b   5.51370664
_cell_length_c   8.93862905
_cell_angle_alpha   108.92968138
_cell_angle_beta   108.92968223
_cell_angle_gamma   43.17156812
_symmetry_Int_Tables_number   1
_chemical_formula_structural   Y4AlCo4
_chemical_formula_sum   'Y4 Al1 Co4'
_cell_volume   174.24086608
_cell_formula_units_Z   1
loop_
 _symmetry_equiv_pos_site_id
 _symmetry_equiv_pos_as_xyz
  1  'x, y, z'
loop_
 _atom_site_type_symbol
 _atom_site_label
 _atom_site_symmetry_multiplicity
 _atom_site_fract_x
 _atom_site_fract_y
 _atom_site_fract_z
 _atom_site_occupancy
  Y  Y0  1  0.391710  0.391710  0.114368  1
  Y  Y1  1  0.745558  0.745558  0.337902  1
  Y  Y2  1  0.254442  0.254442  0.662098  1
  Y  Y3  1  0.608290  0.608290  0.885632  1
  Al  Al4  1  0.500000  0.500000  0.500000  1
  Co  Co5  1  0.091436  0.091436  0.119638  1
  Co  Co6  1  0.037122  0.037122  0.354244  1
  Co  Co7  1  0.962878  0.962878  0.645755  1
  Co  Co8  1  0.908564  0.908564  0.880361  1
