# generated using pymatgen
data_Ac4CeRu2
_symmetry_space_group_name_H-M   'P 1'
_cell_length_a   9.62138681
_cell_length_b   9.62138779
_cell_length_c   7.48903966
_cell_angle_alpha   81.55223501
_cell_angle_beta   81.55223680
_cell_angle_gamma   41.14745348
_symmetry_Int_Tables_number   1
_chemical_formula_structural   Ac4CeRu2
_chemical_formula_sum   'Ac8 Ce2 Ru4'
_cell_volume   450.51910360
_cell_formula_units_Z   2
loop_
 _symmetry_equiv_pos_site_id
 _symmetry_equiv_pos_as_xyz
  1  'x, y, z'
loop_
 _atom_site_type_symbol
 _atom_site_label
 _atom_site_symmetry_multiplicity
 _atom_site_fract_x
 _atom_site_fract_y
 _atom_site_fract_z
 _atom_site_occupancy
  Ac  Ac0  1  0.015553  0.798940  0.917440  1
  Ac  Ac1  1  0.201060  0.984447  0.582560  1
  Ac  Ac2  1  0.984447  0.201060  0.082560  1
  Ac  Ac3  1  0.798940  0.015553  0.417440  1
  Ac  Ac4  1  0.363130  0.223098  0.816205  1
  Ac  Ac5  1  0.776902  0.636870  0.683795  1
  Ac  Ac6  1  0.636870  0.776902  0.183795  1
  Ac  Ac7  1  0.223098  0.363130  0.316205  1
  Ce  Ce8  1  0.580924  0.419076  0.750000  1
  Ce  Ce9  1  0.419076  0.580924  0.250000  1
  Ru  Ru10  1  0.243013  0.579665  0.543060  1
  Ru  Ru11  1  0.420335  0.756987  0.956940  1
  Ru  Ru12  1  0.756987  0.420335  0.456940  1
  Ru  Ru13  1  0.579665  0.243013  0.043060  1
