# generated using pymatgen
data_Y2HoTm3(Co3P2)6
_symmetry_space_group_name_H-M   'P 1'
_cell_length_a   3.67862300
_cell_length_b   10.48465002
_cell_length_c   12.13891303
_cell_angle_alpha   89.99209761
_cell_angle_beta   90.00000000
_cell_angle_gamma   90.00000000
_symmetry_Int_Tables_number   1
_chemical_formula_structural   Y2HoTm3(Co3P2)6
_chemical_formula_sum   'Y2 Ho1 Tm3 Co18 P12'
_cell_volume   468.18663928
_cell_formula_units_Z   1
loop_
 _symmetry_equiv_pos_site_id
 _symmetry_equiv_pos_as_xyz
  1  'x, y, z'
loop_
 _atom_site_type_symbol
 _atom_site_label
 _atom_site_symmetry_multiplicity
 _atom_site_fract_x
 _atom_site_fract_y
 _atom_site_fract_z
 _atom_site_occupancy
  Y  Y0  1  0.000000  0.499852  0.522607  1
  Y  Y1  1  0.500000  0.000208  0.477634  1
  Ho  Ho2  1  0.500000  0.818226  0.205732  1
  Tm  Tm3  1  0.500000  0.181906  0.205881  1
  Tm  Tm4  1  0.000000  0.681783  0.794282  1
  Tm  Tm5  1  0.000000  0.318183  0.794037  1
  Co  Co6  1  0.500000  0.499991  0.158924  1
  Co  Co7  1  0.000000  0.000040  0.841023  1
  Co  Co8  1  0.500000  0.499924  0.704715  1
  Co  Co9  1  0.000000  0.000612  0.295491  1
  Co  Co10  1  0.000000  0.499805  0.986097  1
  Co  Co11  1  0.500000  0.000245  0.013412  1
  Co  Co12  1  0.500000  0.333166  0.994567  1
  Co  Co13  1  0.500000  0.666608  0.994288  1
  Co  Co14  1  0.000000  0.167091  0.005238  1
  Co  Co15  1  0.000000  0.833118  0.004950  1
  Co  Co16  1  0.500000  0.297120  0.430315  1
  Co  Co17  1  0.500000  0.702758  0.430649  1
  Co  Co18  1  0.000000  0.202924  0.569757  1
  Co  Co19  1  0.000000  0.797117  0.570001  1
  Co  Co20  1  0.500000  0.878585  0.710295  1
  Co  Co21  1  0.500000  0.121481  0.710201  1
  Co  Co22  1  0.000000  0.620881  0.290105  1
  Co  Co23  1  0.000000  0.378446  0.289761  1
  P  P24  1  0.500000  0.499937  0.882595  1
  P  P25  1  0.000000  0.000507  0.117014  1
  P  P26  1  0.500000  0.500032  0.343833  1
  P  P27  1  0.000000  0.000007  0.656248  1
  P  P28  1  0.500000  0.310567  0.617006  1
  P  P29  1  0.500000  0.689325  0.617186  1
  P  P30  1  0.000000  0.189475  0.383049  1
  P  P31  1  0.000000  0.810597  0.383679  1
  P  P32  1  0.500000  0.846542  0.892547  1
  P  P33  1  0.500000  0.153529  0.892391  1
  P  P34  1  0.000000  0.652796  0.107043  1
  P  P35  1  0.000000  0.346616  0.107449  1
