# generated using pymatgen
data_Dy4Al18IrOs2Pd3
_symmetry_space_group_name_H-M   'P 1'
_cell_length_a   7.58637959
_cell_length_b   7.58641731
_cell_length_c   9.49983672
_cell_angle_alpha   89.81285028
_cell_angle_beta   89.81376194
_cell_angle_gamma   119.57638906
_symmetry_Int_Tables_number   1
_chemical_formula_structural   Dy4Al18IrOs2Pd3
_chemical_formula_sum   'Dy4 Al18 Ir1 Os2 Pd3'
_cell_volume   475.49615084
_cell_formula_units_Z   1
loop_
 _symmetry_equiv_pos_site_id
 _symmetry_equiv_pos_as_xyz
  1  'x, y, z'
loop_
 _atom_site_type_symbol
 _atom_site_label
 _atom_site_symmetry_multiplicity
 _atom_site_fract_x
 _atom_site_fract_y
 _atom_site_fract_z
 _atom_site_occupancy
  Dy  Dy0  1  0.995069  0.670651  0.250493  1
  Dy  Dy1  1  0.005261  0.329518  0.749794  1
  Dy  Dy2  1  0.670479  0.994734  0.250204  1
  Dy  Dy3  1  0.329341  0.004929  0.749507  1
  Al  Al4  1  0.126381  0.127473  0.249427  1
  Al  Al5  1  0.872527  0.873620  0.750580  1
  Al  Al6  1  0.000833  0.330443  0.075936  1
  Al  Al7  1  0.998766  0.670060  0.923054  1
  Al  Al8  1  0.994565  0.663025  0.574853  1
  Al  Al9  1  0.336983  0.005441  0.425149  1
  Al  Al10  1  0.995129  0.330625  0.425253  1
  Al  Al11  1  0.669372  0.004874  0.574745  1
  Al  Al12  1  0.669561  0.999165  0.924064  1
  Al  Al13  1  0.329945  0.001229  0.076944  1
  Al  Al14  1  0.334632  0.329465  0.551199  1
  Al  Al15  1  0.670534  0.665370  0.448799  1
  Al  Al16  1  0.670151  0.670421  0.055439  1
  Al  Al17  1  0.329594  0.329865  0.944558  1
  Al  Al18  1  0.340806  0.546521  0.250430  1
  Al  Al19  1  0.658579  0.451193  0.746534  1
  Al  Al20  1  0.548807  0.341414  0.253476  1
  Al  Al21  1  0.453468  0.659186  0.749571  1
  Ir  Ir22  1  0.000379  0.999618  0.500000  1
  Os  Os23  1  0.671677  0.328326  0.499999  1
  Os  Os24  1  0.999785  0.000209  0.999993  1
  Pd  Pd25  1  0.671932  0.328070  0.000000  1
  Pd  Pd26  1  0.327685  0.672314  0.000001  1
  Pd  Pd27  1  0.327761  0.672240  0.500000  1
