# generated using pymatgen
data_Lu4Sc15Si16W
_symmetry_space_group_name_H-M   'P 1'
_cell_length_a   6.92129260
_cell_length_b   7.23752290
_cell_length_c   13.68463775
_cell_angle_alpha   89.97142150
_cell_angle_beta   89.84610873
_cell_angle_gamma   89.74687216
_symmetry_Int_Tables_number   1
_chemical_formula_structural   Lu4Sc15Si16W
_chemical_formula_sum   'Lu4 Sc15 Si16 W1'
_cell_volume   685.49550242
_cell_formula_units_Z   1
loop_
 _symmetry_equiv_pos_site_id
 _symmetry_equiv_pos_as_xyz
  1  'x, y, z'
loop_
 _atom_site_type_symbol
 _atom_site_label
 _atom_site_symmetry_multiplicity
 _atom_site_fract_x
 _atom_site_fract_y
 _atom_site_fract_z
 _atom_site_occupancy
  Lu  Lu0  1  0.993679  0.681634  0.599559  1
  Lu  Lu1  1  0.012403  0.322349  0.406844  1
  Lu  Lu2  1  0.510458  0.176733  0.407762  1
  Lu  Lu3  1  0.012616  0.321846  0.090571  1
  Sc  Sc4  1  0.842314  0.005003  0.248231  1
  Sc  Sc5  1  0.341980  0.496074  0.249181  1
  Sc  Sc6  1  0.656661  0.509152  0.751307  1
  Sc  Sc7  1  0.483351  0.822015  0.600842  1
  Sc  Sc8  1  0.991209  0.685646  0.898519  1
  Sc  Sc9  1  0.484577  0.822712  0.902131  1
  Sc  Sc10  1  0.515149  0.180730  0.094422  1
  Sc  Sc11  1  0.329107  0.321489  0.629480  1
  Sc  Sc12  1  0.670205  0.678188  0.374697  1
  Sc  Sc13  1  0.173087  0.826692  0.376527  1
  Sc  Sc14  1  0.670639  0.677012  0.124703  1
  Sc  Sc15  1  0.825762  0.169578  0.629070  1
  Sc  Sc16  1  0.328267  0.319826  0.873822  1
  Sc  Sc17  1  0.823598  0.169491  0.871958  1
  Sc  Sc18  1  0.174340  0.827504  0.120604  1
  Si  Si19  1  0.029368  0.384252  0.751582  1
  Si  Si20  1  0.971928  0.611661  0.248938  1
  Si  Si21  1  0.470255  0.892723  0.248464  1
  Si  Si22  1  0.517485  0.092134  0.750975  1
  Si  Si23  1  0.283328  0.646311  0.752492  1
  Si  Si24  1  0.716564  0.366201  0.248251  1
  Si  Si25  1  0.217775  0.134504  0.247793  1
  Si  Si26  1  0.790280  0.865145  0.751662  1
  Si  Si27  1  0.162093  0.030868  0.548573  1
  Si  Si28  1  0.842494  0.965319  0.463680  1
  Si  Si29  1  0.343025  0.537975  0.465130  1
  Si  Si30  1  0.837902  0.964784  0.035616  1
  Si  Si31  1  0.659921  0.468784  0.540642  1
  Si  Si32  1  0.156240  0.024965  0.949243  1
  Si  Si33  1  0.663369  0.468504  0.960059  1
  Si  Si34  1  0.346329  0.534021  0.036284  1
  W  W35  1  0.152238  0.998174  0.750386  1
