# generated using pymatgen
data_Pr7PaTiPd24
_symmetry_space_group_name_H-M   'P 1'
_cell_length_a   8.52514427
_cell_length_b   8.52514427
_cell_length_c   8.52514427
_cell_angle_alpha   89.66127089
_cell_angle_beta   89.66127089
_cell_angle_gamma   89.66127089
_symmetry_Int_Tables_number   1
_chemical_formula_structural   Pr7PaTiPd24
_chemical_formula_sum   'Pr7 Pa1 Ti1 Pd24'
_cell_volume   619.55880337
_cell_formula_units_Z   1
loop_
 _symmetry_equiv_pos_site_id
 _symmetry_equiv_pos_as_xyz
  1  'x, y, z'
loop_
 _atom_site_type_symbol
 _atom_site_label
 _atom_site_symmetry_multiplicity
 _atom_site_fract_x
 _atom_site_fract_y
 _atom_site_fract_z
 _atom_site_occupancy
  Pr  Pr0  1  0.748008  0.748008  0.748008  1
  Pr  Pr1  1  0.748548  0.748548  0.250690  1
  Pr  Pr2  1  0.748548  0.250690  0.748548  1
  Pr  Pr3  1  0.251226  0.251226  0.751698  1
  Pr  Pr4  1  0.251226  0.751698  0.251226  1
  Pr  Pr5  1  0.250690  0.748548  0.748548  1
  Pr  Pr6  1  0.751698  0.251226  0.251226  1
  Pa  Pa7  1  0.250354  0.250354  0.250354  1
  Ti  Ti8  1  0.000373  0.000373  0.000373  1
  Pd  Pd9  1  0.262481  0.496230  0.008353  1
  Pd  Pd10  1  0.737376  0.498819  0.000180  1
  Pd  Pd11  1  0.008353  0.262481  0.496230  1
  Pd  Pd12  1  0.496230  0.262481  0.008353  1
  Pd  Pd13  1  0.000180  0.737376  0.498819  1
  Pd  Pd14  1  0.498819  0.737376  0.000180  1
  Pd  Pd15  1  0.496230  0.008353  0.262481  1
  Pd  Pd16  1  0.262481  0.008353  0.496230  1
  Pd  Pd17  1  0.498819  0.000180  0.737376  1
  Pd  Pd18  1  0.737376  0.000180  0.498819  1
  Pd  Pd19  1  0.008353  0.496230  0.262481  1
  Pd  Pd20  1  0.000180  0.498819  0.737376  1
  Pd  Pd21  1  0.254044  0.494133  0.494133  1
  Pd  Pd22  1  0.746956  0.498909  0.498909  1
  Pd  Pd23  1  0.494133  0.254044  0.494133  1
  Pd  Pd24  1  0.498909  0.746956  0.498909  1
  Pd  Pd25  1  0.494133  0.494133  0.254044  1
  Pd  Pd26  1  0.498909  0.498909  0.746956  1
  Pd  Pd27  1  0.298213  0.004161  0.004161  1
  Pd  Pd28  1  0.699862  0.999485  0.999485  1
  Pd  Pd29  1  0.004161  0.298213  0.004161  1
  Pd  Pd30  1  0.999485  0.699862  0.999485  1
  Pd  Pd31  1  0.004161  0.004161  0.298213  1
  Pd  Pd32  1  0.999485  0.999485  0.699862  1
