# generated using pymatgen
data_Sr4CuSi6Hg
_symmetry_space_group_name_H-M   'P 1'
_cell_length_a   11.84947689
_cell_length_b   10.24820491
_cell_length_c   8.38079301
_cell_angle_alpha   78.29342489
_cell_angle_beta   57.87350367
_cell_angle_gamma   43.83306804
_symmetry_Int_Tables_number   1
_chemical_formula_structural   Sr4CuSi6Hg
_chemical_formula_sum   'Sr8 Cu2 Si12 Hg2'
_cell_volume   567.87025856
_cell_formula_units_Z   2
loop_
 _symmetry_equiv_pos_site_id
 _symmetry_equiv_pos_as_xyz
  1  'x, y, z'
loop_
 _atom_site_type_symbol
 _atom_site_label
 _atom_site_symmetry_multiplicity
 _atom_site_fract_x
 _atom_site_fract_y
 _atom_site_fract_z
 _atom_site_occupancy
  Sr  Sr0  1  0.128647  0.119367  0.873848  1
  Sr  Sr1  1  0.873849  0.878137  0.128646  1
  Sr  Sr2  1  0.130634  0.121354  0.371863  1
  Sr  Sr3  1  0.371864  0.376152  0.130633  1
  Sr  Sr4  1  0.620964  0.626539  0.377120  1
  Sr  Sr5  1  0.377120  0.375377  0.620964  1
  Sr  Sr6  1  0.623462  0.629036  0.874623  1
  Sr  Sr7  1  0.874624  0.872881  0.623461  1
  Cu  Cu8  1  0.166963  0.833037  0.166963  1
  Cu  Cu9  1  0.416963  0.083037  0.416963  1
  Si  Si10  1  0.909611  0.595249  0.432364  1
  Si  Si11  1  0.085713  0.408800  0.583955  1
  Si  Si12  1  0.432364  0.062776  0.909611  1
  Si  Si13  1  0.583955  0.921532  0.085713  1
  Si  Si14  1  0.328468  0.666045  0.841200  1
  Si  Si15  1  0.654751  0.340389  0.187224  1
  Si  Si16  1  0.841200  0.164287  0.328468  1
  Si  Si17  1  0.187224  0.817636  0.654751  1
  Si  Si18  1  0.907878  0.592123  0.907877  1
  Si  Si19  1  0.580164  0.919837  0.580163  1
  Si  Si20  1  0.330164  0.669837  0.330164  1
  Si  Si21  1  0.657877  0.342123  0.657877  1
  Hg  Hg22  1  0.082772  0.417228  0.082772  1
  Hg  Hg23  1  0.832772  0.167228  0.832772  1
