# generated using pymatgen
data_Y(GaNi)6
_symmetry_space_group_name_H-M   'P 1'
_cell_length_a   6.48993324
_cell_length_b   6.48993304
_cell_length_c   6.48993295
_cell_angle_alpha   134.28784598
_cell_angle_beta   101.09232460
_cell_angle_gamma   96.27762295
_symmetry_Int_Tables_number   1
_chemical_formula_structural   Y(GaNi)6
_chemical_formula_sum   'Y1 Ga6 Ni6'
_cell_volume   180.09630572
_cell_formula_units_Z   1
loop_
 _symmetry_equiv_pos_site_id
 _symmetry_equiv_pos_as_xyz
  1  'x, y, z'
loop_
 _atom_site_type_symbol
 _atom_site_label
 _atom_site_symmetry_multiplicity
 _atom_site_fract_x
 _atom_site_fract_y
 _atom_site_fract_z
 _atom_site_occupancy
  Y  Y0  1  0.000000  0.000000  0.000000  1
  Ga  Ga1  1  0.344930  0.344930  0.000000  1
  Ga  Ga2  1  0.655070  0.655070  0.000000  1
  Ga  Ga3  1  0.342685  0.000000  0.342685  1
  Ga  Ga4  1  0.657315  0.000000  0.657315  1
  Ga  Ga5  1  0.186175  0.686175  0.500000  1
  Ga  Ga6  1  0.813825  0.313825  0.500000  1
  Ni  Ni7  1  0.762277  0.500000  0.262277  1
  Ni  Ni8  1  0.237723  0.500000  0.737723  1
  Ni  Ni9  1  0.500000  0.500000  0.500000  1
  Ni  Ni10  1  0.000000  0.000000  0.500000  1
  Ni  Ni11  1  0.000000  0.500000  0.000000  1
  Ni  Ni12  1  0.500000  0.000000  0.000000  1
