# generated using pymatgen
data_TaCo3B2
_symmetry_space_group_name_H-M   'P 1'
_cell_length_a   5.62645878
_cell_length_b   5.62645995
_cell_length_c   5.62645943
_cell_angle_alpha   95.24180821
_cell_angle_beta   95.24181192
_cell_angle_gamma   95.24182155
_symmetry_Int_Tables_number   1
_chemical_formula_structural   TaCo3B2
_chemical_formula_sum   'Ta3 Co9 B6'
_cell_volume   175.73534634
_cell_formula_units_Z   3
loop_
 _symmetry_equiv_pos_site_id
 _symmetry_equiv_pos_as_xyz
  1  'x, y, z'
loop_
 _atom_site_type_symbol
 _atom_site_label
 _atom_site_symmetry_multiplicity
 _atom_site_fract_x
 _atom_site_fract_y
 _atom_site_fract_z
 _atom_site_occupancy
  Ta  Ta0  1  0.000000  0.000000  0.000000  1
  Ta  Ta1  1  0.668677  0.668677  0.668677  1
  Ta  Ta2  1  0.331323  0.331323  0.331323  1
  Co  Co3  1  0.000000  0.000000  0.500000  1
  Co  Co4  1  0.500000  0.000000  0.000000  1
  Co  Co5  1  0.000000  0.500000  0.000000  1
  Co  Co6  1  0.700320  0.202432  0.700320  1
  Co  Co7  1  0.700320  0.700320  0.202432  1
  Co  Co8  1  0.202432  0.700320  0.700320  1
  Co  Co9  1  0.299680  0.797568  0.299680  1
  Co  Co10  1  0.299680  0.299680  0.797568  1
  Co  Co11  1  0.797568  0.299680  0.299680  1
  B  B12  1  0.615616  0.384384  0.000000  1
  B  B13  1  0.000000  0.615616  0.384384  1
  B  B14  1  0.384384  0.000000  0.615616  1
  B  B15  1  0.000000  0.384384  0.615616  1
  B  B16  1  0.615616  0.000000  0.384384  1
  B  B17  1  0.384384  0.615616  0.000000  1
