# generated using pymatgen
data_Hf9VRe3Pd
_symmetry_space_group_name_H-M   'P 1'
_cell_length_a   8.67274900
_cell_length_b   8.67274797
_cell_length_c   8.42337300
_cell_angle_alpha   90.00000000
_cell_angle_beta   90.00000000
_cell_angle_gamma   120.01525815
_symmetry_Int_Tables_number   1
_chemical_formula_structural   Hf9VRe3Pd
_chemical_formula_sum   'Hf18 V2 Re6 Pd2'
_cell_volume   548.60956319
_cell_formula_units_Z   2
loop_
 _symmetry_equiv_pos_site_id
 _symmetry_equiv_pos_as_xyz
  1  'x, y, z'
loop_
 _atom_site_type_symbol
 _atom_site_label
 _atom_site_symmetry_multiplicity
 _atom_site_fract_x
 _atom_site_fract_y
 _atom_site_fract_z
 _atom_site_occupancy
  Hf  Hf0  1  0.806308  0.612645  0.552680  1
  Hf  Hf1  1  0.806319  0.193681  0.552666  1
  Hf  Hf2  1  0.387355  0.193692  0.552680  1
  Hf  Hf3  1  0.193692  0.387355  0.447320  1
  Hf  Hf4  1  0.193681  0.806319  0.447334  1
  Hf  Hf5  1  0.612645  0.806308  0.447320  1
  Hf  Hf6  1  0.193692  0.387355  0.052680  1
  Hf  Hf7  1  0.193681  0.806319  0.052666  1
  Hf  Hf8  1  0.612645  0.806308  0.052680  1
  Hf  Hf9  1  0.806308  0.612645  0.947320  1
  Hf  Hf10  1  0.806319  0.193681  0.947334  1
  Hf  Hf11  1  0.387355  0.193692  0.947320  1
  Hf  Hf12  1  0.457325  0.914608  0.750000  1
  Hf  Hf13  1  0.457347  0.542653  0.750000  1
  Hf  Hf14  1  0.085392  0.542675  0.750000  1
  Hf  Hf15  1  0.542675  0.085392  0.250000  1
  Hf  Hf16  1  0.542653  0.457347  0.250000  1
  Hf  Hf17  1  0.914608  0.457325  0.250000  1
  V  V18  1  0.000000  0.000000  0.500000  1
  V  V19  1  0.000000  0.000000  0.000000  1
  Re  Re20  1  0.109871  0.219643  0.750000  1
  Re  Re21  1  0.109893  0.890107  0.750000  1
  Re  Re22  1  0.780357  0.890129  0.750000  1
  Re  Re23  1  0.890129  0.780357  0.250000  1
  Re  Re24  1  0.890107  0.109893  0.250000  1
  Re  Re25  1  0.219643  0.109871  0.250000  1
  Pd  Pd26  1  0.666705  0.333295  0.750000  1
  Pd  Pd27  1  0.333295  0.666705  0.250000  1
