# generated using pymatgen
data_SmEu3MnW3O14
_symmetry_space_group_name_H-M   'P 1'
_cell_length_a   7.56940630
_cell_length_b   7.43023999
_cell_length_c   7.56940703
_cell_angle_alpha   59.10945464
_cell_angle_beta   59.93400475
_cell_angle_gamma   59.10945244
_symmetry_Int_Tables_number   1
_chemical_formula_structural   SmEu3MnW3O14
_chemical_formula_sum   'Sm1 Eu3 Mn1 W3 O14'
_cell_volume   296.77105495
_cell_formula_units_Z   1
loop_
 _symmetry_equiv_pos_site_id
 _symmetry_equiv_pos_as_xyz
  1  'x, y, z'
loop_
 _atom_site_type_symbol
 _atom_site_label
 _atom_site_symmetry_multiplicity
 _atom_site_fract_x
 _atom_site_fract_y
 _atom_site_fract_z
 _atom_site_occupancy
  Sm  Sm0  1  0.125000  0.125000  0.125000  1
  Eu  Eu1  1  0.125000  0.625000  0.125000  1
  Eu  Eu2  1  0.125000  0.125000  0.625000  1
  Eu  Eu3  1  0.625000  0.125000  0.125000  1
  Mn  Mn4  1  0.625000  0.125000  0.625000  1
  W  W5  1  0.625000  0.625000  0.625000  1
  W  W6  1  0.125000  0.625000  0.625000  1
  W  W7  1  0.625000  0.625000  0.125000  1
  O  O8  1  0.299689  0.687646  0.711708  1
  O  O9  1  0.535061  0.946999  0.975124  1
  O  O10  1  0.711708  0.687646  0.299689  1
  O  O11  1  0.274876  0.303001  0.714939  1
  O  O12  1  0.000201  0.004867  0.000201  1
  O  O13  1  0.299352  0.689765  0.299352  1
  O  O14  1  0.708822  0.304694  0.708822  1
  O  O15  1  0.950648  0.560235  0.950648  1
  O  O16  1  0.538292  0.562354  0.950311  1
  O  O17  1  0.975124  0.946999  0.535061  1
  O  O18  1  0.249799  0.245133  0.249799  1
  O  O19  1  0.541178  0.945306  0.541178  1
  O  O20  1  0.714939  0.303001  0.274876  1
  O  O21  1  0.950311  0.562354  0.538292  1
