# generated using pymatgen
data_Hf8Cu6Ni2SnHg3
_symmetry_space_group_name_H-M   'P 1'
_cell_length_a   7.13795425
_cell_length_b   7.15125519
_cell_length_c   6.80576500
_cell_angle_alpha   90.00000000
_cell_angle_beta   90.00000000
_cell_angle_gamma   90.32772349
_symmetry_Int_Tables_number   1
_chemical_formula_structural   Hf8Cu6Ni2SnHg3
_chemical_formula_sum   'Hf8 Cu6 Ni2 Sn1 Hg3'
_cell_volume   347.39685343
_cell_formula_units_Z   1
loop_
 _symmetry_equiv_pos_site_id
 _symmetry_equiv_pos_as_xyz
  1  'x, y, z'
loop_
 _atom_site_type_symbol
 _atom_site_label
 _atom_site_symmetry_multiplicity
 _atom_site_fract_x
 _atom_site_fract_y
 _atom_site_fract_z
 _atom_site_occupancy
  Hf  Hf0  1  0.193476  0.190203  0.997732  1
  Hf  Hf1  1  0.678831  0.315248  0.506376  1
  Hf  Hf2  1  0.321169  0.684752  0.506376  1
  Hf  Hf3  1  0.806524  0.809797  0.997732  1
  Hf  Hf4  1  0.648449  0.349868  0.991709  1
  Hf  Hf5  1  0.844493  0.847003  0.501077  1
  Hf  Hf6  1  0.155507  0.152997  0.501077  1
  Hf  Hf7  1  0.351551  0.650132  0.991709  1
  Cu  Cu8  1  0.374825  0.377242  0.289245  1
  Cu  Cu9  1  0.876553  0.123314  0.790207  1
  Cu  Cu10  1  0.123447  0.876686  0.790207  1
  Cu  Cu11  1  0.625175  0.622758  0.289245  1
  Cu  Cu12  1  0.124103  0.874817  0.210392  1
  Cu  Cu13  1  0.875897  0.125183  0.210392  1
  Ni  Ni14  1  0.372094  0.376122  0.715677  1
  Ni  Ni15  1  0.627906  0.623878  0.715677  1
  Sn  Sn16  1  0.000000  0.500000  0.747106  1
  Hg  Hg17  1  0.500000  0.000000  0.247973  1
  Hg  Hg18  1  0.500000  0.000000  0.750402  1
  Hg  Hg19  1  0.000000  0.500000  0.249689  1
