# generated using pymatgen
data_DyThTc3Ge4
_symmetry_space_group_name_H-M   'P 1'
_cell_length_a   8.35284700
_cell_length_b   5.79770579
_cell_length_c   7.06106694
_cell_angle_alpha   76.26832858
_cell_angle_beta   90.00000000
_cell_angle_gamma   90.00000000
_symmetry_Int_Tables_number   1
_chemical_formula_structural   DyThTc3Ge4
_chemical_formula_sum   'Dy2 Th2 Tc6 Ge8'
_cell_volume   332.17519483
_cell_formula_units_Z   2
loop_
 _symmetry_equiv_pos_site_id
 _symmetry_equiv_pos_as_xyz
  1  'x, y, z'
loop_
 _atom_site_type_symbol
 _atom_site_label
 _atom_site_symmetry_multiplicity
 _atom_site_fract_x
 _atom_site_fract_y
 _atom_site_fract_z
 _atom_site_occupancy
  Dy  Dy0  1  0.436360  0.925867  0.753517  1
  Dy  Dy1  1  0.936360  0.574133  0.246483  1
  Th  Th2  1  0.555484  0.077064  0.246920  1
  Th  Th3  1  0.055484  0.422936  0.753080  1
  Tc  Tc4  1  0.213772  0.118868  0.109925  1
  Tc  Tc5  1  0.713772  0.381132  0.890075  1
  Tc  Tc6  1  0.796839  0.892663  0.887861  1
  Tc  Tc7  1  0.296839  0.607337  0.112139  1
  Tc  Tc8  1  0.000311  0.996458  0.499728  1
  Tc  Tc9  1  0.500311  0.503542  0.500272  1
  Ge  Ge10  1  0.907455  0.112909  0.134119  1
  Ge  Ge11  1  0.407455  0.387091  0.865881  1
  Ge  Ge12  1  0.098026  0.873277  0.883860  1
  Ge  Ge13  1  0.598026  0.626723  0.116140  1
  Ge  Ge14  1  0.743807  0.217924  0.583825  1
  Ge  Ge15  1  0.243807  0.282076  0.416175  1
  Ge  Ge16  1  0.247945  0.773818  0.413418  1
  Ge  Ge17  1  0.747945  0.726182  0.586582  1
