# generated using pymatgen
data_Ti6Si5Mo3PRu3
_symmetry_space_group_name_H-M   'P 1'
_cell_length_a   7.55215777
_cell_length_b   7.52677098
_cell_length_c   7.54925422
_cell_angle_alpha   126.16281808
_cell_angle_beta   128.71656558
_cell_angle_gamma   77.64284865
_symmetry_Int_Tables_number   1
_chemical_formula_structural   Ti6Si5Mo3PRu3
_chemical_formula_sum   'Ti6 Si5 Mo3 P1 Ru3'
_cell_volume   261.99952113
_cell_formula_units_Z   1
loop_
 _symmetry_equiv_pos_site_id
 _symmetry_equiv_pos_as_xyz
  1  'x, y, z'
loop_
 _atom_site_type_symbol
 _atom_site_label
 _atom_site_symmetry_multiplicity
 _atom_site_fract_x
 _atom_site_fract_y
 _atom_site_fract_z
 _atom_site_occupancy
  Ti  Ti0  1  0.244363  0.905452  0.156784  1
  Ti  Ti1  1  0.948176  0.484925  0.032866  1
  Ti  Ti2  1  0.054458  0.103938  0.546483  1
  Ti  Ti3  1  0.450836  0.483285  0.537579  1
  Ti  Ti4  1  0.747732  0.904019  0.658884  1
  Ti  Ti5  1  0.552520  0.097720  0.045921  1
  Si  Si6  1  0.167606  0.158751  0.989551  1
  Si  Si7  1  0.666563  0.154074  0.489328  1
  Si  Si8  1  0.329298  0.823488  0.493542  1
  Si  Si9  1  0.256396  0.512979  0.758638  1
  Si  Si10  1  0.828783  0.827038  0.998319  1
  Mo  Mo11  1  0.502051  0.240419  0.743532  1
  Mo  Mo12  1  0.999794  0.241481  0.238182  1
  Mo  Mo13  1  0.866535  0.498067  0.622704  1
  P  P14  1  0.749968  0.497954  0.248222  1
  Ru  Ru15  1  0.641541  0.754536  0.139479  1
  Ru  Ru16  1  0.374777  0.496983  0.127789  1
  Ru  Ru17  1  0.118602  0.757102  0.614409  1
