# generated using pymatgen
data_TmLu(GePt2)2
_symmetry_space_group_name_H-M   'P 1'
_cell_length_a   5.54132611
_cell_length_b   5.54132473
_cell_length_c   7.18900900
_cell_angle_alpha   90.00000000
_cell_angle_beta   90.00000000
_cell_angle_gamma   139.52562159
_symmetry_Int_Tables_number   1
_chemical_formula_structural   TmLu(GePt2)2
_chemical_formula_sum   'Tm1 Lu1 Ge2 Pt4'
_cell_volume   143.28913525
_cell_formula_units_Z   1
loop_
 _symmetry_equiv_pos_site_id
 _symmetry_equiv_pos_as_xyz
  1  'x, y, z'
loop_
 _atom_site_type_symbol
 _atom_site_label
 _atom_site_symmetry_multiplicity
 _atom_site_fract_x
 _atom_site_fract_y
 _atom_site_fract_z
 _atom_site_occupancy
  Tm  Tm0  1  0.546287  0.453715  0.250001  1
  Lu  Lu1  1  0.454165  0.545837  0.750000  1
  Ge  Ge2  1  0.264508  0.735495  0.250001  1
  Ge  Ge3  1  0.735641  0.264362  0.750000  1
  Pt  Pt4  1  0.866189  0.133814  0.050067  1
  Pt  Pt5  1  0.866189  0.133814  0.449934  1
  Pt  Pt6  1  0.133517  0.866486  0.551337  1
  Pt  Pt7  1  0.133517  0.866486  0.948664  1
