# generated using pymatgen
data_ErLu4HgBi2
_symmetry_space_group_name_H-M   'P 1'
_cell_length_a   8.05527400
_cell_length_b   9.33025100
_cell_length_c   11.83554700
_cell_angle_alpha   90.00000000
_cell_angle_beta   90.00000000
_cell_angle_gamma   90.00000000
_symmetry_Int_Tables_number   1
_chemical_formula_structural   ErLu4HgBi2
_chemical_formula_sum   'Er4 Lu16 Hg4 Bi8'
_cell_volume   889.53282563
_cell_formula_units_Z   4
loop_
 _symmetry_equiv_pos_site_id
 _symmetry_equiv_pos_as_xyz
  1  'x, y, z'
loop_
 _atom_site_type_symbol
 _atom_site_label
 _atom_site_symmetry_multiplicity
 _atom_site_fract_x
 _atom_site_fract_y
 _atom_site_fract_z
 _atom_site_occupancy
  Er  Er0  1  0.316610  0.250000  0.215845  1
  Er  Er1  1  0.816610  0.250000  0.284155  1
  Er  Er2  1  0.683390  0.750000  0.784155  1
  Er  Er3  1  0.183390  0.750000  0.715845  1
  Lu  Lu4  1  0.349901  0.750000  0.208581  1
  Lu  Lu5  1  0.849901  0.750000  0.291419  1
  Lu  Lu6  1  0.650099  0.250000  0.791419  1
  Lu  Lu7  1  0.150099  0.250000  0.708581  1
  Lu  Lu8  1  0.687666  0.561551  0.058153  1
  Lu  Lu9  1  0.187666  0.938449  0.441847  1
  Lu  Lu10  1  0.312334  0.061551  0.941847  1
  Lu  Lu11  1  0.812334  0.438449  0.558153  1
  Lu  Lu12  1  0.312334  0.438449  0.941847  1
  Lu  Lu13  1  0.812334  0.061551  0.558153  1
  Lu  Lu14  1  0.687666  0.938449  0.058153  1
  Lu  Lu15  1  0.187666  0.561551  0.441847  1
  Lu  Lu16  1  0.466339  0.250000  0.492169  1
  Lu  Lu17  1  0.966339  0.250000  0.007831  1
  Lu  Lu18  1  0.533661  0.750000  0.507831  1
  Lu  Lu19  1  0.033661  0.750000  0.992169  1
  Hg  Hg20  1  0.405841  0.750000  0.960782  1
  Hg  Hg21  1  0.905841  0.750000  0.539218  1
  Hg  Hg22  1  0.594159  0.250000  0.039218  1
  Hg  Hg23  1  0.094159  0.250000  0.460782  1
  Bi  Bi24  1  0.557697  0.998225  0.323392  1
  Bi  Bi25  1  0.057697  0.501775  0.176608  1
  Bi  Bi26  1  0.442303  0.498225  0.676608  1
  Bi  Bi27  1  0.942303  0.001775  0.823392  1
  Bi  Bi28  1  0.442303  0.001775  0.676608  1
  Bi  Bi29  1  0.942303  0.498225  0.823392  1
  Bi  Bi30  1  0.557697  0.501775  0.323392  1
  Bi  Bi31  1  0.057697  0.998225  0.176608  1
