# generated using pymatgen
data_Ho20FeNi2Bi8Ru
_symmetry_space_group_name_H-M   'P 1'
_cell_length_a   7.97812217
_cell_length_b   8.91227900
_cell_length_c   12.34444169
_cell_angle_alpha   90.00000000
_cell_angle_beta   90.11287763
_cell_angle_gamma   90.00000000
_symmetry_Int_Tables_number   1
_chemical_formula_structural   Ho20FeNi2Bi8Ru
_chemical_formula_sum   'Ho20 Fe1 Ni2 Bi8 Ru1'
_cell_volume   877.72822920
_cell_formula_units_Z   1
loop_
 _symmetry_equiv_pos_site_id
 _symmetry_equiv_pos_as_xyz
  1  'x, y, z'
loop_
 _atom_site_type_symbol
 _atom_site_label
 _atom_site_symmetry_multiplicity
 _atom_site_fract_x
 _atom_site_fract_y
 _atom_site_fract_z
 _atom_site_occupancy
  Ho  Ho0  1  0.845835  0.750000  0.798554  1
  Ho  Ho1  1  0.155571  0.250000  0.201895  1
  Ho  Ho2  1  0.344029  0.250000  0.702168  1
  Ho  Ho3  1  0.656516  0.750000  0.293652  1
  Ho  Ho4  1  0.380999  0.750000  0.694065  1
  Ho  Ho5  1  0.618572  0.250000  0.307937  1
  Ho  Ho6  1  0.881471  0.250000  0.807853  1
  Ho  Ho7  1  0.114155  0.750000  0.188813  1
  Ho  Ho8  1  0.948259  0.750000  0.502529  1
  Ho  Ho9  1  0.047527  0.250000  0.498705  1
  Ho  Ho10  1  0.450761  0.250000  0.998373  1
  Ho  Ho11  1  0.553865  0.750000  0.001739  1
  Ho  Ho12  1  0.677023  0.041003  0.565134  1
  Ho  Ho13  1  0.323223  0.959838  0.436132  1
  Ho  Ho14  1  0.175775  0.957150  0.937079  1
  Ho  Ho15  1  0.323223  0.540162  0.436132  1
  Ho  Ho16  1  0.824277  0.033257  0.062812  1
  Ho  Ho17  1  0.677023  0.458997  0.565134  1
  Ho  Ho18  1  0.824277  0.466743  0.062812  1
  Ho  Ho19  1  0.175775  0.542850  0.937079  1
  Fe  Fe20  1  0.929651  0.750000  0.008657  1
  Ni  Ni21  1  0.429432  0.250000  0.489591  1
  Ni  Ni22  1  0.069160  0.250000  0.989981  1
  Bi  Bi23  1  0.571532  0.489686  0.827548  1
  Bi  Bi24  1  0.427061  0.509120  0.173221  1
  Bi  Bi25  1  0.072731  0.509051  0.673977  1
  Bi  Bi26  1  0.427061  0.990880  0.173221  1
  Bi  Bi27  1  0.929430  0.490294  0.326658  1
  Bi  Bi28  1  0.571532  0.010314  0.827548  1
  Bi  Bi29  1  0.929430  0.009706  0.326658  1
  Bi  Bi30  1  0.072731  0.990949  0.673977  1
  Ru  Ru31  1  0.572090  0.750000  0.510365  1
