# generated using pymatgen
data_TbYGa6(NiAu)2
_symmetry_space_group_name_H-M   'P 1'
_cell_length_a   4.07931571
_cell_length_b   6.58949503
_cell_length_c   8.01072923
_cell_angle_alpha   90.01136261
_cell_angle_beta   104.75082960
_cell_angle_gamma   89.99999703
_symmetry_Int_Tables_number   1
_chemical_formula_structural   TbYGa6(NiAu)2
_chemical_formula_sum   'Tb1 Y1 Ga6 Ni2 Au2'
_cell_volume   208.23654322
_cell_formula_units_Z   1
loop_
 _symmetry_equiv_pos_site_id
 _symmetry_equiv_pos_as_xyz
  1  'x, y, z'
loop_
 _atom_site_type_symbol
 _atom_site_label
 _atom_site_symmetry_multiplicity
 _atom_site_fract_x
 _atom_site_fract_y
 _atom_site_fract_z
 _atom_site_occupancy
  Tb  Tb0  1  0.125112  0.249995  0.250223  1
  Y  Y1  1  0.875014  0.749993  0.750029  1
  Ga  Ga2  1  0.069773  0.749977  0.139545  1
  Ga  Ga3  1  0.930175  0.249978  0.860351  1
  Ga  Ga4  1  0.685674  0.551594  0.371348  1
  Ga  Ga5  1  0.314410  0.448574  0.628819  1
  Ga  Ga6  1  0.685686  0.948403  0.371372  1
  Ga  Ga7  1  0.314408  0.051425  0.628815  1
  Ni  Ni8  1  0.224000  0.750393  0.448001  1
  Ni  Ni9  1  0.775784  0.249688  0.551566  1
  Au  Au10  1  0.499982  0.499862  0.999964  1
  Au  Au11  1  0.499983  0.000118  0.999966  1
