# generated using pymatgen
data_Th6Mg2Cd21Ir
_symmetry_space_group_name_H-M   'P 1'
_cell_length_a   10.13124383
_cell_length_b   10.13124283
_cell_length_c   10.09928600
_cell_angle_alpha   60.10428167
_cell_angle_beta   60.10428489
_cell_angle_gamma   60.35574636
_symmetry_Int_Tables_number   1
_chemical_formula_structural   Th6Mg2Cd21Ir
_chemical_formula_sum   'Th6 Mg2 Cd21 Ir1'
_cell_volume   736.10819067
_cell_formula_units_Z   1
loop_
 _symmetry_equiv_pos_site_id
 _symmetry_equiv_pos_as_xyz
  1  'x, y, z'
loop_
 _atom_site_type_symbol
 _atom_site_label
 _atom_site_symmetry_multiplicity
 _atom_site_fract_x
 _atom_site_fract_y
 _atom_site_fract_z
 _atom_site_occupancy
  Th  Th0  1  0.799889  0.799889  0.200111  1
  Th  Th1  1  0.197411  0.802589  0.199870  1
  Th  Th2  1  0.802589  0.197411  0.199870  1
  Th  Th3  1  0.200111  0.200111  0.799889  1
  Th  Th4  1  0.802589  0.197411  0.800130  1
  Th  Th5  1  0.197411  0.802589  0.800130  1
  Mg  Mg6  1  0.500000  0.500000  0.000000  1
  Mg  Mg7  1  0.500000  0.500000  0.500000  1
  Cd  Cd8  1  0.830241  0.830241  0.507112  1
  Cd  Cd9  1  0.829091  0.503955  0.833477  1
  Cd  Cd10  1  0.503955  0.829091  0.833477  1
  Cd  Cd11  1  0.830241  0.830241  0.832406  1
  Cd  Cd12  1  0.169759  0.169759  0.492888  1
  Cd  Cd13  1  0.170909  0.496045  0.166523  1
  Cd  Cd14  1  0.496045  0.170909  0.166523  1
  Cd  Cd15  1  0.169759  0.169759  0.167594  1
  Cd  Cd16  1  0.618826  0.618826  0.138130  1
  Cd  Cd17  1  0.619197  0.139850  0.620476  1
  Cd  Cd18  1  0.139850  0.619197  0.620476  1
  Cd  Cd19  1  0.618826  0.618826  0.624216  1
  Cd  Cd20  1  0.381174  0.381174  0.861870  1
  Cd  Cd21  1  0.380803  0.860150  0.379524  1
  Cd  Cd22  1  0.860150  0.380803  0.379524  1
  Cd  Cd23  1  0.381174  0.381174  0.375784  1
  Cd  Cd24  1  0.000000  0.000000  0.500000  1
  Cd  Cd25  1  0.500000  0.000000  0.500000  1
  Cd  Cd26  1  0.000000  0.500000  0.500000  1
  Cd  Cd27  1  0.000000  0.500000  0.000000  1
  Cd  Cd28  1  0.500000  0.000000  0.000000  1
  Ir  Ir29  1  0.000000  0.000000  0.000000  1
