# generated using pymatgen
data_SrTb4Yb3Hg8
_symmetry_space_group_name_H-M   'P 1'
_cell_length_a   7.46790909
_cell_length_b   7.49404300
_cell_length_c   7.44382300
_cell_angle_alpha   90.00000000
_cell_angle_beta   89.99115388
_cell_angle_gamma   90.00000000
_symmetry_Int_Tables_number   1
_chemical_formula_structural   SrTb4Yb3Hg8
_chemical_formula_sum   'Sr1 Tb4 Yb3 Hg8'
_cell_volume   416.59229743
_cell_formula_units_Z   1
loop_
 _symmetry_equiv_pos_site_id
 _symmetry_equiv_pos_as_xyz
  1  'x, y, z'
loop_
 _atom_site_type_symbol
 _atom_site_label
 _atom_site_symmetry_multiplicity
 _atom_site_fract_x
 _atom_site_fract_y
 _atom_site_fract_z
 _atom_site_occupancy
  Sr  Sr0  1  0.250373  0.750000  0.999937  1
  Tb  Tb1  1  0.250508  0.250000  0.999997  1
  Tb  Tb2  1  0.749647  0.750000  0.000001  1
  Tb  Tb3  1  0.750548  0.750000  0.500001  1
  Tb  Tb4  1  0.249452  0.250000  0.500005  1
  Yb  Yb5  1  0.749476  0.250000  0.000046  1
  Yb  Yb6  1  0.249591  0.750000  0.499983  1
  Yb  Yb7  1  0.750543  0.250000  0.500014  1
  Hg  Hg8  1  0.994621  0.494586  0.253811  1
  Hg  Hg9  1  0.994621  0.005416  0.253811  1
  Hg  Hg10  1  0.505447  0.005429  0.255733  1
  Hg  Hg11  1  0.505447  0.494571  0.255733  1
  Hg  Hg12  1  0.505343  0.494600  0.744257  1
  Hg  Hg13  1  0.505343  0.005402  0.744257  1
  Hg  Hg14  1  0.994518  0.005452  0.746207  1
  Hg  Hg15  1  0.994518  0.494548  0.746207  1
