# generated using pymatgen
data_NdTm(CuSn)2
_symmetry_space_group_name_H-M   'P 1'
_cell_length_a   4.55552900
_cell_length_b   4.55552852
_cell_length_c   7.41304800
_cell_angle_alpha   90.00000000
_cell_angle_beta   90.00000000
_cell_angle_gamma   120.00001074
_symmetry_Int_Tables_number   1
_chemical_formula_structural   NdTm(CuSn)2
_chemical_formula_sum   'Nd1 Tm1 Cu2 Sn2'
_cell_volume   133.23090642
_cell_formula_units_Z   1
loop_
 _symmetry_equiv_pos_site_id
 _symmetry_equiv_pos_as_xyz
  1  'x, y, z'
loop_
 _atom_site_type_symbol
 _atom_site_label
 _atom_site_symmetry_multiplicity
 _atom_site_fract_x
 _atom_site_fract_y
 _atom_site_fract_z
 _atom_site_occupancy
  Nd  Nd0  1  0.000000  0.000000  0.990924  1
  Tm  Tm1  1  0.000000  0.000000  0.489778  1
  Cu  Cu2  1  0.666667  0.333333  0.321440  1
  Cu  Cu3  1  0.333333  0.666667  0.784837  1
  Sn  Sn4  1  0.333333  0.666667  0.233323  1
  Sn  Sn5  1  0.666667  0.333333  0.711700  1
