# generated using pymatgen
data_Tb5Y3Hf7Si16Mo5
_symmetry_space_group_name_H-M   'P 1'
_cell_length_a   7.14407819
_cell_length_b   7.13748600
_cell_length_c   13.09120134
_cell_angle_alpha   89.79009705
_cell_angle_beta   89.98072185
_cell_angle_gamma   90.09003306
_symmetry_Int_Tables_number   1
_chemical_formula_structural   Tb5Y3Hf7Si16Mo5
_chemical_formula_sum   'Tb5 Y3 Hf7 Si16 Mo5'
_cell_volume   667.52493781
_cell_formula_units_Z   1
loop_
 _symmetry_equiv_pos_site_id
 _symmetry_equiv_pos_as_xyz
  1  'x, y, z'
loop_
 _atom_site_type_symbol
 _atom_site_label
 _atom_site_symmetry_multiplicity
 _atom_site_fract_x
 _atom_site_fract_y
 _atom_site_fract_z
 _atom_site_occupancy
  Tb  Tb0  1  0.499396  0.845147  0.036048  1
  Tb  Tb1  1  0.844338  0.501690  0.965664  1
  Tb  Tb2  1  0.499479  0.154808  0.532139  1
  Tb  Tb3  1  0.345097  0.999556  0.784142  1
  Tb  Tb4  1  0.655742  0.000953  0.284267  1
  Y  Y5  1  0.999103  0.344748  0.218691  1
  Y  Y6  1  0.001462  0.656994  0.713960  1
  Y  Y7  1  0.154931  0.500271  0.465622  1
  Hf  Hf8  1  0.852855  0.006618  0.874500  1
  Hf  Hf9  1  0.504887  0.648473  0.621046  1
  Hf  Hf10  1  0.353094  0.492674  0.876023  1
  Hf  Hf11  1  0.491423  0.349289  0.125840  1
  Hf  Hf12  1  0.647452  0.510529  0.377037  1
  Hf  Hf13  1  0.993824  0.147444  0.625892  1
  Hf  Hf14  1  0.004244  0.852066  0.124431  1
  Si  Si15  1  0.361296  0.289176  0.320569  1
  Si  Si16  1  0.638763  0.702110  0.815265  1
  Si  Si17  1  0.199573  0.863948  0.560884  1
  Si  Si18  1  0.139258  0.796575  0.932881  1
  Si  Si19  1  0.797790  0.140246  0.066997  1
  Si  Si20  1  0.870707  0.196960  0.430432  1
  Si  Si21  1  0.299536  0.360441  0.682773  1
  Si  Si22  1  0.702775  0.638188  0.183707  1
  Si  Si23  1  0.293484  0.046183  0.189426  1
  Si  Si24  1  0.705362  0.949019  0.683571  1
  Si  Si25  1  0.438910  0.797490  0.430652  1
  Si  Si26  1  0.204355  0.550108  0.066550  1
  Si  Si27  1  0.550571  0.204096  0.934510  1
  Si  Si28  1  0.794606  0.446437  0.566508  1
  Si  Si29  1  0.050583  0.296194  0.816433  1
  Si  Si30  1  0.956525  0.714820  0.317814  1
  Mo  Mo31  1  0.173838  0.174044  0.002039  1
  Mo  Mo32  1  0.827292  0.827186  0.499113  1
  Mo  Mo33  1  0.323147  0.674625  0.250214  1
  Mo  Mo34  1  0.676524  0.325220  0.750011  1
  Mo  Mo35  1  0.147778  0.995670  0.374347  1
