# generated using pymatgen
data_YHo3(TcB2)4
_symmetry_space_group_name_H-M   'P 1'
_cell_length_a   5.28659400
_cell_length_b   5.95019545
_cell_length_c   6.44084600
_cell_angle_alpha   90.02283136
_cell_angle_beta   90.00000000
_cell_angle_gamma   90.00000000
_symmetry_Int_Tables_number   1
_chemical_formula_structural   YHo3(TcB2)4
_chemical_formula_sum   'Y1 Ho3 Tc4 B8'
_cell_volume   202.60495900
_cell_formula_units_Z   1
loop_
 _symmetry_equiv_pos_site_id
 _symmetry_equiv_pos_as_xyz
  1  'x, y, z'
loop_
 _atom_site_type_symbol
 _atom_site_label
 _atom_site_symmetry_multiplicity
 _atom_site_fract_x
 _atom_site_fract_y
 _atom_site_fract_z
 _atom_site_occupancy
  Y  Y0  1  0.750000  0.485955  0.839472  1
  Ho  Ho1  1  0.250000  0.014675  0.338670  1
  Ho  Ho2  1  0.250000  0.514772  0.161421  1
  Ho  Ho3  1  0.750000  0.985968  0.660486  1
  Tc  Tc4  1  0.250000  0.181361  0.815076  1
  Tc  Tc5  1  0.250000  0.682119  0.684598  1
  Tc  Tc6  1  0.750000  0.819024  0.185935  1
  Tc  Tc7  1  0.750000  0.318220  0.315214  1
  B  B8  1  0.078443  0.370177  0.535577  1
  B  B9  1  0.421844  0.870024  0.963951  1
  B  B10  1  0.577976  0.629699  0.464004  1
  B  B11  1  0.921788  0.129053  0.036033  1
  B  B12  1  0.922024  0.629699  0.464004  1
  B  B13  1  0.578212  0.129053  0.036033  1
  B  B14  1  0.421557  0.370177  0.535577  1
  B  B15  1  0.078156  0.870024  0.963951  1
