# generated using pymatgen
data_Lu4Ti5ReSi8
_symmetry_space_group_name_H-M   'P 1'
_cell_length_a   6.92155700
_cell_length_b   6.93058149
_cell_length_c   12.71701401
_cell_angle_alpha   90.04441976
_cell_angle_beta   90.00000000
_cell_angle_gamma   90.00000000
_symmetry_Int_Tables_number   1
_chemical_formula_structural   Lu4Ti5ReSi8
_chemical_formula_sum   'Lu8 Ti10 Re2 Si16'
_cell_volume   610.04025423
_cell_formula_units_Z   2
loop_
 _symmetry_equiv_pos_site_id
 _symmetry_equiv_pos_as_xyz
  1  'x, y, z'
loop_
 _atom_site_type_symbol
 _atom_site_label
 _atom_site_symmetry_multiplicity
 _atom_site_fract_x
 _atom_site_fract_y
 _atom_site_fract_z
 _atom_site_occupancy
  Lu  Lu0  1  0.999541  0.658562  0.030576  1
  Lu  Lu1  1  0.000410  0.340624  0.534216  1
  Lu  Lu2  1  0.339953  0.002512  0.468555  1
  Lu  Lu3  1  0.158766  0.498744  0.782769  1
  Lu  Lu4  1  0.839953  0.497488  0.281445  1
  Lu  Lu5  1  0.500410  0.159376  0.215784  1
  Lu  Lu6  1  0.499541  0.841438  0.719424  1
  Lu  Lu7  1  0.658766  0.001256  0.967231  1
  Ti  Ti8  1  0.672375  0.671897  0.501476  1
  Ti  Ti9  1  0.172375  0.828103  0.248524  1
  Ti  Ti10  1  0.993125  0.846574  0.626789  1
  Ti  Ti11  1  0.004750  0.151379  0.122667  1
  Ti  Ti12  1  0.849698  0.994452  0.376680  1
  Ti  Ti13  1  0.349698  0.505548  0.373320  1
  Ti  Ti14  1  0.652686  0.494258  0.875917  1
  Ti  Ti15  1  0.504750  0.348621  0.627333  1
  Ti  Ti16  1  0.493125  0.653426  0.123211  1
  Ti  Ti17  1  0.152686  0.005742  0.874083  1
  Re  Re18  1  0.329871  0.326888  0.998324  1
  Re  Re19  1  0.829871  0.173112  0.751676  1
  Si  Si20  1  0.046663  0.705365  0.434294  1
  Si  Si21  1  0.632404  0.295728  0.433049  1
  Si  Si22  1  0.368730  0.702554  0.931542  1
  Si  Si23  1  0.201840  0.130819  0.681876  1
  Si  Si24  1  0.296022  0.633101  0.567518  1
  Si  Si25  1  0.701840  0.369181  0.068124  1
  Si  Si26  1  0.796022  0.866899  0.182482  1
  Si  Si27  1  0.132404  0.204272  0.316951  1
  Si  Si28  1  0.954303  0.291777  0.934237  1
  Si  Si29  1  0.706754  0.047958  0.567950  1
  Si  Si30  1  0.206754  0.452042  0.182050  1
  Si  Si31  1  0.792109  0.544582  0.685131  1
  Si  Si32  1  0.454303  0.208223  0.815763  1
  Si  Si33  1  0.546663  0.794635  0.315706  1
  Si  Si34  1  0.292109  0.955418  0.064869  1
  Si  Si35  1  0.868730  0.797446  0.818458  1
