# generated using pymatgen
data_Tb2PaMn8CoP6
_symmetry_space_group_name_H-M   'P 1'
_cell_length_a   3.66691500
_cell_length_b   10.79959800
_cell_length_c   12.60220200
_cell_angle_alpha   90.00000000
_cell_angle_beta   90.00000000
_cell_angle_gamma   90.00000000
_symmetry_Int_Tables_number   1
_chemical_formula_structural   Tb2PaMn8CoP6
_chemical_formula_sum   'Tb4 Pa2 Mn16 Co2 P12'
_cell_volume   499.06242140
_cell_formula_units_Z   2
loop_
 _symmetry_equiv_pos_site_id
 _symmetry_equiv_pos_as_xyz
  1  'x, y, z'
loop_
 _atom_site_type_symbol
 _atom_site_label
 _atom_site_symmetry_multiplicity
 _atom_site_fract_x
 _atom_site_fract_y
 _atom_site_fract_z
 _atom_site_occupancy
  Tb  Tb0  1  0.500000  0.818536  0.206431  1
  Tb  Tb1  1  0.500000  0.181464  0.206431  1
  Tb  Tb2  1  0.000000  0.681464  0.793569  1
  Tb  Tb3  1  0.000000  0.318536  0.793569  1
  Pa  Pa4  1  0.000000  0.500000  0.535655  1
  Pa  Pa5  1  0.500000  0.000000  0.464345  1
  Mn  Mn6  1  0.500000  0.500000  0.163907  1
  Mn  Mn7  1  0.000000  0.000000  0.836093  1
  Mn  Mn8  1  0.000000  0.500000  0.988250  1
  Mn  Mn9  1  0.500000  0.000000  0.011750  1
  Mn  Mn10  1  0.500000  0.333496  0.996361  1
  Mn  Mn11  1  0.500000  0.666504  0.996361  1
  Mn  Mn12  1  0.000000  0.166504  0.003639  1
  Mn  Mn13  1  0.000000  0.833496  0.003639  1
  Mn  Mn14  1  0.500000  0.301465  0.433151  1
  Mn  Mn15  1  0.500000  0.698535  0.433151  1
  Mn  Mn16  1  0.000000  0.198535  0.566849  1
  Mn  Mn17  1  0.000000  0.801465  0.566849  1
  Mn  Mn18  1  0.500000  0.885467  0.703792  1
  Mn  Mn19  1  0.500000  0.114533  0.703792  1
  Mn  Mn20  1  0.000000  0.614533  0.296208  1
  Mn  Mn21  1  0.000000  0.385467  0.296208  1
  Co  Co22  1  0.500000  0.500000  0.695770  1
  Co  Co23  1  0.000000  0.000000  0.304230  1
  P  P24  1  0.500000  0.500000  0.877207  1
  P  P25  1  0.000000  0.000000  0.122793  1
  P  P26  1  0.500000  0.500000  0.357409  1
  P  P27  1  0.000000  0.000000  0.642591  1
  P  P28  1  0.500000  0.310033  0.618542  1
  P  P29  1  0.500000  0.689967  0.618542  1
  P  P30  1  0.000000  0.189967  0.381458  1
  P  P31  1  0.000000  0.810033  0.381458  1
  P  P32  1  0.500000  0.847239  0.887014  1
  P  P33  1  0.500000  0.152761  0.887014  1
  P  P34  1  0.000000  0.652761  0.112986  1
  P  P35  1  0.000000  0.347239  0.112986  1
