# generated using pymatgen
data_YLuPa2(Al3Ir)6
_symmetry_space_group_name_H-M   'P 1'
_cell_length_a   7.58939923
_cell_length_b   7.59934589
_cell_length_c   9.35617200
_cell_angle_alpha   90.00000000
_cell_angle_beta   90.00000000
_cell_angle_gamma   119.69446901
_symmetry_Int_Tables_number   1
_chemical_formula_structural   YLuPa2(Al3Ir)6
_chemical_formula_sum   'Y1 Lu1 Pa2 Al18 Ir6'
_cell_volume   468.75002132
_cell_formula_units_Z   1
loop_
 _symmetry_equiv_pos_site_id
 _symmetry_equiv_pos_as_xyz
  1  'x, y, z'
loop_
 _atom_site_type_symbol
 _atom_site_label
 _atom_site_symmetry_multiplicity
 _atom_site_fract_x
 _atom_site_fract_y
 _atom_site_fract_z
 _atom_site_occupancy
  Y  Y0  1  0.669499  0.993139  0.250000  1
  Lu  Lu1  1  0.329974  0.006886  0.750000  1
  Pa  Pa2  1  0.998221  0.671015  0.250000  1
  Pa  Pa3  1  0.001853  0.328871  0.750000  1
  Al  Al4  1  0.131444  0.127098  0.250000  1
  Al  Al5  1  0.869599  0.873058  0.750000  1
  Al  Al6  1  0.000822  0.331657  0.077692  1
  Al  Al7  1  0.000343  0.669449  0.921202  1
  Al  Al8  1  0.000343  0.669449  0.578798  1
  Al  Al9  1  0.337938  0.003195  0.426718  1
  Al  Al10  1  0.000822  0.331657  0.422308  1
  Al  Al11  1  0.660858  0.996713  0.575443  1
  Al  Al12  1  0.660858  0.996713  0.924557  1
  Al  Al13  1  0.337938  0.003195  0.073282  1
  Al  Al14  1  0.335129  0.332816  0.554518  1
  Al  Al15  1  0.664936  0.666359  0.446854  1
  Al  Al16  1  0.664936  0.666359  0.053146  1
  Al  Al17  1  0.335129  0.332816  0.945482  1
  Al  Al18  1  0.341057  0.547340  0.250000  1
  Al  Al19  1  0.657844  0.451350  0.750000  1
  Al  Al20  1  0.548807  0.340686  0.250000  1
  Al  Al21  1  0.450846  0.659750  0.750000  1
  Ir  Ir22  1  0.676075  0.329807  0.998997  1
  Ir  Ir23  1  0.323518  0.670188  0.000065  1
  Ir  Ir24  1  0.323518  0.670188  0.499935  1
  Ir  Ir25  1  0.676075  0.329807  0.501003  1
  Ir  Ir26  1  0.000809  0.000219  0.999329  1
  Ir  Ir27  1  0.000809  0.000219  0.500671  1
