# generated using pymatgen
data_YbSm6PtBr12
_symmetry_space_group_name_H-M   'P 1'
_cell_length_a   9.44556158
_cell_length_b   9.44556016
_cell_length_c   9.44556246
_cell_angle_alpha   107.04711245
_cell_angle_beta   107.04712246
_cell_angle_gamma   107.04712221
_symmetry_Int_Tables_number   1
_chemical_formula_structural   YbSm6PtBr12
_chemical_formula_sum   'Yb1 Sm6 Pt1 Br12'
_cell_volume   700.92127262
_cell_formula_units_Z   1
loop_
 _symmetry_equiv_pos_site_id
 _symmetry_equiv_pos_as_xyz
  1  'x, y, z'
loop_
 _atom_site_type_symbol
 _atom_site_label
 _atom_site_symmetry_multiplicity
 _atom_site_fract_x
 _atom_site_fract_y
 _atom_site_fract_z
 _atom_site_occupancy
  Yb  Yb0  1  0.500000  0.500000  0.500000  1
  Sm  Sm1  1  0.105980  0.028411  0.318459  1
  Sm  Sm2  1  0.318459  0.105980  0.028411  1
  Sm  Sm3  1  0.028411  0.318459  0.105980  1
  Sm  Sm4  1  0.894020  0.971589  0.681541  1
  Sm  Sm5  1  0.681541  0.894020  0.971589  1
  Sm  Sm6  1  0.971589  0.681541  0.894020  1
  Pt  Pt7  1  0.000000  0.000000  0.000000  1
  Br  Br8  1  0.072886  0.683231  0.222450  1
  Br  Br9  1  0.222450  0.072886  0.683231  1
  Br  Br10  1  0.683231  0.222450  0.072886  1
  Br  Br11  1  0.927114  0.316769  0.777550  1
  Br  Br12  1  0.777550  0.927114  0.316769  1
  Br  Br13  1  0.316769  0.777550  0.927114  1
  Br  Br14  1  0.458708  0.164607  0.382589  1
  Br  Br15  1  0.382589  0.458708  0.164607  1
  Br  Br16  1  0.164607  0.382589  0.458708  1
  Br  Br17  1  0.541292  0.835393  0.617411  1
  Br  Br18  1  0.617411  0.541292  0.835393  1
  Br  Br19  1  0.835393  0.617411  0.541292  1
