# generated using pymatgen
data_Tb2Mg2AgRu
_symmetry_space_group_name_H-M   'P 1'
_cell_length_a   4.09564800
_cell_length_b   7.37079675
_cell_length_c   8.96479700
_cell_angle_alpha   87.31617922
_cell_angle_beta   90.00000000
_cell_angle_gamma   90.00000000
_symmetry_Int_Tables_number   1
_chemical_formula_structural   Tb2Mg2AgRu
_chemical_formula_sum   'Tb4 Mg4 Ag2 Ru2'
_cell_volume   270.33414093
_cell_formula_units_Z   2
loop_
 _symmetry_equiv_pos_site_id
 _symmetry_equiv_pos_as_xyz
  1  'x, y, z'
loop_
 _atom_site_type_symbol
 _atom_site_label
 _atom_site_symmetry_multiplicity
 _atom_site_fract_x
 _atom_site_fract_y
 _atom_site_fract_z
 _atom_site_occupancy
  Tb  Tb0  1  0.250000  0.522379  0.158942  1
  Tb  Tb1  1  0.750000  0.477621  0.841058  1
  Tb  Tb2  1  0.750000  0.944995  0.697632  1
  Tb  Tb3  1  0.250000  0.055005  0.302368  1
  Mg  Mg4  1  0.250000  0.641268  0.570103  1
  Mg  Mg5  1  0.750000  0.358732  0.429897  1
  Mg  Mg6  1  0.750000  0.864444  0.054391  1
  Mg  Mg7  1  0.250000  0.135556  0.945609  1
  Ag  Ag8  1  0.750000  0.742584  0.368786  1
  Ag  Ag9  1  0.250000  0.257416  0.631214  1
  Ru  Ru10  1  0.250000  0.749870  0.864648  1
  Ru  Ru11  1  0.750000  0.250130  0.135352  1
