# generated using pymatgen
data_Dy4AlZn11
_symmetry_space_group_name_H-M   'P 1'
_cell_length_a   4.40773000
_cell_length_b   6.66384123
_cell_length_c   10.11817589
_cell_angle_alpha   89.93011193
_cell_angle_beta   90.00000000
_cell_angle_gamma   90.00000000
_symmetry_Int_Tables_number   1
_chemical_formula_structural   Dy4AlZn11
_chemical_formula_sum   'Dy4 Al1 Zn11'
_cell_volume   297.19501917
_cell_formula_units_Z   1
loop_
 _symmetry_equiv_pos_site_id
 _symmetry_equiv_pos_as_xyz
  1  'x, y, z'
loop_
 _atom_site_type_symbol
 _atom_site_label
 _atom_site_symmetry_multiplicity
 _atom_site_fract_x
 _atom_site_fract_y
 _atom_site_fract_z
 _atom_site_occupancy
  Dy  Dy0  1  0.250000  0.277086  0.659564  1
  Dy  Dy1  1  0.750000  0.721246  0.338799  1
  Dy  Dy2  1  0.250000  0.777245  0.836331  1
  Dy  Dy3  1  0.750000  0.220713  0.162999  1
  Al  Al4  1  0.250000  0.538779  0.108238  1
  Zn  Zn5  1  0.750000  0.462514  0.892717  1
  Zn  Zn6  1  0.250000  0.036816  0.392717  1
  Zn  Zn7  1  0.750000  0.962984  0.606786  1
  Zn  Zn8  1  0.750000  0.279638  0.457089  1
  Zn  Zn9  1  0.250000  0.720318  0.543232  1
  Zn  Zn10  1  0.750000  0.778484  0.043630  1
  Zn  Zn11  1  0.250000  0.219297  0.956048  1
  Zn  Zn12  1  0.750000  0.579775  0.646726  1
  Zn  Zn13  1  0.250000  0.421168  0.354945  1
  Zn  Zn14  1  0.750000  0.079477  0.853947  1
  Zn  Zn15  1  0.250000  0.924460  0.146230  1
