# generated using pymatgen
data_Rb4Zr6AsBr18
_symmetry_space_group_name_H-M   'P 1'
_cell_length_a   11.02944658
_cell_length_b   11.02944632
_cell_length_c   10.72431349
_cell_angle_alpha   77.20011817
_cell_angle_beta   77.20011240
_cell_angle_gamma   117.63129386
_symmetry_Int_Tables_number   1
_chemical_formula_structural   Rb4Zr6AsBr18
_chemical_formula_sum   'Rb4 Zr6 As1 Br18'
_cell_volume   1044.66921643
_cell_formula_units_Z   1
loop_
 _symmetry_equiv_pos_site_id
 _symmetry_equiv_pos_as_xyz
  1  'x, y, z'
loop_
 _atom_site_type_symbol
 _atom_site_label
 _atom_site_symmetry_multiplicity
 _atom_site_fract_x
 _atom_site_fract_y
 _atom_site_fract_z
 _atom_site_occupancy
  Rb  Rb0  1  0.767683  0.445984  0.685485  1
  Rb  Rb1  1  0.554016  0.232317  0.314515  1
  Rb  Rb2  1  0.232317  0.554016  0.314515  1
  Rb  Rb3  1  0.445984  0.767683  0.685485  1
  Zr  Zr4  1  0.127176  0.127176  0.146105  1
  Zr  Zr5  1  0.872824  0.872824  0.853895  1
  Zr  Zr6  1  0.946630  0.756165  0.155098  1
  Zr  Zr7  1  0.243835  0.053370  0.844902  1
  Zr  Zr8  1  0.053370  0.243835  0.844902  1
  Zr  Zr9  1  0.756165  0.946630  0.155098  1
  As  As10  1  0.000000  0.000000  0.000000  1
  Br  Br11  1  0.805753  0.598200  0.010484  1
  Br  Br12  1  0.401801  0.194247  0.989516  1
  Br  Br13  1  0.194247  0.401801  0.989516  1
  Br  Br14  1  0.598199  0.805753  0.010484  1
  Br  Br15  1  0.206387  0.793613  0.000000  1
  Br  Br16  1  0.793613  0.206387  0.000000  1
  Br  Br17  1  0.323565  0.323565  0.669489  1
  Br  Br18  1  0.676435  0.676435  0.330511  1
  Br  Br19  1  0.886769  0.492229  0.329726  1
  Br  Br20  1  0.507771  0.113231  0.670274  1
  Br  Br21  1  0.113231  0.507771  0.670274  1
  Br  Br22  1  0.492229  0.886769  0.329726  1
  Br  Br23  1  0.266662  0.266662  0.298553  1
  Br  Br24  1  0.733338  0.733338  0.701447  1
  Br  Br25  1  0.080806  0.874020  0.321257  1
  Br  Br26  1  0.125980  0.919194  0.678743  1
  Br  Br27  1  0.919194  0.125980  0.678743  1
  Br  Br28  1  0.874020  0.080806  0.321257  1
