# generated using pymatgen
data_DyHoCo4(PRu)6
_symmetry_space_group_name_H-M   'P 1'
_cell_length_a   3.78556500
_cell_length_b   10.62805400
_cell_length_c   12.11333900
_cell_angle_alpha   90.00000000
_cell_angle_beta   90.00000000
_cell_angle_gamma   90.00000000
_symmetry_Int_Tables_number   1
_chemical_formula_structural   DyHoCo4(PRu)6
_chemical_formula_sum   'Dy2 Ho2 Co8 P12 Ru12'
_cell_volume   487.35826032
_cell_formula_units_Z   2
loop_
 _symmetry_equiv_pos_site_id
 _symmetry_equiv_pos_as_xyz
  1  'x, y, z'
loop_
 _atom_site_type_symbol
 _atom_site_label
 _atom_site_symmetry_multiplicity
 _atom_site_fract_x
 _atom_site_fract_y
 _atom_site_fract_z
 _atom_site_occupancy
  Dy  Dy0  1  0.250000  0.584449  0.706642  1
  Dy  Dy1  1  0.250000  0.915551  0.206642  1
  Ho  Ho2  1  0.750000  0.415491  0.293408  1
  Ho  Ho3  1  0.750000  0.084509  0.793408  1
  Co  Co4  1  0.250000  0.888035  0.695965  1
  Co  Co5  1  0.250000  0.611965  0.195965  1
  Co  Co6  1  0.750000  0.112327  0.304261  1
  Co  Co7  1  0.750000  0.387673  0.804261  1
  Co  Co8  1  0.250000  0.462808  0.935160  1
  Co  Co9  1  0.250000  0.037192  0.435160  1
  Co  Co10  1  0.750000  0.536982  0.065174  1
  Co  Co11  1  0.750000  0.963018  0.565174  1
  P  P12  1  0.250000  0.425753  0.112952  1
  P  P13  1  0.250000  0.074247  0.612952  1
  P  P14  1  0.750000  0.574251  0.887448  1
  P  P15  1  0.750000  0.925749  0.387448  1
  P  P16  1  0.250000  0.271645  0.871323  1
  P  P17  1  0.250000  0.228355  0.371323  1
  P  P18  1  0.750000  0.728210  0.128448  1
  P  P19  1  0.750000  0.771790  0.628448  1
  P  P20  1  0.250000  0.601129  0.386847  1
  P  P21  1  0.250000  0.898871  0.886847  1
  P  P22  1  0.750000  0.398566  0.612967  1
  P  P23  1  0.750000  0.101434  0.112967  1
  Ru  Ru24  1  0.250000  0.706355  0.986299  1
  Ru  Ru25  1  0.250000  0.793645  0.486299  1
  Ru  Ru26  1  0.750000  0.293633  0.013682  1
  Ru  Ru27  1  0.750000  0.206367  0.513682  1
  Ru  Ru28  1  0.250000  0.405185  0.485524  1
  Ru  Ru29  1  0.250000  0.094815  0.985524  1
  Ru  Ru30  1  0.750000  0.594604  0.513944  1
  Ru  Ru31  1  0.750000  0.905396  0.013944  1
  Ru  Ru32  1  0.250000  0.224083  0.180385  1
  Ru  Ru33  1  0.250000  0.275917  0.680385  1
  Ru  Ru34  1  0.750000  0.776175  0.819572  1
  Ru  Ru35  1  0.750000  0.723825  0.319572  1
