# generated using pymatgen
data_La6Pr7Nd3(CdPd)4
_symmetry_space_group_name_H-M   'P 1'
_cell_length_a   10.11542715
_cell_length_b   10.13416074
_cell_length_c   10.12758500
_cell_angle_alpha   59.89914813
_cell_angle_beta   60.08268778
_cell_angle_gamma   60.12857071
_symmetry_Int_Tables_number   1
_chemical_formula_structural   La6Pr7Nd3(CdPd)4
_chemical_formula_sum   'La6 Pr7 Nd3 Cd4 Pd4'
_cell_volume   734.71881716
_cell_formula_units_Z   1
loop_
 _symmetry_equiv_pos_site_id
 _symmetry_equiv_pos_as_xyz
  1  'x, y, z'
loop_
 _atom_site_type_symbol
 _atom_site_label
 _atom_site_symmetry_multiplicity
 _atom_site_fract_x
 _atom_site_fract_y
 _atom_site_fract_z
 _atom_site_occupancy
  La  La0  1  0.349967  0.351446  0.351713  1
  La  La1  1  0.351446  0.349967  0.946874  1
  La  La2  1  0.351320  0.946001  0.350609  1
  La  La3  1  0.946001  0.351320  0.352070  1
  La  La4  1  0.808503  0.192057  0.191979  1
  La  La5  1  0.192057  0.808503  0.807462  1
  Pr  Pr6  1  0.807037  0.807037  0.192963  1
  Pr  Pr7  1  0.935336  0.564896  0.566094  1
  Pr  Pr8  1  0.564896  0.935336  0.933674  1
  Pr  Pr9  1  0.564649  0.935504  0.566022  1
  Pr  Pr10  1  0.935504  0.564649  0.933826  1
  Pr  Pr11  1  0.565301  0.565301  0.934699  1
  Pr  Pr12  1  0.934604  0.934604  0.565396  1
  Nd  Nd13  1  0.192917  0.807608  0.192819  1
  Nd  Nd14  1  0.807608  0.192917  0.806656  1
  Nd  Nd15  1  0.192677  0.192677  0.807323  1
  Cd  Cd16  1  0.580955  0.579585  0.579838  1
  Cd  Cd17  1  0.579585  0.580955  0.259620  1
  Cd  Cd18  1  0.579780  0.259348  0.581138  1
  Cd  Cd19  1  0.259348  0.579780  0.579734  1
  Pd  Pd20  1  0.142514  0.143384  0.143370  1
  Pd  Pd21  1  0.143384  0.142514  0.570733  1
  Pd  Pd22  1  0.144074  0.570539  0.142276  1
  Pd  Pd23  1  0.570539  0.144074  0.143112  1
