# generated using pymatgen
data_Dy14Ho6(IrRh3)3
_symmetry_space_group_name_H-M   'P 1'
_cell_length_a   10.88160502
_cell_length_b   10.88182457
_cell_length_c   6.35952601
_cell_angle_alpha   90.00082752
_cell_angle_beta   89.99439770
_cell_angle_gamma   89.93919134
_symmetry_Int_Tables_number   1
_chemical_formula_structural   Dy14Ho6(IrRh3)3
_chemical_formula_sum   'Dy14 Ho6 Ir3 Rh9'
_cell_volume   753.04196610
_cell_formula_units_Z   1
loop_
 _symmetry_equiv_pos_site_id
 _symmetry_equiv_pos_as_xyz
  1  'x, y, z'
loop_
 _atom_site_type_symbol
 _atom_site_label
 _atom_site_symmetry_multiplicity
 _atom_site_fract_x
 _atom_site_fract_y
 _atom_site_fract_z
 _atom_site_occupancy
  Dy  Dy0  1  0.290882  0.089738  0.378344  1
  Dy  Dy1  1  0.291032  0.909980  0.878154  1
  Dy  Dy2  1  0.709168  0.088276  0.878222  1
  Dy  Dy3  1  0.708853  0.910148  0.378130  1
  Dy  Dy4  1  0.587519  0.789604  0.879316  1
  Dy  Dy5  1  0.587161  0.209571  0.378049  1
  Dy  Dy6  1  0.412405  0.789878  0.378797  1
  Dy  Dy7  1  0.410804  0.209592  0.879433  1
  Dy  Dy8  1  0.210328  0.412518  0.620645  1
  Dy  Dy9  1  0.210049  0.587527  0.121209  1
  Dy  Dy10  1  0.790494  0.412821  0.121945  1
  Dy  Dy11  1  0.790485  0.589184  0.620572  1
  Dy  Dy12  1  0.910381  0.709077  0.121580  1
  Dy  Dy13  1  0.911797  0.290837  0.621772  1
  Ho  Ho14  1  0.089968  0.708828  0.621711  1
  Ho  Ho15  1  0.089849  0.291260  0.121801  1
  Ho  Ho16  1  0.999858  0.999852  0.499902  1
  Ho  Ho17  1  0.000118  0.000229  0.000173  1
  Ho  Ho18  1  0.499727  0.499945  0.999906  1
  Ho  Ho19  1  0.500035  0.500284  0.500140  1
  Ir  Ir20  1  0.654447  0.653820  0.250010  1
  Ir  Ir21  1  0.346038  0.345512  0.249908  1
  Ir  Ir22  1  0.345361  0.654530  0.749937  1
  Rh  Rh23  1  0.846173  0.153941  0.249935  1
  Rh  Rh24  1  0.846627  0.846996  0.750188  1
  Rh  Rh25  1  0.152926  0.153513  0.749952  1
  Rh  Rh26  1  0.153153  0.846738  0.250205  1
  Rh  Rh27  1  0.654806  0.345189  0.750000  1
  Rh  Rh28  1  0.500259  0.000481  0.122436  1
  Rh  Rh29  1  0.500351  0.000730  0.623050  1
  Rh  Rh30  1  0.999346  0.499636  0.876986  1
  Rh  Rh31  1  0.999604  0.499763  0.377592  1
