# generated using pymatgen
data_Tb2Tm2Ga3SiRu4
_symmetry_space_group_name_H-M   'P 1'
_cell_length_a   4.44989600
_cell_length_b   7.10531674
_cell_length_c   7.12812766
_cell_angle_alpha   90.22798939
_cell_angle_beta   90.00000000
_cell_angle_gamma   90.00000000
_symmetry_Int_Tables_number   1
_chemical_formula_structural   Tb2Tm2Ga3SiRu4
_chemical_formula_sum   'Tb2 Tm2 Ga3 Si1 Ru4'
_cell_volume   225.37478962
_cell_formula_units_Z   1
loop_
 _symmetry_equiv_pos_site_id
 _symmetry_equiv_pos_as_xyz
  1  'x, y, z'
loop_
 _atom_site_type_symbol
 _atom_site_label
 _atom_site_symmetry_multiplicity
 _atom_site_fract_x
 _atom_site_fract_y
 _atom_site_fract_z
 _atom_site_occupancy
  Tb  Tb0  1  0.750000  0.014977  0.194191  1
  Tb  Tb1  1  0.750000  0.515889  0.308047  1
  Tm  Tm2  1  0.250000  0.985536  0.805997  1
  Tm  Tm3  1  0.250000  0.476833  0.695732  1
  Ga  Ga4  1  0.250000  0.303183  0.105579  1
  Ga  Ga5  1  0.750000  0.693116  0.890424  1
  Ga  Ga6  1  0.250000  0.800612  0.399648  1
  Si  Si7  1  0.750000  0.196712  0.602083  1
  Ru  Ru8  1  0.750000  0.857700  0.568075  1
  Ru  Ru9  1  0.250000  0.163350  0.448860  1
  Ru  Ru10  1  0.750000  0.330451  0.918770  1
  Ru  Ru11  1  0.250000  0.661641  0.062595  1
