# generated using pymatgen
data_Zr3Co8MoP6
_symmetry_space_group_name_H-M   'P 1'
_cell_length_a   11.95152806
_cell_length_b   11.94850437
_cell_length_c   3.66308600
_cell_angle_alpha   90.00000000
_cell_angle_beta   90.00000000
_cell_angle_gamma   119.99163191
_symmetry_Int_Tables_number   1
_chemical_formula_structural   Zr3Co8MoP6
_chemical_formula_sum   'Zr6 Co16 Mo2 P12'
_cell_volume   453.05543343
_cell_formula_units_Z   2
loop_
 _symmetry_equiv_pos_site_id
 _symmetry_equiv_pos_as_xyz
  1  'x, y, z'
loop_
 _atom_site_type_symbol
 _atom_site_label
 _atom_site_symmetry_multiplicity
 _atom_site_fract_x
 _atom_site_fract_y
 _atom_site_fract_z
 _atom_site_occupancy
  Zr  Zr0  1  0.819488  0.818667  0.500000  1
  Zr  Zr1  1  0.000000  0.175755  0.500000  1
  Zr  Zr2  1  0.334567  0.667756  0.000000  1
  Zr  Zr3  1  0.665433  0.333188  0.000000  1
  Zr  Zr4  1  0.000000  0.556899  0.000000  1
  Zr  Zr5  1  0.180512  0.999180  0.500000  1
  Co  Co6  1  0.624579  0.821277  0.000000  1
  Co  Co7  1  0.375421  0.196699  0.000000  1
  Co  Co8  1  0.000000  0.722810  0.500000  1
  Co  Co9  1  0.279671  0.279206  0.500000  1
  Co  Co10  1  0.871145  0.351034  0.500000  1
  Co  Co11  1  0.720329  0.999536  0.500000  1
  Co  Co12  1  0.815631  0.625949  0.000000  1
  Co  Co13  1  0.184369  0.810317  0.000000  1
  Co  Co14  1  0.359706  0.876572  0.500000  1
  Co  Co15  1  0.128855  0.479889  0.500000  1
  Co  Co16  1  0.640294  0.516866  0.500000  1
  Co  Co17  1  0.000000  0.999877  0.000000  1
  Co  Co18  1  0.514659  0.645098  0.500000  1
  Co  Co19  1  0.485341  0.130438  0.500000  1
  Co  Co20  1  0.195743  0.371435  0.000000  1
  Co  Co21  1  0.804257  0.175693  0.000000  1
  Mo  Mo22  1  0.446797  0.448540  0.000000  1
  Mo  Mo23  1  0.553203  0.001744  0.000000  1
  P  P24  1  0.000000  0.345650  0.000000  1
  P  P25  1  0.824342  0.517843  0.500000  1
  P  P26  1  0.686390  0.166442  0.500000  1
  P  P27  1  0.177334  0.174873  0.000000  1
  P  P28  1  0.640437  0.644404  0.000000  1
  P  P29  1  0.822666  0.997537  0.000000  1
  P  P30  1  0.519537  0.833680  0.500000  1
  P  P31  1  0.175658  0.693499  0.500000  1
  P  P32  1  0.359563  0.003967  0.000000  1
  P  P33  1  0.480463  0.314143  0.500000  1
  P  P34  1  0.000000  0.823489  0.000000  1
  P  P35  1  0.313610  0.480050  0.500000  1
