# generated using pymatgen
data_Hf3Ta3Al16Ir7
_symmetry_space_group_name_H-M   'P 1'
_cell_length_a   8.62480863
_cell_length_b   8.64989515
_cell_length_c   8.67354398
_cell_angle_alpha   59.71808182
_cell_angle_beta   60.00471569
_cell_angle_gamma   60.27721228
_symmetry_Int_Tables_number   1
_chemical_formula_structural   Hf3Ta3Al16Ir7
_chemical_formula_sum   'Hf3 Ta3 Al16 Ir7'
_cell_volume   457.53176228
_cell_formula_units_Z   1
loop_
 _symmetry_equiv_pos_site_id
 _symmetry_equiv_pos_as_xyz
  1  'x, y, z'
loop_
 _atom_site_type_symbol
 _atom_site_label
 _atom_site_symmetry_multiplicity
 _atom_site_fract_x
 _atom_site_fract_y
 _atom_site_fract_z
 _atom_site_occupancy
  Hf  Hf0  1  0.683801  0.316199  0.683801  1
  Hf  Hf1  1  0.317731  0.318302  0.681698  1
  Hf  Hf2  1  0.681698  0.682269  0.317731  1
  Ta  Ta3  1  0.675862  0.324138  0.322085  1
  Ta  Ta4  1  0.322085  0.677915  0.675862  1
  Ta  Ta5  1  0.328108  0.671892  0.328108  1
  Al  Al6  1  0.338123  0.339274  0.336321  1
  Al  Al7  1  0.659513  0.663299  0.662401  1
  Al  Al8  1  0.336701  0.340487  0.985213  1
  Al  Al9  1  0.336321  0.986281  0.338123  1
  Al  Al10  1  0.660726  0.661877  0.013719  1
  Al  Al11  1  0.662401  0.014787  0.659513  1
  Al  Al12  1  0.985213  0.337599  0.336701  1
  Al  Al13  1  0.013719  0.663679  0.660726  1
  Al  Al14  1  0.118647  0.118420  0.120998  1
  Al  Al15  1  0.882064  0.878710  0.879045  1
  Al  Al16  1  0.121290  0.117936  0.639819  1
  Al  Al17  1  0.120998  0.641934  0.118647  1
  Al  Al18  1  0.881580  0.881353  0.358066  1
  Al  Al19  1  0.879045  0.360181  0.882064  1
  Al  Al20  1  0.639819  0.120955  0.121290  1
  Al  Al21  1  0.358066  0.879002  0.881580  1
  Ir  Ir22  1  0.499076  0.998835  0.001165  1
  Ir  Ir23  1  0.001165  0.500924  0.499076  1
  Ir  Ir24  1  0.998678  0.501322  0.998678  1
  Ir  Ir25  1  0.498678  0.001322  0.498678  1
  Ir  Ir26  1  0.001395  0.998605  0.498866  1
  Ir  Ir27  1  0.498866  0.501134  0.001395  1
  Ir  Ir28  1  0.998628  0.001372  0.998628  1
