# generated using pymatgen
data_CeNd7AlPd24
_symmetry_space_group_name_H-M   'P 1'
_cell_length_a   8.47922434
_cell_length_b   8.47922434
_cell_length_c   8.47922434
_cell_angle_alpha   89.82236465
_cell_angle_beta   90.17763535
_cell_angle_gamma   90.17763535
_symmetry_Int_Tables_number   1
_chemical_formula_structural   CeNd7AlPd24
_chemical_formula_sum   'Ce1 Nd7 Al1 Pd24'
_cell_volume   609.62410258
_cell_formula_units_Z   1
loop_
 _symmetry_equiv_pos_site_id
 _symmetry_equiv_pos_as_xyz
  1  'x, y, z'
loop_
 _atom_site_type_symbol
 _atom_site_label
 _atom_site_symmetry_multiplicity
 _atom_site_fract_x
 _atom_site_fract_y
 _atom_site_fract_z
 _atom_site_occupancy
  Ce  Ce0  1  0.745713  0.254287  0.254287  1
  Nd  Nd1  1  0.250836  0.252089  0.252089  1
  Nd  Nd2  1  0.747919  0.747660  0.747660  1
  Nd  Nd3  1  0.747911  0.749164  0.252089  1
  Nd  Nd4  1  0.747911  0.252089  0.749164  1
  Nd  Nd5  1  0.252340  0.252081  0.747660  1
  Nd  Nd6  1  0.252340  0.747660  0.252081  1
  Nd  Nd7  1  0.252297  0.747703  0.747703  1
  Al  Al8  1  0.001043  0.998957  0.998957  1
  Pd  Pd9  1  0.259807  0.499282  0.000001  1
  Pd  Pd10  1  0.740167  0.497057  0.004744  1
  Pd  Pd11  1  0.995256  0.259833  0.497057  1
  Pd  Pd12  1  0.502943  0.259833  0.004744  1
  Pd  Pd13  1  0.999999  0.740193  0.499282  1
  Pd  Pd14  1  0.500718  0.740193  0.000001  1
  Pd  Pd15  1  0.502943  0.004744  0.259833  1
  Pd  Pd16  1  0.259807  0.000001  0.499282  1
  Pd  Pd17  1  0.500718  0.000001  0.740193  1
  Pd  Pd18  1  0.740167  0.004744  0.497057  1
  Pd  Pd19  1  0.995256  0.497057  0.259833  1
  Pd  Pd20  1  0.999999  0.499282  0.740193  1
  Pd  Pd21  1  0.252858  0.499556  0.499556  1
  Pd  Pd22  1  0.746810  0.496456  0.496456  1
  Pd  Pd23  1  0.503544  0.253190  0.496456  1
  Pd  Pd24  1  0.500444  0.747142  0.499556  1
  Pd  Pd25  1  0.503544  0.496456  0.253190  1
  Pd  Pd26  1  0.500444  0.499556  0.747142  1
  Pd  Pd27  1  0.290778  0.000013  0.000013  1
  Pd  Pd28  1  0.710845  0.002666  0.002666  1
  Pd  Pd29  1  0.997334  0.289155  0.002666  1
  Pd  Pd30  1  0.999987  0.709222  0.000013  1
  Pd  Pd31  1  0.997334  0.002666  0.289155  1
  Pd  Pd32  1  0.999987  0.000013  0.709222  1
