# generated using pymatgen
data_LaPr4GdU4O20
_symmetry_space_group_name_H-M   'P 1'
_cell_length_a   6.80450314
_cell_length_b   7.73050774
_cell_length_c   8.66757029
_cell_angle_alpha   101.54632175
_cell_angle_beta   97.71158232
_cell_angle_gamma   107.13269137
_symmetry_Int_Tables_number   1
_chemical_formula_structural   LaPr4GdU4O20
_chemical_formula_sum   'La1 Pr4 Gd1 U4 O20'
_cell_volume   417.70227227
_cell_formula_units_Z   1
loop_
 _symmetry_equiv_pos_site_id
 _symmetry_equiv_pos_as_xyz
  1  'x, y, z'
loop_
 _atom_site_type_symbol
 _atom_site_label
 _atom_site_symmetry_multiplicity
 _atom_site_fract_x
 _atom_site_fract_y
 _atom_site_fract_z
 _atom_site_occupancy
  La  La0  1  0.000000  0.500000  0.500000  1
  Pr  Pr1  1  0.611630  0.703400  0.700252  1
  Pr  Pr2  1  0.388370  0.296600  0.299748  1
  Pr  Pr3  1  0.199633  0.898143  0.893861  1
  Pr  Pr4  1  0.800367  0.101857  0.106139  1
  Gd  Gd5  1  0.000000  0.000000  0.500000  1
  U  U6  1  0.401906  0.804786  0.301718  1
  U  U7  1  0.198517  0.401869  0.902194  1
  U  U8  1  0.801483  0.598131  0.097806  1
  U  U9  1  0.598094  0.195214  0.698282  1
  O  O10  1  0.436748  0.534486  0.131584  1
  O  O11  1  0.557148  0.994113  0.837166  1
  O  O12  1  0.275744  0.152434  0.743004  1
  O  O13  1  0.362909  0.601780  0.436892  1
  O  O14  1  0.054758  0.731999  0.324141  1
  O  O15  1  0.442852  0.005887  0.162834  1
  O  O16  1  0.150779  0.190147  0.028342  1
  O  O17  1  0.563252  0.465514  0.868416  1
  O  O18  1  0.856550  0.342228  0.949856  1
  O  O19  1  0.256392  0.600786  0.765566  1
  O  O20  1  0.954423  0.777712  0.648258  1
  O  O21  1  0.355029  0.056208  0.454502  1
  O  O22  1  0.644971  0.943792  0.545498  1
  O  O23  1  0.045577  0.222288  0.351742  1
  O  O24  1  0.743608  0.399214  0.234434  1
  O  O25  1  0.143450  0.657772  0.050144  1
  O  O26  1  0.849221  0.809853  0.971658  1
  O  O27  1  0.945242  0.268001  0.675859  1
  O  O28  1  0.637091  0.398220  0.563108  1
  O  O29  1  0.724256  0.847566  0.256996  1
