# generated using pymatgen
data_Tb3Ho2Bi2Os
_symmetry_space_group_name_H-M   'P 1'
_cell_length_a   7.97104900
_cell_length_b   9.04748800
_cell_length_c   12.53685700
_cell_angle_alpha   90.00000000
_cell_angle_beta   90.00000000
_cell_angle_gamma   90.00000000
_symmetry_Int_Tables_number   1
_chemical_formula_structural   Tb3Ho2Bi2Os
_chemical_formula_sum   'Tb12 Ho8 Bi8 Os4'
_cell_volume   904.13267921
_cell_formula_units_Z   4
loop_
 _symmetry_equiv_pos_site_id
 _symmetry_equiv_pos_as_xyz
  1  'x, y, z'
loop_
 _atom_site_type_symbol
 _atom_site_label
 _atom_site_symmetry_multiplicity
 _atom_site_fract_x
 _atom_site_fract_y
 _atom_site_fract_z
 _atom_site_occupancy
  Tb  Tb0  1  0.839824  0.750000  0.792057  1
  Tb  Tb1  1  0.160176  0.250000  0.207943  1
  Tb  Tb2  1  0.339824  0.250000  0.707943  1
  Tb  Tb3  1  0.660176  0.750000  0.292057  1
  Tb  Tb4  1  0.374969  0.750000  0.690530  1
  Tb  Tb5  1  0.625031  0.250000  0.309470  1
  Tb  Tb6  1  0.874969  0.250000  0.809470  1
  Tb  Tb7  1  0.125031  0.750000  0.190530  1
  Tb  Tb8  1  0.943874  0.750000  0.504421  1
  Tb  Tb9  1  0.056126  0.250000  0.495579  1
  Tb  Tb10  1  0.443874  0.250000  0.995579  1
  Tb  Tb11  1  0.556126  0.750000  0.004421  1
  Ho  Ho12  1  0.673426  0.041496  0.564717  1
  Ho  Ho13  1  0.326574  0.958504  0.435283  1
  Ho  Ho14  1  0.173426  0.958504  0.935283  1
  Ho  Ho15  1  0.326574  0.541496  0.435283  1
  Ho  Ho16  1  0.826574  0.041496  0.064717  1
  Ho  Ho17  1  0.673426  0.458504  0.564717  1
  Ho  Ho18  1  0.826574  0.458504  0.064717  1
  Ho  Ho19  1  0.173426  0.541496  0.935283  1
  Bi  Bi20  1  0.566295  0.493371  0.827333  1
  Bi  Bi21  1  0.433705  0.506629  0.172667  1
  Bi  Bi22  1  0.066295  0.506629  0.672667  1
  Bi  Bi23  1  0.433705  0.993371  0.172667  1
  Bi  Bi24  1  0.933705  0.493371  0.327333  1
  Bi  Bi25  1  0.566295  0.006629  0.827333  1
  Bi  Bi26  1  0.933705  0.006629  0.327333  1
  Bi  Bi27  1  0.066295  0.993371  0.672667  1
  Os  Os28  1  0.574971  0.750000  0.509530  1
  Os  Os29  1  0.425029  0.250000  0.490470  1
  Os  Os30  1  0.074971  0.250000  0.990470  1
  Os  Os31  1  0.925029  0.750000  0.009530  1
