# generated using pymatgen
data_Tb6Sm4Si5Hg
_symmetry_space_group_name_H-M   'P 1'
_cell_length_a   7.63186884
_cell_length_b   7.63186806
_cell_length_c   9.03856700
_cell_angle_alpha   114.97251154
_cell_angle_beta   114.97252538
_cell_angle_gamma   90.00000630
_symmetry_Int_Tables_number   1
_chemical_formula_structural   Tb6Sm4Si5Hg
_chemical_formula_sum   'Tb6 Sm4 Si5 Hg1'
_cell_volume   422.32138864
_cell_formula_units_Z   1
loop_
 _symmetry_equiv_pos_site_id
 _symmetry_equiv_pos_as_xyz
  1  'x, y, z'
loop_
 _atom_site_type_symbol
 _atom_site_label
 _atom_site_symmetry_multiplicity
 _atom_site_fract_x
 _atom_site_fract_y
 _atom_site_fract_z
 _atom_site_occupancy
  Tb  Tb0  1  0.522206  0.522206  0.044411  1
  Tb  Tb1  1  0.990295  0.990295  0.980588  1
  Tb  Tb2  1  0.975710  0.821483  0.279757  1
  Tb  Tb3  1  0.304047  0.458275  0.279757  1
  Tb  Tb4  1  0.821483  0.304047  0.279757  1
  Tb  Tb5  1  0.458275  0.975710  0.279757  1
  Sm  Sm6  1  0.043307  0.193275  0.717552  1
  Sm  Sm7  1  0.674246  0.524278  0.717552  1
  Sm  Sm8  1  0.193275  0.674246  0.717552  1
  Sm  Sm9  1  0.524278  0.043307  0.717552  1
  Si  Si10  1  0.237323  0.237323  0.474646  1
  Si  Si11  1  0.622395  0.880247  0.002905  1
  Si  Si12  1  0.380510  0.122657  0.002905  1
  Si  Si13  1  0.880247  0.380510  0.002905  1
  Si  Si14  1  0.122657  0.622395  0.002905  1
  Hg  Hg15  1  0.749747  0.749747  0.499493  1
