# generated using pymatgen
data_Sr2ThUBr12
_symmetry_space_group_name_H-M   'P 1'
_cell_length_a   7.66113550
_cell_length_b   7.66113580
_cell_length_c   14.05646447
_cell_angle_alpha   83.93498953
_cell_angle_beta   83.93498668
_cell_angle_gamma   119.35805991
_symmetry_Int_Tables_number   1
_chemical_formula_structural   Sr2ThUBr12
_chemical_formula_sum   'Sr2 Th1 U1 Br12'
_cell_volume   703.13760700
_cell_formula_units_Z   1
loop_
 _symmetry_equiv_pos_site_id
 _symmetry_equiv_pos_as_xyz
  1  'x, y, z'
loop_
 _atom_site_type_symbol
 _atom_site_label
 _atom_site_symmetry_multiplicity
 _atom_site_fract_x
 _atom_site_fract_y
 _atom_site_fract_z
 _atom_site_occupancy
  Sr  Sr0  1  0.084369  0.915631  0.250000  1
  Sr  Sr1  1  0.915811  0.084189  0.750000  1
  Th  Th2  1  0.419076  0.580924  0.250000  1
  U  U3  1  0.580988  0.419012  0.750000  1
  Br  Br4  1  0.318838  0.454253  0.635630  1
  Br  Br5  1  0.453896  0.312017  0.133763  1
  Br  Br6  1  0.234908  0.082012  0.866950  1
  Br  Br7  1  0.074866  0.227084  0.368955  1
  Br  Br8  1  0.169295  0.643440  0.129593  1
  Br  Br9  1  0.641783  0.175024  0.631597  1
  Br  Br10  1  0.356560  0.830705  0.370407  1
  Br  Br11  1  0.824976  0.358217  0.868403  1
  Br  Br12  1  0.772916  0.925134  0.131045  1
  Br  Br13  1  0.917988  0.765092  0.633050  1
  Br  Br14  1  0.545747  0.681162  0.864370  1
  Br  Br15  1  0.687983  0.546104  0.366237  1
