# generated using pymatgen
data_Nd4PBr6
_symmetry_space_group_name_H-M   'P 1'
_cell_length_a   4.15961100
_cell_length_b   13.58997400
_cell_length_c   14.34157500
_cell_angle_alpha   90.00000000
_cell_angle_beta   90.00000000
_cell_angle_gamma   90.00000000
_symmetry_Int_Tables_number   1
_chemical_formula_structural   Nd4PBr6
_chemical_formula_sum   'Nd8 P2 Br12'
_cell_volume   810.71496976
_cell_formula_units_Z   2
loop_
 _symmetry_equiv_pos_site_id
 _symmetry_equiv_pos_as_xyz
  1  'x, y, z'
loop_
 _atom_site_type_symbol
 _atom_site_label
 _atom_site_symmetry_multiplicity
 _atom_site_fract_x
 _atom_site_fract_y
 _atom_site_fract_z
 _atom_site_occupancy
  Nd  Nd0  1  0.500000  0.117895  0.341906  1
  Nd  Nd1  1  0.500000  0.882105  0.658094  1
  Nd  Nd2  1  0.500000  0.617895  0.158094  1
  Nd  Nd3  1  0.500000  0.382105  0.841906  1
  Nd  Nd4  1  0.000000  0.116181  0.577146  1
  Nd  Nd5  1  0.000000  0.883819  0.422854  1
  Nd  Nd6  1  0.000000  0.616181  0.922854  1
  Nd  Nd7  1  0.000000  0.383819  0.077146  1
  P  P8  1  0.500000  0.000000  0.500000  1
  P  P9  1  0.500000  0.500000  0.000000  1
  Br  Br10  1  0.500000  0.243127  0.162600  1
  Br  Br11  1  0.500000  0.756873  0.837400  1
  Br  Br12  1  0.500000  0.743127  0.337400  1
  Br  Br13  1  0.500000  0.256873  0.662600  1
  Br  Br14  1  0.000000  0.256580  0.412293  1
  Br  Br15  1  0.000000  0.743420  0.587707  1
  Br  Br16  1  0.000000  0.756580  0.087707  1
  Br  Br17  1  0.000000  0.243420  0.912293  1
  Br  Br18  1  0.000000  0.000375  0.242373  1
  Br  Br19  1  0.000000  0.999625  0.757627  1
  Br  Br20  1  0.000000  0.500375  0.257627  1
  Br  Br21  1  0.000000  0.499625  0.742373  1
