# generated using pymatgen
data_Tb3AlAu5
_symmetry_space_group_name_H-M   'P 1'
_cell_length_a   8.51488218
_cell_length_b   8.51488270
_cell_length_c   13.53542300
_cell_angle_alpha   90.00000000
_cell_angle_beta   90.00000000
_cell_angle_gamma   128.49773832
_symmetry_Int_Tables_number   1
_chemical_formula_structural   Tb3AlAu5
_chemical_formula_sum   'Tb12 Al4 Au20'
_cell_volume   768.04585746
_cell_formula_units_Z   4
loop_
 _symmetry_equiv_pos_site_id
 _symmetry_equiv_pos_as_xyz
  1  'x, y, z'
loop_
 _atom_site_type_symbol
 _atom_site_label
 _atom_site_symmetry_multiplicity
 _atom_site_fract_x
 _atom_site_fract_y
 _atom_site_fract_z
 _atom_site_occupancy
  Tb  Tb0  1  0.927791  0.072209  0.250000  1
  Tb  Tb1  1  0.072209  0.927791  0.750000  1
  Tb  Tb2  1  0.320417  0.679583  0.250000  1
  Tb  Tb3  1  0.679583  0.320417  0.750000  1
  Tb  Tb4  1  0.630643  0.369357  0.464556  1
  Tb  Tb5  1  0.369357  0.630643  0.535444  1
  Tb  Tb6  1  0.630643  0.369357  0.035444  1
  Tb  Tb7  1  0.369357  0.630643  0.964556  1
  Tb  Tb8  1  0.881601  0.118399  0.951537  1
  Tb  Tb9  1  0.118399  0.881601  0.048463  1
  Tb  Tb10  1  0.881601  0.118399  0.548463  1
  Tb  Tb11  1  0.118399  0.881601  0.451537  1
  Al  Al12  1  0.720405  0.279595  0.250000  1
  Al  Al13  1  0.279595  0.720405  0.750000  1
  Al  Al14  1  0.532680  0.467320  0.250000  1
  Al  Al15  1  0.467320  0.532680  0.750000  1
  Au  Au16  1  0.323167  0.069221  0.250000  1
  Au  Au17  1  0.069221  0.323167  0.750000  1
  Au  Au18  1  0.676833  0.930779  0.750000  1
  Au  Au19  1  0.930779  0.676833  0.250000  1
  Au  Au20  1  0.570075  0.003822  0.396568  1
  Au  Au21  1  0.003822  0.570075  0.603432  1
  Au  Au22  1  0.570075  0.003822  0.103432  1
  Au  Au23  1  0.003822  0.570075  0.896568  1
  Au  Au24  1  0.429925  0.996178  0.603432  1
  Au  Au25  1  0.996178  0.429925  0.396568  1
  Au  Au26  1  0.429925  0.996178  0.896568  1
  Au  Au27  1  0.996178  0.429925  0.103432  1
  Au  Au28  1  0.686103  0.741527  0.394533  1
  Au  Au29  1  0.741527  0.686103  0.605467  1
  Au  Au30  1  0.686103  0.741527  0.105467  1
  Au  Au31  1  0.741527  0.686103  0.894533  1
  Au  Au32  1  0.313897  0.258473  0.605467  1
  Au  Au33  1  0.258473  0.313897  0.394533  1
  Au  Au34  1  0.313897  0.258473  0.894533  1
  Au  Au35  1  0.258473  0.313897  0.105467  1
