# generated using pymatgen
data_Dy5Lu5(InSb)4
_symmetry_space_group_name_H-M   'P 1'
_cell_length_a   8.57624185
_cell_length_b   8.91500025
_cell_length_c   8.03557800
_cell_angle_alpha   90.03435176
_cell_angle_beta   90.10661157
_cell_angle_gamma   125.27660959
_symmetry_Int_Tables_number   1
_chemical_formula_structural   Dy5Lu5(InSb)4
_chemical_formula_sum   'Dy5 Lu5 In4 Sb4'
_cell_volume   501.55977054
_cell_formula_units_Z   1
loop_
 _symmetry_equiv_pos_site_id
 _symmetry_equiv_pos_as_xyz
  1  'x, y, z'
loop_
 _atom_site_type_symbol
 _atom_site_label
 _atom_site_symmetry_multiplicity
 _atom_site_fract_x
 _atom_site_fract_y
 _atom_site_fract_z
 _atom_site_occupancy
  Dy  Dy0  1  0.828357  0.542596  0.173125  1
  Dy  Dy1  1  0.523663  0.793684  0.164187  1
  Dy  Dy2  1  0.173123  0.458376  0.826245  1
  Dy  Dy3  1  0.673456  0.957142  0.671799  1
  Dy  Dy4  1  0.325613  0.041931  0.328882  1
  Lu  Lu5  1  0.024166  0.289110  0.337171  1
  Lu  Lu6  1  0.974160  0.708738  0.662700  1
  Lu  Lu7  1  0.477013  0.209065  0.837845  1
  Lu  Lu8  1  0.000782  0.001017  0.999067  1
  Lu  Lu9  1  0.499543  0.498551  0.500638  1
  In  In10  1  0.371888  0.368669  0.129239  1
  In  In11  1  0.628221  0.629602  0.870273  1
  In  In12  1  0.129523  0.130986  0.629893  1
  In  In13  1  0.872026  0.868898  0.371120  1
  Sb  Sb14  1  0.786392  0.194148  0.015814  1
  Sb  Sb15  1  0.215392  0.810611  0.979651  1
  Sb  Sb16  1  0.718288  0.308820  0.518268  1
  Sb  Sb17  1  0.278394  0.688056  0.484083  1
