# generated using pymatgen
data_YbTm(TcB4)2
_symmetry_space_group_name_H-M   'P 1'
_cell_length_a   3.57131900
_cell_length_b   5.95264070
_cell_length_c   11.51576513
_cell_angle_alpha   89.96285676
_cell_angle_beta   90.00000000
_cell_angle_gamma   90.00000000
_symmetry_Int_Tables_number   1
_chemical_formula_structural   YbTm(TcB4)2
_chemical_formula_sum   'Yb2 Tm2 Tc4 B16'
_cell_volume   244.81105277
_cell_formula_units_Z   2
loop_
 _symmetry_equiv_pos_site_id
 _symmetry_equiv_pos_as_xyz
  1  'x, y, z'
loop_
 _atom_site_type_symbol
 _atom_site_label
 _atom_site_symmetry_multiplicity
 _atom_site_fract_x
 _atom_site_fract_y
 _atom_site_fract_z
 _atom_site_occupancy
  Yb  Yb0  1  0.500000  0.128310  0.350654  1
  Yb  Yb1  1  0.500000  0.871690  0.649346  1
  Tm  Tm2  1  0.500000  0.628351  0.151482  1
  Tm  Tm3  1  0.500000  0.371649  0.848518  1
  Tc  Tc4  1  0.500000  0.630446  0.415498  1
  Tc  Tc5  1  0.500000  0.369554  0.584502  1
  Tc  Tc6  1  0.500000  0.133101  0.085269  1
  Tc  Tc7  1  0.500000  0.866899  0.914731  1
  B  B8  1  0.000000  0.977211  0.193024  1
  B  B9  1  0.000000  0.022789  0.806976  1
  B  B10  1  0.000000  0.478327  0.307038  1
  B  B11  1  0.000000  0.521673  0.692962  1
  B  B12  1  0.000000  0.787196  0.315034  1
  B  B13  1  0.000000  0.212804  0.684966  1
  B  B14  1  0.000000  0.286882  0.185517  1
  B  B15  1  0.000000  0.713118  0.814483  1
  B  B16  1  0.000000  0.865517  0.467649  1
  B  B17  1  0.000000  0.134483  0.532351  1
  B  B18  1  0.000000  0.365370  0.031523  1
  B  B19  1  0.000000  0.634630  0.968477  1
  B  B20  1  0.000000  0.886461  0.047864  1
  B  B21  1  0.000000  0.113539  0.952136  1
  B  B22  1  0.000000  0.386066  0.452710  1
  B  B23  1  0.000000  0.613934  0.547290  1
