# generated using pymatgen
data_Tb3Cd3Pd2Rh
_symmetry_space_group_name_H-M   'P 1'
_cell_length_a   7.63241200
_cell_length_b   7.63241177
_cell_length_c   3.93679000
_cell_angle_alpha   90.00000000
_cell_angle_beta   90.00000000
_cell_angle_gamma   119.99999231
_symmetry_Int_Tables_number   1
_chemical_formula_structural   Tb3Cd3Pd2Rh
_chemical_formula_sum   'Tb3 Cd3 Pd2 Rh1'
_cell_volume   198.60789693
_cell_formula_units_Z   1
loop_
 _symmetry_equiv_pos_site_id
 _symmetry_equiv_pos_as_xyz
  1  'x, y, z'
loop_
 _atom_site_type_symbol
 _atom_site_label
 _atom_site_symmetry_multiplicity
 _atom_site_fract_x
 _atom_site_fract_y
 _atom_site_fract_z
 _atom_site_occupancy
  Tb  Tb0  1  0.586829  0.986181  0.000000  1
  Tb  Tb1  1  0.013819  0.600648  0.000000  1
  Tb  Tb2  1  0.399352  0.413171  0.000000  1
  Cd  Cd3  1  0.258790  0.002122  0.500000  1
  Cd  Cd4  1  0.997878  0.256667  0.500000  1
  Cd  Cd5  1  0.743333  0.741210  0.500000  1
  Pd  Pd6  1  0.666667  0.333333  0.500000  1
  Pd  Pd7  1  0.000000  0.000000  0.000000  1
  Rh  Rh8  1  0.333333  0.666667  0.500000  1
