# generated using pymatgen
data_Yb3Eu(SnN2)2
_symmetry_space_group_name_H-M   'P 1'
_cell_length_a   6.12646239
_cell_length_b   6.12646198
_cell_length_c   11.97734982
_cell_angle_alpha   89.52146480
_cell_angle_beta   90.47854667
_cell_angle_gamma   130.29726595
_symmetry_Int_Tables_number   1
_chemical_formula_structural   Yb3Eu(SnN2)2
_chemical_formula_sum   'Yb6 Eu2 Sn4 N8'
_cell_volume   342.85867088
_cell_formula_units_Z   2
loop_
 _symmetry_equiv_pos_site_id
 _symmetry_equiv_pos_as_xyz
  1  'x, y, z'
loop_
 _atom_site_type_symbol
 _atom_site_label
 _atom_site_symmetry_multiplicity
 _atom_site_fract_x
 _atom_site_fract_y
 _atom_site_fract_z
 _atom_site_occupancy
  Yb  Yb0  1  0.958163  0.041837  0.367149  1
  Yb  Yb1  1  0.041837  0.958163  0.632851  1
  Yb  Yb2  1  0.858457  0.141543  0.954443  1
  Yb  Yb3  1  0.141543  0.858457  0.045557  1
  Yb  Yb4  1  0.637978  0.362022  0.453412  1
  Yb  Yb5  1  0.362022  0.637978  0.546588  1
  Eu  Eu6  1  0.539310  0.460690  0.857816  1
  Eu  Eu7  1  0.460690  0.539310  0.142184  1
  Sn  Sn8  1  0.747673  0.252327  0.684971  1
  Sn  Sn9  1  0.252327  0.747673  0.315029  1
  Sn  Sn10  1  0.755753  0.244247  0.188583  1
  Sn  Sn11  1  0.244247  0.755753  0.811417  1
  N  N12  1  0.561887  0.438113  0.637004  1
  N  N13  1  0.438113  0.561887  0.362996  1
  N  N14  1  0.940245  0.059755  0.140055  1
  N  N15  1  0.059755  0.940245  0.859945  1
  N  N16  1  0.849923  0.150077  0.540986  1
  N  N17  1  0.150077  0.849923  0.459014  1
  N  N18  1  0.652739  0.347261  0.040309  1
  N  N19  1  0.347261  0.652739  0.959691  1
