# generated using pymatgen
data_Y4Ho(Pd2Pt)5
_symmetry_space_group_name_H-M   'P 1'
_cell_length_a   4.15430100
_cell_length_b   4.15430100
_cell_length_c   20.46963700
_cell_angle_alpha   90.00000000
_cell_angle_beta   90.00000000
_cell_angle_gamma   90.00000000
_symmetry_Int_Tables_number   1
_chemical_formula_structural   Y4Ho(Pd2Pt)5
_chemical_formula_sum   'Y4 Ho1 Pd10 Pt5'
_cell_volume   353.26943313
_cell_formula_units_Z   1
loop_
 _symmetry_equiv_pos_site_id
 _symmetry_equiv_pos_as_xyz
  1  'x, y, z'
loop_
 _atom_site_type_symbol
 _atom_site_label
 _atom_site_symmetry_multiplicity
 _atom_site_fract_x
 _atom_site_fract_y
 _atom_site_fract_z
 _atom_site_occupancy
  Y  Y0  1  0.000000  0.000000  0.199369  1
  Y  Y1  1  0.000000  0.000000  0.400003  1
  Y  Y2  1  0.000000  0.000000  0.599997  1
  Y  Y3  1  0.000000  0.000000  0.800631  1
  Ho  Ho4  1  0.000000  0.000000  0.000000  1
  Pd  Pd5  1  0.500000  0.000000  0.098901  1
  Pd  Pd6  1  0.500000  0.000000  0.299692  1
  Pd  Pd7  1  0.500000  0.000000  0.500000  1
  Pd  Pd8  1  0.500000  0.000000  0.700308  1
  Pd  Pd9  1  0.500000  0.000000  0.901099  1
  Pd  Pd10  1  0.000000  0.500000  0.098901  1
  Pd  Pd11  1  0.000000  0.500000  0.299692  1
  Pd  Pd12  1  0.000000  0.500000  0.500000  1
  Pd  Pd13  1  0.000000  0.500000  0.700308  1
  Pd  Pd14  1  0.000000  0.500000  0.901099  1
  Pt  Pt15  1  0.500000  0.500000  0.000000  1
  Pt  Pt16  1  0.500000  0.500000  0.199298  1
  Pt  Pt17  1  0.500000  0.500000  0.399875  1
  Pt  Pt18  1  0.500000  0.500000  0.600125  1
  Pt  Pt19  1  0.500000  0.500000  0.800702  1
