# generated using pymatgen
data_Rb5Al3S7
_symmetry_space_group_name_H-M   'P 1'
_cell_length_a   10.65376195
_cell_length_b   10.65376227
_cell_length_c   9.01906514
_cell_angle_alpha   75.88945414
_cell_angle_beta   75.88944994
_cell_angle_gamma   72.10812827
_symmetry_Int_Tables_number   1
_chemical_formula_structural   Rb5Al3S7
_chemical_formula_sum   'Rb10 Al6 S14'
_cell_volume   928.83174325
_cell_formula_units_Z   2
loop_
 _symmetry_equiv_pos_site_id
 _symmetry_equiv_pos_as_xyz
  1  'x, y, z'
loop_
 _atom_site_type_symbol
 _atom_site_label
 _atom_site_symmetry_multiplicity
 _atom_site_fract_x
 _atom_site_fract_y
 _atom_site_fract_z
 _atom_site_occupancy
  Rb  Rb0  1  0.026776  0.432706  0.716218  1
  Rb  Rb1  1  0.432706  0.026776  0.716218  1
  Rb  Rb2  1  0.973224  0.567294  0.283782  1
  Rb  Rb3  1  0.567294  0.973224  0.283782  1
  Rb  Rb4  1  0.295259  0.704741  0.000000  1
  Rb  Rb5  1  0.704741  0.295259  0.000000  1
  Rb  Rb6  1  0.839257  0.160743  0.500000  1
  Rb  Rb7  1  0.160743  0.839257  0.500000  1
  Rb  Rb8  1  0.429991  0.429991  0.686630  1
  Rb  Rb9  1  0.570009  0.570009  0.313370  1
  Al  Al10  1  0.214137  0.214137  0.175566  1
  Al  Al11  1  0.785863  0.785863  0.824434  1
  Al  Al12  1  0.071681  0.071681  0.055052  1
  Al  Al13  1  0.928319  0.928319  0.944948  1
  Al  Al14  1  0.345701  0.345701  0.330424  1
  Al  Al15  1  0.654299  0.654299  0.669576  1
  S  S16  1  0.005859  0.282636  0.108659  1
  S  S17  1  0.282636  0.005859  0.108659  1
  S  S18  1  0.994141  0.717364  0.891341  1
  S  S19  1  0.717364  0.994141  0.891341  1
  S  S20  1  0.205433  0.205433  0.428863  1
  S  S21  1  0.794567  0.794567  0.571137  1
  S  S22  1  0.062626  0.062626  0.809624  1
  S  S23  1  0.937374  0.937374  0.190376  1
  S  S24  1  0.350988  0.350988  0.066642  1
  S  S25  1  0.649012  0.649012  0.933358  1
  S  S26  1  0.252102  0.547972  0.393572  1
  S  S27  1  0.547972  0.252102  0.393572  1
  S  S28  1  0.747898  0.452028  0.606428  1
  S  S29  1  0.452028  0.747898  0.606428  1
