# generated using pymatgen
data_Nb4CrTc(P2Rh)2
_symmetry_space_group_name_H-M   'P 1'
_cell_length_a   3.69812500
_cell_length_b   6.36243574
_cell_length_c   7.31396236
_cell_angle_alpha   90.25901562
_cell_angle_beta   90.00000000
_cell_angle_gamma   90.00000000
_symmetry_Int_Tables_number   1
_chemical_formula_structural   Nb4CrTc(P2Rh)2
_chemical_formula_sum   'Nb4 Cr1 Tc1 P4 Rh2'
_cell_volume   172.08906655
_cell_formula_units_Z   1
loop_
 _symmetry_equiv_pos_site_id
 _symmetry_equiv_pos_as_xyz
  1  'x, y, z'
loop_
 _atom_site_type_symbol
 _atom_site_label
 _atom_site_symmetry_multiplicity
 _atom_site_fract_x
 _atom_site_fract_y
 _atom_site_fract_z
 _atom_site_occupancy
  Nb  Nb0  1  0.250000  0.019995  0.825192  1
  Nb  Nb1  1  0.250000  0.536631  0.664020  1
  Nb  Nb2  1  0.750000  0.974216  0.173797  1
  Nb  Nb3  1  0.750000  0.471132  0.334784  1
  Cr  Cr4  1  0.750000  0.854736  0.560657  1
  Tc  Tc5  1  0.250000  0.143179  0.443269  1
  P  P6  1  0.250000  0.769857  0.375580  1
  P  P7  1  0.250000  0.263660  0.128495  1
  P  P8  1  0.750000  0.229881  0.628059  1
  P  P9  1  0.750000  0.736828  0.866801  1
  Rh  Rh10  1  0.250000  0.645802  0.064168  1
  Rh  Rh11  1  0.750000  0.354080  0.935178  1
