# generated using pymatgen
data_DyY2In3GaNi2
_symmetry_space_group_name_H-M   'P 1'
_cell_length_a   7.53386804
_cell_length_b   7.54709307
_cell_length_c   3.85858600
_cell_angle_alpha   90.00000000
_cell_angle_beta   90.00000000
_cell_angle_gamma   119.93052946
_symmetry_Int_Tables_number   1
_chemical_formula_structural   DyY2In3GaNi2
_chemical_formula_sum   'Dy1 Y2 In3 Ga1 Ni2'
_cell_volume   190.13414871
_cell_formula_units_Z   1
loop_
 _symmetry_equiv_pos_site_id
 _symmetry_equiv_pos_as_xyz
  1  'x, y, z'
loop_
 _atom_site_type_symbol
 _atom_site_label
 _atom_site_symmetry_multiplicity
 _atom_site_fract_x
 _atom_site_fract_y
 _atom_site_fract_z
 _atom_site_occupancy
  Dy  Dy0  1  0.018343  0.603540  0.500000  1
  Y  Y1  1  0.396940  0.414196  0.500000  1
  Y  Y2  1  0.585626  0.982565  0.500000  1
  In  In3  1  0.746357  0.749816  0.000000  1
  In  In4  1  0.003981  0.253987  0.000000  1
  In  In5  1  0.249982  0.996183  0.000000  1
  Ga  Ga6  1  0.666752  0.333574  0.000000  1
  Ni  Ni7  1  0.332170  0.666490  0.000000  1
  Ni  Ni8  1  0.999849  0.999651  0.500000  1
