# generated using pymatgen
data_HoErTm6(WO6)4
_symmetry_space_group_name_H-M   'P 1'
_cell_length_a   5.34173200
_cell_length_b   7.63531125
_cell_length_c   11.36891102
_cell_angle_alpha   75.24959678
_cell_angle_beta   90.00000000
_cell_angle_gamma   90.00000000
_symmetry_Int_Tables_number   1
_chemical_formula_structural   HoErTm6(WO6)4
_chemical_formula_sum   'Ho1 Er1 Tm6 W4 O24'
_cell_volume   448.40867803
_cell_formula_units_Z   1
loop_
 _symmetry_equiv_pos_site_id
 _symmetry_equiv_pos_as_xyz
  1  'x, y, z'
loop_
 _atom_site_type_symbol
 _atom_site_label
 _atom_site_symmetry_multiplicity
 _atom_site_fract_x
 _atom_site_fract_y
 _atom_site_fract_z
 _atom_site_occupancy
  Ho  Ho0  1  0.684586  0.500000  0.750000  1
  Er  Er1  1  0.315639  0.500000  0.250000  1
  Tm  Tm2  1  0.739841  0.000000  0.750000  1
  Tm  Tm3  1  0.260174  0.000000  0.250000  1
  Tm  Tm4  1  0.184485  0.795502  0.578405  1
  Tm  Tm5  1  0.815555  0.795333  0.078506  1
  Tm  Tm6  1  0.184485  0.204498  0.921595  1
  Tm  Tm7  1  0.815555  0.204667  0.421494  1
  W  W8  1  0.255590  0.723615  0.885721  1
  W  W9  1  0.744391  0.723524  0.385469  1
  W  W10  1  0.255590  0.276385  0.614279  1
  W  W11  1  0.744391  0.276476  0.114531  1
  O  O12  1  0.041318  0.941142  0.895534  1
  O  O13  1  0.536043  0.848374  0.930805  1
  O  O14  1  0.958612  0.941158  0.395453  1
  O  O15  1  0.459822  0.792288  0.726054  1
  O  O16  1  0.464064  0.848376  0.430800  1
  O  O17  1  0.980392  0.711896  0.770364  1
  O  O18  1  0.539917  0.791968  0.226051  1
  O  O19  1  0.851791  0.634377  0.549574  1
  O  O20  1  0.360560  0.487739  0.886314  1
  O  O21  1  0.020239  0.711341  0.270397  1
  O  O22  1  0.360560  0.512261  0.613686  1
  O  O23  1  0.851791  0.365623  0.950426  1
  O  O24  1  0.148510  0.634273  0.049888  1
  O  O25  1  0.638591  0.487812  0.386001  1
  O  O26  1  0.980392  0.288104  0.729636  1
  O  O27  1  0.638591  0.512188  0.113999  1
  O  O28  1  0.148510  0.365727  0.450112  1
  O  O29  1  0.459822  0.207712  0.773946  1
  O  O30  1  0.020239  0.288659  0.229603  1
  O  O31  1  0.536043  0.151626  0.569195  1
  O  O32  1  0.539917  0.208032  0.273949  1
  O  O33  1  0.041318  0.058858  0.604466  1
  O  O34  1  0.464064  0.151624  0.069200  1
  O  O35  1  0.958612  0.058842  0.104547  1
