# generated using pymatgen
data_Y(Zn5Rh)2
_symmetry_space_group_name_H-M   'P 1'
_cell_length_a   6.85598222
_cell_length_b   6.77286341
_cell_length_c   6.85598165
_cell_angle_alpha   98.21050806
_cell_angle_beta   98.91456504
_cell_angle_gamma   135.44674663
_symmetry_Int_Tables_number   1
_chemical_formula_structural   Y(Zn5Rh)2
_chemical_formula_sum   'Y1 Zn10 Rh2'
_cell_volume   205.39581747
_cell_formula_units_Z   1
loop_
 _symmetry_equiv_pos_site_id
 _symmetry_equiv_pos_as_xyz
  1  'x, y, z'
loop_
 _atom_site_type_symbol
 _atom_site_label
 _atom_site_symmetry_multiplicity
 _atom_site_fract_x
 _atom_site_fract_y
 _atom_site_fract_z
 _atom_site_occupancy
  Y  Y0  1  0.000000  0.000000  0.000000  1
  Zn  Zn1  1  0.281095  0.500000  0.781095  1
  Zn  Zn2  1  0.500000  0.000000  0.000000  1
  Zn  Zn3  1  0.000000  0.000000  0.500000  1
  Zn  Zn4  1  0.650640  0.000000  0.650640  1
  Zn  Zn5  1  0.029774  0.381457  0.351683  1
  Zn  Zn6  1  0.970226  0.618543  0.648317  1
  Zn  Zn7  1  0.349360  0.000000  0.349360  1
  Zn  Zn8  1  0.718905  0.500000  0.218905  1
  Zn  Zn9  1  0.500068  0.282606  0.782538  1
  Zn  Zn10  1  0.499932  0.717394  0.217462  1
  Rh  Rh11  1  0.500000  0.500000  0.500000  1
  Rh  Rh12  1  0.000000  0.500000  0.000000  1
