# generated using pymatgen
data_Nd3ErTc4F28
_symmetry_space_group_name_H-M   'P 1'
_cell_length_a   5.70633298
_cell_length_b   9.14098550
_cell_length_c   12.28171400
_cell_angle_alpha   62.20923614
_cell_angle_beta   89.96636353
_cell_angle_gamma   89.98582152
_symmetry_Int_Tables_number   1
_chemical_formula_structural   Nd3ErTc4F28
_chemical_formula_sum   'Nd3 Er1 Tc4 F28'
_cell_volume   566.73956768
_cell_formula_units_Z   1
loop_
 _symmetry_equiv_pos_site_id
 _symmetry_equiv_pos_as_xyz
  1  'x, y, z'
loop_
 _atom_site_type_symbol
 _atom_site_label
 _atom_site_symmetry_multiplicity
 _atom_site_fract_x
 _atom_site_fract_y
 _atom_site_fract_z
 _atom_site_occupancy
  Nd  Nd0  1  0.259027  0.810064  0.264761  1
  Nd  Nd1  1  0.741454  0.183757  0.735470  1
  Nd  Nd2  1  0.758659  0.188386  0.234964  1
  Er  Er3  1  0.239472  0.811117  0.764210  1
  Tc  Tc4  1  0.757047  0.726694  0.038425  1
  Tc  Tc5  1  0.243437  0.278889  0.954568  1
  Tc  Tc6  1  0.255334  0.269990  0.459201  1
  Tc  Tc7  1  0.741537  0.727196  0.547789  1
  F  F8  1  0.943392  0.709495  0.425011  1
  F  F9  1  0.057374  0.290167  0.582028  1
  F  F10  1  0.441943  0.293715  0.079309  1
  F  F11  1  0.551111  0.710041  0.916656  1
  F  F12  1  0.481664  0.729461  0.133499  1
  F  F13  1  0.520615  0.270928  0.862601  1
  F  F14  1  0.976335  0.268649  0.366517  1
  F  F15  1  0.017972  0.733031  0.642773  1
  F  F16  1  0.953566  0.743364  0.164719  1
  F  F17  1  0.049172  0.259696  0.829188  1
  F  F18  1  0.448462  0.254354  0.332152  1
  F  F19  1  0.536731  0.747540  0.671046  1
  F  F20  1  0.769764  0.485323  0.136198  1
  F  F21  1  0.234393  0.522861  0.858369  1
  F  F22  1  0.266769  0.512588  0.362403  1
  F  F23  1  0.731296  0.484866  0.642142  1
  F  F24  1  0.956953  0.285091  0.041884  1
  F  F25  1  0.044145  0.721251  0.948700  1
  F  F26  1  0.459963  0.718368  0.458025  1
  F  F27  1  0.543137  0.280054  0.544425  1
  F  F28  1  0.740179  0.968428  0.450640  1
  F  F29  1  0.257531  0.028126  0.555345  1
  F  F30  1  0.240934  0.037050  0.049760  1
  F  F31  1  0.757384  0.968711  0.946996  1
  F  F32  1  0.591326  0.966067  0.230109  1
  F  F33  1  0.412046  0.018566  0.767906  1
  F  F34  1  0.091379  0.032148  0.269598  1
  F  F35  1  0.928496  0.963968  0.732607  1
