# generated using pymatgen
data_Ce4ThPb3C
_symmetry_space_group_name_H-M   'P 1'
_cell_length_a   9.47019800
_cell_length_b   9.52988475
_cell_length_c   6.46285900
_cell_angle_alpha   90.00000000
_cell_angle_beta   90.00000000
_cell_angle_gamma   119.79304018
_symmetry_Int_Tables_number   1
_chemical_formula_structural   Ce4ThPb3C
_chemical_formula_sum   'Ce8 Th2 Pb6 C2'
_cell_volume   506.17880197
_cell_formula_units_Z   2
loop_
 _symmetry_equiv_pos_site_id
 _symmetry_equiv_pos_as_xyz
  1  'x, y, z'
loop_
 _atom_site_type_symbol
 _atom_site_label
 _atom_site_symmetry_multiplicity
 _atom_site_fract_x
 _atom_site_fract_y
 _atom_site_fract_z
 _atom_site_occupancy
  Ce  Ce0  1  0.999896  0.214072  0.250000  1
  Ce  Ce1  1  0.000104  0.785928  0.750000  1
  Ce  Ce2  1  0.785824  0.785928  0.250000  1
  Ce  Ce3  1  0.214176  0.214072  0.750000  1
  Ce  Ce4  1  0.333699  0.667399  0.000000  1
  Ce  Ce5  1  0.666301  0.332601  0.000000  1
  Ce  Ce6  1  0.666301  0.332601  0.500000  1
  Ce  Ce7  1  0.333699  0.667399  0.500000  1
  Th  Th8  1  0.212912  0.000000  0.250000  1
  Th  Th9  1  0.787088  0.000000  0.750000  1
  Pb  Pb10  1  0.602040  0.000000  0.250000  1
  Pb  Pb11  1  0.397960  0.000000  0.750000  1
  Pb  Pb12  1  0.998421  0.600375  0.250000  1
  Pb  Pb13  1  0.001579  0.399625  0.750000  1
  Pb  Pb14  1  0.398046  0.399625  0.250000  1
  Pb  Pb15  1  0.601954  0.600375  0.750000  1
  C  C16  1  0.000000  0.000000  0.000000  1
  C  C17  1  0.000000  0.000000  0.500000  1
