# generated using pymatgen
data_Ho6Al24Ir3Pd2Ru3
_symmetry_space_group_name_H-M   'P 1'
_cell_length_a   8.82876278
_cell_length_b   8.80117521
_cell_length_c   9.50854651
_cell_angle_alpha   89.99999859
_cell_angle_beta   90.05797028
_cell_angle_gamma   119.89668605
_symmetry_Int_Tables_number   1
_chemical_formula_structural   Ho6Al24Ir3Pd2Ru3
_chemical_formula_sum   'Ho6 Al24 Ir3 Pd2 Ru3'
_cell_volume   640.52512741
_cell_formula_units_Z   1
loop_
 _symmetry_equiv_pos_site_id
 _symmetry_equiv_pos_as_xyz
  1  'x, y, z'
loop_
 _atom_site_type_symbol
 _atom_site_label
 _atom_site_symmetry_multiplicity
 _atom_site_fract_x
 _atom_site_fract_y
 _atom_site_fract_z
 _atom_site_occupancy
  Ho  Ho0  1  0.191476  0.385978  0.251704  1
  Ho  Ho1  1  0.808524  0.614022  0.748296  1
  Ho  Ho2  1  0.615212  0.807606  0.249623  1
  Ho  Ho3  1  0.384788  0.192394  0.750377  1
  Ho  Ho4  1  0.191476  0.805498  0.251704  1
  Ho  Ho5  1  0.808524  0.194502  0.748296  1
  Al  Al6  1  0.327825  0.663913  0.030353  1
  Al  Al7  1  0.672175  0.336087  0.969647  1
  Al  Al8  1  0.666457  0.333228  0.528319  1
  Al  Al9  1  0.333543  0.666772  0.471681  1
  Al  Al10  1  0.163920  0.326395  0.577181  1
  Al  Al11  1  0.836080  0.673605  0.422819  1
  Al  Al12  1  0.674366  0.837184  0.574894  1
  Al  Al13  1  0.842661  0.674574  0.079001  1
  Al  Al14  1  0.325634  0.162816  0.425106  1
  Al  Al15  1  0.157339  0.325426  0.920999  1
  Al  Al16  1  0.163920  0.837527  0.577181  1
  Al  Al17  1  0.323666  0.161832  0.079396  1
  Al  Al18  1  0.836080  0.162473  0.422819  1
  Al  Al19  1  0.676334  0.838168  0.920604  1
  Al  Al20  1  0.842661  0.168085  0.079001  1
  Al  Al21  1  0.157339  0.831915  0.920999  1
  Al  Al22  1  0.563068  0.125455  0.251614  1
  Al  Al23  1  0.436932  0.874545  0.748386  1
  Al  Al24  1  0.876051  0.438026  0.248564  1
  Al  Al25  1  0.123949  0.561974  0.751436  1
  Al  Al26  1  0.563068  0.437613  0.251614  1
  Al  Al27  1  0.436932  0.562387  0.748386  1
  Al  Al28  1  0.998082  0.999042  0.250439  1
  Al  Al29  1  0.001918  0.000958  0.749561  1
  Ir  Ir30  1  0.500000  0.000000  0.500000  1
  Ir  Ir31  1  0.000000  0.500000  0.500000  1
  Ir  Ir32  1  0.500000  0.500000  0.500000  1
  Pd  Pd33  1  0.500000  0.000000  0.000000  1
  Pd  Pd34  1  0.500000  0.500000  0.000000  1
  Ru  Ru35  1  0.000000  0.500000  0.000000  1
  Ru  Ru36  1  0.000000  0.000000  0.000000  1
  Ru  Ru37  1  0.000000  0.000000  0.500000  1
