# generated using pymatgen
data_Ac(Si2Ir3)2
_symmetry_space_group_name_H-M   'P 1'
_cell_length_a   7.10851800
_cell_length_b   7.10851699
_cell_length_c   3.91967400
_cell_angle_alpha   90.00000000
_cell_angle_beta   90.00000000
_cell_angle_gamma   120.00000472
_symmetry_Int_Tables_number   1
_chemical_formula_structural   Ac(Si2Ir3)2
_chemical_formula_sum   'Ac1 Si4 Ir6'
_cell_volume   171.52942515
_cell_formula_units_Z   1
loop_
 _symmetry_equiv_pos_site_id
 _symmetry_equiv_pos_as_xyz
  1  'x, y, z'
loop_
 _atom_site_type_symbol
 _atom_site_label
 _atom_site_symmetry_multiplicity
 _atom_site_fract_x
 _atom_site_fract_y
 _atom_site_fract_z
 _atom_site_occupancy
  Ac  Ac0  1  0.000000  0.000000  0.000000  1
  Si  Si1  1  0.666667  0.333333  0.000000  1
  Si  Si2  1  0.201845  0.403690  0.500000  1
  Si  Si3  1  0.596310  0.798155  0.500000  1
  Si  Si4  1  0.201845  0.798155  0.500000  1
  Ir  Ir5  1  0.467280  0.934560  0.000000  1
  Ir  Ir6  1  0.065440  0.532720  0.000000  1
  Ir  Ir7  1  0.467280  0.532720  0.000000  1
  Ir  Ir8  1  0.799041  0.598082  0.500000  1
  Ir  Ir9  1  0.401918  0.200959  0.500000  1
  Ir  Ir10  1  0.799041  0.200959  0.500000  1
