# generated using pymatgen
data_Tb2B6Ir5Rh4
_symmetry_space_group_name_H-M   'P 1'
_cell_length_a   5.63471736
_cell_length_b   5.63471748
_cell_length_c   8.65175900
_cell_angle_alpha   90.00000000
_cell_angle_beta   90.00000000
_cell_angle_gamma   120.18522888
_symmetry_Int_Tables_number   1
_chemical_formula_structural   Tb2B6Ir5Rh4
_chemical_formula_sum   'Tb2 B6 Ir5 Rh4'
_cell_volume   237.44645592
_cell_formula_units_Z   1
loop_
 _symmetry_equiv_pos_site_id
 _symmetry_equiv_pos_as_xyz
  1  'x, y, z'
loop_
 _atom_site_type_symbol
 _atom_site_label
 _atom_site_symmetry_multiplicity
 _atom_site_fract_x
 _atom_site_fract_y
 _atom_site_fract_z
 _atom_site_occupancy
  Tb  Tb0  1  0.000000  0.000000  0.701329  1
  Tb  Tb1  1  0.000000  0.000000  0.298671  1
  B  B2  1  0.666149  0.333851  0.000000  1
  B  B3  1  0.333851  0.666149  0.000000  1
  B  B4  1  0.666342  0.333658  0.667862  1
  B  B5  1  0.333658  0.666342  0.667862  1
  B  B6  1  0.333658  0.666342  0.332138  1
  B  B7  1  0.666342  0.333658  0.332138  1
  Ir  Ir8  1  0.500000  0.500000  0.836498  1
  Ir  Ir9  1  0.500000  0.500000  0.163502  1
  Ir  Ir10  1  0.500000  0.500000  0.500000  1
  Ir  Ir11  1  0.500000  0.000000  0.500000  1
  Ir  Ir12  1  0.000000  0.500000  0.500000  1
  Rh  Rh13  1  0.500000  0.000000  0.836584  1
  Rh  Rh14  1  0.000000  0.500000  0.836584  1
  Rh  Rh15  1  0.500000  0.000000  0.163416  1
  Rh  Rh16  1  0.000000  0.500000  0.163416  1
