# generated using pymatgen
data_Nb3V3Ga4Sn
_symmetry_space_group_name_H-M   'P 1'
_cell_length_a   8.84650981
_cell_length_b   8.81325549
_cell_length_c   5.32047000
_cell_angle_alpha   90.00000000
_cell_angle_beta   90.00000000
_cell_angle_gamma   119.87573426
_symmetry_Int_Tables_number   1
_chemical_formula_structural   Nb3V3Ga4Sn
_chemical_formula_sum   'Nb6 V6 Ga8 Sn2'
_cell_volume   359.69252277
_cell_formula_units_Z   2
loop_
 _symmetry_equiv_pos_site_id
 _symmetry_equiv_pos_as_xyz
  1  'x, y, z'
loop_
 _atom_site_type_symbol
 _atom_site_label
 _atom_site_symmetry_multiplicity
 _atom_site_fract_x
 _atom_site_fract_y
 _atom_site_fract_z
 _atom_site_occupancy
  Nb  Nb0  1  0.690787  0.838271  0.250000  1
  Nb  Nb1  1  0.839335  0.146403  0.750000  1
  Nb  Nb2  1  0.154634  0.846389  0.250000  1
  Nb  Nb3  1  0.845366  0.691757  0.750000  1
  Nb  Nb4  1  0.309213  0.147486  0.750000  1
  Nb  Nb5  1  0.160665  0.307067  0.250000  1
  V  V6  1  0.493685  0.995851  0.994175  1
  V  V7  1  0.000000  0.508954  0.000000  1
  V  V8  1  0.493685  0.995851  0.505825  1
  V  V9  1  0.506315  0.502167  0.005825  1
  V  V10  1  0.000000  0.508954  0.500000  1
  V  V11  1  0.506315  0.502167  0.494175  1
  Ga  Ga12  1  0.000000  0.998604  0.000000  1
  Ga  Ga13  1  0.574665  0.786006  0.750000  1
  Ga  Ga14  1  0.789249  0.577471  0.250000  1
  Ga  Ga15  1  0.000000  0.998604  0.500000  1
  Ga  Ga16  1  0.425335  0.211341  0.250000  1
  Ga  Ga17  1  0.210751  0.788222  0.750000  1
  Ga  Ga18  1  0.665375  0.333910  0.750000  1
  Ga  Ga19  1  0.334625  0.668536  0.250000  1
  Sn  Sn20  1  0.783510  0.214749  0.250000  1
  Sn  Sn21  1  0.216490  0.431239  0.750000  1
