# generated using pymatgen
data_Nd2Gd2YSn4
_symmetry_space_group_name_H-M   'P 1'
_cell_length_a   8.21315000
_cell_length_b   8.36442500
_cell_length_c   15.88376200
_cell_angle_alpha   90.00000000
_cell_angle_beta   90.00000000
_cell_angle_gamma   90.00000000
_symmetry_Int_Tables_number   1
_chemical_formula_structural   Nd2Gd2YSn4
_chemical_formula_sum   'Nd8 Gd8 Y4 Sn16'
_cell_volume   1091.18708468
_cell_formula_units_Z   4
loop_
 _symmetry_equiv_pos_site_id
 _symmetry_equiv_pos_as_xyz
  1  'x, y, z'
loop_
 _atom_site_type_symbol
 _atom_site_label
 _atom_site_symmetry_multiplicity
 _atom_site_fract_x
 _atom_site_fract_y
 _atom_site_fract_z
 _atom_site_occupancy
  Nd  Nd0  1  0.514171  0.320432  0.903044  1
  Nd  Nd1  1  0.014171  0.179568  0.596956  1
  Nd  Nd2  1  0.485829  0.679568  0.403044  1
  Nd  Nd3  1  0.985829  0.820432  0.096956  1
  Nd  Nd4  1  0.485829  0.679568  0.096956  1
  Nd  Nd5  1  0.985829  0.820432  0.403044  1
  Nd  Nd6  1  0.514171  0.320432  0.596956  1
  Nd  Nd7  1  0.014171  0.179568  0.903044  1
  Gd  Gd8  1  0.360433  0.836279  0.877494  1
  Gd  Gd9  1  0.860433  0.663721  0.622506  1
  Gd  Gd10  1  0.639567  0.163721  0.377494  1
  Gd  Gd11  1  0.139567  0.336279  0.122506  1
  Gd  Gd12  1  0.639567  0.163721  0.122506  1
  Gd  Gd13  1  0.139567  0.336279  0.377494  1
  Gd  Gd14  1  0.360433  0.836279  0.622506  1
  Gd  Gd15  1  0.860433  0.663721  0.877494  1
  Y  Y16  1  0.193241  0.501946  0.750000  1
  Y  Y17  1  0.693241  0.998054  0.750000  1
  Y  Y18  1  0.806759  0.498054  0.250000  1
  Y  Y19  1  0.306759  0.001946  0.250000  1
  Sn  Sn20  1  0.301601  0.038218  0.042421  1
  Sn  Sn21  1  0.801601  0.461782  0.457579  1
  Sn  Sn22  1  0.698399  0.961782  0.542421  1
  Sn  Sn23  1  0.198399  0.538218  0.957579  1
  Sn  Sn24  1  0.698399  0.961782  0.957579  1
  Sn  Sn25  1  0.198399  0.538218  0.542421  1
  Sn  Sn26  1  0.301601  0.038218  0.457579  1
  Sn  Sn27  1  0.801601  0.461782  0.042421  1
  Sn  Sn28  1  0.558470  0.619637  0.750000  1
  Sn  Sn29  1  0.058470  0.880363  0.750000  1
  Sn  Sn30  1  0.441530  0.380363  0.250000  1
  Sn  Sn31  1  0.941530  0.119637  0.250000  1
  Sn  Sn32  1  0.322064  0.144255  0.750000  1
  Sn  Sn33  1  0.822064  0.355745  0.750000  1
  Sn  Sn34  1  0.677936  0.855745  0.250000  1
  Sn  Sn35  1  0.177936  0.644255  0.250000  1
