# generated using pymatgen
data_Ho3U5(TcB6)4
_symmetry_space_group_name_H-M   'P 1'
_cell_length_a   3.63269900
_cell_length_b   9.29004891
_cell_length_c   11.39306727
_cell_angle_alpha   89.97577161
_cell_angle_beta   90.00000000
_cell_angle_gamma   90.00000000
_symmetry_Int_Tables_number   1
_chemical_formula_structural   Ho3U5(TcB6)4
_chemical_formula_sum   'Ho3 U5 Tc4 B24'
_cell_volume   384.49264607
_cell_formula_units_Z   1
loop_
 _symmetry_equiv_pos_site_id
 _symmetry_equiv_pos_as_xyz
  1  'x, y, z'
loop_
 _atom_site_type_symbol
 _atom_site_label
 _atom_site_symmetry_multiplicity
 _atom_site_fract_x
 _atom_site_fract_y
 _atom_site_fract_z
 _atom_site_occupancy
  Ho  Ho0  1  0.000000  0.337209  0.407666  1
  Ho  Ho1  1  0.000000  0.663077  0.591846  1
  Ho  Ho2  1  0.000000  0.835825  0.093114  1
  U  U3  1  0.000000  0.162971  0.907015  1
  U  U4  1  0.000000  0.956188  0.397000  1
  U  U5  1  0.000000  0.042905  0.603331  1
  U  U6  1  0.000000  0.457664  0.103876  1
  U  U7  1  0.000000  0.543658  0.897047  1
  Tc  Tc8  1  0.000000  0.645455  0.319124  1
  Tc  Tc9  1  0.000000  0.352839  0.683351  1
  Tc  Tc10  1  0.000000  0.145961  0.178141  1
  Tc  Tc11  1  0.000000  0.857145  0.819600  1
  B  B12  1  0.500000  0.551375  0.431463  1
  B  B13  1  0.500000  0.448000  0.569441  1
  B  B14  1  0.500000  0.052181  0.067638  1
  B  B15  1  0.500000  0.950009  0.930621  1
  B  B16  1  0.500000  0.742673  0.423322  1
  B  B17  1  0.500000  0.257400  0.576650  1
  B  B18  1  0.500000  0.242500  0.075876  1
  B  B19  1  0.500000  0.756802  0.922867  1
  B  B20  1  0.500000  0.802241  0.275039  1
  B  B21  1  0.500000  0.196701  0.726227  1
  B  B22  1  0.500000  0.302340  0.225085  1
  B  B23  1  0.500000  0.697849  0.774704  1
  B  B24  1  0.500000  0.643987  0.188909  1
  B  B25  1  0.500000  0.354876  0.811871  1
  B  B26  1  0.500000  0.144300  0.310812  1
  B  B27  1  0.500000  0.855104  0.688495  1
  B  B28  1  0.500000  0.989022  0.219256  1
  B  B29  1  0.500000  0.012982  0.781062  1
  B  B30  1  0.500000  0.488459  0.281057  1
  B  B31  1  0.500000  0.511489  0.719324  1
  B  B32  1  0.500000  0.641606  0.039110  1
  B  B33  1  0.500000  0.357042  0.960342  1
  B  B34  1  0.500000  0.141008  0.460560  1
  B  B35  1  0.500000  0.859155  0.539160  1
