# generated using pymatgen
data_Dy8CoHg3
_symmetry_space_group_name_H-M   'P 1'
_cell_length_a   10.15470500
_cell_length_b   10.15596258
_cell_length_c   7.16901621
_cell_angle_alpha   90.00559436
_cell_angle_beta   90.00000000
_cell_angle_gamma   119.99590718
_symmetry_Int_Tables_number   1
_chemical_formula_structural   Dy8CoHg3
_chemical_formula_sum   'Dy16 Co2 Hg6'
_cell_volume   640.31917106
_cell_formula_units_Z   2
loop_
 _symmetry_equiv_pos_site_id
 _symmetry_equiv_pos_as_xyz
  1  'x, y, z'
loop_
 _atom_site_type_symbol
 _atom_site_label
 _atom_site_symmetry_multiplicity
 _atom_site_fract_x
 _atom_site_fract_y
 _atom_site_fract_z
 _atom_site_occupancy
  Dy  Dy0  1  0.174796  0.826322  0.518167  1
  Dy  Dy1  1  0.651526  0.826322  0.518167  1
  Dy  Dy2  1  0.173409  0.346818  0.518293  1
  Dy  Dy3  1  0.826830  0.174279  0.018929  1
  Dy  Dy4  1  0.347449  0.174279  0.018929  1
  Dy  Dy5  1  0.825760  0.651519  0.018317  1
  Dy  Dy6  1  0.333364  0.666729  0.812714  1
  Dy  Dy7  1  0.666900  0.333798  0.313650  1
  Dy  Dy8  1  0.459926  0.540071  0.210118  1
  Dy  Dy9  1  0.080144  0.540071  0.210118  1
  Dy  Dy10  1  0.460397  0.920795  0.209415  1
  Dy  Dy11  1  0.539845  0.460216  0.709927  1
  Dy  Dy12  1  0.920372  0.460216  0.709927  1
  Dy  Dy13  1  0.540486  0.080971  0.710903  1
  Dy  Dy14  1  0.998942  0.997885  0.230321  1
  Dy  Dy15  1  0.998849  0.997698  0.730167  1
  Co  Co16  1  0.333207  0.666416  0.445340  1
  Co  Co17  1  0.666863  0.333726  0.946434  1
  Hg  Hg18  1  0.833149  0.666300  0.454237  1
  Hg  Hg19  1  0.167336  0.832790  0.953994  1
  Hg  Hg20  1  0.665454  0.832790  0.953994  1
  Hg  Hg21  1  0.167653  0.335307  0.954075  1
  Hg  Hg22  1  0.832370  0.167342  0.454349  1
  Hg  Hg23  1  0.334972  0.167342  0.454349  1
