# generated using pymatgen
data_Mn3CrRe2
_symmetry_space_group_name_H-M   'P 1'
_cell_length_a   4.67564560
_cell_length_b   4.67564647
_cell_length_c   7.72820700
_cell_angle_alpha   90.00000000
_cell_angle_beta   90.00000000
_cell_angle_gamma   120.17504953
_symmetry_Int_Tables_number   1
_chemical_formula_structural   Mn3CrRe2
_chemical_formula_sum   'Mn6 Cr2 Re4'
_cell_volume   146.05750088
_cell_formula_units_Z   2
loop_
 _symmetry_equiv_pos_site_id
 _symmetry_equiv_pos_as_xyz
  1  'x, y, z'
loop_
 _atom_site_type_symbol
 _atom_site_label
 _atom_site_symmetry_multiplicity
 _atom_site_fract_x
 _atom_site_fract_y
 _atom_site_fract_z
 _atom_site_occupancy
  Mn  Mn0  1  0.828654  0.171346  0.000000  1
  Mn  Mn1  1  0.174630  0.346172  0.500000  1
  Mn  Mn2  1  0.653828  0.825370  0.500000  1
  Mn  Mn3  1  0.174015  0.825985  0.500000  1
  Mn  Mn4  1  0.998436  0.001564  0.256876  1
  Mn  Mn5  1  0.998436  0.001564  0.743124  1
  Cr  Cr6  1  0.829963  0.659182  0.000000  1
  Cr  Cr7  1  0.340818  0.170037  0.000000  1
  Re  Re8  1  0.333363  0.666637  0.185888  1
  Re  Re9  1  0.667200  0.332800  0.317953  1
  Re  Re10  1  0.667200  0.332800  0.682047  1
  Re  Re11  1  0.333363  0.666637  0.814112  1
