# generated using pymatgen
data_K(AcGa6)2
_symmetry_space_group_name_H-M   'P 1'
_cell_length_a   8.87747730
_cell_length_b   8.87747689
_cell_length_c   8.87747660
_cell_angle_alpha   149.45420144
_cell_angle_beta   106.98481796
_cell_angle_gamma   81.17937981
_symmetry_Int_Tables_number   1
_chemical_formula_structural   K(AcGa6)2
_chemical_formula_sum   'K1 Ac2 Ga12'
_cell_volume   333.04383738
_cell_formula_units_Z   1
loop_
 _symmetry_equiv_pos_site_id
 _symmetry_equiv_pos_as_xyz
  1  'x, y, z'
loop_
 _atom_site_type_symbol
 _atom_site_label
 _atom_site_symmetry_multiplicity
 _atom_site_fract_x
 _atom_site_fract_y
 _atom_site_fract_z
 _atom_site_occupancy
  K  K0  1  0.000370  0.000000  0.000370  1
  Ac  Ac1  1  0.334116  0.333178  0.000938  1
  Ac  Ac2  1  0.667758  0.666822  0.000938  1
  Ga  Ga3  1  0.621648  0.000000  0.621648  1
  Ga  Ga4  1  0.380371  0.000000  0.380371  1
  Ga  Ga5  1  0.252879  0.500000  0.752879  1
  Ga  Ga6  1  0.748904  0.500000  0.248904  1
  Ga  Ga7  1  0.584356  0.832178  0.752178  1
  Ga  Ga8  1  0.920000  0.167822  0.752178  1
  Ga  Ga9  1  0.288481  0.665592  0.622891  1
  Ga  Ga10  1  0.957299  0.334408  0.622891  1
  Ga  Ga11  1  0.044132  0.665892  0.378240  1
  Ga  Ga12  1  0.712346  0.334108  0.378240  1
  Ga  Ga13  1  0.081820  0.832650  0.249170  1
  Ga  Ga14  1  0.416519  0.167350  0.249170  1
