# generated using pymatgen
data_TbYbDy2(B4Ru)4
_symmetry_space_group_name_H-M   'P 1'
_cell_length_a   3.55434000
_cell_length_b   5.96755190
_cell_length_c   11.53411740
_cell_angle_alpha   89.95353327
_cell_angle_beta   90.00000000
_cell_angle_gamma   90.00000000
_symmetry_Int_Tables_number   1
_chemical_formula_structural   TbYbDy2(B4Ru)4
_chemical_formula_sum   'Tb1 Yb1 Dy2 B16 Ru4'
_cell_volume   244.64672044
_cell_formula_units_Z   1
loop_
 _symmetry_equiv_pos_site_id
 _symmetry_equiv_pos_as_xyz
  1  'x, y, z'
loop_
 _atom_site_type_symbol
 _atom_site_label
 _atom_site_symmetry_multiplicity
 _atom_site_fract_x
 _atom_site_fract_y
 _atom_site_fract_z
 _atom_site_occupancy
  Tb  Tb0  1  0.500000  0.128307  0.351066  1
  Yb  Yb1  1  0.500000  0.870418  0.649508  1
  Dy  Dy2  1  0.500000  0.628228  0.149965  1
  Dy  Dy3  1  0.500000  0.371090  0.848650  1
  B  B4  1  0.000000  0.975747  0.191470  1
  B  B5  1  0.000000  0.024483  0.808033  1
  B  B6  1  0.000000  0.475626  0.308789  1
  B  B7  1  0.000000  0.524356  0.691203  1
  B  B8  1  0.000000  0.788322  0.315215  1
  B  B9  1  0.000000  0.211441  0.685073  1
  B  B10  1  0.000000  0.288445  0.185457  1
  B  B11  1  0.000000  0.712654  0.814023  1
  B  B12  1  0.000000  0.863657  0.470067  1
  B  B13  1  0.000000  0.136122  0.530962  1
  B  B14  1  0.000000  0.363609  0.030325  1
  B  B15  1  0.000000  0.636108  0.969531  1
  B  B16  1  0.000000  0.887588  0.046672  1
  B  B17  1  0.000000  0.111437  0.952953  1
  B  B18  1  0.000000  0.388825  0.454334  1
  B  B19  1  0.000000  0.613768  0.547172  1
  Ru  Ru20  1  0.500000  0.639477  0.407870  1
  Ru  Ru21  1  0.500000  0.360940  0.591175  1
  Ru  Ru22  1  0.500000  0.139951  0.091973  1
  Ru  Ru23  1  0.500000  0.859400  0.908514  1
