# generated using pymatgen
data_Tb4Al4PdRu3
_symmetry_space_group_name_H-M   'P 1'
_cell_length_a   4.19035300
_cell_length_b   6.98328380
_cell_length_c   8.03784954
_cell_angle_alpha   90.21867475
_cell_angle_beta   90.00000000
_cell_angle_gamma   90.00000000
_symmetry_Int_Tables_number   1
_chemical_formula_structural   Tb4Al4PdRu3
_chemical_formula_sum   'Tb4 Al4 Pd1 Ru3'
_cell_volume   235.20524995
_cell_formula_units_Z   1
loop_
 _symmetry_equiv_pos_site_id
 _symmetry_equiv_pos_as_xyz
  1  'x, y, z'
loop_
 _atom_site_type_symbol
 _atom_site_label
 _atom_site_symmetry_multiplicity
 _atom_site_fract_x
 _atom_site_fract_y
 _atom_site_fract_z
 _atom_site_occupancy
  Tb  Tb0  1  0.250000  0.527034  0.813539  1
  Tb  Tb1  1  0.750000  0.460828  0.182856  1
  Tb  Tb2  1  0.250000  0.030781  0.682379  1
  Tb  Tb3  1  0.750000  0.974217  0.323495  1
  Al  Al4  1  0.250000  0.640541  0.441315  1
  Al  Al5  1  0.750000  0.357520  0.561721  1
  Al  Al6  1  0.250000  0.147901  0.060130  1
  Al  Al7  1  0.750000  0.860372  0.934568  1
  Pd  Pd8  1  0.250000  0.774843  0.118752  1
  Ru  Ru9  1  0.750000  0.728135  0.619278  1
  Ru  Ru10  1  0.250000  0.269740  0.380083  1
  Ru  Ru11  1  0.750000  0.228089  0.881884  1
