# generated using pymatgen
data_Lu5Bi(TeO6)3
_symmetry_space_group_name_H-M   'P 1'
_cell_length_a   9.09205304
_cell_length_b   9.09445333
_cell_length_c   5.13138267
_cell_angle_alpha   89.99999843
_cell_angle_beta   90.05136880
_cell_angle_gamma   120.00873227
_symmetry_Int_Tables_number   1
_chemical_formula_structural   Lu5Bi(TeO6)3
_chemical_formula_sum   'Lu5 Bi1 Te3 O18'
_cell_volume   367.42198585
_cell_formula_units_Z   1
loop_
 _symmetry_equiv_pos_site_id
 _symmetry_equiv_pos_as_xyz
  1  'x, y, z'
loop_
 _atom_site_type_symbol
 _atom_site_label
 _atom_site_symmetry_multiplicity
 _atom_site_fract_x
 _atom_site_fract_y
 _atom_site_fract_z
 _atom_site_occupancy
  Lu  Lu0  1  0.000000  0.286433  0.500000  1
  Lu  Lu1  1  0.374878  0.375943  0.000510  1
  Lu  Lu2  1  0.288440  0.001200  0.499165  1
  Lu  Lu3  1  0.711560  0.712760  0.500835  1
  Lu  Lu4  1  0.625122  0.001066  0.999490  1
  Bi  Bi5  1  0.000000  0.622409  0.000000  1
  Te  Te6  1  0.338706  0.667016  0.502919  1
  Te  Te7  1  0.000000  0.004734  0.000000  1
  Te  Te8  1  0.661294  0.328310  0.497081  1
  O  O9  1  0.085341  0.889105  0.782368  1
  O  O10  1  0.230781  0.767617  0.296377  1
  O  O11  1  0.135483  0.535251  0.709921  1
  O  O12  1  0.413767  0.868405  0.723933  1
  O  O13  1  0.241147  0.462323  0.283424  1
  O  O14  1  0.119696  0.207734  0.791010  1
  O  O15  1  0.204132  0.120853  0.212937  1
  O  O16  1  0.541875  0.778488  0.286908  1
  O  O17  1  0.461123  0.586961  0.718832  1
  O  O18  1  0.795868  0.916721  0.787063  1
  O  O19  1  0.458125  0.236614  0.713092  1
  O  O20  1  0.586233  0.454638  0.276067  1
  O  O21  1  0.538877  0.125838  0.281168  1
  O  O22  1  0.769219  0.536836  0.703623  1
  O  O23  1  0.914659  0.803764  0.217632  1
  O  O24  1  0.758853  0.221176  0.716576  1
  O  O25  1  0.864517  0.399768  0.290079  1
  O  O26  1  0.880304  0.088038  0.208990  1
