# generated using pymatgen
data_Ho6Er4Sn5Bi
_symmetry_space_group_name_H-M   'P 1'
_cell_length_a   8.94455000
_cell_length_b   8.94928539
_cell_length_c   6.49012300
_cell_angle_alpha   90.00000000
_cell_angle_beta   90.00000000
_cell_angle_gamma   119.98249786
_symmetry_Int_Tables_number   1
_chemical_formula_structural   Ho6Er4Sn5Bi
_chemical_formula_sum   'Ho6 Er4 Sn5 Bi1'
_cell_volume   449.99426583
_cell_formula_units_Z   1
loop_
 _symmetry_equiv_pos_site_id
 _symmetry_equiv_pos_as_xyz
  1  'x, y, z'
loop_
 _atom_site_type_symbol
 _atom_site_label
 _atom_site_symmetry_multiplicity
 _atom_site_fract_x
 _atom_site_fract_y
 _atom_site_fract_z
 _atom_site_occupancy
  Ho  Ho0  1  0.993545  0.757572  0.750000  1
  Ho  Ho1  1  0.000606  0.239031  0.250000  1
  Ho  Ho2  1  0.761575  0.760969  0.250000  1
  Ho  Ho3  1  0.764966  0.000000  0.750000  1
  Ho  Ho4  1  0.235973  0.242428  0.750000  1
  Ho  Ho5  1  0.237691  0.000000  0.250000  1
  Er  Er6  1  0.332814  0.662240  0.498221  1
  Er  Er7  1  0.670575  0.337760  0.001779  1
  Er  Er8  1  0.670575  0.337760  0.498221  1
  Er  Er9  1  0.332814  0.662240  0.001779  1
  Sn  Sn10  1  0.395677  0.393300  0.250000  1
  Sn  Sn11  1  0.002377  0.606700  0.250000  1
  Sn  Sn12  1  0.999173  0.395902  0.750000  1
  Sn  Sn13  1  0.603270  0.604098  0.750000  1
  Sn  Sn14  1  0.605321  0.000000  0.250000  1
  Bi  Bi15  1  0.393045  0.000000  0.750000  1
