# generated using pymatgen
data_Hf2Zr6Co16SiP11
_symmetry_space_group_name_H-M   'P 1'
_cell_length_a   12.11595330
_cell_length_b   12.11575040
_cell_length_c   3.65698000
_cell_angle_alpha   90.00000000
_cell_angle_beta   90.00000000
_cell_angle_gamma   119.97756083
_symmetry_Int_Tables_number   1
_chemical_formula_structural   Hf2Zr6Co16SiP11
_chemical_formula_sum   'Hf2 Zr6 Co16 Si1 P11'
_cell_volume   465.00677483
_cell_formula_units_Z   1
loop_
 _symmetry_equiv_pos_site_id
 _symmetry_equiv_pos_as_xyz
  1  'x, y, z'
loop_
 _atom_site_type_symbol
 _atom_site_label
 _atom_site_symmetry_multiplicity
 _atom_site_fract_x
 _atom_site_fract_y
 _atom_site_fract_z
 _atom_site_occupancy
  Hf  Hf0  1  0.441386  0.441351  0.000000  1
  Hf  Hf1  1  0.556169  0.000623  0.000000  1
  Zr  Zr2  1  0.000656  0.555678  0.000000  1
  Zr  Zr3  1  0.666726  0.333719  0.000000  1
  Zr  Zr4  1  0.334053  0.667050  0.000000  1
  Zr  Zr5  1  0.824854  0.825139  0.500000  1
  Zr  Zr6  1  0.176541  0.000174  0.500000  1
  Zr  Zr7  1  0.999860  0.176149  0.500000  1
  Co  Co8  1  0.193329  0.371656  0.000000  1
  Co  Co9  1  0.178810  0.807309  0.000000  1
  Co  Co10  1  0.824752  0.627873  0.000000  1
  Co  Co11  1  0.805928  0.177635  0.000000  1
  Co  Co12  1  0.371820  0.193084  0.000000  1
  Co  Co13  1  0.126443  0.480124  0.500000  1
  Co  Co14  1  0.355447  0.874973  0.500000  1
  Co  Co15  1  0.516985  0.644104  0.500000  1
  Co  Co16  1  0.643397  0.516887  0.500000  1
  Co  Co17  1  0.873792  0.353263  0.500000  1
  Co  Co18  1  0.480961  0.125801  0.500000  1
  Co  Co19  1  0.000658  0.000590  0.000000  1
  Co  Co20  1  0.721721  0.001772  0.500000  1
  Co  Co21  1  0.001832  0.723070  0.500000  1
  Co  Co22  1  0.627482  0.825560  0.000000  1
  Co  Co23  1  0.278073  0.278061  0.500000  1
  Si  Si24  1  0.653381  0.653783  0.000000  1
  P  P25  1  0.346235  0.000087  0.000000  1
  P  P26  1  0.999697  0.344654  0.000000  1
  P  P27  1  0.481245  0.308180  0.500000  1
  P  P28  1  0.690736  0.173047  0.500000  1
  P  P29  1  0.825997  0.518487  0.500000  1
  P  P30  1  0.518560  0.827235  0.500000  1
  P  P31  1  0.174491  0.692304  0.500000  1
  P  P32  1  0.824464  0.999382  0.000000  1
  P  P33  1  0.999500  0.824489  0.000000  1
  P  P34  1  0.308598  0.481401  0.500000  1
  P  P35  1  0.175420  0.175303  0.000000  1
