# generated using pymatgen
data_YTh3Al3(Ga5Ir2)3
_symmetry_space_group_name_H-M   'P 1'
_cell_length_a   7.67907653
_cell_length_b   7.68760597
_cell_length_c   9.49795919
_cell_angle_alpha   89.97238557
_cell_angle_beta   89.97021297
_cell_angle_gamma   119.72010842
_symmetry_Int_Tables_number   1
_chemical_formula_structural   YTh3Al3(Ga5Ir2)3
_chemical_formula_sum   'Y1 Th3 Al3 Ga15 Ir6'
_cell_volume   486.94375665
_cell_formula_units_Z   1
loop_
 _symmetry_equiv_pos_site_id
 _symmetry_equiv_pos_as_xyz
  1  'x, y, z'
loop_
 _atom_site_type_symbol
 _atom_site_label
 _atom_site_symmetry_multiplicity
 _atom_site_fract_x
 _atom_site_fract_y
 _atom_site_fract_z
 _atom_site_occupancy
  Y  Y0  1  0.328823  0.002555  0.749258  1
  Th  Th1  1  0.998398  0.670585  0.249958  1
  Th  Th2  1  0.000569  0.330216  0.748904  1
  Th  Th3  1  0.670416  0.997766  0.249939  1
  Al  Al4  1  0.661333  0.661255  0.451378  1
  Al  Al5  1  0.665031  0.664859  0.049046  1
  Al  Al6  1  0.334682  0.331259  0.946767  1
  Ga  Ga7  1  0.136117  0.133070  0.249505  1
  Ga  Ga8  1  0.871210  0.869728  0.749596  1
  Ga  Ga9  1  0.004400  0.335381  0.078787  1
  Ga  Ga10  1  0.001871  0.670283  0.918450  1
  Ga  Ga11  1  0.001297  0.670564  0.581564  1
  Ga  Ga12  1  0.335532  0.004441  0.424782  1
  Ga  Ga13  1  0.005982  0.335653  0.419016  1
  Ga  Ga14  1  0.658779  0.995854  0.581650  1
  Ga  Ga15  1  0.659142  0.996647  0.918421  1
  Ga  Ga16  1  0.335380  0.002892  0.073106  1
  Ga  Ga17  1  0.332848  0.328388  0.565660  1
  Ga  Ga18  1  0.350545  0.547005  0.249987  1
  Ga  Ga19  1  0.651950  0.448826  0.750089  1
  Ga  Ga20  1  0.546930  0.347114  0.249987  1
  Ga  Ga21  1  0.452840  0.658131  0.749974  1
  Ir  Ir22  1  0.672006  0.331626  0.999948  1
  Ir  Ir23  1  0.328956  0.667293  0.000052  1
  Ir  Ir24  1  0.328561  0.670654  0.498621  1
  Ir  Ir25  1  0.675775  0.331574  0.498714  1
  Ir  Ir26  1  0.998033  0.000576  0.000242  1
  Ir  Ir27  1  0.992591  0.995803  0.496601  1
