# generated using pymatgen
data_Sc2H6IrPt
_symmetry_space_group_name_H-M   'P 1'
_cell_length_a   5.69174659
_cell_length_b   5.69174668
_cell_length_c   4.44950400
_cell_angle_alpha   90.00000000
_cell_angle_beta   90.00000000
_cell_angle_gamma   141.23575500
_symmetry_Int_Tables_number   1
_chemical_formula_structural   Sc2H6IrPt
_chemical_formula_sum   'Sc2 H6 Ir1 Pt1'
_cell_volume   90.25233750
_cell_formula_units_Z   1
loop_
 _symmetry_equiv_pos_site_id
 _symmetry_equiv_pos_as_xyz
  1  'x, y, z'
loop_
 _atom_site_type_symbol
 _atom_site_label
 _atom_site_symmetry_multiplicity
 _atom_site_fract_x
 _atom_site_fract_y
 _atom_site_fract_z
 _atom_site_occupancy
  Sc  Sc0  1  0.372732  0.627267  0.249999  1
  Sc  Sc1  1  0.629446  0.370553  0.750000  1
  H  H2  1  0.807995  0.192004  0.020618  1
  H  H3  1  0.585291  0.414707  0.249999  1
  H  H4  1  0.807995  0.192004  0.479380  1
  H  H5  1  0.191346  0.808653  0.526100  1
  H  H6  1  0.415281  0.584717  0.750000  1
  H  H7  1  0.191346  0.808653  0.973900  1
  Ir  Ir8  1  0.916721  0.083277  0.750000  1
  Pt  Pt9  1  0.081840  0.918158  0.249999  1
