# generated using pymatgen
data_Tm2InNi7B2
_symmetry_space_group_name_H-M   'P 1'
_cell_length_a   4.96385300
_cell_length_b   4.96385292
_cell_length_c   14.19701300
_cell_angle_alpha   90.00000000
_cell_angle_beta   90.00000000
_cell_angle_gamma   119.99999384
_symmetry_Int_Tables_number   1
_chemical_formula_structural   Tm2InNi7B2
_chemical_formula_sum   'Tm4 In2 Ni14 B4'
_cell_volume   302.94616255
_cell_formula_units_Z   2
loop_
 _symmetry_equiv_pos_site_id
 _symmetry_equiv_pos_as_xyz
  1  'x, y, z'
loop_
 _atom_site_type_symbol
 _atom_site_label
 _atom_site_symmetry_multiplicity
 _atom_site_fract_x
 _atom_site_fract_y
 _atom_site_fract_z
 _atom_site_occupancy
  Tm  Tm0  1  0.666667  0.333333  0.531257  1
  Tm  Tm1  1  0.333333  0.666667  0.031257  1
  Tm  Tm2  1  0.666667  0.333333  0.754474  1
  Tm  Tm3  1  0.333333  0.666667  0.254474  1
  In  In4  1  0.333333  0.666667  0.468556  1
  In  In5  1  0.666667  0.333333  0.968556  1
  Ni  Ni6  1  0.834026  0.165974  0.352736  1
  Ni  Ni7  1  0.834026  0.668053  0.352736  1
  Ni  Ni8  1  0.000000  0.000000  0.998735  1
  Ni  Ni9  1  0.000000  0.000000  0.498735  1
  Ni  Ni10  1  0.833749  0.667499  0.147102  1
  Ni  Ni11  1  0.166251  0.833749  0.647102  1
  Ni  Ni12  1  0.667499  0.833749  0.647102  1
  Ni  Ni13  1  0.332501  0.166251  0.147102  1
  Ni  Ni14  1  0.833749  0.166251  0.147102  1
  Ni  Ni15  1  0.165974  0.331947  0.852736  1
  Ni  Ni16  1  0.165974  0.834026  0.852736  1
  Ni  Ni17  1  0.166251  0.332501  0.647102  1
  Ni  Ni18  1  0.668053  0.834026  0.852736  1
  Ni  Ni19  1  0.331947  0.165974  0.352736  1
  B  B20  1  0.666667  0.333333  0.249692  1
  B  B21  1  0.333333  0.666667  0.749692  1
  B  B22  1  0.000000  0.000000  0.747773  1
  B  B23  1  0.000000  0.000000  0.247773  1
