# generated using pymatgen
data_SmDyAl6Si4Pt
_symmetry_space_group_name_H-M   'P 1'
_cell_length_a   4.18485178
_cell_length_b   4.18485893
_cell_length_c   17.16302750
_cell_angle_alpha   96.86145799
_cell_angle_beta   83.13898812
_cell_angle_gamma   120.04269142
_symmetry_Int_Tables_number   1
_chemical_formula_structural   SmDyAl6Si4Pt
_chemical_formula_sum   'Sm1 Dy1 Al6 Si4 Pt1'
_cell_volume   257.70823170
_cell_formula_units_Z   1
loop_
 _symmetry_equiv_pos_site_id
 _symmetry_equiv_pos_as_xyz
  1  'x, y, z'
loop_
 _atom_site_type_symbol
 _atom_site_label
 _atom_site_symmetry_multiplicity
 _atom_site_fract_x
 _atom_site_fract_y
 _atom_site_fract_z
 _atom_site_occupancy
  Sm  Sm0  1  0.565854  0.434101  0.302894  1
  Dy  Dy1  1  0.433765  0.566260  0.698642  1
  Al  Al2  1  0.319071  0.680966  0.044228  1
  Al  Al3  1  0.949072  0.050885  0.147861  1
  Al  Al4  1  0.184606  0.815362  0.448317  1
  Al  Al5  1  0.812974  0.187021  0.559035  1
  Al  Al6  1  0.052224  0.947812  0.847722  1
  Al  Al7  1  0.682690  0.317343  0.950854  1
  Si  Si8  1  0.265805  0.734137  0.199005  1
  Si  Si9  1  0.863792  0.136174  0.409617  1
  Si  Si10  1  0.133913  0.866090  0.597398  1
  Si  Si11  1  0.735322  0.264715  0.796995  1
  Pt  Pt12  1  0.000907  0.999135  0.997432  1
