# generated using pymatgen
data_Pr6IrRh17
_symmetry_space_group_name_H-M   'P 1'
_cell_length_a   5.35249000
_cell_length_b   5.35249009
_cell_length_c   17.75887800
_cell_angle_alpha   90.00000000
_cell_angle_beta   90.00000000
_cell_angle_gamma   119.99998706
_symmetry_Int_Tables_number   1
_chemical_formula_structural   Pr6IrRh17
_chemical_formula_sum   'Pr6 Ir1 Rh17'
_cell_volume   440.61365167
_cell_formula_units_Z   1
loop_
 _symmetry_equiv_pos_site_id
 _symmetry_equiv_pos_as_xyz
  1  'x, y, z'
loop_
 _atom_site_type_symbol
 _atom_site_label
 _atom_site_symmetry_multiplicity
 _atom_site_fract_x
 _atom_site_fract_y
 _atom_site_fract_z
 _atom_site_occupancy
  Pr  Pr0  1  0.333333  0.666667  0.957955  1
  Pr  Pr1  1  0.666667  0.333333  0.042045  1
  Pr  Pr2  1  0.666667  0.333333  0.458100  1
  Pr  Pr3  1  0.333333  0.666667  0.541900  1
  Pr  Pr4  1  0.333333  0.666667  0.749945  1
  Pr  Pr5  1  0.666667  0.333333  0.250055  1
  Ir  Ir6  1  0.000000  0.000000  0.500000  1
  Rh  Rh7  1  0.165992  0.834008  0.372617  1
  Rh  Rh8  1  0.165992  0.331985  0.372617  1
  Rh  Rh9  1  0.668015  0.834008  0.372617  1
  Rh  Rh10  1  0.834008  0.165992  0.627383  1
  Rh  Rh11  1  0.834008  0.668015  0.627383  1
  Rh  Rh12  1  0.331985  0.165992  0.627383  1
  Rh  Rh13  1  0.833245  0.166755  0.872227  1
  Rh  Rh14  1  0.833245  0.666490  0.872227  1
  Rh  Rh15  1  0.333510  0.166755  0.872227  1
  Rh  Rh16  1  0.166755  0.833245  0.127773  1
  Rh  Rh17  1  0.166755  0.333510  0.127773  1
  Rh  Rh18  1  0.666490  0.833245  0.127773  1
  Rh  Rh19  1  0.333333  0.666667  0.249827  1
  Rh  Rh20  1  0.666667  0.333333  0.750173  1
  Rh  Rh21  1  0.000000  0.000000  0.249773  1
  Rh  Rh22  1  0.000000  0.000000  0.750227  1
  Rh  Rh23  1  0.000000  0.000000  0.000000  1
