# generated using pymatgen
data_Ca(Al5Rh)2
_symmetry_space_group_name_H-M   'P 1'
_cell_length_a   6.90399693
_cell_length_b   6.90399620
_cell_length_c   9.14582700
_cell_angle_alpha   90.00000000
_cell_angle_beta   90.00000000
_cell_angle_gamma   97.54337732
_symmetry_Int_Tables_number   1
_chemical_formula_structural   Ca(Al5Rh)2
_chemical_formula_sum   'Ca2 Al20 Rh4'
_cell_volume   432.16467845
_cell_formula_units_Z   2
loop_
 _symmetry_equiv_pos_site_id
 _symmetry_equiv_pos_as_xyz
  1  'x, y, z'
loop_
 _atom_site_type_symbol
 _atom_site_label
 _atom_site_symmetry_multiplicity
 _atom_site_fract_x
 _atom_site_fract_y
 _atom_site_fract_z
 _atom_site_occupancy
  Ca  Ca0  1  0.874132  0.125868  0.750000  1
  Ca  Ca1  1  0.125868  0.874132  0.250000  1
  Al  Al2  1  0.774568  0.774568  0.000000  1
  Al  Al3  1  0.774568  0.774568  0.500000  1
  Al  Al4  1  0.225432  0.225432  0.000000  1
  Al  Al5  1  0.225432  0.225432  0.500000  1
  Al  Al6  1  0.621839  0.378161  0.950411  1
  Al  Al7  1  0.378161  0.621839  0.049589  1
  Al  Al8  1  0.621839  0.378161  0.549589  1
  Al  Al9  1  0.378161  0.621839  0.450411  1
  Al  Al10  1  0.843676  0.156324  0.397893  1
  Al  Al11  1  0.156324  0.843676  0.602107  1
  Al  Al12  1  0.843676  0.156324  0.102107  1
  Al  Al13  1  0.156324  0.843676  0.897893  1
  Al  Al14  1  0.413272  0.143409  0.750000  1
  Al  Al15  1  0.143409  0.413272  0.250000  1
  Al  Al16  1  0.586728  0.856591  0.250000  1
  Al  Al17  1  0.856591  0.586728  0.750000  1
  Al  Al18  1  0.519287  0.774859  0.750000  1
  Al  Al19  1  0.774859  0.519287  0.250000  1
  Al  Al20  1  0.480713  0.225141  0.250000  1
  Al  Al21  1  0.225141  0.480713  0.750000  1
  Rh  Rh22  1  0.500000  0.000000  0.000000  1
  Rh  Rh23  1  0.000000  0.500000  0.000000  1
  Rh  Rh24  1  0.500000  0.000000  0.500000  1
  Rh  Rh25  1  0.000000  0.500000  0.500000  1
