# generated using pymatgen
data_Tb(Nd3In2)3
_symmetry_space_group_name_H-M   'P 1'
_cell_length_a   6.13213574
_cell_length_b   9.50776557
_cell_length_c   9.50776513
_cell_angle_alpha   84.03081653
_cell_angle_beta   71.18700548
_cell_angle_gamma   71.18700366
_symmetry_Int_Tables_number   1
_chemical_formula_structural   Tb(Nd3In2)3
_chemical_formula_sum   'Tb1 Nd9 In6'
_cell_volume   496.68355114
_cell_formula_units_Z   1
loop_
 _symmetry_equiv_pos_site_id
 _symmetry_equiv_pos_as_xyz
  1  'x, y, z'
loop_
 _atom_site_type_symbol
 _atom_site_label
 _atom_site_symmetry_multiplicity
 _atom_site_fract_x
 _atom_site_fract_y
 _atom_site_fract_z
 _atom_site_occupancy
  Tb  Tb0  1  0.250000  0.500000  0.500000  1
  Nd  Nd1  1  0.721934  0.864100  0.694873  1
  Nd  Nd2  1  0.280907  0.135900  0.305127  1
  Nd  Nd3  1  0.778066  0.305127  0.135900  1
  Nd  Nd4  1  0.219093  0.694873  0.864100  1
  Nd  Nd5  1  0.583193  0.694873  0.135900  1
  Nd  Nd6  1  0.413966  0.305127  0.864100  1
  Nd  Nd7  1  0.086034  0.135900  0.694873  1
  Nd  Nd8  1  0.916807  0.864100  0.305127  1
  Nd  Nd9  1  0.750000  0.500000  0.500000  1
  In  In10  1  0.162955  0.500000  0.179701  1
  In  In11  1  0.842654  0.500000  0.820299  1
  In  In12  1  0.337045  0.820299  0.500000  1
  In  In13  1  0.657346  0.179701  0.500000  1
  In  In14  1  0.250000  0.000000  0.000000  1
  In  In15  1  0.750000  0.000000  0.000000  1
