# generated using pymatgen
data_YEr5Tm14(Cd3Ru)2
_symmetry_space_group_name_H-M   'P 1'
_cell_length_a   9.48091405
_cell_length_b   9.47925643
_cell_length_c   9.73409500
_cell_angle_alpha   90.00000000
_cell_angle_beta   90.00000000
_cell_angle_gamma   119.99421509
_symmetry_Int_Tables_number   1
_chemical_formula_structural   YEr5Tm14(Cd3Ru)2
_chemical_formula_sum   'Y1 Er5 Tm14 Cd6 Ru2'
_cell_volume   757.66287302
_cell_formula_units_Z   1
loop_
 _symmetry_equiv_pos_site_id
 _symmetry_equiv_pos_as_xyz
  1  'x, y, z'
loop_
 _atom_site_type_symbol
 _atom_site_label
 _atom_site_symmetry_multiplicity
 _atom_site_fract_x
 _atom_site_fract_y
 _atom_site_fract_z
 _atom_site_occupancy
  Y  Y0  1  0.081659  0.540829  0.750000  1
  Er  Er1  1  0.540721  0.459394  0.250000  1
  Er  Er2  1  0.540721  0.081328  0.250000  1
  Er  Er3  1  0.918706  0.459354  0.250000  1
  Er  Er4  1  0.459726  0.540678  0.750000  1
  Er  Er5  1  0.459726  0.919047  0.750000  1
  Tm  Tm6  1  0.999942  0.999971  0.500029  1
  Tm  Tm7  1  0.999942  0.999971  0.999971  1
  Tm  Tm8  1  0.210099  0.790267  0.440255  1
  Tm  Tm9  1  0.210099  0.419833  0.440255  1
  Tm  Tm10  1  0.580081  0.790041  0.440479  1
  Tm  Tm11  1  0.789718  0.209646  0.559422  1
  Tm  Tm12  1  0.789718  0.580071  0.559422  1
  Tm  Tm13  1  0.419909  0.209954  0.559520  1
  Tm  Tm14  1  0.789718  0.209646  0.940578  1
  Tm  Tm15  1  0.789718  0.580071  0.940578  1
  Tm  Tm16  1  0.419909  0.209954  0.940480  1
  Tm  Tm17  1  0.210099  0.790267  0.059745  1
  Tm  Tm18  1  0.210099  0.419833  0.059745  1
  Tm  Tm19  1  0.580081  0.790041  0.059521  1
  Cd  Cd20  1  0.885626  0.114325  0.250000  1
  Cd  Cd21  1  0.885626  0.771302  0.250000  1
  Cd  Cd22  1  0.228685  0.114343  0.250000  1
  Cd  Cd23  1  0.114384  0.886032  0.750000  1
  Cd  Cd24  1  0.114384  0.228351  0.750000  1
  Cd  Cd25  1  0.771257  0.885628  0.750000  1
  Ru  Ru26  1  0.333268  0.666635  0.250000  1
  Ru  Ru27  1  0.666381  0.333190  0.750000  1
