# generated using pymatgen
data_Tb16In4IrPdRu2
_symmetry_space_group_name_H-M   'P 1'
_cell_length_a   9.69481157
_cell_length_b   9.70100794
_cell_length_c   9.69481110
_cell_angle_alpha   60.13311262
_cell_angle_beta   60.09989795
_cell_angle_gamma   60.13310683
_symmetry_Int_Tables_number   1
_chemical_formula_structural   Tb16In4IrPdRu2
_chemical_formula_sum   'Tb16 In4 Ir1 Pd1 Ru2'
_cell_volume   646.51643307
_cell_formula_units_Z   1
loop_
 _symmetry_equiv_pos_site_id
 _symmetry_equiv_pos_as_xyz
  1  'x, y, z'
loop_
 _atom_site_type_symbol
 _atom_site_label
 _atom_site_symmetry_multiplicity
 _atom_site_fract_x
 _atom_site_fract_y
 _atom_site_fract_z
 _atom_site_occupancy
  Tb  Tb0  1  0.104082  0.698117  0.104082  1
  Tb  Tb1  1  0.940661  0.941082  0.551432  1
  Tb  Tb2  1  0.941060  0.553240  0.941060  1
  Tb  Tb3  1  0.311099  0.690148  0.311099  1
  Tb  Tb4  1  0.939708  0.560611  0.557196  1
  Tb  Tb5  1  0.312213  0.310458  0.690197  1
  Tb  Tb6  1  0.096680  0.096196  0.096680  1
  Tb  Tb7  1  0.557196  0.560611  0.939708  1
  Tb  Tb8  1  0.105035  0.103494  0.697905  1
  Tb  Tb9  1  0.689928  0.313768  0.689928  1
  Tb  Tb10  1  0.690672  0.690396  0.314262  1
  Tb  Tb11  1  0.690197  0.310458  0.312213  1
  Tb  Tb12  1  0.314262  0.690396  0.690672  1
  Tb  Tb13  1  0.559351  0.939428  0.559351  1
  Tb  Tb14  1  0.697905  0.103494  0.105035  1
  Tb  Tb15  1  0.551432  0.941082  0.940661  1
  In  In16  1  0.333183  0.333085  0.333183  1
  In  In17  1  0.003514  0.331338  0.331523  1
  In  In18  1  0.332140  0.001986  0.332140  1
  In  In19  1  0.331523  0.331338  0.003514  1
  Ir  Ir20  1  0.889405  0.326091  0.889405  1
  Pd  Pd21  1  0.892443  0.893023  0.892443  1
  Ru  Ru22  1  0.889904  0.890081  0.326409  1
  Ru  Ru23  1  0.326409  0.890081  0.889904  1
