# generated using pymatgen
data_SrF6
_symmetry_space_group_name_H-M   'P 1'
_cell_length_a   6.38154805
_cell_length_b   6.38154798
_cell_length_c   6.17494300
_cell_angle_alpha   90.00000000
_cell_angle_beta   90.00000000
_cell_angle_gamma   121.40219697
_symmetry_Int_Tables_number   1
_chemical_formula_structural   SrF6
_chemical_formula_sum   'Sr2 F12'
_cell_volume   214.63682850
_cell_formula_units_Z   2
loop_
 _symmetry_equiv_pos_site_id
 _symmetry_equiv_pos_as_xyz
  1  'x, y, z'
loop_
 _atom_site_type_symbol
 _atom_site_label
 _atom_site_symmetry_multiplicity
 _atom_site_fract_x
 _atom_site_fract_y
 _atom_site_fract_z
 _atom_site_occupancy
  Sr  Sr0  1  0.500000  0.500000  0.500000  1
  Sr  Sr1  1  0.000000  0.000000  0.000000  1
  F  F2  1  0.622994  0.377006  0.000000  1
  F  F3  1  0.377006  0.622994  0.000000  1
  F  F4  1  0.122994  0.877006  0.500000  1
  F  F5  1  0.877006  0.122994  0.500000  1
  F  F6  1  0.923470  0.687949  0.301555  1
  F  F7  1  0.812051  0.576530  0.801555  1
  F  F8  1  0.687949  0.923470  0.698445  1
  F  F9  1  0.576530  0.812051  0.198445  1
  F  F10  1  0.312051  0.076530  0.698445  1
  F  F11  1  0.076530  0.312051  0.301555  1
  F  F12  1  0.423470  0.187949  0.198445  1
  F  F13  1  0.187949  0.423470  0.801555  1
