# generated using pymatgen
data_EuSbIrO6
_symmetry_space_group_name_H-M   'P 1'
_cell_length_a   5.34613963
_cell_length_b   5.34049962
_cell_length_c   5.13584703
_cell_angle_alpha   89.94007953
_cell_angle_beta   90.06141823
_cell_angle_gamma   120.01827103
_symmetry_Int_Tables_number   1
_chemical_formula_structural   EuSbIrO6
_chemical_formula_sum   'Eu1 Sb1 Ir1 O6'
_cell_volume   126.96516602
_cell_formula_units_Z   1
loop_
 _symmetry_equiv_pos_site_id
 _symmetry_equiv_pos_as_xyz
  1  'x, y, z'
loop_
 _atom_site_type_symbol
 _atom_site_label
 _atom_site_symmetry_multiplicity
 _atom_site_fract_x
 _atom_site_fract_y
 _atom_site_fract_z
 _atom_site_occupancy
  Eu  Eu0  1  0.000165  0.000220  0.999733  1
  Sb  Sb1  1  0.666757  0.333482  0.499953  1
  Ir  Ir2  1  0.333270  0.666536  0.500015  1
  O  O3  1  0.634700  0.995812  0.287957  1
  O  O4  1  0.360883  0.365194  0.287846  1
  O  O5  1  0.004144  0.639082  0.287716  1
  O  O6  1  0.361192  0.995763  0.712133  1
  O  O7  1  0.004197  0.365137  0.712327  1
  O  O8  1  0.634690  0.638775  0.712320  1
