# generated using pymatgen
data_Dy17Er2MgIr12
_symmetry_space_group_name_H-M   'P 1'
_cell_length_a   10.86886400
_cell_length_b   10.86886400
_cell_length_c   6.29650800
_cell_angle_alpha   90.00000000
_cell_angle_beta   90.00000000
_cell_angle_gamma   90.00000000
_symmetry_Int_Tables_number   1
_chemical_formula_structural   Dy17Er2MgIr12
_chemical_formula_sum   'Dy17 Er2 Mg1 Ir12'
_cell_volume   743.82037164
_cell_formula_units_Z   1
loop_
 _symmetry_equiv_pos_site_id
 _symmetry_equiv_pos_as_xyz
  1  'x, y, z'
loop_
 _atom_site_type_symbol
 _atom_site_label
 _atom_site_symmetry_multiplicity
 _atom_site_fract_x
 _atom_site_fract_y
 _atom_site_fract_z
 _atom_site_occupancy
  Dy  Dy0  1  0.284196  0.084594  0.379264  1
  Dy  Dy1  1  0.290567  0.911951  0.879314  1
  Dy  Dy2  1  0.709433  0.088049  0.879314  1
  Dy  Dy3  1  0.715804  0.915406  0.379264  1
  Dy  Dy4  1  0.588627  0.791433  0.879814  1
  Dy  Dy5  1  0.587518  0.208503  0.377750  1
  Dy  Dy6  1  0.412482  0.791497  0.377750  1
  Dy  Dy7  1  0.411373  0.208567  0.879814  1
  Dy  Dy8  1  0.208503  0.412482  0.622250  1
  Dy  Dy9  1  0.208567  0.588627  0.120186  1
  Dy  Dy10  1  0.791433  0.411373  0.120186  1
  Dy  Dy11  1  0.791497  0.587518  0.622250  1
  Dy  Dy12  1  0.911951  0.709433  0.120686  1
  Dy  Dy13  1  0.915406  0.284196  0.620736  1
  Dy  Dy14  1  0.084594  0.715804  0.620736  1
  Dy  Dy15  1  0.088049  0.290567  0.120686  1
  Dy  Dy16  1  0.000000  0.000000  0.000000  1
  Er  Er17  1  0.500000  0.500000  0.000000  1
  Er  Er18  1  0.500000  0.500000  0.500000  1
  Mg  Mg19  1  0.000000  0.000000  0.500000  1
  Ir  Ir20  1  0.846543  0.154133  0.248106  1
  Ir  Ir21  1  0.845867  0.846543  0.751894  1
  Ir  Ir22  1  0.154133  0.153457  0.751894  1
  Ir  Ir23  1  0.153457  0.845867  0.248106  1
  Ir  Ir24  1  0.653191  0.347448  0.748208  1
  Ir  Ir25  1  0.652552  0.653191  0.251792  1
  Ir  Ir26  1  0.347448  0.346809  0.251792  1
  Ir  Ir27  1  0.346809  0.652552  0.748208  1
  Ir  Ir28  1  0.500000  0.000000  0.123533  1
  Ir  Ir29  1  0.500000  0.000000  0.620007  1
  Ir  Ir30  1  0.000000  0.500000  0.876467  1
  Ir  Ir31  1  0.000000  0.500000  0.379993  1
