# generated using pymatgen
data_Ho2Tm2Al4OsPt3
_symmetry_space_group_name_H-M   'P 1'
_cell_length_a   4.34532100
_cell_length_b   6.80186832
_cell_length_c   7.86123212
_cell_angle_alpha   89.81339608
_cell_angle_beta   90.00000000
_cell_angle_gamma   90.00000000
_symmetry_Int_Tables_number   1
_chemical_formula_structural   Ho2Tm2Al4OsPt3
_chemical_formula_sum   'Ho2 Tm2 Al4 Os1 Pt3'
_cell_volume   232.34771250
_cell_formula_units_Z   1
loop_
 _symmetry_equiv_pos_site_id
 _symmetry_equiv_pos_as_xyz
  1  'x, y, z'
loop_
 _atom_site_type_symbol
 _atom_site_label
 _atom_site_symmetry_multiplicity
 _atom_site_fract_x
 _atom_site_fract_y
 _atom_site_fract_z
 _atom_site_occupancy
  Ho  Ho0  1  0.250000  0.031862  0.677424  1
  Ho  Ho1  1  0.250000  0.528390  0.819249  1
  Tm  Tm2  1  0.750000  0.979124  0.320799  1
  Tm  Tm3  1  0.750000  0.466810  0.185786  1
  Al  Al4  1  0.250000  0.144091  0.063943  1
  Al  Al5  1  0.250000  0.640545  0.436658  1
  Al  Al6  1  0.750000  0.856898  0.939410  1
  Al  Al7  1  0.750000  0.354132  0.558773  1
  Os  Os8  1  0.250000  0.266013  0.377894  1
  Pt  Pt9  1  0.250000  0.768802  0.118706  1
  Pt  Pt10  1  0.750000  0.731767  0.620207  1
  Pt  Pt11  1  0.750000  0.231566  0.881152  1
