# generated using pymatgen
data_Tb(ReO4)3
_symmetry_space_group_name_H-M   'P 1'
_cell_length_a   10.29497688
_cell_length_b   10.28846694
_cell_length_c   6.21840500
_cell_angle_alpha   90.00000000
_cell_angle_beta   90.00000000
_cell_angle_gamma   119.97342026
_symmetry_Int_Tables_number   1
_chemical_formula_structural   Tb(ReO4)3
_chemical_formula_sum   'Tb2 Re6 O24'
_cell_volume   570.56080546
_cell_formula_units_Z   2
loop_
 _symmetry_equiv_pos_site_id
 _symmetry_equiv_pos_as_xyz
  1  'x, y, z'
loop_
 _atom_site_type_symbol
 _atom_site_label
 _atom_site_symmetry_multiplicity
 _atom_site_fract_x
 _atom_site_fract_y
 _atom_site_fract_z
 _atom_site_occupancy
  Tb  Tb0  1  0.666742  0.333320  0.750000  1
  Tb  Tb1  1  0.333258  0.666680  0.250000  1
  Re  Re2  1  0.090788  0.396468  0.750000  1
  Re  Re3  1  0.396843  0.305953  0.250000  1
  Re  Re4  1  0.603157  0.694047  0.750000  1
  Re  Re5  1  0.909212  0.603532  0.250000  1
  Re  Re6  1  0.305757  0.909401  0.750000  1
  Re  Re7  1  0.694243  0.090599  0.250000  1
  O  O8  1  0.488374  0.648719  0.519751  1
  O  O9  1  0.351101  0.839784  0.519793  1
  O  O10  1  0.847314  0.731584  0.250000  1
  O  O11  1  0.116057  0.847907  0.750000  1
  O  O12  1  0.268734  0.116099  0.250000  1
  O  O13  1  0.152686  0.268416  0.750000  1
  O  O14  1  0.511626  0.351281  0.019751  1
  O  O15  1  0.883943  0.152093  0.250000  1
  O  O16  1  0.105970  0.696883  0.250000  1
  O  O17  1  0.160334  0.511421  0.980194  1
  O  O18  1  0.160334  0.511421  0.519806  1
  O  O19  1  0.894030  0.303117  0.750000  1
  O  O20  1  0.303282  0.409344  0.250000  1
  O  O21  1  0.696718  0.590656  0.750000  1
  O  O22  1  0.839666  0.488579  0.480194  1
  O  O23  1  0.409383  0.106288  0.750000  1
  O  O24  1  0.648899  0.160216  0.019793  1
  O  O25  1  0.488374  0.648719  0.980249  1
  O  O26  1  0.351101  0.839784  0.980207  1
  O  O27  1  0.648899  0.160216  0.480207  1
  O  O28  1  0.511626  0.351281  0.480249  1
  O  O29  1  0.839666  0.488579  0.019806  1
  O  O30  1  0.731266  0.883901  0.750000  1
  O  O31  1  0.590617  0.893712  0.250000  1
