# generated using pymatgen
data_AcTb12Eu7Sn16
_symmetry_space_group_name_H-M   'P 1'
_cell_length_a   8.17921392
_cell_length_b   8.34058943
_cell_length_c   15.77462200
_cell_angle_alpha   90.03334461
_cell_angle_beta   89.74512752
_cell_angle_gamma   89.32095737
_symmetry_Int_Tables_number   1
_chemical_formula_structural   AcTb12Eu7Sn16
_chemical_formula_sum   'Ac1 Tb12 Eu7 Sn16'
_cell_volume   1076.04983761
_cell_formula_units_Z   1
loop_
 _symmetry_equiv_pos_site_id
 _symmetry_equiv_pos_as_xyz
  1  'x, y, z'
loop_
 _atom_site_type_symbol
 _atom_site_label
 _atom_site_symmetry_multiplicity
 _atom_site_fract_x
 _atom_site_fract_y
 _atom_site_fract_z
 _atom_site_occupancy
  Ac  Ac0  1  0.997699  0.172195  0.408787  1
  Tb  Tb1  1  0.336386  0.835474  0.124465  1
  Tb  Tb2  1  0.168527  0.337229  0.625493  1
  Tb  Tb3  1  0.500731  0.683264  0.902562  1
  Tb  Tb4  1  0.839425  0.663129  0.122335  1
  Tb  Tb5  1  0.164195  0.335283  0.875113  1
  Tb  Tb6  1  0.178064  0.497676  0.248595  1
  Tb  Tb7  1  0.668938  0.004275  0.248682  1
  Tb  Tb8  1  0.499933  0.681810  0.598627  1
  Tb  Tb9  1  0.327176  0.996755  0.752420  1
  Tb  Tb10  1  0.664578  0.164558  0.627806  1
  Tb  Tb11  1  0.828878  0.503054  0.751148  1
  Tb  Tb12  1  0.836230  0.664846  0.375591  1
  Eu  Eu13  1  0.000641  0.177587  0.091506  1
  Eu  Eu14  1  0.995304  0.824541  0.903560  1
  Eu  Eu15  1  0.665556  0.164994  0.875099  1
  Eu  Eu16  1  0.502083  0.322748  0.089413  1
  Eu  Eu17  1  0.335508  0.833851  0.375961  1
  Eu  Eu18  1  0.998068  0.820772  0.598068  1
  Eu  Eu19  1  0.499507  0.322734  0.408629  1
  Sn  Sn20  1  0.821989  0.464090  0.544336  1
  Sn  Sn21  1  0.668663  0.952543  0.464540  1
  Sn  Sn22  1  0.685863  0.850312  0.748258  1
  Sn  Sn23  1  0.166913  0.540385  0.461239  1
  Sn  Sn24  1  0.325832  0.031042  0.957024  1
  Sn  Sn25  1  0.805058  0.363326  0.248304  1
  Sn  Sn26  1  0.828695  0.468689  0.955339  1
  Sn  Sn27  1  0.541169  0.614860  0.248342  1
  Sn  Sn28  1  0.178212  0.543920  0.038311  1
  Sn  Sn29  1  0.465277  0.391989  0.749289  1
  Sn  Sn30  1  0.202742  0.640916  0.750900  1
  Sn  Sn31  1  0.969742  0.124194  0.747256  1
  Sn  Sn32  1  0.334148  0.033450  0.548548  1
  Sn  Sn33  1  0.665797  0.952551  0.041278  1
  Sn  Sn34  1  0.302529  0.143936  0.246618  1
  Sn  Sn35  1  0.029946  0.877018  0.246560  1
