# generated using pymatgen
data_Dy4MgPd11
_symmetry_space_group_name_H-M   'P 1'
_cell_length_a   4.20416300
_cell_length_b   5.80919397
_cell_length_c   11.62539900
_cell_angle_alpha   87.78104144
_cell_angle_beta   90.00000000
_cell_angle_gamma   90.00000000
_symmetry_Int_Tables_number   1
_chemical_formula_structural   Dy4MgPd11
_chemical_formula_sum   'Dy4 Mg1 Pd11'
_cell_volume   283.71187715
_cell_formula_units_Z   1
loop_
 _symmetry_equiv_pos_site_id
 _symmetry_equiv_pos_as_xyz
  1  'x, y, z'
loop_
 _atom_site_type_symbol
 _atom_site_label
 _atom_site_symmetry_multiplicity
 _atom_site_fract_x
 _atom_site_fract_y
 _atom_site_fract_z
 _atom_site_occupancy
  Dy  Dy0  1  0.500000  0.757577  0.375403  1
  Dy  Dy1  1  0.500000  0.713163  0.861355  1
  Dy  Dy2  1  0.500000  0.286837  0.138645  1
  Dy  Dy3  1  0.500000  0.242423  0.624597  1
  Mg  Mg4  1  0.000000  0.000000  0.000000  1
  Pd  Pd5  1  0.000000  0.016603  0.246686  1
  Pd  Pd6  1  0.000000  0.983397  0.753314  1
  Pd  Pd7  1  0.000000  0.500000  0.000000  1
  Pd  Pd8  1  0.000000  0.500000  0.500000  1
  Pd  Pd9  1  0.000000  0.520460  0.249368  1
  Pd  Pd10  1  0.000000  0.479540  0.750632  1
  Pd  Pd11  1  0.500000  0.255824  0.377485  1
  Pd  Pd12  1  0.500000  0.220587  0.884404  1
  Pd  Pd13  1  0.500000  0.779413  0.115596  1
  Pd  Pd14  1  0.500000  0.744176  0.622515  1
  Pd  Pd15  1  0.000000  0.000000  0.500000  1
