# generated using pymatgen
data_YBi3(Ir2O7)2
_symmetry_space_group_name_H-M   'P 1'
_cell_length_a   7.32669900
_cell_length_b   7.32669898
_cell_length_c   7.32669834
_cell_angle_alpha   60.36542297
_cell_angle_beta   60.36542038
_cell_angle_gamma   60.36543534
_symmetry_Int_Tables_number   1
_chemical_formula_structural   YBi3(Ir2O7)2
_chemical_formula_sum   'Y1 Bi3 Ir4 O14'
_cell_volume   280.40455055
_cell_formula_units_Z   1
loop_
 _symmetry_equiv_pos_site_id
 _symmetry_equiv_pos_as_xyz
  1  'x, y, z'
loop_
 _atom_site_type_symbol
 _atom_site_label
 _atom_site_symmetry_multiplicity
 _atom_site_fract_x
 _atom_site_fract_y
 _atom_site_fract_z
 _atom_site_occupancy
  Y  Y0  1  0.500000  0.500000  0.500000  1
  Bi  Bi1  1  0.500000  0.000000  0.500000  1
  Bi  Bi2  1  0.000000  0.500000  0.500000  1
  Bi  Bi3  1  0.500000  0.500000  0.000000  1
  Ir  Ir4  1  0.000000  0.000000  0.000000  1
  Ir  Ir5  1  0.000000  0.500000  0.000000  1
  Ir  Ir6  1  0.500000  0.000000  0.000000  1
  Ir  Ir7  1  0.000000  0.000000  0.500000  1
  O  O8  1  0.622783  0.622783  0.622783  1
  O  O9  1  0.377217  0.377217  0.377217  1
  O  O10  1  0.918998  0.918998  0.331310  1
  O  O11  1  0.331310  0.918998  0.918998  1
  O  O12  1  0.918998  0.331310  0.918998  1
  O  O13  1  0.334871  0.334871  0.909777  1
  O  O14  1  0.909777  0.334871  0.334871  1
  O  O15  1  0.334871  0.909777  0.334871  1
  O  O16  1  0.081002  0.081002  0.668690  1
  O  O17  1  0.668690  0.081002  0.081002  1
  O  O18  1  0.081002  0.668690  0.081002  1
  O  O19  1  0.665129  0.665129  0.090223  1
  O  O20  1  0.090223  0.665129  0.665129  1
  O  O21  1  0.665129  0.090223  0.665129  1
