# generated using pymatgen
data_Tb3Er3(CoSn6)2
_symmetry_space_group_name_H-M   'P 1'
_cell_length_a   8.45582536
_cell_length_b   8.45582571
_cell_length_c   13.14413820
_cell_angle_alpha   89.98066242
_cell_angle_beta   90.01933850
_cell_angle_gamma   148.81406239
_symmetry_Int_Tables_number   1
_chemical_formula_structural   Tb3Er3(CoSn6)2
_chemical_formula_sum   'Tb3 Er3 Co2 Sn12'
_cell_volume   486.65419398
_cell_formula_units_Z   1
loop_
 _symmetry_equiv_pos_site_id
 _symmetry_equiv_pos_as_xyz
  1  'x, y, z'
loop_
 _atom_site_type_symbol
 _atom_site_label
 _atom_site_symmetry_multiplicity
 _atom_site_fract_x
 _atom_site_fract_y
 _atom_site_fract_z
 _atom_site_occupancy
  Tb  Tb0  1  0.899714  0.100286  0.093657  1
  Tb  Tb1  1  0.100222  0.899778  0.593043  1
  Tb  Tb2  1  0.100254  0.899746  0.906747  1
  Er  Er3  1  0.899569  0.100431  0.749744  1
  Er  Er4  1  0.100408  0.899592  0.250360  1
  Er  Er5  1  0.898986  0.101014  0.406170  1
  Co  Co6  1  0.300002  0.699998  0.250622  1
  Co  Co7  1  0.700340  0.299660  0.749441  1
  Sn  Sn8  1  0.756092  0.243908  0.571381  1
  Sn  Sn9  1  0.427038  0.572962  0.575530  1
  Sn  Sn10  1  0.572594  0.427406  0.423271  1
  Sn  Sn11  1  0.733821  0.266179  0.250295  1
  Sn  Sn12  1  0.266455  0.733545  0.750034  1
  Sn  Sn13  1  0.244581  0.755419  0.071997  1
  Sn  Sn14  1  0.244842  0.755158  0.428628  1
  Sn  Sn15  1  0.572459  0.427541  0.077081  1
  Sn  Sn16  1  0.454500  0.545500  0.251046  1
  Sn  Sn17  1  0.545537  0.454463  0.749630  1
  Sn  Sn18  1  0.755248  0.244752  0.928160  1
  Sn  Sn19  1  0.427338  0.572662  0.923165  1
