# generated using pymatgen
data_Zr8Fe7Si14Os
_symmetry_space_group_name_H-M   'P 1'
_cell_length_a   9.62920369
_cell_length_b   9.62918005
_cell_length_c   9.62095510
_cell_angle_alpha   94.01159547
_cell_angle_beta   94.00965560
_cell_angle_gamma   149.33635519
_symmetry_Int_Tables_number   1
_chemical_formula_structural   Zr8Fe7Si14Os
_chemical_formula_sum   'Zr8 Fe7 Si14 Os1'
_cell_volume   438.74676905
_cell_formula_units_Z   1
loop_
 _symmetry_equiv_pos_site_id
 _symmetry_equiv_pos_as_xyz
  1  'x, y, z'
loop_
 _atom_site_type_symbol
 _atom_site_label
 _atom_site_symmetry_multiplicity
 _atom_site_fract_x
 _atom_site_fract_y
 _atom_site_fract_z
 _atom_site_occupancy
  Zr  Zr0  1  0.695997  0.499583  0.195518  1
  Zr  Zr1  1  0.499065  0.696778  0.194938  1
  Zr  Zr2  1  0.500333  0.303882  0.804491  1
  Zr  Zr3  1  0.303322  0.501073  0.805071  1
  Zr  Zr4  1  0.862789  0.863730  0.724901  1
  Zr  Zr5  1  0.137811  0.862357  0.999985  1
  Zr  Zr6  1  0.861719  0.138074  0.999983  1
  Zr  Zr7  1  0.136262  0.137206  0.275098  1
  Fe  Fe8  1  0.898605  0.397324  0.796809  1
  Fe  Fe9  1  0.602691  0.101415  0.203208  1
  Fe  Fe10  1  0.103181  0.602133  0.203434  1
  Fe  Fe11  1  0.601939  0.398074  0.499978  1
  Fe  Fe12  1  0.397850  0.896807  0.796558  1
  Fe  Fe13  1  0.897418  0.102531  0.499980  1
  Fe  Fe14  1  0.396716  0.603266  0.500012  1
  Si  Si15  1  0.750031  0.750411  0.000417  1
  Si  Si16  1  0.249578  0.249988  0.999592  1
  Si  Si17  1  0.091541  0.500016  0.592166  1
  Si  Si18  1  0.512255  0.096897  0.594323  1
  Si  Si19  1  0.500234  0.908654  0.407913  1
  Si  Si20  1  0.902898  0.487594  0.405752  1
  Si  Si21  1  0.700048  0.000009  0.700223  1
  Si  Si22  1  0.997805  0.696535  0.706299  1
  Si  Si23  1  0.698349  0.704439  0.418507  1
  Si  Si24  1  0.289521  0.711084  0.999909  1
  Si  Si25  1  0.303780  0.002568  0.293720  1
  Si  Si26  1  0.710487  0.288750  0.999913  1
  Si  Si27  1  0.295557  0.301649  0.581488  1
  Si  Si28  1  0.999729  0.299622  0.299803  1
  Os  Os29  1  0.102489  0.897551  0.500010  1
