# generated using pymatgen
data_Pr2Fe3PdO10
_symmetry_space_group_name_H-M   'P 1'
_cell_length_a   5.96214500
_cell_length_b   7.68615400
_cell_length_c   8.81449800
_cell_angle_alpha   90.00000000
_cell_angle_beta   90.00000000
_cell_angle_gamma   90.00000000
_symmetry_Int_Tables_number   1
_chemical_formula_structural   Pr2Fe3PdO10
_chemical_formula_sum   'Pr4 Fe6 Pd2 O20'
_cell_volume   403.93287367
_cell_formula_units_Z   2
loop_
 _symmetry_equiv_pos_site_id
 _symmetry_equiv_pos_as_xyz
  1  'x, y, z'
loop_
 _atom_site_type_symbol
 _atom_site_label
 _atom_site_symmetry_multiplicity
 _atom_site_fract_x
 _atom_site_fract_y
 _atom_site_fract_z
 _atom_site_occupancy
  Pr  Pr0  1  0.997152  0.361546  0.671106  1
  Pr  Pr1  1  0.997152  0.638454  0.328894  1
  Pr  Pr2  1  0.002848  0.861546  0.828894  1
  Pr  Pr3  1  0.002848  0.138454  0.171106  1
  Fe  Fe4  1  0.504544  0.106525  0.856530  1
  Fe  Fe5  1  0.504544  0.893475  0.143470  1
  Fe  Fe6  1  0.495456  0.606525  0.643470  1
  Fe  Fe7  1  0.495456  0.393475  0.356530  1
  Fe  Fe8  1  0.255234  0.500000  0.000000  1
  Fe  Fe9  1  0.744766  0.000000  0.500000  1
  Pd  Pd10  1  0.745605  0.500000  0.000000  1
  Pd  Pd11  1  0.254395  0.000000  0.500000  1
  O  O12  1  0.245547  0.899859  0.285782  1
  O  O13  1  0.245547  0.100141  0.714218  1
  O  O14  1  0.754453  0.399859  0.214218  1
  O  O15  1  0.754453  0.600141  0.785782  1
  O  O16  1  0.750993  0.096924  0.709733  1
  O  O17  1  0.750993  0.903076  0.290267  1
  O  O18  1  0.249007  0.596924  0.790267  1
  O  O19  1  0.249007  0.403076  0.209733  1
  O  O20  1  0.498398  0.340321  0.930308  1
  O  O21  1  0.498398  0.659679  0.069692  1
  O  O22  1  0.501602  0.840321  0.569692  1
  O  O23  1  0.501602  0.159679  0.430308  1
  O  O24  1  0.283042  0.000000  0.000000  1
  O  O25  1  0.716958  0.500000  0.500000  1
  O  O26  1  0.724340  0.000000  0.000000  1
  O  O27  1  0.275660  0.500000  0.500000  1
  O  O28  1  0.999854  0.163489  0.445756  1
  O  O29  1  0.999854  0.836511  0.554244  1
  O  O30  1  0.000146  0.663489  0.054244  1
  O  O31  1  0.000146  0.336511  0.945756  1
