# generated using pymatgen
data_Er10InSnBi4
_symmetry_space_group_name_H-M   'P 1'
_cell_length_a   9.02081415
_cell_length_b   9.01600883
_cell_length_c   6.43159200
_cell_angle_alpha   90.00000000
_cell_angle_beta   90.00000000
_cell_angle_gamma   119.73491313
_symmetry_Int_Tables_number   1
_chemical_formula_structural   Er10InSnBi4
_chemical_formula_sum   'Er10 In1 Sn1 Bi4'
_cell_volume   454.21667980
_cell_formula_units_Z   1
loop_
 _symmetry_equiv_pos_site_id
 _symmetry_equiv_pos_as_xyz
  1  'x, y, z'
loop_
 _atom_site_type_symbol
 _atom_site_label
 _atom_site_symmetry_multiplicity
 _atom_site_fract_x
 _atom_site_fract_y
 _atom_site_fract_z
 _atom_site_occupancy
  Er  Er0  1  0.669209  0.329388  0.002158  1
  Er  Er1  1  0.328111  0.667023  0.002131  1
  Er  Er2  1  0.328111  0.667023  0.497869  1
  Er  Er3  1  0.669209  0.329388  0.497842  1
  Er  Er4  1  0.759387  0.758459  0.750000  1
  Er  Er5  1  0.237406  0.997527  0.750000  1
  Er  Er6  1  0.997852  0.236843  0.750000  1
  Er  Er7  1  0.237076  0.239406  0.250000  1
  Er  Er8  1  0.764876  0.009298  0.250000  1
  Er  Er9  1  0.006924  0.763811  0.250000  1
  In  In10  1  0.001364  0.395927  0.250000  1
  Sn  Sn11  1  0.394252  0.001095  0.250000  1
  Bi  Bi12  1  0.390250  0.389756  0.750000  1
  Bi  Bi13  1  0.605849  0.996589  0.750000  1
  Bi  Bi14  1  0.997757  0.605688  0.750000  1
  Bi  Bi15  1  0.612368  0.612780  0.250000  1
