# generated using pymatgen
data_BaLi8La7Pt8
_symmetry_space_group_name_H-M   'P 1'
_cell_length_a   9.91829303
_cell_length_b   9.91829247
_cell_length_c   7.43775800
_cell_angle_alpha   90.27951632
_cell_angle_beta   89.72048370
_cell_angle_gamma   131.01122425
_symmetry_Int_Tables_number   1
_chemical_formula_structural   BaLi8La7Pt8
_chemical_formula_sum   'Ba1 Li8 La7 Pt8'
_cell_volume   552.09719347
_cell_formula_units_Z   1
loop_
 _symmetry_equiv_pos_site_id
 _symmetry_equiv_pos_as_xyz
  1  'x, y, z'
loop_
 _atom_site_type_symbol
 _atom_site_label
 _atom_site_symmetry_multiplicity
 _atom_site_fract_x
 _atom_site_fract_y
 _atom_site_fract_z
 _atom_site_occupancy
  Ba  Ba0  1  0.468212  0.531788  0.453624  1
  Li  Li1  1  0.847966  0.152034  0.879776  1
  Li  Li2  1  0.853915  0.653030  0.628291  1
  Li  Li3  1  0.346970  0.146085  0.628291  1
  Li  Li4  1  0.151410  0.848590  0.378380  1
  Li  Li5  1  0.146947  0.346564  0.123482  1
  Li  Li6  1  0.653436  0.853053  0.123482  1
  Li  Li7  1  0.651202  0.348798  0.378099  1
  Li  Li8  1  0.348668  0.651332  0.879638  1
  La  La9  1  0.533152  0.971110  0.551480  1
  La  La10  1  0.028890  0.466848  0.551480  1
  La  La11  1  0.534339  0.465661  0.950194  1
  La  La12  1  0.466073  0.032200  0.052523  1
  La  La13  1  0.967800  0.533927  0.052523  1
  La  La14  1  0.968625  0.031375  0.455336  1
  La  La15  1  0.033921  0.966079  0.948546  1
  Pt  Pt16  1  0.814115  0.185885  0.265792  1
  Pt  Pt17  1  0.827297  0.690352  0.235407  1
  Pt  Pt18  1  0.309648  0.172703  0.235407  1
  Pt  Pt19  1  0.187531  0.812469  0.757602  1
  Pt  Pt20  1  0.173007  0.304283  0.757748  1
  Pt  Pt21  1  0.695717  0.826993  0.757748  1
  Pt  Pt22  1  0.685278  0.314722  0.758521  1
  Pt  Pt23  1  0.305883  0.694117  0.254632  1
