# generated using pymatgen
data_UTi5Co16Si7
_symmetry_space_group_name_H-M   'P 1'
_cell_length_a   7.91262935
_cell_length_b   7.91457389
_cell_length_c   7.91457315
_cell_angle_alpha   59.98374442
_cell_angle_beta   60.00811566
_cell_angle_gamma   60.00812307
_symmetry_Int_Tables_number   1
_chemical_formula_structural   UTi5Co16Si7
_chemical_formula_sum   'U1 Ti5 Co16 Si7'
_cell_volume   350.47799281
_cell_formula_units_Z   1
loop_
 _symmetry_equiv_pos_site_id
 _symmetry_equiv_pos_as_xyz
  1  'x, y, z'
loop_
 _atom_site_type_symbol
 _atom_site_label
 _atom_site_symmetry_multiplicity
 _atom_site_fract_x
 _atom_site_fract_y
 _atom_site_fract_z
 _atom_site_occupancy
  U  U0  1  0.202089  0.797911  0.797911  1
  Ti  Ti1  1  0.786730  0.799419  0.213270  1
  Ti  Ti2  1  0.801249  0.198751  0.198751  1
  Ti  Ti3  1  0.200581  0.213270  0.799419  1
  Ti  Ti4  1  0.786730  0.213270  0.799419  1
  Ti  Ti5  1  0.200581  0.799419  0.213270  1
  Co  Co6  1  0.619060  0.619785  0.142094  1
  Co  Co7  1  0.167888  0.508391  0.155832  1
  Co  Co8  1  0.857906  0.380940  0.380940  1
  Co  Co9  1  0.491609  0.832112  0.832112  1
  Co  Co10  1  0.496732  0.165216  0.165216  1
  Co  Co11  1  0.834784  0.827165  0.503268  1
  Co  Co12  1  0.167888  0.155832  0.508391  1
  Co  Co13  1  0.142202  0.617361  0.617361  1
  Co  Co14  1  0.172835  0.165216  0.165216  1
  Co  Co15  1  0.382639  0.376924  0.857798  1
  Co  Co16  1  0.623076  0.617361  0.617361  1
  Co  Co17  1  0.382639  0.857798  0.376924  1
  Co  Co18  1  0.380215  0.380940  0.380940  1
  Co  Co19  1  0.844168  0.832112  0.832112  1
  Co  Co20  1  0.619060  0.142094  0.619785  1
  Co  Co21  1  0.834784  0.503268  0.827165  1
  Si  Si22  1  0.509187  0.011918  0.490813  1
  Si  Si23  1  0.509187  0.490813  0.011918  1
  Si  Si24  1  0.500648  0.499352  0.499352  1
  Si  Si25  1  0.988082  0.011918  0.490813  1
  Si  Si26  1  0.988082  0.490813  0.011918  1
  Si  Si27  1  0.004683  0.495317  0.495317  1
  Si  Si28  1  0.504683  0.995317  0.995317  1
