# generated using pymatgen
data_Lu16Cd4Ru3Pt
_symmetry_space_group_name_H-M   'P 1'
_cell_length_a   9.40143598
_cell_length_b   9.45079279
_cell_length_c   9.45079400
_cell_angle_alpha   59.99999578
_cell_angle_beta   59.82617721
_cell_angle_gamma   59.82617446
_symmetry_Int_Tables_number   1
_chemical_formula_structural   Lu16Cd4Ru3Pt
_chemical_formula_sum   'Lu16 Cd4 Ru3 Pt1'
_cell_volume   592.20172069
_cell_formula_units_Z   1
loop_
 _symmetry_equiv_pos_site_id
 _symmetry_equiv_pos_as_xyz
  1  'x, y, z'
loop_
 _atom_site_type_symbol
 _atom_site_label
 _atom_site_symmetry_multiplicity
 _atom_site_fract_x
 _atom_site_fract_y
 _atom_site_fract_z
 _atom_site_occupancy
  Lu  Lu0  1  0.345504  0.351087  0.351087  1
  Lu  Lu1  1  0.345504  0.351087  0.952323  1
  Lu  Lu2  1  0.345504  0.952323  0.351087  1
  Lu  Lu3  1  0.959871  0.346709  0.346709  1
  Lu  Lu4  1  0.815184  0.189131  0.189131  1
  Lu  Lu5  1  0.189550  0.811166  0.811166  1
  Lu  Lu6  1  0.189550  0.811166  0.188117  1
  Lu  Lu7  1  0.815184  0.189131  0.806555  1
  Lu  Lu8  1  0.189550  0.188117  0.811166  1
  Lu  Lu9  1  0.815184  0.806555  0.189131  1
  Lu  Lu10  1  0.936129  0.562585  0.562585  1
  Lu  Lu11  1  0.558597  0.937859  0.937859  1
  Lu  Lu12  1  0.558597  0.937859  0.565685  1
  Lu  Lu13  1  0.936129  0.562585  0.938700  1
  Lu  Lu14  1  0.558597  0.565685  0.937859  1
  Lu  Lu15  1  0.936129  0.938700  0.562585  1
  Cd  Cd16  1  0.580690  0.580086  0.580086  1
  Cd  Cd17  1  0.580690  0.580086  0.259138  1
  Cd  Cd18  1  0.580690  0.259138  0.580086  1
  Cd  Cd19  1  0.256558  0.581147  0.581147  1
  Ru  Ru20  1  0.144279  0.139787  0.139787  1
  Ru  Ru21  1  0.144279  0.139787  0.576148  1
  Ru  Ru22  1  0.144279  0.576148  0.139787  1
  Pt  Pt23  1  0.573771  0.142077  0.142077  1
