# generated using pymatgen
data_Rb8Na4Nd3ErSb8
_symmetry_space_group_name_H-M   'P 1'
_cell_length_a   11.43738329
_cell_length_b   11.43738296
_cell_length_c   7.56621481
_cell_angle_alpha   90.07543953
_cell_angle_beta   89.92456235
_cell_angle_gamma   97.66470969
_symmetry_Int_Tables_number   1
_chemical_formula_structural   Rb8Na4Nd3ErSb8
_chemical_formula_sum   'Rb8 Na4 Nd3 Er1 Sb8'
_cell_volume   980.92028628
_cell_formula_units_Z   1
loop_
 _symmetry_equiv_pos_site_id
 _symmetry_equiv_pos_as_xyz
  1  'x, y, z'
loop_
 _atom_site_type_symbol
 _atom_site_label
 _atom_site_symmetry_multiplicity
 _atom_site_fract_x
 _atom_site_fract_y
 _atom_site_fract_z
 _atom_site_occupancy
  Rb  Rb0  1  0.069101  0.430850  0.250574  1
  Rb  Rb1  1  0.430850  0.069101  0.749426  1
  Rb  Rb2  1  0.929102  0.569372  0.748936  1
  Rb  Rb3  1  0.569372  0.929102  0.251064  1
  Rb  Rb4  1  0.677355  0.323839  0.215425  1
  Rb  Rb5  1  0.822335  0.177643  0.714227  1
  Rb  Rb6  1  0.323839  0.677355  0.784575  1
  Rb  Rb7  1  0.177643  0.822335  0.285773  1
  Na  Na8  1  0.382316  0.382316  0.000000  1
  Na  Na9  1  0.118305  0.118305  0.500000  1
  Na  Na10  1  0.618237  0.618237  0.000000  1
  Na  Na11  1  0.881757  0.881757  0.500000  1
  Nd  Nd12  1  0.132148  0.132148  0.000000  1
  Nd  Nd13  1  0.369913  0.369913  0.500000  1
  Nd  Nd14  1  0.866194  0.866194  0.000000  1
  Er  Er15  1  0.630762  0.630762  0.500000  1
  Sb  Sb16  1  0.844079  0.649338  0.257025  1
  Sb  Sb17  1  0.649338  0.844079  0.742975  1
  Sb  Sb18  1  0.149256  0.351167  0.750231  1
  Sb  Sb19  1  0.351167  0.149256  0.249769  1
  Sb  Sb20  1  0.897181  0.101961  0.217956  1
  Sb  Sb21  1  0.604159  0.403627  0.713829  1
  Sb  Sb22  1  0.101961  0.897181  0.782044  1
  Sb  Sb23  1  0.403627  0.604159  0.286171  1
