# generated using pymatgen
data_TiNb2IrS10
_symmetry_space_group_name_H-M   'P 1'
_cell_length_a   3.44627000
_cell_length_b   9.24379486
_cell_length_c   9.89921692
_cell_angle_alpha   67.40577257
_cell_angle_beta   90.00000000
_cell_angle_gamma   90.00000000
_symmetry_Int_Tables_number   1
_chemical_formula_structural   TiNb2IrS10
_chemical_formula_sum   'Ti1 Nb2 Ir1 S10'
_cell_volume   291.15164795
_cell_formula_units_Z   1
loop_
 _symmetry_equiv_pos_site_id
 _symmetry_equiv_pos_as_xyz
  1  'x, y, z'
loop_
 _atom_site_type_symbol
 _atom_site_label
 _atom_site_symmetry_multiplicity
 _atom_site_fract_x
 _atom_site_fract_y
 _atom_site_fract_z
 _atom_site_occupancy
  Ti  Ti0  1  0.250000  0.451494  0.911920  1
  Nb  Nb1  1  0.750000  0.293421  0.630718  1
  Nb  Nb2  1  0.250000  0.710099  0.364313  1
  Ir  Ir3  1  0.750000  0.543937  0.110466  1
  S  S4  1  0.750000  0.510866  0.362288  1
  S  S5  1  0.250000  0.347303  0.162212  1
  S  S6  1  0.250000  0.495327  0.628030  1
  S  S7  1  0.750000  0.833923  0.478085  1
  S  S8  1  0.250000  0.170606  0.514107  1
  S  S9  1  0.250000  0.076009  0.738660  1
  S  S10  1  0.250000  0.728164  0.096869  1
  S  S11  1  0.750000  0.928955  0.254026  1
  S  S12  1  0.750000  0.263135  0.898423  1
  S  S13  1  0.750000  0.646761  0.849886  1
