# generated using pymatgen
data_Cr4Br7F
_symmetry_space_group_name_H-M   'P 1'
_cell_length_a   7.93583662
_cell_length_b   7.93583660
_cell_length_c   7.93583608
_cell_angle_alpha   56.42999002
_cell_angle_beta   56.42998911
_cell_angle_gamma   56.42998729
_symmetry_Int_Tables_number   1
_chemical_formula_structural   Cr4Br7F
_chemical_formula_sum   'Cr4 Br7 F1'
_cell_volume   324.22677121
_cell_formula_units_Z   1
loop_
 _symmetry_equiv_pos_site_id
 _symmetry_equiv_pos_as_xyz
  1  'x, y, z'
loop_
 _atom_site_type_symbol
 _atom_site_label
 _atom_site_symmetry_multiplicity
 _atom_site_fract_x
 _atom_site_fract_y
 _atom_site_fract_z
 _atom_site_occupancy
  Cr  Cr0  1  0.608237  0.138080  0.138080  1
  Cr  Cr1  1  0.126391  0.126391  0.126391  1
  Cr  Cr2  1  0.138080  0.138080  0.608237  1
  Cr  Cr3  1  0.138080  0.608237  0.138080  1
  Br  Br4  1  0.374662  0.374662  0.875468  1
  Br  Br5  1  0.897368  0.897368  0.897368  1
  Br  Br6  1  0.880204  0.880204  0.376616  1
  Br  Br7  1  0.376616  0.880204  0.880204  1
  Br  Br8  1  0.374662  0.875468  0.374662  1
  Br  Br9  1  0.880204  0.376616  0.880204  1
  Br  Br10  1  0.875468  0.374662  0.374662  1
  F  F11  1  0.330025  0.330025  0.330025  1
