# generated using pymatgen
data_CePrPd2Pb
_symmetry_space_group_name_H-M   'P 1'
_cell_length_a   8.01911400
_cell_length_b   8.00246600
_cell_length_c   3.83452200
_cell_angle_alpha   90.00000000
_cell_angle_beta   90.00000000
_cell_angle_gamma   90.00000000
_symmetry_Int_Tables_number   1
_chemical_formula_structural   CePrPd2Pb
_chemical_formula_sum   'Ce2 Pr2 Pd4 Pb2'
_cell_volume   246.07158062
_cell_formula_units_Z   2
loop_
 _symmetry_equiv_pos_site_id
 _symmetry_equiv_pos_as_xyz
  1  'x, y, z'
loop_
 _atom_site_type_symbol
 _atom_site_label
 _atom_site_symmetry_multiplicity
 _atom_site_fract_x
 _atom_site_fract_y
 _atom_site_fract_z
 _atom_site_occupancy
  Ce  Ce0  1  0.824144  0.674724  0.500000  1
  Ce  Ce1  1  0.324144  0.825276  0.500000  1
  Pr  Pr2  1  0.675567  0.176378  0.500000  1
  Pr  Pr3  1  0.175567  0.323622  0.500000  1
  Pd  Pd4  1  0.374650  0.110341  0.000000  1
  Pd  Pd5  1  0.124705  0.637694  0.000000  1
  Pd  Pd6  1  0.624705  0.862306  0.000000  1
  Pd  Pd7  1  0.874650  0.389659  0.000000  1
  Pb  Pb8  1  0.000933  0.998036  0.000000  1
  Pb  Pb9  1  0.500933  0.501964  0.000000  1
