# generated using pymatgen
data_TbNd3OsI4
_symmetry_space_group_name_H-M   'P 1'
_cell_length_a   11.56320911
_cell_length_b   11.48610818
_cell_length_c   6.37117323
_cell_angle_alpha   89.98915895
_cell_angle_beta   89.97639737
_cell_angle_gamma   89.94982698
_symmetry_Int_Tables_number   1
_chemical_formula_structural   TbNd3OsI4
_chemical_formula_sum   'Tb2 Nd6 Os2 I8'
_cell_volume   846.19505704
_cell_formula_units_Z   2
loop_
 _symmetry_equiv_pos_site_id
 _symmetry_equiv_pos_as_xyz
  1  'x, y, z'
loop_
 _atom_site_type_symbol
 _atom_site_label
 _atom_site_symmetry_multiplicity
 _atom_site_fract_x
 _atom_site_fract_y
 _atom_site_fract_z
 _atom_site_occupancy
  Tb  Tb0  1  0.192122  0.919936  0.999344  1
  Tb  Tb1  1  0.807928  0.920080  0.499735  1
  Nd  Nd2  1  0.795774  0.082306  0.000105  1
  Nd  Nd3  1  0.084993  0.796011  0.500035  1
  Nd  Nd4  1  0.081505  0.203786  0.999894  1
  Nd  Nd5  1  0.204112  0.082082  0.499798  1
  Nd  Nd6  1  0.915182  0.796084  0.999939  1
  Nd  Nd7  1  0.918334  0.203821  0.499707  1
  Os  Os8  1  0.000025  0.999957  0.249842  1
  Os  Os9  1  0.999962  0.999982  0.749852  1
  I  I10  1  0.644858  0.142767  0.497812  1
  I  I11  1  0.846580  0.647548  0.502484  1
  I  I12  1  0.355010  0.142446  0.997469  1
  I  I13  1  0.150466  0.358392  0.497284  1
  I  I14  1  0.643018  0.849586  0.003397  1
  I  I15  1  0.357131  0.849231  0.503102  1
  I  I16  1  0.153817  0.647416  0.997776  1
  I  I17  1  0.849182  0.358568  0.002425  1
