# generated using pymatgen
data_Cs2Zn5Sb4
_symmetry_space_group_name_H-M   'P 1'
_cell_length_a   7.44081517
_cell_length_b   7.44081568
_cell_length_c   12.79416500
_cell_angle_alpha   90.00000000
_cell_angle_beta   90.00000000
_cell_angle_gamma   116.93492983
_symmetry_Int_Tables_number   1
_chemical_formula_structural   Cs2Zn5Sb4
_chemical_formula_sum   'Cs4 Zn10 Sb8'
_cell_volume   631.51671766
_cell_formula_units_Z   2
loop_
 _symmetry_equiv_pos_site_id
 _symmetry_equiv_pos_as_xyz
  1  'x, y, z'
loop_
 _atom_site_type_symbol
 _atom_site_label
 _atom_site_symmetry_multiplicity
 _atom_site_fract_x
 _atom_site_fract_y
 _atom_site_fract_z
 _atom_site_occupancy
  Cs  Cs0  1  0.223223  0.776777  0.500000  1
  Cs  Cs1  1  0.223223  0.776777  0.000000  1
  Cs  Cs2  1  0.776777  0.223223  0.500000  1
  Cs  Cs3  1  0.776777  0.223223  0.000000  1
  Zn  Zn4  1  0.533106  0.247848  0.250000  1
  Zn  Zn5  1  0.752152  0.466894  0.750000  1
  Zn  Zn6  1  0.466894  0.752152  0.750000  1
  Zn  Zn7  1  0.247848  0.533106  0.250000  1
  Zn  Zn8  1  0.657181  0.657181  0.390900  1
  Zn  Zn9  1  0.342819  0.342819  0.609100  1
  Zn  Zn10  1  0.657181  0.657181  0.109100  1
  Zn  Zn11  1  0.342819  0.342819  0.890900  1
  Zn  Zn12  1  0.008424  0.008424  0.250000  1
  Zn  Zn13  1  0.991576  0.991576  0.750000  1
  Sb  Sb14  1  0.601426  0.913049  0.250000  1
  Sb  Sb15  1  0.086951  0.398574  0.750000  1
  Sb  Sb16  1  0.398574  0.086951  0.750000  1
  Sb  Sb17  1  0.913049  0.601426  0.250000  1
  Sb  Sb18  1  0.283634  0.283634  0.398322  1
  Sb  Sb19  1  0.716366  0.716366  0.601678  1
  Sb  Sb20  1  0.283634  0.283634  0.101678  1
  Sb  Sb21  1  0.716366  0.716366  0.898322  1
