# generated using pymatgen
data_Hf8Fe3Co4Si14Ir
_symmetry_space_group_name_H-M   'P 1'
_cell_length_a   9.47317550
_cell_length_b   9.45915108
_cell_length_c   9.44997024
_cell_angle_alpha   94.13414122
_cell_angle_beta   94.21835332
_cell_angle_gamma   148.71103001
_symmetry_Int_Tables_number   1
_chemical_formula_structural   Hf8Fe3Co4Si14Ir
_chemical_formula_sum   'Hf8 Fe3 Co4 Si14 Ir1'
_cell_volume   423.44649082
_cell_formula_units_Z   1
loop_
 _symmetry_equiv_pos_site_id
 _symmetry_equiv_pos_as_xyz
  1  'x, y, z'
loop_
 _atom_site_type_symbol
 _atom_site_label
 _atom_site_symmetry_multiplicity
 _atom_site_fract_x
 _atom_site_fract_y
 _atom_site_fract_z
 _atom_site_occupancy
  Hf  Hf0  1  0.137935  0.137955  0.275985  1
  Hf  Hf1  1  0.861346  0.861369  0.722605  1
  Hf  Hf2  1  0.135966  0.860845  0.999308  1
  Hf  Hf3  1  0.863359  0.138449  0.999329  1
  Hf  Hf4  1  0.304706  0.500072  0.802783  1
  Hf  Hf5  1  0.696286  0.501830  0.195193  1
  Hf  Hf6  1  0.498930  0.693363  0.195181  1
  Hf  Hf7  1  0.498064  0.302699  0.802798  1
  Fe  Fe8  1  0.394218  0.894239  0.788520  1
  Fe  Fe9  1  0.902570  0.102936  0.503818  1
  Fe  Fe10  1  0.601286  0.400855  0.503752  1
  Co  Co11  1  0.600522  0.100531  0.201035  1
  Co  Co12  1  0.900452  0.400436  0.800937  1
  Co  Co13  1  0.100499  0.896382  0.498635  1
  Co  Co14  1  0.398086  0.602311  0.498617  1
  Si  Si15  1  0.290442  0.290495  0.580728  1
  Si  Si16  1  0.709404  0.709467  0.419026  1
  Si  Si17  1  0.301864  0.719616  0.994349  1
  Si  Si18  1  0.692460  0.274686  0.994342  1
  Si  Si19  1  0.087683  0.494949  0.591241  1
  Si  Si20  1  0.884396  0.480311  0.414563  1
  Si  Si21  1  0.530245  0.934265  0.414574  1
  Si  Si22  1  0.503587  0.096304  0.591240  1
  Si  Si23  1  0.248604  0.248794  0.999297  1
  Si  Si24  1  0.750702  0.750473  0.999299  1
  Si  Si25  1  0.310869  0.016760  0.302322  1
  Si  Si26  1  0.700989  0.001735  0.699799  1
  Si  Si27  1  0.998813  0.698043  0.699811  1
  Si  Si28  1  0.991453  0.285534  0.302350  1
  Ir  Ir29  1  0.104264  0.604298  0.208561  1
