# generated using pymatgen
data_La2HoCu7(Ni3B)2
_symmetry_space_group_name_H-M   'P 1'
_cell_length_a   5.09705478
_cell_length_b   5.10098141
_cell_length_c   11.05791103
_cell_angle_alpha   89.98197840
_cell_angle_beta   90.03607096
_cell_angle_gamma   119.97452622
_symmetry_Int_Tables_number   1
_chemical_formula_structural   La2HoCu7(Ni3B)2
_chemical_formula_sum   'La2 Ho1 Cu7 Ni6 B2'
_cell_volume   249.05089186
_cell_formula_units_Z   1
loop_
 _symmetry_equiv_pos_site_id
 _symmetry_equiv_pos_as_xyz
  1  'x, y, z'
loop_
 _atom_site_type_symbol
 _atom_site_label
 _atom_site_symmetry_multiplicity
 _atom_site_fract_x
 _atom_site_fract_y
 _atom_site_fract_z
 _atom_site_occupancy
  La  La0  1  0.000111  0.000000  0.312720  1
  La  La1  1  0.999590  0.000000  0.687246  1
  Ho  Ho2  1  0.000115  0.000000  0.000236  1
  Cu  Cu3  1  0.499921  0.000000  0.499835  1
  Cu  Cu4  1  0.499876  0.500006  0.499813  1
  Cu  Cu5  1  0.999870  0.499994  0.499813  1
  Cu  Cu6  1  0.333352  0.666517  0.313498  1
  Cu  Cu7  1  0.666835  0.333483  0.313498  1
  Cu  Cu8  1  0.666473  0.333375  0.686403  1
  Cu  Cu9  1  0.333099  0.666625  0.686403  1
  Ni  Ni10  1  0.500275  0.000000  0.125932  1
  Ni  Ni11  1  0.500290  0.499968  0.126104  1
  Ni  Ni12  1  0.000323  0.500032  0.126104  1
  Ni  Ni13  1  0.499917  0.000000  0.874055  1
  Ni  Ni14  1  0.499823  0.500059  0.874108  1
  Ni  Ni15  1  0.999765  0.499941  0.874108  1
  B  B16  1  0.333497  0.666725  0.000060  1
  B  B17  1  0.666771  0.333275  0.000060  1
