# generated using pymatgen
data_Y2Tm10InCo4Cu
_symmetry_space_group_name_H-M   'P 1'
_cell_length_a   8.22069836
_cell_length_b   8.22069838
_cell_length_c   8.19021252
_cell_angle_alpha   111.02635441
_cell_angle_beta   110.80408675
_cell_angle_gamma   106.77874268
_symmetry_Int_Tables_number   1
_chemical_formula_structural   Y2Tm10InCo4Cu
_chemical_formula_sum   'Y2 Tm10 In1 Co4 Cu1'
_cell_volume   424.49991506
_cell_formula_units_Z   1
loop_
 _symmetry_equiv_pos_site_id
 _symmetry_equiv_pos_as_xyz
  1  'x, y, z'
loop_
 _atom_site_type_symbol
 _atom_site_label
 _atom_site_symmetry_multiplicity
 _atom_site_fract_x
 _atom_site_fract_y
 _atom_site_fract_z
 _atom_site_occupancy
  Y  Y0  1  0.187387  0.289260  0.476644  1
  Y  Y1  1  0.812613  0.710740  0.523356  1
  Tm  Tm2  1  0.186853  0.709942  0.896796  1
  Tm  Tm3  1  0.813147  0.290058  0.103204  1
  Tm  Tm4  1  0.314486  0.620565  0.303892  1
  Tm  Tm5  1  0.685514  0.379435  0.696108  1
  Tm  Tm6  1  0.316676  0.010595  0.696108  1
  Tm  Tm7  1  0.683324  0.989405  0.303892  1
  Tm  Tm8  1  0.417289  0.216609  0.197655  1
  Tm  Tm9  1  0.582711  0.783391  0.802345  1
  Tm  Tm10  1  0.018954  0.219634  0.802345  1
  Tm  Tm11  1  0.981046  0.780366  0.197655  1
  In  In12  1  0.500000  0.500000  0.000000  1
  Co  Co13  1  0.113862  0.613862  0.500000  1
  Co  Co14  1  0.886138  0.386138  0.500000  1
  Co  Co15  1  0.376338  0.999541  0.375879  1
  Co  Co16  1  0.623662  0.000459  0.624121  1
  Cu  Cu17  1  0.000000  0.000000  0.000000  1
