# generated using pymatgen
data_Dy3YMg2(B2Rh5)2
_symmetry_space_group_name_H-M   'P 1'
_cell_length_a   9.63941322
_cell_length_b   9.63941322
_cell_length_c   3.18813800
_cell_angle_alpha   90.00000000
_cell_angle_beta   90.00000000
_cell_angle_gamma   89.97552299
_symmetry_Int_Tables_number   1
_chemical_formula_structural   Dy3YMg2(B2Rh5)2
_chemical_formula_sum   'Dy3 Y1 Mg2 B4 Rh10'
_cell_volume   296.23629536
_cell_formula_units_Z   1
loop_
 _symmetry_equiv_pos_site_id
 _symmetry_equiv_pos_as_xyz
  1  'x, y, z'
loop_
 _atom_site_type_symbol
 _atom_site_label
 _atom_site_symmetry_multiplicity
 _atom_site_fract_x
 _atom_site_fract_y
 _atom_site_fract_z
 _atom_site_occupancy
  Dy  Dy0  1  0.324317  0.824317  0.000000  1
  Dy  Dy1  1  0.175626  0.324396  0.000000  1
  Dy  Dy2  1  0.824396  0.675626  0.000000  1
  Y  Y3  1  0.675697  0.175697  0.000000  1
  Mg  Mg4  1  0.000027  0.999987  0.000000  1
  Mg  Mg5  1  0.499987  0.500027  0.000000  1
  B  B6  1  0.122545  0.622545  0.000000  1
  B  B7  1  0.877429  0.377429  0.000000  1
  B  B8  1  0.622554  0.877433  0.000000  1
  B  B9  1  0.377433  0.122554  0.000000  1
  Rh  Rh10  1  0.499685  0.999685  0.500000  1
  Rh  Rh11  1  0.000041  0.500041  0.500000  1
  Rh  Rh12  1  0.224273  0.070437  0.500000  1
  Rh  Rh13  1  0.775834  0.929249  0.500000  1
  Rh  Rh14  1  0.070438  0.775738  0.500000  1
  Rh  Rh15  1  0.724313  0.429981  0.500000  1
  Rh  Rh16  1  0.929981  0.224313  0.500000  1
  Rh  Rh17  1  0.275738  0.570438  0.500000  1
  Rh  Rh18  1  0.570437  0.724273  0.500000  1
  Rh  Rh19  1  0.429249  0.275834  0.500000  1
