# generated using pymatgen
data_Lu4Sc8In2Fe3
_symmetry_space_group_name_H-M   'P 1'
_cell_length_a   7.93207264
_cell_length_b   7.93207127
_cell_length_c   7.93207279
_cell_angle_alpha   108.11090400
_cell_angle_beta   108.11089258
_cell_angle_gamma   112.22753546
_symmetry_Int_Tables_number   1
_chemical_formula_structural   Lu4Sc8In2Fe3
_chemical_formula_sum   'Lu4 Sc8 In2 Fe3'
_cell_volume   383.51258150
_cell_formula_units_Z   1
loop_
 _symmetry_equiv_pos_site_id
 _symmetry_equiv_pos_as_xyz
  1  'x, y, z'
loop_
 _atom_site_type_symbol
 _atom_site_label
 _atom_site_symmetry_multiplicity
 _atom_site_fract_x
 _atom_site_fract_y
 _atom_site_fract_z
 _atom_site_occupancy
  Lu  Lu0  1  0.304023  0.304023  0.608044  1
  Lu  Lu1  1  0.695977  0.695977  0.391956  1
  Lu  Lu2  1  0.695977  0.304023  0.000000  1
  Lu  Lu3  1  0.304023  0.695977  0.000000  1
  Sc  Sc4  1  0.189671  0.422123  0.232452  1
  Sc  Sc5  1  0.810329  0.577877  0.767548  1
  Sc  Sc6  1  0.189671  0.957220  0.767548  1
  Sc  Sc7  1  0.957220  0.189671  0.767548  1
  Sc  Sc8  1  0.810329  0.042780  0.232452  1
  Sc  Sc9  1  0.042780  0.810329  0.232452  1
  Sc  Sc10  1  0.422123  0.189671  0.232452  1
  Sc  Sc11  1  0.577877  0.810329  0.767548  1
  In  In12  1  0.000000  0.500000  0.500000  1
  In  In13  1  0.500000  0.000000  0.500000  1
  Fe  Fe14  1  0.377525  0.377525  0.000000  1
  Fe  Fe15  1  0.622475  0.622475  0.000000  1
  Fe  Fe16  1  0.000000  0.000000  0.000000  1
