# generated using pymatgen
data_Y10SiHgPb6
_symmetry_space_group_name_H-M   'P 1'
_cell_length_a   9.29120200
_cell_length_b   9.29120117
_cell_length_c   6.80843700
_cell_angle_alpha   90.00000000
_cell_angle_beta   90.00000000
_cell_angle_gamma   120.00000297
_symmetry_Int_Tables_number   1
_chemical_formula_structural   Y10SiHgPb6
_chemical_formula_sum   'Y10 Si1 Hg1 Pb6'
_cell_volume   509.00471725
_cell_formula_units_Z   1
loop_
 _symmetry_equiv_pos_site_id
 _symmetry_equiv_pos_as_xyz
  1  'x, y, z'
loop_
 _atom_site_type_symbol
 _atom_site_label
 _atom_site_symmetry_multiplicity
 _atom_site_fract_x
 _atom_site_fract_y
 _atom_site_fract_z
 _atom_site_occupancy
  Y  Y0  1  0.666667  0.333333  0.500000  1
  Y  Y1  1  0.333333  0.666667  0.500000  1
  Y  Y2  1  0.333333  0.666667  0.000000  1
  Y  Y3  1  0.666667  0.333333  0.000000  1
  Y  Y4  1  0.742840  0.742840  0.224037  1
  Y  Y5  1  0.257160  0.000000  0.224037  1
  Y  Y6  1  0.000000  0.257160  0.224037  1
  Y  Y7  1  0.257160  0.257160  0.775963  1
  Y  Y8  1  0.742840  0.000000  0.775963  1
  Y  Y9  1  0.000000  0.742840  0.775963  1
  Si  Si10  1  0.000000  0.000000  0.000000  1
  Hg  Hg11  1  0.000000  0.000000  0.500000  1
  Pb  Pb12  1  0.390996  0.390996  0.249759  1
  Pb  Pb13  1  0.609004  0.000000  0.249759  1
  Pb  Pb14  1  0.000000  0.609004  0.249759  1
  Pb  Pb15  1  0.609004  0.609004  0.750241  1
  Pb  Pb16  1  0.390996  0.000000  0.750241  1
  Pb  Pb17  1  0.000000  0.390996  0.750241  1
