# generated using pymatgen
data_Ca2La7YSi8O3
_symmetry_space_group_name_H-M   'P 1'
_cell_length_a   10.75538042
_cell_length_b   10.79742135
_cell_length_c   4.59386600
_cell_angle_alpha   90.00000000
_cell_angle_beta   90.00000000
_cell_angle_gamma   120.12938849
_symmetry_Int_Tables_number   1
_chemical_formula_structural   Ca2La7YSi8O3
_chemical_formula_sum   'Ca2 La7 Y1 Si8 O3'
_cell_volume   461.41006893
_cell_formula_units_Z   1
loop_
 _symmetry_equiv_pos_site_id
 _symmetry_equiv_pos_as_xyz
  1  'x, y, z'
loop_
 _atom_site_type_symbol
 _atom_site_label
 _atom_site_symmetry_multiplicity
 _atom_site_fract_x
 _atom_site_fract_y
 _atom_site_fract_z
 _atom_site_occupancy
  Ca  Ca0  1  0.500000  0.500000  0.500000  1
  Ca  Ca1  1  0.500000  0.000000  0.500000  1
  La  La2  1  0.217369  0.792950  0.000000  1
  La  La3  1  0.573341  0.786671  0.000000  1
  La  La4  1  0.782631  0.575581  0.000000  1
  La  La5  1  0.000000  0.000000  0.000000  1
  La  La6  1  0.217369  0.424419  0.000000  1
  La  La7  1  0.426659  0.213329  0.000000  1
  La  La8  1  0.782631  0.207050  0.000000  1
  Y  Y9  1  0.000000  0.500000  0.500000  1
  Si  Si10  1  0.000000  0.777730  0.500000  1
  Si  Si11  1  0.000000  0.222270  0.500000  1
  Si  Si12  1  0.218938  0.218863  0.500000  1
  Si  Si13  1  0.781062  0.999924  0.500000  1
  Si  Si14  1  0.327557  0.663779  0.500000  1
  Si  Si15  1  0.218938  0.000076  0.500000  1
  Si  Si16  1  0.672443  0.336221  0.500000  1
  Si  Si17  1  0.781062  0.781137  0.500000  1
  O  O18  1  0.000000  0.500000  0.000000  1
  O  O19  1  0.500000  0.500000  0.000000  1
  O  O20  1  0.500000  0.000000  0.000000  1
