# generated using pymatgen
data_Tm2P7(IrRu3)3
_symmetry_space_group_name_H-M   'P 1'
_cell_length_a   9.43483000
_cell_length_b   9.43483097
_cell_length_c   3.92877700
_cell_angle_alpha   90.00000000
_cell_angle_beta   90.00000000
_cell_angle_gamma   120.00000362
_symmetry_Int_Tables_number   1
_chemical_formula_structural   Tm2P7(IrRu3)3
_chemical_formula_sum   'Tm2 P7 Ir3 Ru9'
_cell_volume   302.86995823
_cell_formula_units_Z   1
loop_
 _symmetry_equiv_pos_site_id
 _symmetry_equiv_pos_as_xyz
  1  'x, y, z'
loop_
 _atom_site_type_symbol
 _atom_site_label
 _atom_site_symmetry_multiplicity
 _atom_site_fract_x
 _atom_site_fract_y
 _atom_site_fract_z
 _atom_site_occupancy
  Tm  Tm0  1  0.666667  0.333333  0.500000  1
  Tm  Tm1  1  0.333333  0.666667  0.000000  1
  P  P2  1  0.000000  0.000000  0.000000  1
  P  P3  1  0.419622  0.298730  0.000000  1
  P  P4  1  0.879110  0.580378  0.000000  1
  P  P5  1  0.701270  0.120890  0.000000  1
  P  P6  1  0.116076  0.400875  0.500000  1
  P  P7  1  0.284798  0.883924  0.500000  1
  P  P8  1  0.599125  0.715202  0.500000  1
  Ir  Ir9  1  0.388086  0.446959  0.500000  1
  Ir  Ir10  1  0.058873  0.611914  0.500000  1
  Ir  Ir11  1  0.553041  0.941127  0.500000  1
  Ru  Ru12  1  0.434059  0.065553  0.000000  1
  Ru  Ru13  1  0.631493  0.565941  0.000000  1
  Ru  Ru14  1  0.934447  0.368507  0.000000  1
  Ru  Ru15  1  0.162219  0.271963  0.000000  1
  Ru  Ru16  1  0.109744  0.837781  0.000000  1
  Ru  Ru17  1  0.728037  0.890256  0.000000  1
  Ru  Ru18  1  0.220354  0.090087  0.500000  1
  Ru  Ru19  1  0.869733  0.779646  0.500000  1
  Ru  Ru20  1  0.909913  0.130267  0.500000  1
