# generated using pymatgen
data_SmYCo2(P3Rh4)2
_symmetry_space_group_name_H-M   'P 1'
_cell_length_a   3.86770000
_cell_length_b   10.79162030
_cell_length_c   12.43972548
_cell_angle_alpha   89.94386880
_cell_angle_beta   90.00000000
_cell_angle_gamma   90.00000000
_symmetry_Int_Tables_number   1
_chemical_formula_structural   SmYCo2(P3Rh4)2
_chemical_formula_sum   'Sm2 Y2 Co4 P12 Rh16'
_cell_volume   519.21834092
_cell_formula_units_Z   2
loop_
 _symmetry_equiv_pos_site_id
 _symmetry_equiv_pos_as_xyz
  1  'x, y, z'
loop_
 _atom_site_type_symbol
 _atom_site_label
 _atom_site_symmetry_multiplicity
 _atom_site_fract_x
 _atom_site_fract_y
 _atom_site_fract_z
 _atom_site_occupancy
  Sm  Sm0  1  0.250000  0.914808  0.207660  1
  Sm  Sm1  1  0.750000  0.085192  0.792340  1
  Y  Y2  1  0.750000  0.414857  0.292489  1
  Y  Y3  1  0.250000  0.585143  0.707511  1
  Co  Co4  1  0.250000  0.036388  0.434212  1
  Co  Co5  1  0.750000  0.963612  0.565788  1
  Co  Co6  1  0.750000  0.535301  0.065857  1
  Co  Co7  1  0.250000  0.464699  0.934143  1
  P  P8  1  0.250000  0.075745  0.605311  1
  P  P9  1  0.750000  0.924255  0.394689  1
  P  P10  1  0.750000  0.575600  0.894207  1
  P  P11  1  0.250000  0.424400  0.105793  1
  P  P12  1  0.250000  0.227804  0.372613  1
  P  P13  1  0.750000  0.772196  0.627387  1
  P  P14  1  0.750000  0.725968  0.126701  1
  P  P15  1  0.250000  0.274032  0.873299  1
  P  P16  1  0.250000  0.899019  0.888971  1
  P  P17  1  0.750000  0.100981  0.111029  1
  P  P18  1  0.750000  0.400162  0.611698  1
  P  P19  1  0.250000  0.599838  0.388302  1
  Rh  Rh20  1  0.250000  0.783864  0.487266  1
  Rh  Rh21  1  0.750000  0.216136  0.512734  1
  Rh  Rh22  1  0.750000  0.284413  0.012023  1
  Rh  Rh23  1  0.250000  0.715587  0.987977  1
  Rh  Rh24  1  0.250000  0.092036  0.982218  1
  Rh  Rh25  1  0.750000  0.907964  0.017782  1
  Rh  Rh26  1  0.750000  0.591678  0.520195  1
  Rh  Rh27  1  0.250000  0.408322  0.479805  1
  Rh  Rh28  1  0.250000  0.274240  0.677440  1
  Rh  Rh29  1  0.750000  0.725760  0.322560  1
  Rh  Rh30  1  0.750000  0.771742  0.821560  1
  Rh  Rh31  1  0.250000  0.228258  0.178440  1
  Rh  Rh32  1  0.250000  0.612846  0.198815  1
  Rh  Rh33  1  0.750000  0.387154  0.801185  1
  Rh  Rh34  1  0.750000  0.115045  0.301920  1
  Rh  Rh35  1  0.250000  0.884955  0.698080  1
