# generated using pymatgen
data_Ho5Lu11(CdRh)4
_symmetry_space_group_name_H-M   'P 1'
_cell_length_a   9.47920728
_cell_length_b   9.47920753
_cell_length_c   9.54968100
_cell_angle_alpha   59.75376491
_cell_angle_beta   59.75376404
_cell_angle_gamma   59.73741828
_symmetry_Int_Tables_number   1
_chemical_formula_structural   Ho5Lu11(CdRh)4
_chemical_formula_sum   'Ho5 Lu11 Cd4 Rh4'
_cell_volume   603.29352031
_cell_formula_units_Z   1
loop_
 _symmetry_equiv_pos_site_id
 _symmetry_equiv_pos_as_xyz
  1  'x, y, z'
loop_
 _atom_site_type_symbol
 _atom_site_label
 _atom_site_symmetry_multiplicity
 _atom_site_fract_x
 _atom_site_fract_y
 _atom_site_fract_z
 _atom_site_occupancy
  Ho  Ho0  1  0.935765  0.563340  0.563726  1
  Ho  Ho1  1  0.935765  0.563340  0.937169  1
  Ho  Ho2  1  0.563340  0.935765  0.563726  1
  Ho  Ho3  1  0.563340  0.935765  0.937169  1
  Ho  Ho4  1  0.312345  0.312345  0.687655  1
  Lu  Lu5  1  0.937460  0.937460  0.562540  1
  Lu  Lu6  1  0.561541  0.561541  0.938459  1
  Lu  Lu7  1  0.686826  0.686826  0.313174  1
  Lu  Lu8  1  0.149241  0.547596  0.151581  1
  Lu  Lu9  1  0.689373  0.312904  0.686695  1
  Lu  Lu10  1  0.150118  0.150118  0.153672  1
  Lu  Lu11  1  0.547596  0.149241  0.151581  1
  Lu  Lu12  1  0.689373  0.312904  0.311028  1
  Lu  Lu13  1  0.150118  0.150118  0.546091  1
  Lu  Lu14  1  0.312904  0.689373  0.311028  1
  Lu  Lu15  1  0.312904  0.689373  0.686695  1
  Cd  Cd16  1  0.920469  0.920469  0.241438  1
  Cd  Cd17  1  0.243445  0.918136  0.919210  1
  Cd  Cd18  1  0.920469  0.920469  0.917623  1
  Cd  Cd19  1  0.918136  0.243445  0.919210  1
  Rh  Rh20  1  0.357803  0.357803  0.929514  1
  Rh  Rh21  1  0.355979  0.927884  0.358068  1
  Rh  Rh22  1  0.927884  0.355979  0.358068  1
  Rh  Rh23  1  0.357803  0.357803  0.354879  1
