# generated using pymatgen
data_Cs2Dy2MgMnTe6
_symmetry_space_group_name_H-M   'P 1'
_cell_length_a   8.86855588
_cell_length_b   8.86855609
_cell_length_c   11.78826200
_cell_angle_alpha   90.00000000
_cell_angle_beta   90.00000000
_cell_angle_gamma   150.21794037
_symmetry_Int_Tables_number   1
_chemical_formula_structural   Cs2Dy2MgMnTe6
_chemical_formula_sum   'Cs2 Dy2 Mg1 Mn1 Te6'
_cell_volume   460.52340504
_cell_formula_units_Z   1
loop_
 _symmetry_equiv_pos_site_id
 _symmetry_equiv_pos_as_xyz
  1  'x, y, z'
loop_
 _atom_site_type_symbol
 _atom_site_label
 _atom_site_symmetry_multiplicity
 _atom_site_fract_x
 _atom_site_fract_y
 _atom_site_fract_z
 _atom_site_occupancy
  Cs  Cs0  1  0.752796  0.247203  0.250000  1
  Cs  Cs1  1  0.247230  0.752769  0.750000  1
  Dy  Dy2  1  0.499506  0.500494  0.002188  1
  Dy  Dy3  1  0.499506  0.500494  0.497812  1
  Mg  Mg4  1  0.965060  0.034939  0.750000  1
  Mn  Mn5  1  0.035313  0.964686  0.250000  1
  Te  Te6  1  0.118066  0.881933  0.056599  1
  Te  Te7  1  0.441288  0.558712  0.250000  1
  Te  Te8  1  0.118066  0.881933  0.443401  1
  Te  Te9  1  0.880090  0.119909  0.550072  1
  Te  Te10  1  0.562985  0.437015  0.750000  1
  Te  Te11  1  0.880090  0.119909  0.949929  1
