# generated using pymatgen
data_TlSbS6
_symmetry_space_group_name_H-M   'P 1'
_cell_length_a   15.73271300
_cell_length_b   5.98200115
_cell_length_c   10.94918300
_cell_angle_alpha   74.39371186
_cell_angle_beta   90.00000000
_cell_angle_gamma   90.00000000
_symmetry_Int_Tables_number   1
_chemical_formula_structural   TlSbS6
_chemical_formula_sum   'Tl4 Sb4 S24'
_cell_volume   992.47165434
_cell_formula_units_Z   4
loop_
 _symmetry_equiv_pos_site_id
 _symmetry_equiv_pos_as_xyz
  1  'x, y, z'
loop_
 _atom_site_type_symbol
 _atom_site_label
 _atom_site_symmetry_multiplicity
 _atom_site_fract_x
 _atom_site_fract_y
 _atom_site_fract_z
 _atom_site_occupancy
  Tl  Tl0  1  0.058016  0.644872  0.696945  1
  Tl  Tl1  1  0.558016  0.355128  0.803055  1
  Tl  Tl2  1  0.941984  0.355128  0.303055  1
  Tl  Tl3  1  0.441984  0.644872  0.196945  1
  Sb  Sb4  1  0.411669  0.914026  0.620100  1
  Sb  Sb5  1  0.911669  0.085974  0.879900  1
  Sb  Sb6  1  0.588331  0.085974  0.379900  1
  Sb  Sb7  1  0.088331  0.914026  0.120100  1
  S  S8  1  0.383660  0.333908  0.625163  1
  S  S9  1  0.883660  0.666092  0.874837  1
  S  S10  1  0.616340  0.666092  0.374837  1
  S  S11  1  0.116340  0.333908  0.125163  1
  S  S12  1  0.282027  0.277085  0.749339  1
  S  S13  1  0.782027  0.722915  0.750661  1
  S  S14  1  0.717973  0.722915  0.250661  1
  S  S15  1  0.217973  0.277085  0.249339  1
  S  S16  1  0.065297  0.097314  0.864826  1
  S  S17  1  0.565297  0.902686  0.635174  1
  S  S18  1  0.934703  0.902686  0.135174  1
  S  S19  1  0.434703  0.097314  0.364826  1
  S  S20  1  0.063592  0.755608  0.376461  1
  S  S21  1  0.563592  0.244392  0.123539  1
  S  S22  1  0.936408  0.244392  0.623539  1
  S  S23  1  0.436408  0.755608  0.876461  1
  S  S24  1  0.178734  0.603120  0.443033  1
  S  S25  1  0.678734  0.396880  0.056967  1
  S  S26  1  0.821266  0.396880  0.556967  1
  S  S27  1  0.321266  0.603120  0.943033  1
  S  S28  1  0.173648  0.265833  0.428295  1
  S  S29  1  0.673648  0.734167  0.071705  1
  S  S30  1  0.826352  0.734167  0.571705  1
  S  S31  1  0.326352  0.265833  0.928295  1
