# generated using pymatgen
data_Er12Th4Mg4Fe3Co
_symmetry_space_group_name_H-M   'P 1'
_cell_length_a   9.55456488
_cell_length_b   9.58215737
_cell_length_c   9.58215800
_cell_angle_alpha   60.00000474
_cell_angle_beta   59.90442818
_cell_angle_gamma   59.90442896
_symmetry_Int_Tables_number   1
_chemical_formula_structural   Er12Th4Mg4Fe3Co
_chemical_formula_sum   'Er12 Th4 Mg4 Fe3 Co1'
_cell_volume   619.43206117
_cell_formula_units_Z   1
loop_
 _symmetry_equiv_pos_site_id
 _symmetry_equiv_pos_as_xyz
  1  'x, y, z'
loop_
 _atom_site_type_symbol
 _atom_site_label
 _atom_site_symmetry_multiplicity
 _atom_site_fract_x
 _atom_site_fract_y
 _atom_site_fract_z
 _atom_site_occupancy
  Er  Er0  1  0.065088  0.435929  0.435929  1
  Er  Er1  1  0.435125  0.064353  0.064353  1
  Er  Er2  1  0.435125  0.064353  0.436169  1
  Er  Er3  1  0.065088  0.435929  0.063055  1
  Er  Er4  1  0.435125  0.436169  0.064353  1
  Er  Er5  1  0.065088  0.063055  0.435929  1
  Er  Er6  1  0.185326  0.814159  0.814159  1
  Er  Er7  1  0.812568  0.186018  0.186018  1
  Er  Er8  1  0.812568  0.186018  0.815395  1
  Er  Er9  1  0.185326  0.814159  0.186357  1
  Er  Er10  1  0.812568  0.815395  0.186018  1
  Er  Er11  1  0.185326  0.186357  0.814159  1
  Th  Th12  1  0.592575  0.595354  0.595354  1
  Th  Th13  1  0.592575  0.595354  0.216718  1
  Th  Th14  1  0.592575  0.216718  0.595354  1
  Th  Th15  1  0.218360  0.593880  0.593880  1
  Mg  Mg16  1  0.829666  0.830245  0.830245  1
  Mg  Mg17  1  0.829666  0.830245  0.509845  1
  Mg  Mg18  1  0.829666  0.509845  0.830245  1
  Mg  Mg19  1  0.509525  0.830159  0.830159  1
  Fe  Fe20  1  0.396792  0.393802  0.393802  1
  Fe  Fe21  1  0.396792  0.393802  0.815604  1
  Fe  Fe22  1  0.396792  0.815604  0.393802  1
  Co  Co23  1  0.820697  0.393101  0.393101  1
