# generated using pymatgen
data_Er4NpGaRu6
_symmetry_space_group_name_H-M   'P 1'
_cell_length_a   5.64719200
_cell_length_b   5.64719223
_cell_length_c   8.00114000
_cell_angle_alpha   90.00000000
_cell_angle_beta   90.00000000
_cell_angle_gamma   119.99999864
_symmetry_Int_Tables_number   1
_chemical_formula_structural   Er4NpGaRu6
_chemical_formula_sum   'Er4 Np1 Ga1 Ru6'
_cell_volume   220.97728447
_cell_formula_units_Z   1
loop_
 _symmetry_equiv_pos_site_id
 _symmetry_equiv_pos_as_xyz
  1  'x, y, z'
loop_
 _atom_site_type_symbol
 _atom_site_label
 _atom_site_symmetry_multiplicity
 _atom_site_fract_x
 _atom_site_fract_y
 _atom_site_fract_z
 _atom_site_occupancy
  Er  Er0  1  0.333333  0.666667  0.432004  1
  Er  Er1  1  0.666667  0.333333  0.567996  1
  Er  Er2  1  0.666667  0.333333  0.947781  1
  Er  Er3  1  0.333333  0.666667  0.052219  1
  Np  Np4  1  0.000000  0.000000  0.500000  1
  Ga  Ga5  1  0.000000  0.000000  0.000000  1
  Ru  Ru6  1  0.168199  0.336397  0.741450  1
  Ru  Ru7  1  0.168199  0.831801  0.741450  1
  Ru  Ru8  1  0.336397  0.168199  0.258550  1
  Ru  Ru9  1  0.831801  0.663603  0.258550  1
  Ru  Ru10  1  0.663603  0.831801  0.741450  1
  Ru  Ru11  1  0.831801  0.168199  0.258550  1
