# generated using pymatgen
data_Pr4Si4SnRh9
_symmetry_space_group_name_H-M   'P 1'
_cell_length_a   12.07940142
_cell_length_b   12.07940133
_cell_length_c   12.07940097
_cell_angle_alpha   27.12616869
_cell_angle_beta   27.12617000
_cell_angle_gamma   27.12617232
_symmetry_Int_Tables_number   1
_chemical_formula_structural   Pr4Si4SnRh9
_chemical_formula_sum   'Pr4 Si4 Sn1 Rh9'
_cell_volume   323.24641660
_cell_formula_units_Z   1
loop_
 _symmetry_equiv_pos_site_id
 _symmetry_equiv_pos_as_xyz
  1  'x, y, z'
loop_
 _atom_site_type_symbol
 _atom_site_label
 _atom_site_symmetry_multiplicity
 _atom_site_fract_x
 _atom_site_fract_y
 _atom_site_fract_z
 _atom_site_occupancy
  Pr  Pr0  1  0.949114  0.949114  0.949114  1
  Pr  Pr1  1  0.852696  0.852696  0.852696  1
  Pr  Pr2  1  0.147304  0.147304  0.147304  1
  Pr  Pr3  1  0.050886  0.050886  0.050886  1
  Si  Si4  1  0.280344  0.280344  0.280344  1
  Si  Si5  1  0.386443  0.386443  0.386443  1
  Si  Si6  1  0.719656  0.719656  0.719656  1
  Si  Si7  1  0.613557  0.613557  0.613557  1
  Sn  Sn8  1  0.500000  0.500000  0.500000  1
  Rh  Rh9  1  0.605058  0.605058  0.099978  1
  Rh  Rh10  1  0.900022  0.394942  0.394942  1
  Rh  Rh11  1  0.500000  0.000000  0.500000  1
  Rh  Rh12  1  0.394942  0.900022  0.394942  1
  Rh  Rh13  1  0.500000  0.500000  0.000000  1
  Rh  Rh14  1  0.099978  0.605058  0.605058  1
  Rh  Rh15  1  0.000000  0.500000  0.500000  1
  Rh  Rh16  1  0.394942  0.394942  0.900022  1
  Rh  Rh17  1  0.605058  0.099978  0.605058  1
