# generated using pymatgen
data_Tm3Ga4SnRu
_symmetry_space_group_name_H-M   'P 1'
_cell_length_a   7.09178200
_cell_length_b   6.99378097
_cell_length_c   4.26874500
_cell_angle_alpha   90.00000000
_cell_angle_beta   90.00000000
_cell_angle_gamma   120.46462570
_symmetry_Int_Tables_number   1
_chemical_formula_structural   Tm3Ga4SnRu
_chemical_formula_sum   'Tm3 Ga4 Sn1 Ru1'
_cell_volume   182.49284240
_cell_formula_units_Z   1
loop_
 _symmetry_equiv_pos_site_id
 _symmetry_equiv_pos_as_xyz
  1  'x, y, z'
loop_
 _atom_site_type_symbol
 _atom_site_label
 _atom_site_symmetry_multiplicity
 _atom_site_fract_x
 _atom_site_fract_y
 _atom_site_fract_z
 _atom_site_occupancy
  Tm  Tm0  1  0.595831  0.000000  0.000000  1
  Tm  Tm1  1  0.999235  0.581080  0.000000  1
  Tm  Tm2  1  0.418155  0.418920  0.000000  1
  Ga  Ga3  1  0.993077  0.236866  0.500000  1
  Ga  Ga4  1  0.756211  0.763134  0.500000  1
  Ga  Ga5  1  0.332099  0.657630  0.500000  1
  Ga  Ga6  1  0.674470  0.342370  0.500000  1
  Sn  Sn7  1  0.240350  0.000000  0.500000  1
  Ru  Ru8  1  0.990573  0.000000  0.000000  1
