# generated using pymatgen
data_Ti9TcGe6C
_symmetry_space_group_name_H-M   'P 1'
_cell_length_a   7.55075100
_cell_length_b   7.55075232
_cell_length_c   5.18664500
_cell_angle_alpha   90.00000000
_cell_angle_beta   90.00000000
_cell_angle_gamma   119.99998982
_symmetry_Int_Tables_number   1
_chemical_formula_structural   Ti9TcGe6C
_chemical_formula_sum   'Ti9 Tc1 Ge6 C1'
_cell_volume   256.09292100
_cell_formula_units_Z   1
loop_
 _symmetry_equiv_pos_site_id
 _symmetry_equiv_pos_as_xyz
  1  'x, y, z'
loop_
 _atom_site_type_symbol
 _atom_site_label
 _atom_site_symmetry_multiplicity
 _atom_site_fract_x
 _atom_site_fract_y
 _atom_site_fract_z
 _atom_site_occupancy
  Ti  Ti0  1  0.999699  0.763210  0.259636  1
  Ti  Ti1  1  0.236790  0.236489  0.259636  1
  Ti  Ti2  1  0.763511  0.000301  0.259636  1
  Ti  Ti3  1  0.999699  0.236489  0.740364  1
  Ti  Ti4  1  0.763511  0.763210  0.740364  1
  Ti  Ti5  1  0.236790  0.000301  0.740364  1
  Ti  Ti6  1  0.333333  0.666667  0.000000  1
  Ti  Ti7  1  0.666667  0.333333  0.000000  1
  Ti  Ti8  1  0.666667  0.333333  0.500000  1
  Tc  Tc9  1  0.333333  0.666667  0.500000  1
  Ge  Ge10  1  0.000128  0.397731  0.247356  1
  Ge  Ge11  1  0.602269  0.602397  0.247356  1
  Ge  Ge12  1  0.397603  0.999872  0.247356  1
  Ge  Ge13  1  0.000128  0.602397  0.752644  1
  Ge  Ge14  1  0.397603  0.397731  0.752644  1
  Ge  Ge15  1  0.602269  0.999872  0.752644  1
  C  C16  1  0.000000  0.000000  0.500000  1
