# generated using pymatgen
data_DyHo3(FeB6)2
_symmetry_space_group_name_H-M   'P 1'
_cell_length_a   3.54488200
_cell_length_b   9.07587300
_cell_length_c   11.43468500
_cell_angle_alpha   89.99693267
_cell_angle_beta   90.00000000
_cell_angle_gamma   90.00000000
_symmetry_Int_Tables_number   1
_chemical_formula_structural   DyHo3(FeB6)2
_chemical_formula_sum   'Dy2 Ho6 Fe4 B24'
_cell_volume   367.88696342
_cell_formula_units_Z   2
loop_
 _symmetry_equiv_pos_site_id
 _symmetry_equiv_pos_as_xyz
  1  'x, y, z'
loop_
 _atom_site_type_symbol
 _atom_site_label
 _atom_site_symmetry_multiplicity
 _atom_site_fract_x
 _atom_site_fract_y
 _atom_site_fract_z
 _atom_site_occupancy
  Dy  Dy0  1  0.000000  0.824452  0.085742  1
  Dy  Dy1  1  0.000000  0.175548  0.914258  1
  Ho  Ho2  1  0.000000  0.324431  0.414424  1
  Ho  Ho3  1  0.000000  0.675569  0.585576  1
  Ho  Ho4  1  0.000000  0.443042  0.129564  1
  Ho  Ho5  1  0.000000  0.556958  0.870436  1
  Ho  Ho6  1  0.000000  0.943098  0.370706  1
  Ho  Ho7  1  0.000000  0.056902  0.629294  1
  Fe  Fe8  1  0.000000  0.138511  0.179388  1
  Fe  Fe9  1  0.000000  0.861489  0.820612  1
  Fe  Fe10  1  0.000000  0.638321  0.320905  1
  Fe  Fe11  1  0.000000  0.361679  0.679095  1
  B  B12  1  0.500000  0.054457  0.068282  1
  B  B13  1  0.500000  0.945543  0.931718  1
  B  B14  1  0.500000  0.554205  0.432033  1
  B  B15  1  0.500000  0.445795  0.567967  1
  B  B16  1  0.500000  0.246366  0.081608  1
  B  B17  1  0.500000  0.753634  0.918392  1
  B  B18  1  0.500000  0.746119  0.418766  1
  B  B19  1  0.500000  0.253881  0.581234  1
  B  B20  1  0.500000  0.289265  0.233571  1
  B  B21  1  0.500000  0.710735  0.766429  1
  B  B22  1  0.500000  0.788997  0.266855  1
  B  B23  1  0.500000  0.211003  0.733145  1
  B  B24  1  0.500000  0.132465  0.314138  1
  B  B25  1  0.500000  0.867535  0.685862  1
  B  B26  1  0.500000  0.632168  0.186156  1
  B  B27  1  0.500000  0.367832  0.813844  1
  B  B28  1  0.500000  0.486059  0.288449  1
  B  B29  1  0.500000  0.513941  0.711551  1
  B  B30  1  0.500000  0.986407  0.211903  1
  B  B31  1  0.500000  0.013593  0.788097  1
  B  B32  1  0.500000  0.110317  0.469699  1
  B  B33  1  0.500000  0.889683  0.530301  1
  B  B34  1  0.500000  0.609476  0.030107  1
  B  B35  1  0.500000  0.390524  0.969893  1
