# generated using pymatgen
data_Ho12Co3NiBiOs
_symmetry_space_group_name_H-M   'P 1'
_cell_length_a   8.28657520
_cell_length_b   8.28608249
_cell_length_c   8.28657538
_cell_angle_alpha   111.43292597
_cell_angle_beta   109.78168906
_cell_angle_gamma   107.22892284
_symmetry_Int_Tables_number   1
_chemical_formula_structural   Ho12Co3NiBiOs
_chemical_formula_sum   'Ho12 Co3 Ni1 Bi1 Os1'
_cell_volume   437.39478023
_cell_formula_units_Z   1
loop_
 _symmetry_equiv_pos_site_id
 _symmetry_equiv_pos_as_xyz
  1  'x, y, z'
loop_
 _atom_site_type_symbol
 _atom_site_label
 _atom_site_symmetry_multiplicity
 _atom_site_fract_x
 _atom_site_fract_y
 _atom_site_fract_z
 _atom_site_occupancy
  Ho  Ho0  1  0.822771  0.717083  0.539850  1
  Ho  Ho1  1  0.180319  0.280497  0.460818  1
  Ho  Ho2  1  0.180323  0.719503  0.899822  1
  Ho  Ho3  1  0.822766  0.282917  0.105689  1
  Ho  Ho4  1  0.682002  0.373087  0.686913  1
  Ho  Ho5  1  0.313825  0.626913  0.308914  1
  Ho  Ho6  1  0.681998  0.995083  0.308914  1
  Ho  Ho7  1  0.313831  0.004917  0.686914  1
  Ho  Ho8  1  0.588691  0.783003  0.805680  1
  Ho  Ho9  1  0.410851  0.216707  0.194152  1
  Ho  Ho10  1  0.977445  0.783293  0.194144  1
  Ho  Ho11  1  0.022677  0.216997  0.805687  1
  Co  Co12  1  0.360470  0.000000  0.360470  1
  Co  Co13  1  0.114471  0.612734  0.501732  1
  Co  Co14  1  0.888998  0.387266  0.501737  1
  Ni  Ni15  1  0.637880  0.000000  0.637880  1
  Bi  Bi16  1  0.500746  0.500000  0.000746  1
  Os  Os17  1  0.999936  0.000000  0.999936  1
