# generated using pymatgen
data_Tb3Ho5Hf3Si16Mo9
_symmetry_space_group_name_H-M   'P 1'
_cell_length_a   6.97496553
_cell_length_b   6.97532089
_cell_length_c   12.90261767
_cell_angle_alpha   89.90894475
_cell_angle_beta   90.08784070
_cell_angle_gamma   89.79405084
_symmetry_Int_Tables_number   1
_chemical_formula_structural   Tb3Ho5Hf3Si16Mo9
_chemical_formula_sum   'Tb3 Ho5 Hf3 Si16 Mo9'
_cell_volume   627.74059884
_cell_formula_units_Z   1
loop_
 _symmetry_equiv_pos_site_id
 _symmetry_equiv_pos_as_xyz
  1  'x, y, z'
loop_
 _atom_site_type_symbol
 _atom_site_label
 _atom_site_symmetry_multiplicity
 _atom_site_fract_x
 _atom_site_fract_y
 _atom_site_fract_z
 _atom_site_occupancy
  Tb  Tb0  1  0.496873  0.161325  0.531598  1
  Tb  Tb1  1  0.337411  0.999592  0.783407  1
  Tb  Tb2  1  0.660936  0.004784  0.279427  1
  Ho  Ho3  1  0.000454  0.338226  0.216563  1
  Ho  Ho4  1  0.003967  0.660099  0.720546  1
  Ho  Ho5  1  0.160526  0.497720  0.468384  1
  Ho  Ho6  1  0.499626  0.841366  0.030914  1
  Ho  Ho7  1  0.841508  0.499582  0.969111  1
  Hf  Hf8  1  0.832000  0.831786  0.499988  1
  Hf  Hf9  1  0.330185  0.668951  0.247566  1
  Hf  Hf10  1  0.669057  0.330365  0.752405  1
  Si  Si11  1  0.369570  0.295535  0.316895  1
  Si  Si12  1  0.628472  0.705902  0.818008  1
  Si  Si13  1  0.204033  0.870776  0.568095  1
  Si  Si14  1  0.125244  0.803257  0.934609  1
  Si  Si15  1  0.804289  0.126044  0.065560  1
  Si  Si16  1  0.873426  0.205357  0.431928  1
  Si  Si17  1  0.294144  0.372227  0.682950  1
  Si  Si18  1  0.706503  0.626870  0.181825  1
  Si  Si19  1  0.287011  0.046539  0.182666  1
  Si  Si20  1  0.709781  0.957753  0.689140  1
  Si  Si21  1  0.456330  0.789546  0.437838  1
  Si  Si22  1  0.211263  0.533299  0.058498  1
  Si  Si23  1  0.533702  0.211823  0.941802  1
  Si  Si24  1  0.791685  0.457372  0.562343  1
  Si  Si25  1  0.045920  0.288812  0.817199  1
  Si  Si26  1  0.958643  0.707703  0.311051  1
  Mo  Mo27  1  0.167453  0.168041  0.000325  1
  Mo  Mo28  1  0.160245  0.994880  0.375060  1
  Mo  Mo29  1  0.832953  0.002724  0.877549  1
  Mo  Mo30  1  0.506371  0.659214  0.626604  1
  Mo  Mo31  1  0.344353  0.498491  0.873626  1
  Mo  Mo32  1  0.498124  0.344701  0.126307  1
  Mo  Mo33  1  0.659841  0.506036  0.373156  1
  Mo  Mo34  1  0.995409  0.160941  0.624591  1
  Mo  Mo35  1  0.002691  0.832362  0.122467  1
