# generated using pymatgen
data_Ca5Cr2N7
_symmetry_space_group_name_H-M   'P 1'
_cell_length_a   6.03746945
_cell_length_b   8.60680565
_cell_length_c   8.67338208
_cell_angle_alpha   115.06099142
_cell_angle_beta   96.61304137
_cell_angle_gamma   89.16918337
_symmetry_Int_Tables_number   1
_chemical_formula_structural   Ca5Cr2N7
_chemical_formula_sum   'Ca10 Cr4 N14'
_cell_volume   405.25712247
_cell_formula_units_Z   2
loop_
 _symmetry_equiv_pos_site_id
 _symmetry_equiv_pos_as_xyz
  1  'x, y, z'
loop_
 _atom_site_type_symbol
 _atom_site_label
 _atom_site_symmetry_multiplicity
 _atom_site_fract_x
 _atom_site_fract_y
 _atom_site_fract_z
 _atom_site_occupancy
  Ca  Ca0  1  0.839154  0.592327  0.328462  1
  Ca  Ca1  1  0.263768  0.983757  0.562660  1
  Ca  Ca2  1  0.715306  0.418830  0.854138  1
  Ca  Ca3  1  0.284694  0.581170  0.145862  1
  Ca  Ca4  1  0.410031  0.789792  0.924904  1
  Ca  Ca5  1  0.589969  0.210208  0.075096  1
  Ca  Ca6  1  0.160846  0.407673  0.671538  1
  Ca  Ca7  1  0.898407  0.846088  0.765352  1
  Ca  Ca8  1  0.101593  0.153912  0.234648  1
  Ca  Ca9  1  0.736232  0.016243  0.437340  1
  Cr  Cr10  1  0.575050  0.358896  0.474854  1
  Cr  Cr11  1  0.424950  0.641104  0.525146  1
  Cr  Cr12  1  0.121663  0.214431  0.912279  1
  Cr  Cr13  1  0.878337  0.785569  0.087721  1
  N  N14  1  0.533258  0.551431  0.678377  1
  N  N15  1  0.466742  0.448569  0.321623  1
  N  N16  1  0.155256  0.698344  0.553082  1
  N  N17  1  0.844744  0.301656  0.446918  1
  N  N18  1  0.409455  0.191230  0.465754  1
  N  N19  1  0.590545  0.808770  0.534246  1
  N  N20  1  0.950290  0.137768  0.717166  1
  N  N21  1  0.049710  0.862232  0.282834  1
  N  N22  1  0.231978  0.047171  0.956482  1
  N  N23  1  0.768022  0.952829  0.043518  1
  N  N24  1  0.354387  0.324841  0.896701  1
  N  N25  1  0.969676  0.348261  0.079872  1
  N  N26  1  0.030324  0.651739  0.920128  1
  N  N27  1  0.645613  0.675159  0.103299  1
