# generated using pymatgen
data_Dy2Sc2CoB12Ir
_symmetry_space_group_name_H-M   'P 1'
_cell_length_a   3.50804800
_cell_length_b   8.97294093
_cell_length_c   11.33585369
_cell_angle_alpha   89.90748112
_cell_angle_beta   90.00000000
_cell_angle_gamma   90.00000000
_symmetry_Int_Tables_number   1
_chemical_formula_structural   Dy2Sc2CoB12Ir
_chemical_formula_sum   'Dy4 Sc4 Co2 B24 Ir2'
_cell_volume   356.82395409
_cell_formula_units_Z   2
loop_
 _symmetry_equiv_pos_site_id
 _symmetry_equiv_pos_as_xyz
  1  'x, y, z'
loop_
 _atom_site_type_symbol
 _atom_site_label
 _atom_site_symmetry_multiplicity
 _atom_site_fract_x
 _atom_site_fract_y
 _atom_site_fract_z
 _atom_site_occupancy
  Dy  Dy0  1  0.500000  0.317596  0.411600  1
  Dy  Dy1  1  0.500000  0.682404  0.588400  1
  Dy  Dy2  1  0.500000  0.175675  0.916076  1
  Dy  Dy3  1  0.500000  0.824325  0.083924  1
  Sc  Sc4  1  0.500000  0.440919  0.125164  1
  Sc  Sc5  1  0.500000  0.559081  0.874836  1
  Sc  Sc6  1  0.500000  0.052264  0.627385  1
  Sc  Sc7  1  0.500000  0.947736  0.372615  1
  Co  Co8  1  0.500000  0.141848  0.182936  1
  Co  Co9  1  0.500000  0.858152  0.817064  1
  B  B10  1  0.000000  0.099435  0.472885  1
  B  B11  1  0.000000  0.900565  0.527115  1
  B  B12  1  0.000000  0.399425  0.973416  1
  B  B13  1  0.000000  0.600575  0.026584  1
  B  B14  1  0.000000  0.130414  0.316342  1
  B  B15  1  0.000000  0.869586  0.683658  1
  B  B16  1  0.000000  0.369920  0.818884  1
  B  B17  1  0.000000  0.630080  0.181116  1
  B  B18  1  0.000000  0.055250  0.067729  1
  B  B19  1  0.000000  0.944750  0.932271  1
  B  B20  1  0.000000  0.445213  0.566498  1
  B  B21  1  0.000000  0.554787  0.433502  1
  B  B22  1  0.000000  0.480896  0.284432  1
  B  B23  1  0.000000  0.519104  0.715568  1
  B  B24  1  0.000000  0.014784  0.786820  1
  B  B25  1  0.000000  0.985216  0.213180  1
  B  B26  1  0.000000  0.251323  0.082158  1
  B  B27  1  0.000000  0.748677  0.917842  1
  B  B28  1  0.000000  0.244657  0.580768  1
  B  B29  1  0.000000  0.755343  0.419232  1
  B  B30  1  0.000000  0.293018  0.234302  1
  B  B31  1  0.000000  0.706982  0.765698  1
  B  B32  1  0.000000  0.203281  0.735847  1
  B  B33  1  0.000000  0.796719  0.264153  1
  Ir  Ir34  1  0.500000  0.358993  0.680935  1
  Ir  Ir35  1  0.500000  0.641007  0.319065  1
