# generated using pymatgen
data_LiSm2Si5AsPd20
_symmetry_space_group_name_H-M   'P 1'
_cell_length_a   8.70629060
_cell_length_b   8.74096456
_cell_length_c   8.74096451
_cell_angle_alpha   59.73772399
_cell_angle_beta   60.13114104
_cell_angle_gamma   60.13114263
_symmetry_Int_Tables_number   1
_chemical_formula_structural   LiSm2Si5AsPd20
_chemical_formula_sum   'Li1 Sm2 Si5 As1 Pd20'
_cell_volume   470.35231658
_cell_formula_units_Z   1
loop_
 _symmetry_equiv_pos_site_id
 _symmetry_equiv_pos_as_xyz
  1  'x, y, z'
loop_
 _atom_site_type_symbol
 _atom_site_label
 _atom_site_symmetry_multiplicity
 _atom_site_fract_x
 _atom_site_fract_y
 _atom_site_fract_z
 _atom_site_occupancy
  Li  Li0  1  0.000741  0.999259  0.999259  1
  Sm  Sm1  1  0.250429  0.249571  0.249571  1
  Sm  Sm2  1  0.750429  0.749571  0.749571  1
  Si  Si3  1  0.264820  0.735180  0.735180  1
  Si  Si4  1  0.264973  0.735027  0.264481  1
  Si  Si5  1  0.735519  0.264481  0.735027  1
  Si  Si6  1  0.264973  0.264481  0.735027  1
  Si  Si7  1  0.735519  0.735027  0.264481  1
  As  As8  1  0.737031  0.262969  0.262969  1
  Pd  Pd9  1  0.379108  0.386735  0.386735  1
  Pd  Pd10  1  0.614511  0.615857  0.615857  1
  Pd  Pd11  1  0.384143  0.385489  0.846223  1
  Pd  Pd12  1  0.384143  0.846223  0.385489  1
  Pd  Pd13  1  0.613265  0.620892  0.152581  1
  Pd  Pd14  1  0.613265  0.152581  0.620892  1
  Pd  Pd15  1  0.847419  0.386735  0.386735  1
  Pd  Pd16  1  0.153777  0.615857  0.615857  1
  Pd  Pd17  1  0.344964  0.999732  0.999732  1
  Pd  Pd18  1  0.655572  0.999732  0.999732  1
  Pd  Pd19  1  0.000268  0.344428  0.655036  1
  Pd  Pd20  1  0.000268  0.655036  0.344428  1
  Pd  Pd21  1  0.006125  0.346733  0.993875  1
  Pd  Pd22  1  0.653267  0.993875  0.346733  1
  Pd  Pd23  1  0.999573  0.656535  0.000427  1
  Pd  Pd24  1  0.343465  0.000427  0.656535  1
  Pd  Pd25  1  0.006125  0.993875  0.346733  1
  Pd  Pd26  1  0.999573  0.000427  0.656535  1
  Pd  Pd27  1  0.653267  0.346733  0.993875  1
  Pd  Pd28  1  0.343465  0.656535  0.000427  1
