# generated using pymatgen
data_TiNbInC
_symmetry_space_group_name_H-M   'P 1'
_cell_length_a   3.15769700
_cell_length_b   3.15769654
_cell_length_c   14.47684300
_cell_angle_alpha   90.00000000
_cell_angle_beta   90.00000000
_cell_angle_gamma   120.00001529
_symmetry_Int_Tables_number   1
_chemical_formula_structural   TiNbInC
_chemical_formula_sum   'Ti2 Nb2 In2 C2'
_cell_volume   125.01014966
_cell_formula_units_Z   2
loop_
 _symmetry_equiv_pos_site_id
 _symmetry_equiv_pos_as_xyz
  1  'x, y, z'
loop_
 _atom_site_type_symbol
 _atom_site_label
 _atom_site_symmetry_multiplicity
 _atom_site_fract_x
 _atom_site_fract_y
 _atom_site_fract_z
 _atom_site_occupancy
  Ti  Ti0  1  0.666667  0.333333  0.579597  1
  Ti  Ti1  1  0.666667  0.333333  0.920403  1
  Nb  Nb2  1  0.333333  0.666667  0.083021  1
  Nb  Nb3  1  0.333333  0.666667  0.416979  1
  In  In4  1  0.333333  0.666667  0.750000  1
  In  In5  1  0.666667  0.333333  0.250000  1
  C  C6  1  0.000000  0.000000  0.995203  1
  C  C7  1  0.000000  0.000000  0.504797  1
