# generated using pymatgen
data_Yb2Ho2Tc3B16W
_symmetry_space_group_name_H-M   'P 1'
_cell_length_a   3.57367700
_cell_length_b   5.99019302
_cell_length_c   11.57989600
_cell_angle_alpha   90.07581446
_cell_angle_beta   90.00000000
_cell_angle_gamma   90.00000000
_symmetry_Int_Tables_number   1
_chemical_formula_structural   Yb2Ho2Tc3B16W
_chemical_formula_sum   'Yb2 Ho2 Tc3 B16 W1'
_cell_volume   247.89079059
_cell_formula_units_Z   1
loop_
 _symmetry_equiv_pos_site_id
 _symmetry_equiv_pos_as_xyz
  1  'x, y, z'
loop_
 _atom_site_type_symbol
 _atom_site_label
 _atom_site_symmetry_multiplicity
 _atom_site_fract_x
 _atom_site_fract_y
 _atom_site_fract_z
 _atom_site_occupancy
  Yb  Yb0  1  0.000000  0.126010  0.150405  1
  Yb  Yb1  1  0.000000  0.871464  0.850453  1
  Ho  Ho2  1  0.000000  0.628270  0.347995  1
  Ho  Ho3  1  0.000000  0.372148  0.650524  1
  Tc  Tc4  1  0.000000  0.132192  0.415314  1
  Tc  Tc5  1  0.000000  0.867857  0.583478  1
  Tc  Tc6  1  0.000000  0.629472  0.084901  1
  B  B7  1  0.500000  0.478213  0.193644  1
  B  B8  1  0.500000  0.525906  0.805973  1
  B  B9  1  0.500000  0.977429  0.307490  1
  B  B10  1  0.500000  0.021945  0.691720  1
  B  B11  1  0.500000  0.284540  0.314521  1
  B  B12  1  0.500000  0.716174  0.684286  1
  B  B13  1  0.500000  0.786722  0.185129  1
  B  B14  1  0.500000  0.209819  0.812906  1
  B  B15  1  0.500000  0.364180  0.468330  1
  B  B16  1  0.500000  0.636099  0.530756  1
  B  B17  1  0.500000  0.865624  0.033678  1
  B  B18  1  0.500000  0.131524  0.968973  1
  B  B19  1  0.500000  0.387415  0.049432  1
  B  B20  1  0.500000  0.617692  0.954228  1
  B  B21  1  0.500000  0.887510  0.452032  1
  B  B22  1  0.500000  0.112983  0.547198  1
  W  W23  1  0.000000  0.368812  0.916632  1
