# generated using pymatgen
data_Nd3Ho3(ThSe6)2
_symmetry_space_group_name_H-M   'P 1'
_cell_length_a   11.34318626
_cell_length_b   4.13450500
_cell_length_c   11.02588688
_cell_angle_alpha   90.00000000
_cell_angle_beta   89.82482228
_cell_angle_gamma   90.00000000
_symmetry_Int_Tables_number   1
_chemical_formula_structural   Nd3Ho3(ThSe6)2
_chemical_formula_sum   'Nd3 Ho3 Th2 Se12'
_cell_volume   517.09470123
_cell_formula_units_Z   1
loop_
 _symmetry_equiv_pos_site_id
 _symmetry_equiv_pos_as_xyz
  1  'x, y, z'
loop_
 _atom_site_type_symbol
 _atom_site_label
 _atom_site_symmetry_multiplicity
 _atom_site_fract_x
 _atom_site_fract_y
 _atom_site_fract_z
 _atom_site_occupancy
  Nd  Nd0  1  0.984371  0.250000  0.312940  1
  Nd  Nd1  1  0.696537  0.750000  0.497028  1
  Nd  Nd2  1  0.198372  0.750000  0.001601  1
  Ho  Ho3  1  0.485574  0.250000  0.186595  1
  Ho  Ho4  1  0.512345  0.750000  0.812331  1
  Ho  Ho5  1  0.012975  0.750000  0.687679  1
  Th  Th6  1  0.307384  0.250000  0.498032  1
  Th  Th7  1  0.803537  0.250000  0.002115  1
  Se  Se8  1  0.543272  0.250000  0.630611  1
  Se  Se9  1  0.043468  0.250000  0.868756  1
  Se  Se10  1  0.454469  0.750000  0.369226  1
  Se  Se11  1  0.952243  0.750000  0.122575  1
  Se  Se12  1  0.614486  0.750000  0.054112  1
  Se  Se13  1  0.120744  0.750000  0.449650  1
  Se  Se14  1  0.385755  0.250000  0.944326  1
  Se  Se15  1  0.881577  0.250000  0.561012  1
  Se  Se16  1  0.722714  0.250000  0.293316  1
  Se  Se17  1  0.232067  0.250000  0.205710  1
  Se  Se18  1  0.275398  0.750000  0.700676  1
  Se  Se19  1  0.772713  0.750000  0.801709  1
