# generated using pymatgen
data_Ti8Al15OsPt6
_symmetry_space_group_name_H-M   'P 1'
_cell_length_a   8.69383685
_cell_length_b   8.69367865
_cell_length_c   8.69385823
_cell_angle_alpha   120.14909099
_cell_angle_beta   119.75533799
_cell_angle_gamma   90.08375775
_symmetry_Int_Tables_number   1
_chemical_formula_structural   Ti8Al15OsPt6
_chemical_formula_sum   'Ti8 Al15 Os1 Pt6'
_cell_volume   464.96139662
_cell_formula_units_Z   1
loop_
 _symmetry_equiv_pos_site_id
 _symmetry_equiv_pos_as_xyz
  1  'x, y, z'
loop_
 _atom_site_type_symbol
 _atom_site_label
 _atom_site_symmetry_multiplicity
 _atom_site_fract_x
 _atom_site_fract_y
 _atom_site_fract_z
 _atom_site_occupancy
  Ti  Ti0  1  0.786940  0.289304  0.075605  1
  Ti  Ti1  1  0.213699  0.289305  0.502364  1
  Ti  Ti2  1  0.212679  0.712600  0.499921  1
  Ti  Ti3  1  0.213789  0.711324  0.924581  1
  Ti  Ti4  1  0.786744  0.711323  0.497535  1
  Ti  Ti5  1  0.786849  0.286852  0.500003  1
  Ti  Ti6  1  0.381147  0.121209  0.740065  1
  Ti  Ti7  1  0.381194  0.641097  0.259903  1
  Al  Al8  1  0.999718  0.499839  0.500119  1
  Al  Al9  1  0.155558  0.347051  0.191491  1
  Al  Al10  1  0.155393  0.963790  0.808397  1
  Al  Al11  1  0.156565  0.343851  0.812897  1
  Al  Al12  1  0.530954  0.343850  0.187285  1
  Al  Al13  1  0.845760  0.654748  0.808987  1
  Al  Al14  1  0.845663  0.036603  0.190938  1
  Al  Al15  1  0.845451  0.654956  0.190609  1
  Al  Al16  1  0.464348  0.654958  0.809506  1
  Al  Al17  1  0.380674  0.119708  0.260847  1
  Al  Al18  1  0.858862  0.119708  0.739035  1
  Al  Al19  1  0.620555  0.879408  0.258853  1
  Al  Al20  1  0.620616  0.361720  0.741106  1
  Al  Al21  1  0.620750  0.879294  0.741278  1
  Al  Al22  1  0.138015  0.879293  0.258543  1
  Os  Os23  1  0.498207  0.998165  0.499960  1
  Pt  Pt24  1  0.997977  0.999585  0.498819  1
  Pt  Pt25  1  0.500766  0.999585  0.001608  1
  Pt  Pt26  1  0.501382  0.501308  0.999927  1
  Pt  Pt27  1  0.500783  0.499185  0.501358  1
  Pt  Pt28  1  0.997828  0.499186  0.998403  1
  Pt  Pt29  1  0.001134  0.001194  0.000059  1
