# generated using pymatgen
data_Ta2Nb4Al3Zn(AuC)2
_symmetry_space_group_name_H-M   'P 1'
_cell_length_a   8.45563064
_cell_length_b   8.44981875
_cell_length_c   8.45562900
_cell_angle_alpha   59.92296016
_cell_angle_beta   59.97725464
_cell_angle_gamma   59.92296390
_symmetry_Int_Tables_number   1
_chemical_formula_structural   Ta2Nb4Al3Zn(AuC)2
_chemical_formula_sum   'Ta4 Nb8 Al6 Zn2 Au4 C4'
_cell_volume   426.62185109
_cell_formula_units_Z   2
loop_
 _symmetry_equiv_pos_site_id
 _symmetry_equiv_pos_as_xyz
  1  'x, y, z'
loop_
 _atom_site_type_symbol
 _atom_site_label
 _atom_site_symmetry_multiplicity
 _atom_site_fract_x
 _atom_site_fract_y
 _atom_site_fract_z
 _atom_site_occupancy
  Ta  Ta0  1  0.573039  0.927177  0.927465  1
  Ta  Ta1  1  0.930152  0.927760  0.571686  1
  Ta  Ta2  1  0.679250  0.322743  0.678330  1
  Ta  Ta3  1  0.929841  0.571574  0.927867  1
  Nb  Nb4  1  0.569611  0.929907  0.570147  1
  Nb  Nb5  1  0.319549  0.681584  0.681674  1
  Nb  Nb6  1  0.678927  0.321610  0.321423  1
  Nb  Nb7  1  0.319721  0.680173  0.320138  1
  Nb  Nb8  1  0.680761  0.680377  0.320878  1
  Nb  Nb9  1  0.319902  0.320068  0.680452  1
  Nb  Nb10  1  0.569322  0.569224  0.930537  1
  Nb  Nb11  1  0.932665  0.567923  0.568465  1
  Al  Al12  1  0.333381  0.993342  0.336701  1
  Al  Al13  1  0.332222  0.336725  0.993730  1
  Al  Al14  1  0.912982  0.256506  0.913707  1
  Al  Al15  1  0.912199  0.913689  0.256575  1
  Al  Al16  1  0.256799  0.913454  0.912660  1
  Al  Al17  1  0.333565  0.336250  0.337356  1
  Zn  Zn18  1  0.913224  0.913383  0.914220  1
  Zn  Zn19  1  0.990761  0.336332  0.335775  1
  Au  Au20  1  0.126545  0.122163  0.122887  1
  Au  Au21  1  0.621235  0.127910  0.125053  1
  Au  Au22  1  0.128455  0.624944  0.124613  1
  Au  Au23  1  0.126285  0.125025  0.625194  1
  C  C24  1  0.627321  0.623279  0.625212  1
  C  C25  1  0.124038  0.626727  0.627073  1
  C  C26  1  0.629402  0.123979  0.626757  1
  C  C27  1  0.628848  0.626172  0.123425  1
