# generated using pymatgen
data_Rb8Li4Tb3InSb8
_symmetry_space_group_name_H-M   'P 1'
_cell_length_a   11.18384882
_cell_length_b   11.18384799
_cell_length_c   7.20737015
_cell_angle_alpha   89.99316843
_cell_angle_beta   90.00682738
_cell_angle_gamma   100.02691745
_symmetry_Int_Tables_number   1
_chemical_formula_structural   Rb8Li4Tb3InSb8
_chemical_formula_sum   'Rb8 Li4 Tb3 In1 Sb8'
_cell_volume   887.71753462
_cell_formula_units_Z   1
loop_
 _symmetry_equiv_pos_site_id
 _symmetry_equiv_pos_as_xyz
  1  'x, y, z'
loop_
 _atom_site_type_symbol
 _atom_site_label
 _atom_site_symmetry_multiplicity
 _atom_site_fract_x
 _atom_site_fract_y
 _atom_site_fract_z
 _atom_site_occupancy
  Rb  Rb0  1  0.570903  0.928878  0.747197  1
  Rb  Rb1  1  0.928878  0.570903  0.252803  1
  Rb  Rb2  1  0.429478  0.078063  0.255731  1
  Rb  Rb3  1  0.078063  0.429478  0.744269  1
  Rb  Rb4  1  0.670486  0.322740  0.772531  1
  Rb  Rb5  1  0.824459  0.175684  0.279431  1
  Rb  Rb6  1  0.322740  0.670486  0.227469  1
  Rb  Rb7  1  0.175684  0.824459  0.720569  1
  Li  Li8  1  0.618441  0.618441  0.000000  1
  Li  Li9  1  0.878546  0.878546  0.500000  1
  Li  Li10  1  0.378903  0.378903  0.000000  1
  Li  Li11  1  0.123960  0.123960  0.500000  1
  Tb  Tb12  1  0.869076  0.869076  0.000000  1
  Tb  Tb13  1  0.625166  0.625166  0.500000  1
  Tb  Tb14  1  0.131485  0.131485  0.000000  1
  In  In15  1  0.373966  0.373966  0.500000  1
  Sb  Sb16  1  0.349464  0.158064  0.744515  1
  Sb  Sb17  1  0.158064  0.349464  0.255485  1
  Sb  Sb18  1  0.650468  0.845502  0.249631  1
  Sb  Sb19  1  0.845502  0.650468  0.750369  1
  Sb  Sb20  1  0.904866  0.097074  0.759976  1
  Sb  Sb21  1  0.592903  0.401422  0.260138  1
  Sb  Sb22  1  0.097074  0.904866  0.240024  1
  Sb  Sb23  1  0.401422  0.592903  0.739862  1
