# generated using pymatgen
data_Y6PdI10
_symmetry_space_group_name_H-M   'P 1'
_cell_length_a   7.72938697
_cell_length_b   9.74111128
_cell_length_c   9.77399900
_cell_angle_alpha   106.94255613
_cell_angle_beta   96.91520990
_cell_angle_gamma   104.40939722
_symmetry_Int_Tables_number   1
_chemical_formula_structural   Y6PdI10
_chemical_formula_sum   'Y6 Pd1 I10'
_cell_volume   666.88172318
_cell_formula_units_Z   1
loop_
 _symmetry_equiv_pos_site_id
 _symmetry_equiv_pos_as_xyz
  1  'x, y, z'
loop_
 _atom_site_type_symbol
 _atom_site_label
 _atom_site_symmetry_multiplicity
 _atom_site_fract_x
 _atom_site_fract_y
 _atom_site_fract_z
 _atom_site_occupancy
  Y  Y0  1  0.116140  0.042389  0.758137  1
  Y  Y1  1  0.883860  0.957611  0.241863  1
  Y  Y2  1  0.967627  0.286690  0.085703  1
  Y  Y3  1  0.032373  0.713310  0.914297  1
  Y  Y4  1  0.348738  0.124117  0.166087  1
  Y  Y5  1  0.651262  0.875883  0.833913  1
  Pd  Pd6  1  0.000000  0.000000  0.000000  1
  I  I7  1  0.349780  0.449733  0.272231  1
  I  I8  1  0.650220  0.550267  0.727769  1
  I  I9  1  0.256832  0.086085  0.462926  1
  I  I10  1  0.743168  0.913915  0.537074  1
  I  I11  1  0.086105  0.374546  0.820690  1
  I  I12  1  0.913895  0.625454  0.179310  1
  I  I13  1  0.454458  0.815929  0.092452  1
  I  I14  1  0.545542  0.184071  0.907548  1
  I  I15  1  0.774300  0.255888  0.345097  1
  I  I16  1  0.225700  0.744112  0.654903  1
