# generated using pymatgen
data_Pr8Nd2GaSi5
_symmetry_space_group_name_H-M   'P 1'
_cell_length_a   7.80519100
_cell_length_b   7.80519100
_cell_length_c   14.46491100
_cell_angle_alpha   90.00000000
_cell_angle_beta   90.00000000
_cell_angle_gamma   90.00000000
_symmetry_Int_Tables_number   1
_chemical_formula_structural   Pr8Nd2GaSi5
_chemical_formula_sum   'Pr16 Nd4 Ga2 Si10'
_cell_volume   881.21693773
_cell_formula_units_Z   2
loop_
 _symmetry_equiv_pos_site_id
 _symmetry_equiv_pos_as_xyz
  1  'x, y, z'
loop_
 _atom_site_type_symbol
 _atom_site_label
 _atom_site_symmetry_multiplicity
 _atom_site_fract_x
 _atom_site_fract_y
 _atom_site_fract_z
 _atom_site_occupancy
  Pr  Pr0  1  0.813822  0.827734  0.605132  1
  Pr  Pr1  1  0.185272  0.830041  0.109830  1
  Pr  Pr2  1  0.172266  0.813822  0.394868  1
  Pr  Pr3  1  0.827734  0.186178  0.394868  1
  Pr  Pr4  1  0.686178  0.672266  0.394868  1
  Pr  Pr5  1  0.672266  0.313822  0.605132  1
  Pr  Pr6  1  0.327734  0.686178  0.605132  1
  Pr  Pr7  1  0.669959  0.685272  0.109830  1
  Pr  Pr8  1  0.685272  0.330041  0.890170  1
  Pr  Pr9  1  0.830041  0.814728  0.890170  1
  Pr  Pr10  1  0.313822  0.327734  0.394868  1
  Pr  Pr11  1  0.186178  0.172266  0.605132  1
  Pr  Pr12  1  0.814728  0.169959  0.109830  1
  Pr  Pr13  1  0.314728  0.669959  0.890170  1
  Pr  Pr14  1  0.330041  0.314728  0.109830  1
  Pr  Pr15  1  0.169959  0.185272  0.890170  1
  Nd  Nd16  1  0.000000  0.500000  0.729687  1
  Nd  Nd17  1  0.000000  0.500000  0.228323  1
  Nd  Nd18  1  0.500000  0.000000  0.270313  1
  Nd  Nd19  1  0.500000  0.000000  0.771677  1
  Ga  Ga20  1  0.500000  0.000000  0.995091  1
  Ga  Ga21  1  0.000000  0.500000  0.004909  1
  Si  Si22  1  0.614403  0.385910  0.252962  1
  Si  Si23  1  0.114403  0.885910  0.747038  1
  Si  Si24  1  0.385910  0.385597  0.747038  1
  Si  Si25  1  0.385597  0.614090  0.252962  1
  Si  Si26  1  0.885910  0.885597  0.252962  1
  Si  Si27  1  0.614090  0.614403  0.747038  1
  Si  Si28  1  0.000000  0.500000  0.508441  1
  Si  Si29  1  0.885597  0.114090  0.747038  1
  Si  Si30  1  0.500000  0.000000  0.491559  1
  Si  Si31  1  0.114090  0.114403  0.252962  1
