# generated using pymatgen
data_Dy15Er(MgPb4)4
_symmetry_space_group_name_H-M   'P 1'
_cell_length_a   7.84204571
_cell_length_b   8.32964433
_cell_length_c   15.55000178
_cell_angle_alpha   90.03868867
_cell_angle_beta   89.93653259
_cell_angle_gamma   90.03675003
_symmetry_Int_Tables_number   1
_chemical_formula_structural   Dy15Er(MgPb4)4
_chemical_formula_sum   'Dy15 Er1 Mg4 Pb16'
_cell_volume   1015.74762454
_cell_formula_units_Z   1
loop_
 _symmetry_equiv_pos_site_id
 _symmetry_equiv_pos_as_xyz
  1  'x, y, z'
loop_
 _atom_site_type_symbol
 _atom_site_label
 _atom_site_symmetry_multiplicity
 _atom_site_fract_x
 _atom_site_fract_y
 _atom_site_fract_z
 _atom_site_occupancy
  Dy  Dy0  1  0.840601  0.661968  0.627697  1
  Dy  Dy1  1  0.658951  0.162167  0.372338  1
  Dy  Dy2  1  0.159292  0.338337  0.126938  1
  Dy  Dy3  1  0.657412  0.162701  0.127795  1
  Dy  Dy4  1  0.157610  0.336732  0.372208  1
  Dy  Dy5  1  0.343429  0.836928  0.628192  1
  Dy  Dy6  1  0.841895  0.662944  0.872362  1
  Dy  Dy7  1  0.508445  0.313537  0.909772  1
  Dy  Dy8  1  0.009398  0.186706  0.591044  1
  Dy  Dy9  1  0.491966  0.686096  0.409625  1
  Dy  Dy10  1  0.990767  0.813209  0.090268  1
  Dy  Dy11  1  0.491531  0.686063  0.090112  1
  Dy  Dy12  1  0.992219  0.814080  0.409109  1
  Dy  Dy13  1  0.508213  0.314179  0.590903  1
  Dy  Dy14  1  0.008393  0.186135  0.908858  1
  Er  Er15  1  0.340695  0.838881  0.872413  1
  Mg  Mg16  1  0.162728  0.504754  0.749399  1
  Mg  Mg17  1  0.664048  0.995387  0.750875  1
  Mg  Mg18  1  0.836396  0.495177  0.249613  1
  Mg  Mg19  1  0.336117  0.004209  0.250637  1
  Pb  Pb20  1  0.307620  0.037866  0.040721  1
  Pb  Pb21  1  0.808065  0.461409  0.459002  1
  Pb  Pb22  1  0.693330  0.961860  0.541197  1
  Pb  Pb23  1  0.192304  0.539291  0.958018  1
  Pb  Pb24  1  0.690887  0.961509  0.959084  1
  Pb  Pb25  1  0.192341  0.538996  0.540654  1
  Pb  Pb26  1  0.308219  0.038493  0.459532  1
  Pb  Pb27  1  0.807935  0.461118  0.040672  1
  Pb  Pb28  1  0.525132  0.597775  0.751639  1
  Pb  Pb29  1  0.026867  0.901844  0.749765  1
  Pb  Pb30  1  0.473592  0.402566  0.250376  1
  Pb  Pb31  1  0.973896  0.097470  0.249136  1
  Pb  Pb32  1  0.314687  0.162643  0.750484  1
  Pb  Pb33  1  0.813482  0.337398  0.750177  1
  Pb  Pb34  1  0.685713  0.836688  0.249785  1
  Pb  Pb35  1  0.185820  0.662883  0.249601  1
