# generated using pymatgen
data_Ho3Lu5Pt4
_symmetry_space_group_name_H-M   'P 1'
_cell_length_a   4.72907000
_cell_length_b   7.06137213
_cell_length_c   8.60233518
_cell_angle_alpha   90.27267356
_cell_angle_beta   90.00000000
_cell_angle_gamma   90.00000000
_symmetry_Int_Tables_number   1
_chemical_formula_structural   Ho3Lu5Pt4
_chemical_formula_sum   'Ho3 Lu5 Pt4'
_cell_volume   287.26074613
_cell_formula_units_Z   1
loop_
 _symmetry_equiv_pos_site_id
 _symmetry_equiv_pos_as_xyz
  1  'x, y, z'
loop_
 _atom_site_type_symbol
 _atom_site_label
 _atom_site_symmetry_multiplicity
 _atom_site_fract_x
 _atom_site_fract_y
 _atom_site_fract_z
 _atom_site_occupancy
  Ho  Ho0  1  0.250000  0.487949  0.170599  1
  Ho  Ho1  1  0.750000  0.012953  0.670287  1
  Ho  Ho2  1  0.750000  0.512092  0.829760  1
  Lu  Lu3  1  0.250000  0.856663  0.923199  1
  Lu  Lu4  1  0.250000  0.357365  0.576749  1
  Lu  Lu5  1  0.750000  0.142771  0.079222  1
  Lu  Lu6  1  0.750000  0.644297  0.422191  1
  Lu  Lu7  1  0.250000  0.987665  0.331201  1
  Pt  Pt8  1  0.250000  0.254896  0.903672  1
  Pt  Pt9  1  0.250000  0.756228  0.591129  1
  Pt  Pt10  1  0.750000  0.743997  0.095401  1
  Pt  Pt11  1  0.750000  0.243122  0.406591  1
