# generated using pymatgen
data_La2AsSe
_symmetry_space_group_name_H-M   'P 1'
_cell_length_a   7.54543602
_cell_length_b   7.54543619
_cell_length_c   7.54543603
_cell_angle_alpha   33.48125677
_cell_angle_beta   33.48125468
_cell_angle_gamma   33.48126562
_symmetry_Int_Tables_number   1
_chemical_formula_structural   La2AsSe
_chemical_formula_sum   'La2 As1 Se1'
_cell_volume   116.43708029
_cell_formula_units_Z   1
loop_
 _symmetry_equiv_pos_site_id
 _symmetry_equiv_pos_as_xyz
  1  'x, y, z'
loop_
 _atom_site_type_symbol
 _atom_site_label
 _atom_site_symmetry_multiplicity
 _atom_site_fract_x
 _atom_site_fract_y
 _atom_site_fract_z
 _atom_site_occupancy
  La  La0  1  0.253311  0.253311  0.253311  1
  La  La1  1  0.746689  0.746689  0.746689  1
  As  As2  1  0.000000  0.000000  0.000000  1
  Se  Se3  1  0.500000  0.500000  0.500000  1
