# generated using pymatgen
data_DyLuCo3P7Ru9
_symmetry_space_group_name_H-M   'P 1'
_cell_length_a   9.31609900
_cell_length_b   9.31609804
_cell_length_c   3.81699300
_cell_angle_alpha   90.00000000
_cell_angle_beta   90.00000000
_cell_angle_gamma   120.00000696
_symmetry_Int_Tables_number   1
_chemical_formula_structural   DyLuCo3P7Ru9
_chemical_formula_sum   'Dy1 Lu1 Co3 P7 Ru9'
_cell_volume   286.89310445
_cell_formula_units_Z   1
loop_
 _symmetry_equiv_pos_site_id
 _symmetry_equiv_pos_as_xyz
  1  'x, y, z'
loop_
 _atom_site_type_symbol
 _atom_site_label
 _atom_site_symmetry_multiplicity
 _atom_site_fract_x
 _atom_site_fract_y
 _atom_site_fract_z
 _atom_site_occupancy
  Dy  Dy0  1  0.333333  0.666667  0.000000  1
  Lu  Lu1  1  0.000000  0.000000  0.500000  1
  Co  Co2  1  0.936472  0.445148  0.000000  1
  Co  Co3  1  0.508675  0.063528  0.000000  1
  Co  Co4  1  0.554852  0.491325  0.000000  1
  P  P5  1  0.967516  0.222413  0.000000  1
  P  P6  1  0.254897  0.032484  0.000000  1
  P  P7  1  0.777587  0.745103  0.000000  1
  P  P8  1  0.067576  0.618627  0.500000  1
  P  P9  1  0.551050  0.932424  0.500000  1
  P  P10  1  0.381373  0.448950  0.500000  1
  P  P11  1  0.666667  0.333333  0.000000  1
  Ru  Ru12  1  0.730177  0.969369  0.000000  1
  Ru  Ru13  1  0.239191  0.269823  0.000000  1
  Ru  Ru14  1  0.030631  0.760809  0.000000  1
  Ru  Ru15  1  0.101863  0.385504  0.500000  1
  Ru  Ru16  1  0.283640  0.898137  0.500000  1
  Ru  Ru17  1  0.614496  0.716360  0.500000  1
  Ru  Ru18  1  0.752304  0.212555  0.500000  1
  Ru  Ru19  1  0.460250  0.247696  0.500000  1
  Ru  Ru20  1  0.787445  0.539750  0.500000  1
