# generated using pymatgen
data_La2Pr14Hg4IrPt3
_symmetry_space_group_name_H-M   'P 1'
_cell_length_a   10.08221701
_cell_length_b   10.05972606
_cell_length_c   10.06904913
_cell_angle_alpha   60.09064199
_cell_angle_beta   60.19202169
_cell_angle_gamma   60.02725723
_symmetry_Int_Tables_number   1
_chemical_formula_structural   La2Pr14Hg4IrPt3
_chemical_formula_sum   'La2 Pr14 Hg4 Ir1 Pt3'
_cell_volume   723.81770059
_cell_formula_units_Z   1
loop_
 _symmetry_equiv_pos_site_id
 _symmetry_equiv_pos_as_xyz
  1  'x, y, z'
loop_
 _atom_site_type_symbol
 _atom_site_label
 _atom_site_symmetry_multiplicity
 _atom_site_fract_x
 _atom_site_fract_y
 _atom_site_fract_z
 _atom_site_occupancy
  La  La0  1  0.352766  0.347381  0.347228  1
  La  La1  1  0.355109  0.349440  0.947089  1
  Pr  Pr2  1  0.354949  0.942827  0.351883  1
  Pr  Pr3  1  0.937957  0.354333  0.354816  1
  Pr  Pr4  1  0.808573  0.189415  0.189699  1
  Pr  Pr5  1  0.190981  0.808593  0.808571  1
  Pr  Pr6  1  0.190459  0.810989  0.190889  1
  Pr  Pr7  1  0.806756  0.189131  0.813176  1
  Pr  Pr8  1  0.191002  0.190432  0.810751  1
  Pr  Pr9  1  0.805936  0.813919  0.189305  1
  Pr  Pr10  1  0.940510  0.562584  0.562322  1
  Pr  Pr11  1  0.563113  0.936806  0.937279  1
  Pr  Pr12  1  0.564575  0.939287  0.561409  1
  Pr  Pr13  1  0.938185  0.561052  0.936929  1
  Pr  Pr14  1  0.564904  0.561790  0.939240  1
  Pr  Pr15  1  0.938400  0.937345  0.560209  1
  Hg  Hg16  1  0.584960  0.584879  0.584024  1
  Hg  Hg17  1  0.584843  0.585521  0.245406  1
  Hg  Hg18  1  0.585064  0.245622  0.584794  1
  Hg  Hg19  1  0.246333  0.584969  0.584528  1
  Ir  Ir20  1  0.570065  0.144307  0.141994  1
  Pt  Pt21  1  0.142189  0.145128  0.144995  1
  Pt  Pt22  1  0.141314  0.143617  0.570339  1
  Pt  Pt23  1  0.141056  0.570630  0.143124  1
