# generated using pymatgen
data_Er4Al24Pd8Au
_symmetry_space_group_name_H-M   'P 1'
_cell_length_a   7.55813900
_cell_length_b   7.58077796
_cell_length_c   13.15509023
_cell_angle_alpha   84.52870214
_cell_angle_beta   78.99402507
_cell_angle_gamma   59.92089605
_symmetry_Int_Tables_number   1
_chemical_formula_structural   Er4Al24Pd8Au
_chemical_formula_sum   'Er4 Al24 Pd8 Au1'
_cell_volume   640.24194068
_cell_formula_units_Z   1
loop_
 _symmetry_equiv_pos_site_id
 _symmetry_equiv_pos_as_xyz
  1  'x, y, z'
loop_
 _atom_site_type_symbol
 _atom_site_label
 _atom_site_symmetry_multiplicity
 _atom_site_fract_x
 _atom_site_fract_y
 _atom_site_fract_z
 _atom_site_occupancy
  Er  Er0  1  0.391972  0.169655  0.808956  1
  Er  Er1  1  0.606407  0.831614  0.191780  1
  Er  Er2  1  0.734610  0.498229  0.808757  1
  Er  Er3  1  0.266776  0.501473  0.191387  1
  Al  Al4  1  0.682672  0.834134  0.945131  1
  Al  Al5  1  0.315936  0.166056  0.055968  1
  Al  Al6  1  0.146251  0.838914  0.560211  1
  Al  Al7  1  0.854782  0.166591  0.436385  1
  Al  Al8  1  0.486951  0.160422  0.558045  1
  Al  Al9  1  0.520673  0.833459  0.439299  1
  Al  Al10  1  0.218099  0.165220  0.328142  1
  Al  Al11  1  0.776426  0.839732  0.673798  1
  Al  Al12  1  0.440535  0.506940  0.674121  1
  Al  Al13  1  0.563510  0.493378  0.327730  1
  Al  Al14  1  0.108363  0.153658  0.672718  1
  Al  Al15  1  0.891025  0.839964  0.329002  1
  Al  Al16  1  0.354121  0.498487  0.944930  1
  Al  Al17  1  0.646691  0.500815  0.055975  1
  Al  Al18  1  0.015349  0.167814  0.954170  1
  Al  Al19  1  0.984182  0.832190  0.046984  1
  Al  Al20  1  0.188436  0.499759  0.435739  1
  Al  Al21  1  0.807394  0.499856  0.557920  1
  Al  Al22  1  0.733188  0.163708  0.183762  1
  Al  Al23  1  0.268170  0.835871  0.816704  1
  Al  Al24  1  0.060528  0.633670  0.818428  1
  Al  Al25  1  0.938181  0.369587  0.185168  1
  Al  Al26  1  0.853089  0.043475  0.816459  1
  Al  Al27  1  0.145359  0.957649  0.183959  1
  Pd  Pd28  1  0.879743  0.508285  0.361416  1
  Pd  Pd29  1  0.657099  0.171409  0.999600  1
  Pd  Pd30  1  0.343066  0.828223  0.999872  1
  Pd  Pd31  1  0.537520  0.166686  0.361541  1
  Pd  Pd32  1  0.462454  0.833069  0.637997  1
  Pd  Pd33  1  0.778498  0.175169  0.637365  1
  Pd  Pd34  1  0.221957  0.824542  0.362143  1
  Pd  Pd35  1  0.000001  0.499739  0.000161  1
  Au  Au36  1  0.119986  0.490557  0.638277  1
