# generated using pymatgen
data_Ti2FeCo5B2
_symmetry_space_group_name_H-M   'P 1'
_cell_length_a   8.35869200
_cell_length_b   8.35869200
_cell_length_c   2.99500600
_cell_angle_alpha   90.00000000
_cell_angle_beta   90.00000000
_cell_angle_gamma   90.00000000
_symmetry_Int_Tables_number   1
_chemical_formula_structural   Ti2FeCo5B2
_chemical_formula_sum   'Ti4 Fe2 Co10 B4'
_cell_volume   209.25427640
_cell_formula_units_Z   2
loop_
 _symmetry_equiv_pos_site_id
 _symmetry_equiv_pos_as_xyz
  1  'x, y, z'
loop_
 _atom_site_type_symbol
 _atom_site_label
 _atom_site_symmetry_multiplicity
 _atom_site_fract_x
 _atom_site_fract_y
 _atom_site_fract_z
 _atom_site_occupancy
  Ti  Ti0  1  0.675695  0.175695  0.000000  1
  Ti  Ti1  1  0.324305  0.824305  0.000000  1
  Ti  Ti2  1  0.175695  0.324305  0.000000  1
  Ti  Ti3  1  0.824305  0.675695  0.000000  1
  Fe  Fe4  1  0.500000  0.500000  0.000000  1
  Fe  Fe5  1  0.000000  0.000000  0.000000  1
  Co  Co6  1  0.570395  0.716509  0.500000  1
  Co  Co7  1  0.429605  0.283491  0.500000  1
  Co  Co8  1  0.070395  0.783491  0.500000  1
  Co  Co9  1  0.929605  0.216509  0.500000  1
  Co  Co10  1  0.283491  0.570395  0.500000  1
  Co  Co11  1  0.716509  0.429605  0.500000  1
  Co  Co12  1  0.216509  0.070395  0.500000  1
  Co  Co13  1  0.783491  0.929605  0.500000  1
  Co  Co14  1  0.500000  0.000000  0.500000  1
  Co  Co15  1  0.000000  0.500000  0.500000  1
  B  B16  1  0.121048  0.621048  0.000000  1
  B  B17  1  0.878952  0.378952  0.000000  1
  B  B18  1  0.621048  0.878952  0.000000  1
  B  B19  1  0.378952  0.121048  0.000000  1
