# generated using pymatgen
data_SrHf4(PO4)6
_symmetry_space_group_name_H-M   'P 1'
_cell_length_a   8.77025630
_cell_length_b   8.77025617
_cell_length_c   9.31470679
_cell_angle_alpha   61.91540329
_cell_angle_beta   118.08459053
_cell_angle_gamma   120.00000139
_symmetry_Int_Tables_number   1
_chemical_formula_structural   SrHf4(PO4)6
_chemical_formula_sum   'Sr1 Hf4 P6 O24'
_cell_volume   520.79082183
_cell_formula_units_Z   1
loop_
 _symmetry_equiv_pos_site_id
 _symmetry_equiv_pos_as_xyz
  1  'x, y, z'
loop_
 _atom_site_type_symbol
 _atom_site_label
 _atom_site_symmetry_multiplicity
 _atom_site_fract_x
 _atom_site_fract_y
 _atom_site_fract_z
 _atom_site_occupancy
  Sr  Sr0  1  0.000000  0.000000  0.000000  1
  Hf  Hf1  1  0.355260  0.644741  0.065777  1
  Hf  Hf2  1  0.149529  0.850471  0.448588  1
  Hf  Hf3  1  0.850471  0.149529  0.551411  1
  Hf  Hf4  1  0.644741  0.355260  0.934224  1
  P  P5  1  0.753690  0.541443  0.244001  1
  P  P6  1  0.031754  0.246310  0.244001  1
  P  P7  1  0.458558  0.968247  0.244001  1
  P  P8  1  0.541444  0.031752  0.756001  1
  P  P9  1  0.968247  0.753690  0.756001  1
  P  P10  1  0.246310  0.458557  0.756001  1
  O  O11  1  0.852799  0.241970  0.091308  1
  O  O12  1  0.480478  0.147199  0.091308  1
  O  O13  1  0.758029  0.519520  0.091308  1
  O  O14  1  0.565686  0.544074  0.209134  1
  O  O15  1  0.187518  0.434313  0.209134  1
  O  O16  1  0.455927  0.812481  0.209134  1
  O  O17  1  0.908620  0.729491  0.267234  1
  O  O18  1  0.088105  0.091381  0.267234  1
  O  O19  1  0.270510  0.911896  0.267234  1
  O  O20  1  0.793347  0.383681  0.409566  1
  O  O21  1  0.999901  0.206653  0.409566  1
  O  O22  1  0.616320  0.000099  0.409566  1
  O  O23  1  0.383682  0.999902  0.590435  1
  O  O24  1  0.000097  0.793346  0.590435  1
  O  O25  1  0.206653  0.616318  0.590435  1
  O  O26  1  0.729490  0.088105  0.732766  1
  O  O27  1  0.911895  0.908619  0.732766  1
  O  O28  1  0.091380  0.270510  0.732766  1
  O  O29  1  0.544073  0.187519  0.790867  1
  O  O30  1  0.812481  0.565687  0.790867  1
  O  O31  1  0.434314  0.455927  0.790867  1
  O  O32  1  0.241971  0.480480  0.908692  1
  O  O33  1  0.519520  0.852800  0.908692  1
  O  O34  1  0.147200  0.758030  0.908692  1
