# generated using pymatgen
data_BaPr(PPt3)4
_symmetry_space_group_name_H-M   'P 1'
_cell_length_a   8.61004120
_cell_length_b   8.62239300
_cell_length_c   8.62438217
_cell_angle_alpha   90.00000000
_cell_angle_beta   90.06017374
_cell_angle_gamma   90.00000000
_symmetry_Int_Tables_number   1
_chemical_formula_structural   BaPr(PPt3)4
_chemical_formula_sum   'Ba2 Pr2 P8 Pt24'
_cell_volume   640.26652632
_cell_formula_units_Z   2
loop_
 _symmetry_equiv_pos_site_id
 _symmetry_equiv_pos_as_xyz
  1  'x, y, z'
loop_
 _atom_site_type_symbol
 _atom_site_label
 _atom_site_symmetry_multiplicity
 _atom_site_fract_x
 _atom_site_fract_y
 _atom_site_fract_z
 _atom_site_occupancy
  Ba  Ba0  1  0.500000  0.500000  0.000000  1
  Ba  Ba1  1  0.500000  0.000000  0.500000  1
  Pr  Pr2  1  0.000000  0.500000  0.500000  1
  Pr  Pr3  1  0.000000  0.000000  0.000000  1
  P  P4  1  0.805654  0.308034  0.197691  1
  P  P5  1  0.194346  0.808034  0.302309  1
  P  P6  1  0.694656  0.697311  0.693055  1
  P  P7  1  0.305344  0.197311  0.806945  1
  P  P8  1  0.194346  0.691966  0.802309  1
  P  P9  1  0.805654  0.191966  0.697691  1
  P  P10  1  0.305344  0.302689  0.306945  1
  P  P11  1  0.694656  0.802689  0.193055  1
  Pt  Pt12  1  0.425235  0.842869  0.155261  1
  Pt  Pt13  1  0.574765  0.342869  0.344739  1
  Pt  Pt14  1  0.080790  0.155877  0.657660  1
  Pt  Pt15  1  0.919210  0.655877  0.842340  1
  Pt  Pt16  1  0.149715  0.423862  0.837434  1
  Pt  Pt17  1  0.335409  0.579941  0.347780  1
  Pt  Pt18  1  0.664591  0.079941  0.152220  1
  Pt  Pt19  1  0.850285  0.923862  0.662566  1
  Pt  Pt20  1  0.848546  0.164703  0.424101  1
  Pt  Pt21  1  0.335118  0.350213  0.577618  1
  Pt  Pt22  1  0.151454  0.664703  0.075899  1
  Pt  Pt23  1  0.664882  0.850213  0.922382  1
  Pt  Pt24  1  0.574765  0.157131  0.844739  1
  Pt  Pt25  1  0.425235  0.657131  0.655261  1
  Pt  Pt26  1  0.919210  0.844123  0.342340  1
  Pt  Pt27  1  0.080790  0.344123  0.157660  1
  Pt  Pt28  1  0.850285  0.576138  0.162566  1
  Pt  Pt29  1  0.664591  0.420059  0.652220  1
  Pt  Pt30  1  0.335409  0.920059  0.847780  1
  Pt  Pt31  1  0.149715  0.076138  0.337434  1
  Pt  Pt32  1  0.151454  0.835297  0.575899  1
  Pt  Pt33  1  0.664882  0.649787  0.422382  1
  Pt  Pt34  1  0.848546  0.335297  0.924101  1
  Pt  Pt35  1  0.335118  0.149787  0.077618  1
