# generated using pymatgen
data_NbVPd3Se8
_symmetry_space_group_name_H-M   'P 1'
_cell_length_a   3.59087800
_cell_length_b   11.06131487
_cell_length_c   15.44652672
_cell_angle_alpha   90.10723176
_cell_angle_beta   90.00000000
_cell_angle_gamma   90.00000000
_symmetry_Int_Tables_number   1
_chemical_formula_structural   NbVPd3Se8
_chemical_formula_sum   'Nb2 V2 Pd6 Se16'
_cell_volume   613.53237538
_cell_formula_units_Z   2
loop_
 _symmetry_equiv_pos_site_id
 _symmetry_equiv_pos_as_xyz
  1  'x, y, z'
loop_
 _atom_site_type_symbol
 _atom_site_label
 _atom_site_symmetry_multiplicity
 _atom_site_fract_x
 _atom_site_fract_y
 _atom_site_fract_z
 _atom_site_occupancy
  Nb  Nb0  1  0.500000  0.694553  0.374207  1
  Nb  Nb1  1  0.500000  0.305447  0.625793  1
  V  V2  1  0.500000  0.194983  0.127390  1
  V  V3  1  0.500000  0.805017  0.872610  1
  Pd  Pd4  1  0.000000  0.856202  0.272284  1
  Pd  Pd5  1  0.000000  0.143798  0.727716  1
  Pd  Pd6  1  0.000000  0.351693  0.224997  1
  Pd  Pd7  1  0.000000  0.648307  0.775003  1
  Pd  Pd8  1  0.000000  0.500000  0.500000  1
  Pd  Pd9  1  0.000000  0.000000  0.000000  1
  Se  Se10  1  0.500000  0.928331  0.371810  1
  Se  Se11  1  0.500000  0.071669  0.628190  1
  Se  Se12  1  0.500000  0.418474  0.125240  1
  Se  Se13  1  0.500000  0.581526  0.874760  1
  Se  Se14  1  0.500000  0.727027  0.208358  1
  Se  Se15  1  0.500000  0.272973  0.791642  1
  Se  Se16  1  0.500000  0.221155  0.285028  1
  Se  Se17  1  0.500000  0.778845  0.714972  1
  Se  Se18  1  0.000000  0.524973  0.341342  1
  Se  Se19  1  0.000000  0.475027  0.658658  1
  Se  Se20  1  0.000000  0.778328  0.988214  1
  Se  Se21  1  0.000000  0.221672  0.011786  1
  Se  Se22  1  0.000000  0.276695  0.502233  1
  Se  Se23  1  0.000000  0.723305  0.497767  1
  Se  Se24  1  0.000000  0.965802  0.842704  1
  Se  Se25  1  0.000000  0.034198  0.157296  1
