# generated using pymatgen
data_HoTm3(NiB4)4
_symmetry_space_group_name_H-M   'P 1'
_cell_length_a   6.78933421
_cell_length_b   6.78933443
_cell_length_c   6.78933382
_cell_angle_alpha   112.99228026
_cell_angle_beta   112.99227649
_cell_angle_gamma   102.63773357
_symmetry_Int_Tables_number   1
_chemical_formula_structural   HoTm3(NiB4)4
_chemical_formula_sum   'Ho1 Tm3 Ni4 B16'
_cell_volume   238.38503875
_cell_formula_units_Z   1
loop_
 _symmetry_equiv_pos_site_id
 _symmetry_equiv_pos_as_xyz
  1  'x, y, z'
loop_
 _atom_site_type_symbol
 _atom_site_label
 _atom_site_symmetry_multiplicity
 _atom_site_fract_x
 _atom_site_fract_y
 _atom_site_fract_z
 _atom_site_occupancy
  Ho  Ho0  1  0.250000  0.750000  0.500000  1
  Tm  Tm1  1  0.796248  0.796248  0.000000  1
  Tm  Tm2  1  0.203752  0.203752  0.000000  1
  Tm  Tm3  1  0.750000  0.250000  0.500000  1
  Ni  Ni4  1  0.271507  0.499407  0.772100  1
  Ni  Ni5  1  0.727306  0.499407  0.227900  1
  Ni  Ni6  1  0.500593  0.728493  0.227900  1
  Ni  Ni7  1  0.500593  0.272694  0.772100  1
  B  B8  1  0.275241  0.111057  0.386747  1
  B  B9  1  0.724310  0.888495  0.613253  1
  B  B10  1  0.275241  0.888495  0.164184  1
  B  B11  1  0.724310  0.111057  0.835816  1
  B  B12  1  0.111505  0.724759  0.835816  1
  B  B13  1  0.888943  0.275690  0.164184  1
  B  B14  1  0.111505  0.275690  0.386747  1
  B  B15  1  0.888943  0.724759  0.613253  1
  B  B16  1  0.113196  0.114171  0.533688  1
  B  B17  1  0.580484  0.579509  0.466312  1
  B  B18  1  0.113196  0.579509  0.999025  1
  B  B19  1  0.580484  0.114171  0.000975  1
  B  B20  1  0.885829  0.886804  0.466312  1
  B  B21  1  0.420491  0.419516  0.533688  1
  B  B22  1  0.885829  0.419516  0.999025  1
  B  B23  1  0.420491  0.886804  0.000975  1
