# generated using pymatgen
data_Dy3YCo4(Si3Ni4)4
_symmetry_space_group_name_H-M   'P 1'
_cell_length_a   3.77763000
_cell_length_b   6.74665302
_cell_length_c   18.66047500
_cell_angle_alpha   90.00322581
_cell_angle_beta   90.00000000
_cell_angle_gamma   90.00000000
_symmetry_Int_Tables_number   1
_chemical_formula_structural   Dy3YCo4(Si3Ni4)4
_chemical_formula_sum   'Dy3 Y1 Co4 Si12 Ni16'
_cell_volume   475.58756141
_cell_formula_units_Z   1
loop_
 _symmetry_equiv_pos_site_id
 _symmetry_equiv_pos_as_xyz
  1  'x, y, z'
loop_
 _atom_site_type_symbol
 _atom_site_label
 _atom_site_symmetry_multiplicity
 _atom_site_fract_x
 _atom_site_fract_y
 _atom_site_fract_z
 _atom_site_occupancy
  Dy  Dy0  1  0.250000  0.623781  0.643739  1
  Dy  Dy1  1  0.750000  0.375446  0.357229  1
  Dy  Dy2  1  0.750000  0.124546  0.856983  1
  Y  Y3  1  0.250000  0.876293  0.143612  1
  Co  Co4  1  0.750000  0.382550  0.989056  1
  Co  Co5  1  0.750000  0.117138  0.489374  1
  Co  Co6  1  0.750000  0.638533  0.885744  1
  Co  Co7  1  0.750000  0.861699  0.385829  1
  Si  Si8  1  0.250000  0.839306  0.922900  1
  Si  Si9  1  0.750000  0.150533  0.073341  1
  Si  Si10  1  0.750000  0.350213  0.573450  1
  Si  Si11  1  0.250000  0.661018  0.422971  1
  Si  Si12  1  0.750000  0.623265  0.763796  1
  Si  Si13  1  0.250000  0.375303  0.236418  1
  Si  Si14  1  0.250000  0.415054  0.917834  1
  Si  Si15  1  0.750000  0.582255  0.084779  1
  Si  Si16  1  0.750000  0.917064  0.585007  1
  Si  Si17  1  0.250000  0.084713  0.418045  1
  Si  Si18  1  0.250000  0.124569  0.736193  1
  Si  Si19  1  0.750000  0.876665  0.264036  1
  Ni  Ni20  1  0.250000  0.125128  0.993173  1
  Ni  Ni21  1  0.250000  0.622867  0.014416  1
  Ni  Ni22  1  0.250000  0.353644  0.112326  1
  Ni  Ni23  1  0.250000  0.146787  0.612103  1
  Ni  Ni24  1  0.250000  0.067014  0.295270  1
  Ni  Ni25  1  0.750000  0.931602  0.706463  1
  Ni  Ni26  1  0.750000  0.567895  0.206459  1
  Ni  Ni27  1  0.250000  0.432913  0.795017  1
  Ni  Ni28  1  0.750000  0.634947  0.504770  1
  Ni  Ni29  1  0.250000  0.375186  0.493278  1
  Ni  Ni30  1  0.250000  0.816191  0.798406  1
  Ni  Ni31  1  0.750000  0.182835  0.200180  1
  Ni  Ni32  1  0.750000  0.317550  0.699957  1
  Ni  Ni33  1  0.250000  0.683658  0.298497  1
  Ni  Ni34  1  0.250000  0.876638  0.514711  1
  Ni  Ni35  1  0.750000  0.865205  0.004639  1
