# generated using pymatgen
data_Sc4Co5NiOs2
_symmetry_space_group_name_H-M   'P 1'
_cell_length_a   4.89755980
_cell_length_b   4.89756015
_cell_length_c   8.18822800
_cell_angle_alpha   90.00000000
_cell_angle_beta   90.00000000
_cell_angle_gamma   119.71272016
_symmetry_Int_Tables_number   1
_chemical_formula_structural   Sc4Co5NiOs2
_chemical_formula_sum   'Sc4 Co5 Ni1 Os2'
_cell_volume   170.58075216
_cell_formula_units_Z   1
loop_
 _symmetry_equiv_pos_site_id
 _symmetry_equiv_pos_as_xyz
  1  'x, y, z'
loop_
 _atom_site_type_symbol
 _atom_site_label
 _atom_site_symmetry_multiplicity
 _atom_site_fract_x
 _atom_site_fract_y
 _atom_site_fract_z
 _atom_site_occupancy
  Sc  Sc0  1  0.334214  0.665786  0.565249  1
  Sc  Sc1  1  0.667685  0.332315  0.432853  1
  Sc  Sc2  1  0.667685  0.332315  0.067147  1
  Sc  Sc3  1  0.334214  0.665786  0.934751  1
  Co  Co4  1  0.660613  0.828470  0.250000  1
  Co  Co5  1  0.171259  0.828741  0.250000  1
  Co  Co6  1  0.826232  0.665209  0.750000  1
  Co  Co7  1  0.171530  0.339387  0.250000  1
  Co  Co8  1  0.334791  0.173768  0.750000  1
  Ni  Ni9  1  0.825544  0.174456  0.750000  1
  Os  Os10  1  0.003116  0.996884  0.498855  1
  Os  Os11  1  0.003116  0.996884  0.001145  1
