# generated using pymatgen
data_NdZnCdAg3
_symmetry_space_group_name_H-M   'P 1'
_cell_length_a   5.66211457
_cell_length_b   5.66211402
_cell_length_c   5.51242229
_cell_angle_alpha   59.09757043
_cell_angle_beta   59.09757228
_cell_angle_gamma   59.99999539
_symmetry_Int_Tables_number   1
_chemical_formula_structural   NdZnCdAg3
_chemical_formula_sum   'Nd1 Zn1 Cd1 Ag3'
_cell_volume   123.23219623
_cell_formula_units_Z   1
loop_
 _symmetry_equiv_pos_site_id
 _symmetry_equiv_pos_as_xyz
  1  'x, y, z'
loop_
 _atom_site_type_symbol
 _atom_site_label
 _atom_site_symmetry_multiplicity
 _atom_site_fract_x
 _atom_site_fract_y
 _atom_site_fract_z
 _atom_site_occupancy
  Nd  Nd0  1  0.750098  0.750098  0.749708  1
  Zn  Zn1  1  0.373692  0.373692  0.878924  1
  Cd  Cd2  1  0.002554  0.002554  0.992339  1
  Ag  Ag3  1  0.373637  0.876384  0.376343  1
  Ag  Ag4  1  0.373637  0.373637  0.376343  1
  Ag  Ag5  1  0.876384  0.373637  0.376343  1
