# generated using pymatgen
data_CuPt4Pb3O14
_symmetry_space_group_name_H-M   'P 1'
_cell_length_a   7.22798540
_cell_length_b   7.22798547
_cell_length_c   7.22798391
_cell_angle_alpha   61.42729164
_cell_angle_beta   61.42728750
_cell_angle_gamma   61.42729339
_symmetry_Int_Tables_number   1
_chemical_formula_structural   CuPt4Pb3O14
_chemical_formula_sum   'Cu1 Pt4 Pb3 O14'
_cell_volume   275.57491836
_cell_formula_units_Z   1
loop_
 _symmetry_equiv_pos_site_id
 _symmetry_equiv_pos_as_xyz
  1  'x, y, z'
loop_
 _atom_site_type_symbol
 _atom_site_label
 _atom_site_symmetry_multiplicity
 _atom_site_fract_x
 _atom_site_fract_y
 _atom_site_fract_z
 _atom_site_occupancy
  Cu  Cu0  1  0.625000  0.625000  0.625000  1
  Pt  Pt1  1  0.125000  0.125000  0.625000  1
  Pt  Pt2  1  0.125000  0.625000  0.125000  1
  Pt  Pt3  1  0.625000  0.125000  0.125000  1
  Pt  Pt4  1  0.125000  0.125000  0.125000  1
  Pb  Pb5  1  0.625000  0.625000  0.125000  1
  Pb  Pb6  1  0.625000  0.125000  0.625000  1
  Pb  Pb7  1  0.125000  0.625000  0.625000  1
  O  O8  1  0.512830  0.512830  0.512830  1
  O  O9  1  0.737170  0.737170  0.737170  1
  O  O10  1  0.456707  0.040224  0.456707  1
  O  O11  1  0.209872  0.792029  0.209872  1
  O  O12  1  0.456707  0.456707  0.040224  1
  O  O13  1  0.040224  0.456707  0.456707  1
  O  O14  1  0.457971  0.040128  0.040128  1
  O  O15  1  0.040128  0.040128  0.457971  1
  O  O16  1  0.040128  0.457971  0.040128  1
  O  O17  1  0.792029  0.209872  0.209872  1
  O  O18  1  0.209776  0.793293  0.793293  1
  O  O19  1  0.793293  0.209776  0.793293  1
  O  O20  1  0.209872  0.209872  0.792029  1
  O  O21  1  0.793293  0.793293  0.209776  1
