# generated using pymatgen
data_La3Tb2Dy3(CdIr)2
_symmetry_space_group_name_H-M   'P 1'
_cell_length_a   9.84348469
_cell_length_b   9.84348477
_cell_length_c   9.84348400
_cell_angle_alpha   60.00000259
_cell_angle_beta   60.00000231
_cell_angle_gamma   60.00000376
_symmetry_Int_Tables_number   1
_chemical_formula_structural   La3Tb2Dy3(CdIr)2
_chemical_formula_sum   'La6 Tb4 Dy6 Cd4 Ir4'
_cell_volume   674.42182202
_cell_formula_units_Z   2
loop_
 _symmetry_equiv_pos_site_id
 _symmetry_equiv_pos_as_xyz
  1  'x, y, z'
loop_
 _atom_site_type_symbol
 _atom_site_label
 _atom_site_symmetry_multiplicity
 _atom_site_fract_x
 _atom_site_fract_y
 _atom_site_fract_z
 _atom_site_occupancy
  La  La0  1  0.192918  0.807082  0.807082  1
  La  La1  1  0.807082  0.192918  0.192918  1
  La  La2  1  0.807082  0.192918  0.807082  1
  La  La3  1  0.192918  0.807082  0.192918  1
  La  La4  1  0.807082  0.807082  0.192918  1
  La  La5  1  0.192918  0.192918  0.807082  1
  Tb  Tb6  1  0.596807  0.596807  0.596807  1
  Tb  Tb7  1  0.596807  0.596807  0.209578  1
  Tb  Tb8  1  0.596807  0.209578  0.596807  1
  Tb  Tb9  1  0.209578  0.596807  0.596807  1
  Dy  Dy10  1  0.063335  0.436665  0.436665  1
  Dy  Dy11  1  0.436665  0.063335  0.063335  1
  Dy  Dy12  1  0.436665  0.063335  0.436665  1
  Dy  Dy13  1  0.063335  0.436665  0.063335  1
  Dy  Dy14  1  0.436665  0.436665  0.063335  1
  Dy  Dy15  1  0.063335  0.063335  0.436665  1
  Cd  Cd16  1  0.828768  0.828768  0.828768  1
  Cd  Cd17  1  0.828768  0.828768  0.513696  1
  Cd  Cd18  1  0.828768  0.513696  0.828768  1
  Cd  Cd19  1  0.513696  0.828768  0.828768  1
  Ir  Ir20  1  0.390902  0.390902  0.390902  1
  Ir  Ir21  1  0.390902  0.390902  0.827294  1
  Ir  Ir22  1  0.390902  0.827294  0.390902  1
  Ir  Ir23  1  0.827294  0.390902  0.390902  1
