# generated using pymatgen
data_Nd2DyHf(Al3Ir)6
_symmetry_space_group_name_H-M   'P 1'
_cell_length_a   7.57285175
_cell_length_b   7.56374923
_cell_length_c   9.47661000
_cell_angle_alpha   90.00000000
_cell_angle_beta   90.00000000
_cell_angle_gamma   119.50450553
_symmetry_Int_Tables_number   1
_chemical_formula_structural   Nd2DyHf(Al3Ir)6
_chemical_formula_sum   'Nd2 Dy1 Hf1 Al18 Ir6'
_cell_volume   472.41865271
_cell_formula_units_Z   1
loop_
 _symmetry_equiv_pos_site_id
 _symmetry_equiv_pos_as_xyz
  1  'x, y, z'
loop_
 _atom_site_type_symbol
 _atom_site_label
 _atom_site_symmetry_multiplicity
 _atom_site_fract_x
 _atom_site_fract_y
 _atom_site_fract_z
 _atom_site_occupancy
  Nd  Nd0  1  0.005043  0.327366  0.250000  1
  Nd  Nd1  1  0.329471  0.006420  0.250000  1
  Dy  Dy2  1  0.671430  0.995729  0.750000  1
  Hf  Hf3  1  0.997917  0.674629  0.750000  1
  Al  Al4  1  0.125622  0.123461  0.750000  1
  Al  Al5  1  0.868095  0.866583  0.250000  1
  Al  Al6  1  0.000001  0.338737  0.581578  1
  Al  Al7  1  0.997780  0.664833  0.433326  1
  Al  Al8  1  0.997780  0.664833  0.066674  1
  Al  Al9  1  0.332694  0.997937  0.918426  1
  Al  Al10  1  0.000001  0.338737  0.918422  1
  Al  Al11  1  0.664400  0.996209  0.070841  1
  Al  Al12  1  0.664400  0.996209  0.429159  1
  Al  Al13  1  0.332694  0.997937  0.581574  1
  Al  Al14  1  0.334519  0.334755  0.043665  1
  Al  Al15  1  0.669370  0.667046  0.941503  1
  Al  Al16  1  0.669370  0.667046  0.558497  1
  Al  Al17  1  0.334519  0.334755  0.456335  1
  Al  Al18  1  0.336595  0.550276  0.750000  1
  Al  Al19  1  0.660765  0.454477  0.250000  1
  Al  Al20  1  0.556436  0.344998  0.750000  1
  Al  Al21  1  0.452855  0.659230  0.250000  1
  Ir  Ir22  1  0.672885  0.329235  0.502859  1
  Ir  Ir23  1  0.328191  0.672412  0.503737  1
  Ir  Ir24  1  0.328191  0.672412  0.996263  1
  Ir  Ir25  1  0.672885  0.329235  0.997141  1
  Ir  Ir26  1  0.998045  0.997251  0.503608  1
  Ir  Ir27  1  0.998045  0.997251  0.996392  1
