# generated using pymatgen
data_Sc6Al11Si10(Os2Au)3
_symmetry_space_group_name_H-M   'P 1'
_cell_length_a   8.48857151
_cell_length_b   8.48857151
_cell_length_c   9.06608890
_cell_angle_alpha   90.25282015
_cell_angle_beta   89.74718848
_cell_angle_gamma   120.41541090
_symmetry_Int_Tables_number   1
_chemical_formula_structural   Sc6Al11Si10(Os2Au)3
_chemical_formula_sum   'Sc6 Al11 Si10 Os6 Au3'
_cell_volume   563.35352311
_cell_formula_units_Z   1
loop_
 _symmetry_equiv_pos_site_id
 _symmetry_equiv_pos_as_xyz
  1  'x, y, z'
loop_
 _atom_site_type_symbol
 _atom_site_label
 _atom_site_symmetry_multiplicity
 _atom_site_fract_x
 _atom_site_fract_y
 _atom_site_fract_z
 _atom_site_occupancy
  Sc  Sc0  1  0.201327  0.798673  0.246819  1
  Sc  Sc1  1  0.200222  0.397795  0.248673  1
  Sc  Sc2  1  0.602205  0.799778  0.248673  1
  Sc  Sc3  1  0.799086  0.200914  0.750089  1
  Sc  Sc4  1  0.803415  0.602769  0.751442  1
  Sc  Sc5  1  0.397231  0.196585  0.751442  1
  Al  Al6  1  0.157472  0.311620  0.909802  1
  Al  Al7  1  0.688380  0.842528  0.909802  1
  Al  Al8  1  0.845024  0.154976  0.090631  1
  Al  Al9  1  0.848652  0.687169  0.085316  1
  Al  Al10  1  0.312831  0.151348  0.085316  1
  Al  Al11  1  0.842047  0.157953  0.415052  1
  Al  Al12  1  0.844876  0.687609  0.413447  1
  Al  Al13  1  0.312391  0.155124  0.413447  1
  Al  Al14  1  0.156703  0.843297  0.589962  1
  Al  Al15  1  0.159202  0.320121  0.584732  1
  Al  Al16  1  0.679879  0.840798  0.584732  1
  Si  Si17  1  0.567411  0.432589  0.249105  1
  Si  Si18  1  0.566256  0.131048  0.251598  1
  Si  Si19  1  0.868952  0.433744  0.251598  1
  Si  Si20  1  0.435247  0.564753  0.748868  1
  Si  Si21  1  0.431110  0.866623  0.754244  1
  Si  Si22  1  0.133377  0.568890  0.754244  1
  Si  Si23  1  0.332822  0.667178  0.452386  1
  Si  Si24  1  0.665713  0.334287  0.546781  1
  Si  Si25  1  0.669001  0.330999  0.957606  1
  Si  Si26  1  0.335796  0.664204  0.041346  1
  Os  Os27  1  0.500449  0.499551  0.498314  1
  Os  Os28  1  0.498984  0.000127  0.501621  1
  Os  Os29  1  0.999873  0.501016  0.501621  1
  Os  Os30  1  0.502639  0.497361  0.998745  1
  Os  Os31  1  0.511783  0.998052  0.003152  1
  Os  Os32  1  0.001948  0.488217  0.003152  1
  Au  Au33  1  0.137886  0.862114  0.919681  1
  Au  Au34  1  0.999252  0.000748  0.256121  1
  Au  Au35  1  0.990560  0.009440  0.730437  1
