# generated using pymatgen
data_Ba4PrNd(GaSe5)2
_symmetry_space_group_name_H-M   'P 1'
_cell_length_a   7.45211288
_cell_length_b   8.94305141
_cell_length_c   9.66857206
_cell_angle_alpha   103.70277823
_cell_angle_beta   102.88923998
_cell_angle_gamma   107.65741018
_symmetry_Int_Tables_number   1
_chemical_formula_structural   Ba4PrNd(GaSe5)2
_chemical_formula_sum   'Ba4 Pr1 Nd1 Ga2 Se10'
_cell_volume   565.44582403
_cell_formula_units_Z   1
loop_
 _symmetry_equiv_pos_site_id
 _symmetry_equiv_pos_as_xyz
  1  'x, y, z'
loop_
 _atom_site_type_symbol
 _atom_site_label
 _atom_site_symmetry_multiplicity
 _atom_site_fract_x
 _atom_site_fract_y
 _atom_site_fract_z
 _atom_site_occupancy
  Ba  Ba0  1  0.635650  0.979333  0.293828  1
  Ba  Ba1  1  0.364472  0.020806  0.706229  1
  Ba  Ba2  1  0.342461  0.510024  0.705192  1
  Ba  Ba3  1  0.657336  0.489827  0.294680  1
  Pr  Pr4  1  0.997334  0.731500  0.997739  1
  Nd  Nd5  1  0.002588  0.268577  0.002168  1
  Ga  Ga6  1  0.806659  0.872225  0.687463  1
  Ga  Ga7  1  0.193321  0.127891  0.312475  1
  Se  Se8  1  0.988929  0.686708  0.678928  1
  Se  Se9  1  0.010969  0.313136  0.319587  1
  Se  Se10  1  0.985574  0.148494  0.684570  1
  Se  Se11  1  0.014599  0.852296  0.317074  1
  Se  Se12  1  0.704350  0.905810  0.920071  1
  Se  Se13  1  0.295605  0.095889  0.079975  1
  Se  Se14  1  0.697433  0.406847  0.944656  1
  Se  Se15  1  0.302728  0.590627  0.055356  1
  Se  Se16  1  0.492896  0.742532  0.493902  1
  Se  Se17  1  0.507095  0.257479  0.506107  1
