# generated using pymatgen
data_DyEr3Ni2(B8Ir)2
_symmetry_space_group_name_H-M   'P 1'
_cell_length_a   6.90358121
_cell_length_b   6.90360268
_cell_length_c   6.90358552
_cell_angle_alpha   111.16045341
_cell_angle_beta   113.26466456
_cell_angle_gamma   104.12502940
_symmetry_Int_Tables_number   1
_chemical_formula_structural   DyEr3Ni2(B8Ir)2
_chemical_formula_sum   'Dy1 Er3 Ni2 B16 Ir2'
_cell_volume   251.55435480
_cell_formula_units_Z   1
loop_
 _symmetry_equiv_pos_site_id
 _symmetry_equiv_pos_as_xyz
  1  'x, y, z'
loop_
 _atom_site_type_symbol
 _atom_site_label
 _atom_site_symmetry_multiplicity
 _atom_site_fract_x
 _atom_site_fract_y
 _atom_site_fract_z
 _atom_site_occupancy
  Dy  Dy0  1  0.248281  0.748282  0.500001  1
  Er  Er1  1  0.789548  0.789524  0.999975  1
  Er  Er2  1  0.210444  0.210428  0.999984  1
  Er  Er3  1  0.751888  0.251904  0.500016  1
  Ni  Ni4  1  0.500407  0.746233  0.245825  1
  Ni  Ni5  1  0.500405  0.254580  0.754176  1
  B  B6  1  0.272408  0.108211  0.380515  1
  B  B7  1  0.727698  0.891900  0.619485  1
  B  B8  1  0.272415  0.891899  0.164202  1
  B  B9  1  0.727696  0.108212  0.835803  1
  B  B10  1  0.110501  0.731120  0.841591  1
  B  B11  1  0.889529  0.268915  0.158412  1
  B  B12  1  0.110502  0.268914  0.379384  1
  B  B13  1  0.889530  0.731121  0.620620  1
  B  B14  1  0.114888  0.109696  0.529108  1
  B  B15  1  0.580592  0.585781  0.470893  1
  B  B16  1  0.114889  0.585782  0.005189  1
  B  B17  1  0.580586  0.109696  0.994808  1
  B  B18  1  0.884789  0.890633  0.470892  1
  B  B19  1  0.419746  0.413905  0.529116  1
  B  B20  1  0.884788  0.413904  0.994159  1
  B  B21  1  0.419741  0.890633  0.005843  1
  Ir  Ir22  1  0.275930  0.499364  0.776565  1
  Ir  Ir23  1  0.722798  0.499364  0.223434  1
