# generated using pymatgen
data_AlCr3Pt8
_symmetry_space_group_name_H-M   'P 1'
_cell_length_a   16.39383800
_cell_length_b   3.97584800
_cell_length_c   5.49533300
_cell_angle_alpha   90.00000000
_cell_angle_beta   90.00000000
_cell_angle_gamma   90.00000000
_symmetry_Int_Tables_number   1
_chemical_formula_structural   AlCr3Pt8
_chemical_formula_sum   'Al2 Cr6 Pt16'
_cell_volume   358.18255184
_cell_formula_units_Z   2
loop_
 _symmetry_equiv_pos_site_id
 _symmetry_equiv_pos_as_xyz
  1  'x, y, z'
loop_
 _atom_site_type_symbol
 _atom_site_label
 _atom_site_symmetry_multiplicity
 _atom_site_fract_x
 _atom_site_fract_y
 _atom_site_fract_z
 _atom_site_occupancy
  Al  Al0  1  0.000000  0.499999  0.000000  1
  Al  Al1  1  0.500000  0.499999  0.000000  1
  Cr  Cr2  1  0.088917  0.000000  0.298649  1
  Cr  Cr3  1  0.411083  0.000000  0.298649  1
  Cr  Cr4  1  0.588917  0.000000  0.701351  1
  Cr  Cr5  1  0.911082  0.000000  0.701351  1
  Cr  Cr6  1  0.250000  0.000000  0.791229  1
  Cr  Cr7  1  0.750000  0.000000  0.208772  1
  Pt  Pt8  1  0.250000  0.000000  0.284633  1
  Pt  Pt9  1  0.750000  0.000000  0.715368  1
  Pt  Pt10  1  0.166672  0.499999  0.546764  1
  Pt  Pt11  1  0.333328  0.499999  0.546764  1
  Pt  Pt12  1  0.666671  0.499999  0.453235  1
  Pt  Pt13  1  0.833329  0.499999  0.453235  1
  Pt  Pt14  1  0.160974  0.499999  0.045682  1
  Pt  Pt15  1  0.339027  0.499999  0.045682  1
  Pt  Pt16  1  0.660974  0.499999  0.954317  1
  Pt  Pt17  1  0.839027  0.499999  0.954317  1
  Pt  Pt18  1  0.000000  0.499999  0.499999  1
  Pt  Pt19  1  0.500000  0.499999  0.499999  1
  Pt  Pt20  1  0.073756  0.000000  0.795240  1
  Pt  Pt21  1  0.426244  0.000000  0.795240  1
  Pt  Pt22  1  0.573755  0.000000  0.204760  1
  Pt  Pt23  1  0.926244  0.000000  0.204760  1
