# generated using pymatgen
data_Zn8Ni4IrRh3
_symmetry_space_group_name_H-M   'P 1'
_cell_length_a   5.83003400
_cell_length_b   5.84146600
_cell_length_c   6.12678100
_cell_angle_alpha   89.99982711
_cell_angle_beta   89.99934885
_cell_angle_gamma   90.00264105
_symmetry_Int_Tables_number   1
_chemical_formula_structural   Zn8Ni4IrRh3
_chemical_formula_sum   'Zn8 Ni4 Ir1 Rh3'
_cell_volume   208.65331903
_cell_formula_units_Z   1
loop_
 _symmetry_equiv_pos_site_id
 _symmetry_equiv_pos_as_xyz
  1  'x, y, z'
loop_
 _atom_site_type_symbol
 _atom_site_label
 _atom_site_symmetry_multiplicity
 _atom_site_fract_x
 _atom_site_fract_y
 _atom_site_fract_z
 _atom_site_occupancy
  Zn  Zn0  1  0.500361  0.500369  0.248931  1
  Zn  Zn1  1  0.500372  0.999635  0.248930  1
  Zn  Zn2  1  0.999635  0.500363  0.251765  1
  Zn  Zn3  1  0.999636  0.999633  0.251764  1
  Zn  Zn4  1  0.999634  0.500363  0.748237  1
  Zn  Zn5  1  0.999632  0.999639  0.748235  1
  Zn  Zn6  1  0.500369  0.500359  0.751071  1
  Zn  Zn7  1  0.500357  0.999637  0.751070  1
  Ni  Ni8  1  0.751312  0.249999  0.000000  1
  Ni  Ni9  1  0.248732  0.750001  0.000000  1
  Ni  Ni10  1  0.748738  0.250000  0.499976  1
  Ni  Ni11  1  0.251271  0.749999  0.500025  1
  Ir  Ir12  1  0.248522  0.249999  0.000000  1
  Rh  Rh13  1  0.751430  0.749999  0.000000  1
  Rh  Rh14  1  0.251438  0.250000  0.499997  1
  Rh  Rh15  1  0.748559  0.750000  0.500004  1
