# generated using pymatgen
data_Tb3Y6Ho7(CdPt)4
_symmetry_space_group_name_H-M   'P 1'
_cell_length_a   9.69831458
_cell_length_b   9.69464436
_cell_length_c   9.69464500
_cell_angle_alpha   60.00000123
_cell_angle_beta   60.01251908
_cell_angle_gamma   60.01251628
_symmetry_Int_Tables_number   1
_chemical_formula_structural   Tb3Y6Ho7(CdPt)4
_chemical_formula_sum   'Tb3 Y6 Ho7 Cd4 Pt4'
_cell_volume   644.65478456
_cell_formula_units_Z   1
loop_
 _symmetry_equiv_pos_site_id
 _symmetry_equiv_pos_as_xyz
  1  'x, y, z'
loop_
 _atom_site_type_symbol
 _atom_site_label
 _atom_site_symmetry_multiplicity
 _atom_site_fract_x
 _atom_site_fract_y
 _atom_site_fract_z
 _atom_site_occupancy
  Tb  Tb0  1  0.352450  0.352480  0.352480  1
  Tb  Tb1  1  0.352450  0.352480  0.942591  1
  Tb  Tb2  1  0.352450  0.942591  0.352480  1
  Y  Y3  1  0.935391  0.564530  0.564530  1
  Y  Y4  1  0.564591  0.935390  0.935390  1
  Y  Y5  1  0.564591  0.935390  0.564630  1
  Y  Y6  1  0.935391  0.564530  0.935548  1
  Y  Y7  1  0.564591  0.564630  0.935390  1
  Y  Y8  1  0.935391  0.935548  0.564530  1
  Ho  Ho9  1  0.943291  0.352237  0.352237  1
  Ho  Ho10  1  0.811282  0.188840  0.188840  1
  Ho  Ho11  1  0.188695  0.811336  0.811336  1
  Ho  Ho12  1  0.188695  0.811336  0.188634  1
  Ho  Ho13  1  0.811282  0.188840  0.811037  1
  Ho  Ho14  1  0.188695  0.188634  0.811336  1
  Ho  Ho15  1  0.811282  0.811037  0.188840  1
  Cd  Cd16  1  0.582312  0.581792  0.581792  1
  Cd  Cd17  1  0.582312  0.581792  0.254104  1
  Cd  Cd18  1  0.582312  0.254104  0.581792  1
  Cd  Cd19  1  0.254119  0.581960  0.581960  1
  Pt  Pt20  1  0.142239  0.143370  0.143370  1
  Pt  Pt21  1  0.142239  0.143370  0.571022  1
  Pt  Pt22  1  0.142239  0.571022  0.143370  1
  Pt  Pt23  1  0.571712  0.142763  0.142763  1
