# generated using pymatgen
data_Zr8Tl3SnPd8
_symmetry_space_group_name_H-M   'P 1'
_cell_length_a   7.55828400
_cell_length_b   7.55828400
_cell_length_c   6.86746500
_cell_angle_alpha   90.00000000
_cell_angle_beta   90.00000000
_cell_angle_gamma   90.00000000
_symmetry_Int_Tables_number   1
_chemical_formula_structural   Zr8Tl3SnPd8
_chemical_formula_sum   'Zr8 Tl3 Sn1 Pd8'
_cell_volume   392.32218515
_cell_formula_units_Z   1
loop_
 _symmetry_equiv_pos_site_id
 _symmetry_equiv_pos_as_xyz
  1  'x, y, z'
loop_
 _atom_site_type_symbol
 _atom_site_label
 _atom_site_symmetry_multiplicity
 _atom_site_fract_x
 _atom_site_fract_y
 _atom_site_fract_z
 _atom_site_occupancy
  Zr  Zr0  1  0.651440  0.649918  0.499131  1
  Zr  Zr1  1  0.813887  0.188165  0.499954  1
  Zr  Zr2  1  0.688165  0.686113  0.000046  1
  Zr  Zr3  1  0.850082  0.151440  0.000869  1
  Zr  Zr4  1  0.186113  0.811835  0.499954  1
  Zr  Zr5  1  0.311835  0.313887  0.000046  1
  Zr  Zr6  1  0.149918  0.848560  0.000869  1
  Zr  Zr7  1  0.348560  0.350082  0.499131  1
  Tl  Tl8  1  0.000000  0.500000  0.250000  1
  Tl  Tl9  1  0.500000  0.000000  0.750000  1
  Tl  Tl10  1  0.500000  0.000000  0.250000  1
  Sn  Sn11  1  0.000000  0.500000  0.750000  1
  Pd  Pd12  1  0.628883  0.371981  0.214627  1
  Pd  Pd13  1  0.369230  0.627180  0.786141  1
  Pd  Pd14  1  0.872820  0.869230  0.713859  1
  Pd  Pd15  1  0.630770  0.372820  0.786141  1
  Pd  Pd16  1  0.371117  0.628019  0.214627  1
  Pd  Pd17  1  0.128019  0.128883  0.285373  1
  Pd  Pd18  1  0.871981  0.871117  0.285373  1
  Pd  Pd19  1  0.127180  0.130770  0.713859  1
