# generated using pymatgen
data_U2Ga8Fe9
_symmetry_space_group_name_H-M   'P 1'
_cell_length_a   6.55607202
_cell_length_b   6.55607298
_cell_length_c   6.55607278
_cell_angle_alpha   83.90718119
_cell_angle_beta   96.09281803
_cell_angle_gamma   96.09281841
_symmetry_Int_Tables_number   1
_chemical_formula_structural   U2Ga8Fe9
_chemical_formula_sum   'U2 Ga8 Fe9'
_cell_volume   277.33348282
_cell_formula_units_Z   1
loop_
 _symmetry_equiv_pos_site_id
 _symmetry_equiv_pos_as_xyz
  1  'x, y, z'
loop_
 _atom_site_type_symbol
 _atom_site_label
 _atom_site_symmetry_multiplicity
 _atom_site_fract_x
 _atom_site_fract_y
 _atom_site_fract_z
 _atom_site_occupancy
  U  U0  1  0.626173  0.373828  0.373828  1
  U  U1  1  0.373828  0.626174  0.626173  1
  Ga  Ga2  1  0.314126  0.314126  0.000000  1
  Ga  Ga3  1  0.685874  0.685874  0.000000  1
  Ga  Ga4  1  0.867441  0.132560  0.132560  1
  Ga  Ga5  1  0.000000  0.685875  0.314125  1
  Ga  Ga6  1  0.314126  0.000000  0.314126  1
  Ga  Ga7  1  0.685874  0.000000  0.685874  1
  Ga  Ga8  1  0.000000  0.314125  0.685874  1
  Ga  Ga9  1  0.132560  0.867442  0.867441  1
  Fe  Fe10  1  0.500000  0.000000  0.000000  1
  Fe  Fe11  1  0.000000  0.500000  0.000000  1
  Fe  Fe12  1  0.340926  0.659075  0.165386  1
  Fe  Fe13  1  0.165386  0.340925  0.340925  1
  Fe  Fe14  1  0.659075  0.834613  0.340926  1
  Fe  Fe15  1  0.000000  0.000000  0.500000  1
  Fe  Fe16  1  0.834613  0.659075  0.659074  1
  Fe  Fe17  1  0.340926  0.165386  0.659075  1
  Fe  Fe18  1  0.659074  0.340925  0.834613  1
