# generated using pymatgen
data_EuErB8
_symmetry_space_group_name_H-M   'P 1'
_cell_length_a   7.14042600
_cell_length_b   7.14068400
_cell_length_c   4.04911900
_cell_angle_alpha   90.00000000
_cell_angle_beta   90.00000000
_cell_angle_gamma   90.00000000
_symmetry_Int_Tables_number   1
_chemical_formula_structural   EuErB8
_chemical_formula_sum   'Eu2 Er2 B16'
_cell_volume   206.45455904
_cell_formula_units_Z   2
loop_
 _symmetry_equiv_pos_site_id
 _symmetry_equiv_pos_as_xyz
  1  'x, y, z'
loop_
 _atom_site_type_symbol
 _atom_site_label
 _atom_site_symmetry_multiplicity
 _atom_site_fract_x
 _atom_site_fract_y
 _atom_site_fract_z
 _atom_site_occupancy
  Eu  Eu0  1  0.183384  0.683822  0.000000  1
  Eu  Eu1  1  0.683384  0.816178  0.000000  1
  Er  Er2  1  0.317964  0.182256  0.000000  1
  Er  Er3  1  0.817964  0.317744  0.000000  1
  B  B4  1  0.324489  0.458246  0.500000  1
  B  B5  1  0.676042  0.534337  0.500000  1
  B  B6  1  0.537881  0.321052  0.500000  1
  B  B7  1  0.461733  0.672298  0.500000  1
  B  B8  1  0.000082  0.003976  0.202939  1
  B  B9  1  0.500082  0.496024  0.797061  1
  B  B10  1  0.000082  0.003976  0.797061  1
  B  B11  1  0.500082  0.496024  0.202939  1
  B  B12  1  0.586111  0.086425  0.500000  1
  B  B13  1  0.086111  0.413575  0.500000  1
  B  B14  1  0.912232  0.587076  0.500000  1
  B  B15  1  0.412232  0.912924  0.500000  1
  B  B16  1  0.037881  0.178948  0.500000  1
  B  B17  1  0.176042  0.965663  0.500000  1
  B  B18  1  0.824489  0.041754  0.500000  1
  B  B19  1  0.961733  0.827702  0.500000  1
