# generated using pymatgen
data_UPb2O5
_symmetry_space_group_name_H-M   'P 1'
_cell_length_a   5.83052600
_cell_length_b   8.27410443
_cell_length_c   12.02444253
_cell_angle_alpha   71.56304897
_cell_angle_beta   90.00000000
_cell_angle_gamma   90.00000000
_symmetry_Int_Tables_number   1
_chemical_formula_structural   UPb2O5
_chemical_formula_sum   'U4 Pb8 O20'
_cell_volume   550.31313770
_cell_formula_units_Z   4
loop_
 _symmetry_equiv_pos_site_id
 _symmetry_equiv_pos_as_xyz
  1  'x, y, z'
loop_
 _atom_site_type_symbol
 _atom_site_label
 _atom_site_symmetry_multiplicity
 _atom_site_fract_x
 _atom_site_fract_y
 _atom_site_fract_z
 _atom_site_occupancy
  U  U0  1  0.000000  0.000000  0.000000  1
  U  U1  1  0.500000  0.000000  0.500000  1
  U  U2  1  0.000000  0.500000  0.000000  1
  U  U3  1  0.500000  0.500000  0.500000  1
  Pb  Pb4  1  0.958657  0.155746  0.679978  1
  Pb  Pb5  1  0.458657  0.844254  0.820022  1
  Pb  Pb6  1  0.041343  0.844254  0.320022  1
  Pb  Pb7  1  0.541343  0.155746  0.179978  1
  Pb  Pb8  1  0.490953  0.346273  0.853604  1
  Pb  Pb9  1  0.990953  0.653727  0.646396  1
  Pb  Pb10  1  0.509047  0.653727  0.146396  1
  Pb  Pb11  1  0.009047  0.346273  0.353604  1
  O  O12  1  0.626678  0.252002  0.500789  1
  O  O13  1  0.126678  0.747998  0.999211  1
  O  O14  1  0.373322  0.747998  0.499211  1
  O  O15  1  0.873322  0.252002  0.000789  1
  O  O16  1  0.754594  0.003092  0.385197  1
  O  O17  1  0.254594  0.996908  0.114803  1
  O  O18  1  0.245406  0.996908  0.614803  1
  O  O19  1  0.745406  0.003092  0.885197  1
  O  O20  1  0.787039  0.599093  0.419416  1
  O  O21  1  0.287039  0.400907  0.080584  1
  O  O22  1  0.212961  0.400907  0.580584  1
  O  O23  1  0.712961  0.599093  0.919416  1
  O  O24  1  0.668479  0.458322  0.667997  1
  O  O25  1  0.168479  0.541678  0.832003  1
  O  O26  1  0.331521  0.541678  0.332003  1
  O  O27  1  0.831521  0.458322  0.167997  1
  O  O28  1  0.704407  0.886843  0.646212  1
  O  O29  1  0.204407  0.113157  0.853788  1
  O  O30  1  0.295593  0.113157  0.353788  1
  O  O31  1  0.795593  0.886843  0.146212  1
