# generated using pymatgen
data_Yb6HfPt7
_symmetry_space_group_name_H-M   'P 1'
_cell_length_a   5.91083430
_cell_length_b   7.67132300
_cell_length_c   7.67132297
_cell_angle_alpha   113.64398121
_cell_angle_beta   104.88245431
_cell_angle_gamma   104.88244593
_symmetry_Int_Tables_number   1
_chemical_formula_structural   Yb6HfPt7
_chemical_formula_sum   'Yb6 Hf1 Pt7'
_cell_volume   281.37339745
_cell_formula_units_Z   1
loop_
 _symmetry_equiv_pos_site_id
 _symmetry_equiv_pos_as_xyz
  1  'x, y, z'
loop_
 _atom_site_type_symbol
 _atom_site_label
 _atom_site_symmetry_multiplicity
 _atom_site_fract_x
 _atom_site_fract_y
 _atom_site_fract_z
 _atom_site_occupancy
  Yb  Yb0  1  0.352756  0.436237  0.145209  1
  Yb  Yb1  1  0.207547  0.854791  0.291028  1
  Yb  Yb2  1  0.083480  0.291027  0.436237  1
  Yb  Yb3  1  0.916520  0.708973  0.563763  1
  Yb  Yb4  1  0.792453  0.145209  0.708973  1
  Yb  Yb5  1  0.647244  0.563763  0.854791  1
  Hf  Hf6  1  0.500000  0.000000  0.000000  1
  Pt  Pt7  1  0.000000  0.000000  0.000000  1
  Pt  Pt8  1  0.834336  0.397105  0.132337  1
  Pt  Pt9  1  0.701999  0.867663  0.264768  1
  Pt  Pt10  1  0.562769  0.264768  0.397105  1
  Pt  Pt11  1  0.437233  0.735232  0.602896  1
  Pt  Pt12  1  0.298001  0.132337  0.735233  1
  Pt  Pt13  1  0.165664  0.602895  0.867663  1
