# generated using pymatgen
data_ErCu6HgO8
_symmetry_space_group_name_H-M   'P 1'
_cell_length_a   6.59006104
_cell_length_b   6.59006081
_cell_length_c   6.59006100
_cell_angle_alpha   59.99999403
_cell_angle_beta   59.99999520
_cell_angle_gamma   60.00000143
_symmetry_Int_Tables_number   1
_chemical_formula_structural   ErCu6HgO8
_chemical_formula_sum   'Er1 Cu6 Hg1 O8'
_cell_volume   202.37332427
_cell_formula_units_Z   1
loop_
 _symmetry_equiv_pos_site_id
 _symmetry_equiv_pos_as_xyz
  1  'x, y, z'
loop_
 _atom_site_type_symbol
 _atom_site_label
 _atom_site_symmetry_multiplicity
 _atom_site_fract_x
 _atom_site_fract_y
 _atom_site_fract_z
 _atom_site_occupancy
  Er  Er0  1  0.000000  0.000000  0.000000  1
  Cu  Cu1  1  0.000000  0.000000  0.500000  1
  Cu  Cu2  1  0.500000  0.000000  0.000000  1
  Cu  Cu3  1  0.000000  0.500000  0.000000  1
  Cu  Cu4  1  0.500000  0.500000  0.000000  1
  Cu  Cu5  1  0.000000  0.500000  0.500000  1
  Cu  Cu6  1  0.500000  0.000000  0.500000  1
  Hg  Hg7  1  0.500000  0.500000  0.500000  1
  O  O8  1  0.143597  0.143597  0.569206  1
  O  O9  1  0.143597  0.569206  0.143597  1
  O  O10  1  0.569206  0.143597  0.143597  1
  O  O11  1  0.856403  0.430794  0.856403  1
  O  O12  1  0.143597  0.143597  0.143597  1
  O  O13  1  0.856403  0.856403  0.856403  1
  O  O14  1  0.856403  0.856403  0.430794  1
  O  O15  1  0.430794  0.856403  0.856403  1
