# generated using pymatgen
data_Tb10CuTePb6
_symmetry_space_group_name_H-M   'P 1'
_cell_length_a   9.32887617
_cell_length_b   9.33183329
_cell_length_c   6.73228705
_cell_angle_alpha   89.98679473
_cell_angle_beta   90.00660323
_cell_angle_gamma   120.01047978
_symmetry_Int_Tables_number   1
_chemical_formula_structural   Tb10CuTePb6
_chemical_formula_sum   'Tb10 Cu1 Te1 Pb6'
_cell_volume   507.50891259
_cell_formula_units_Z   1
loop_
 _symmetry_equiv_pos_site_id
 _symmetry_equiv_pos_as_xyz
  1  'x, y, z'
loop_
 _atom_site_type_symbol
 _atom_site_label
 _atom_site_symmetry_multiplicity
 _atom_site_fract_x
 _atom_site_fract_y
 _atom_site_fract_z
 _atom_site_occupancy
  Tb  Tb0  1  0.260637  0.000025  0.259534  1
  Tb  Tb1  1  0.739363  0.999975  0.740466  1
  Tb  Tb2  1  0.000000  0.260635  0.259655  1
  Tb  Tb3  1  0.000000  0.739365  0.740345  1
  Tb  Tb4  1  0.739363  0.739388  0.259534  1
  Tb  Tb5  1  0.260637  0.260612  0.740466  1
  Tb  Tb6  1  0.333139  0.666570  0.000000  1
  Tb  Tb7  1  0.666861  0.333430  0.000000  1
  Tb  Tb8  1  0.666327  0.333163  0.500000  1
  Tb  Tb9  1  0.333673  0.666837  0.500000  1
  Cu  Cu10  1  0.000000  0.000000  0.500000  1
  Te  Te11  1  0.000000  0.000000  0.000000  1
  Pb  Pb12  1  0.610226  0.000001  0.249425  1
  Pb  Pb13  1  0.389774  0.999999  0.750575  1
  Pb  Pb14  1  0.000000  0.610150  0.249591  1
  Pb  Pb15  1  0.000000  0.389850  0.750409  1
  Pb  Pb16  1  0.389774  0.389775  0.249425  1
  Pb  Pb17  1  0.610226  0.610225  0.750575  1
