# generated using pymatgen
data_Lu20Ir7Pd5
_symmetry_space_group_name_H-M   'P 1'
_cell_length_a   10.93552407
_cell_length_b   10.93552436
_cell_length_c   6.25734200
_cell_angle_alpha   89.81167403
_cell_angle_beta   89.81167403
_cell_angle_gamma   89.61484359
_symmetry_Int_Tables_number   1
_chemical_formula_structural   Lu20Ir7Pd5
_chemical_formula_sum   'Lu20 Ir7 Pd5'
_cell_volume   748.26362289
_cell_formula_units_Z   1
loop_
 _symmetry_equiv_pos_site_id
 _symmetry_equiv_pos_as_xyz
  1  'x, y, z'
loop_
 _atom_site_type_symbol
 _atom_site_label
 _atom_site_symmetry_multiplicity
 _atom_site_fract_x
 _atom_site_fract_y
 _atom_site_fract_z
 _atom_site_occupancy
  Lu  Lu0  1  0.297469  0.089026  0.365556  1
  Lu  Lu1  1  0.298186  0.908701  0.864583  1
  Lu  Lu2  1  0.700394  0.081207  0.860128  1
  Lu  Lu3  1  0.699768  0.907364  0.363242  1
  Lu  Lu4  1  0.580441  0.787068  0.874160  1
  Lu  Lu5  1  0.577313  0.206182  0.362609  1
  Lu  Lu6  1  0.417298  0.790128  0.373301  1
  Lu  Lu7  1  0.411788  0.206641  0.874652  1
  Lu  Lu8  1  0.212932  0.419559  0.625840  1
  Lu  Lu9  1  0.209872  0.582702  0.126699  1
  Lu  Lu10  1  0.793818  0.422687  0.137391  1
  Lu  Lu11  1  0.793359  0.588212  0.625348  1
  Lu  Lu12  1  0.910974  0.702531  0.134444  1
  Lu  Lu13  1  0.918793  0.299606  0.639872  1
  Lu  Lu14  1  0.091299  0.701814  0.635417  1
  Lu  Lu15  1  0.092636  0.300232  0.136758  1
  Lu  Lu16  1  0.998159  0.000944  0.499295  1
  Lu  Lu17  1  0.999056  0.001841  0.000705  1
  Lu  Lu18  1  0.497862  0.500174  0.001001  1
  Lu  Lu19  1  0.499826  0.502138  0.498999  1
  Ir  Ir20  1  0.653839  0.651176  0.250096  1
  Ir  Ir21  1  0.348824  0.346161  0.249904  1
  Ir  Ir22  1  0.345740  0.654260  0.750000  1
  Ir  Ir23  1  0.499147  0.999140  0.110105  1
  Ir  Ir24  1  0.499047  0.999826  0.611924  1
  Ir  Ir25  1  0.000174  0.500953  0.888076  1
  Ir  Ir26  1  0.000860  0.500853  0.389895  1
  Pd  Pd27  1  0.842530  0.157470  0.250000  1
  Pd  Pd28  1  0.844636  0.846838  0.751134  1
  Pd  Pd29  1  0.153162  0.155364  0.748866  1
  Pd  Pd30  1  0.154518  0.845482  0.250000  1
  Pd  Pd31  1  0.656278  0.343722  0.750000  1
