# generated using pymatgen
data_PuHg3(SeF3)2
_symmetry_space_group_name_H-M   'P 1'
_cell_length_a   7.97567600
_cell_length_b   7.97556620
_cell_length_c   5.44630900
_cell_angle_alpha   90.00000103
_cell_angle_beta   90.00011007
_cell_angle_gamma   119.99953939
_symmetry_Int_Tables_number   1
_chemical_formula_structural   PuHg3(SeF3)2
_chemical_formula_sum   'Pu1 Hg3 Se2 F6'
_cell_volume   300.02949606
_cell_formula_units_Z   1
loop_
 _symmetry_equiv_pos_site_id
 _symmetry_equiv_pos_as_xyz
  1  'x, y, z'
loop_
 _atom_site_type_symbol
 _atom_site_label
 _atom_site_symmetry_multiplicity
 _atom_site_fract_x
 _atom_site_fract_y
 _atom_site_fract_z
 _atom_site_occupancy
  Pu  Pu0  1  0.000000  0.000000  0.500000  1
  Hg  Hg1  1  0.500001  0.000000  0.000000  1
  Hg  Hg2  1  0.000000  0.500001  0.000000  1
  Hg  Hg3  1  0.500001  0.500001  0.000000  1
  Se  Se4  1  0.333332  0.666667  0.187747  1
  Se  Se5  1  0.666668  0.333333  0.812253  1
  F  F6  1  0.128490  0.256983  0.273987  1
  F  F7  1  0.128490  0.871507  0.273987  1
  F  F8  1  0.743016  0.871508  0.273986  1
  F  F9  1  0.256984  0.128492  0.726014  1
  F  F10  1  0.871510  0.128493  0.726013  1
  F  F11  1  0.871511  0.743017  0.726013  1
