# generated using pymatgen
data_V12Ga3Co
_symmetry_space_group_name_H-M   'P 1'
_cell_length_a   4.73852200
_cell_length_b   4.73700600
_cell_length_c   9.55844300
_cell_angle_alpha   90.00000000
_cell_angle_beta   90.00000000
_cell_angle_gamma   90.00000000
_symmetry_Int_Tables_number   1
_chemical_formula_structural   V12Ga3Co
_chemical_formula_sum   'V12 Ga3 Co1'
_cell_volume   214.55270325
_cell_formula_units_Z   1
loop_
 _symmetry_equiv_pos_site_id
 _symmetry_equiv_pos_as_xyz
  1  'x, y, z'
loop_
 _atom_site_type_symbol
 _atom_site_label
 _atom_site_symmetry_multiplicity
 _atom_site_fract_x
 _atom_site_fract_y
 _atom_site_fract_z
 _atom_site_occupancy
  V  V0  1  0.500000  0.000000  0.384587  1
  V  V1  1  0.500000  0.000000  0.867910  1
  V  V2  1  0.742760  0.500000  0.000000  1
  V  V3  1  0.756689  0.500000  0.500000  1
  V  V4  1  0.000000  0.756112  0.256789  1
  V  V5  1  0.000000  0.756112  0.743211  1
  V  V6  1  0.500000  0.000000  0.132090  1
  V  V7  1  0.500000  0.000000  0.615413  1
  V  V8  1  0.257240  0.500000  0.000000  1
  V  V9  1  0.243311  0.500000  0.500000  1
  V  V10  1  0.000000  0.243888  0.256789  1
  V  V11  1  0.000000  0.243888  0.743211  1
  Ga  Ga12  1  0.500000  0.500000  0.250197  1
  Ga  Ga13  1  0.500000  0.500000  0.749803  1
  Ga  Ga14  1  0.000000  0.000000  0.000000  1
  Co  Co15  1  0.000000  0.000000  0.500000  1
