# generated using pymatgen
data_Sm2U2Ga12Tc
_symmetry_space_group_name_H-M   'P 1'
_cell_length_a   7.46028927
_cell_length_b   7.46114879
_cell_length_c   7.49035279
_cell_angle_alpha   109.41455948
_cell_angle_beta   109.40559089
_cell_angle_gamma   109.43058009
_symmetry_Int_Tables_number   1
_chemical_formula_structural   Sm2U2Ga12Tc
_chemical_formula_sum   'Sm2 U2 Ga12 Tc1'
_cell_volume   321.59696967
_cell_formula_units_Z   1
loop_
 _symmetry_equiv_pos_site_id
 _symmetry_equiv_pos_as_xyz
  1  'x, y, z'
loop_
 _atom_site_type_symbol
 _atom_site_label
 _atom_site_symmetry_multiplicity
 _atom_site_fract_x
 _atom_site_fract_y
 _atom_site_fract_z
 _atom_site_occupancy
  Sm  Sm0  1  0.500000  0.500000  0.500000  1
  Sm  Sm1  1  0.000000  0.000000  0.500000  1
  U  U2  1  0.000000  0.500000  0.000000  1
  U  U3  1  0.500000  0.000000  0.000000  1
  Ga  Ga4  1  0.252152  0.506134  0.758723  1
  Ga  Ga5  1  0.005314  0.707945  0.713722  1
  Ga  Ga6  1  0.291791  0.292124  0.000004  1
  Ga  Ga7  1  0.493451  0.747420  0.241296  1
  Ga  Ga8  1  0.750256  0.250237  0.500462  1
  Ga  Ga9  1  0.747848  0.493866  0.241277  1
  Ga  Ga10  1  0.249744  0.749763  0.499538  1
  Ga  Ga11  1  0.708368  0.005743  0.713671  1
  Ga  Ga12  1  0.506549  0.252580  0.758704  1
  Ga  Ga13  1  0.994686  0.292055  0.286278  1
  Ga  Ga14  1  0.291632  0.994257  0.286329  1
  Ga  Ga15  1  0.708209  0.707876  0.999996  1
  Tc  Tc16  1  0.000000  0.000000  0.000000  1
