# generated using pymatgen
data_Pr8Dy12GaSi15
_symmetry_space_group_name_H-M   'P 1'
_cell_length_a   7.54695332
_cell_length_b   7.81506386
_cell_length_c   14.91348700
_cell_angle_alpha   89.87095164
_cell_angle_beta   89.34090911
_cell_angle_gamma   90.19939183
_symmetry_Int_Tables_number   1
_chemical_formula_structural   Pr8Dy12GaSi15
_chemical_formula_sum   'Pr8 Dy12 Ga1 Si15'
_cell_volume   879.53046925
_cell_formula_units_Z   1
loop_
 _symmetry_equiv_pos_site_id
 _symmetry_equiv_pos_as_xyz
  1  'x, y, z'
loop_
 _atom_site_type_symbol
 _atom_site_label
 _atom_site_symmetry_multiplicity
 _atom_site_fract_x
 _atom_site_fract_y
 _atom_site_fract_z
 _atom_site_occupancy
  Pr  Pr0  1  0.021566  0.176082  0.401036  1
  Pr  Pr1  1  0.522965  0.321489  0.400606  1
  Pr  Pr2  1  0.475405  0.680727  0.901582  1
  Pr  Pr3  1  0.479525  0.681816  0.599314  1
  Pr  Pr4  1  0.976057  0.823513  0.599052  1
  Pr  Pr5  1  0.974589  0.820982  0.901982  1
  Pr  Pr6  1  0.524355  0.319091  0.098344  1
  Pr  Pr7  1  0.024455  0.179511  0.098276  1
  Dy  Dy8  1  0.323418  0.176340  0.624711  1
  Dy  Dy9  1  0.677391  0.820815  0.376539  1
  Dy  Dy10  1  0.650958  0.989478  0.749836  1
  Dy  Dy11  1  0.178252  0.680090  0.375857  1
  Dy  Dy12  1  0.818436  0.321813  0.877698  1
  Dy  Dy13  1  0.820934  0.322452  0.622898  1
  Dy  Dy14  1  0.848518  0.487661  0.249942  1
  Dy  Dy15  1  0.349553  0.010071  0.250105  1
  Dy  Dy16  1  0.318748  0.178030  0.877424  1
  Dy  Dy17  1  0.180715  0.677799  0.122788  1
  Dy  Dy18  1  0.680471  0.821170  0.122310  1
  Dy  Dy19  1  0.152482  0.511476  0.751899  1
  Ga  Ga20  1  0.152869  0.464990  0.538583  1
  Si  Si21  1  0.268140  0.880242  0.750722  1
  Si  Si22  1  0.473176  0.611980  0.249370  1
  Si  Si23  1  0.025545  0.114110  0.751782  1
  Si  Si24  1  0.526273  0.388363  0.750422  1
  Si  Si25  1  0.973361  0.886799  0.248669  1
  Si  Si26  1  0.730483  0.118392  0.249283  1
  Si  Si27  1  0.856188  0.530509  0.039643  1
  Si  Si28  1  0.356542  0.968706  0.040059  1
  Si  Si29  1  0.142503  0.469080  0.960359  1
  Si  Si30  1  0.645858  0.033134  0.538894  1
  Si  Si31  1  0.354445  0.969374  0.460115  1
  Si  Si32  1  0.851470  0.532679  0.459754  1
  Si  Si33  1  0.771023  0.620433  0.750777  1
  Si  Si34  1  0.230567  0.379825  0.249715  1
  Si  Si35  1  0.642761  0.030979  0.959655  1
