# generated using pymatgen
data_Sm2Er8In8PtRh3
_symmetry_space_group_name_H-M   'P 1'
_cell_length_a   3.62205400
_cell_length_b   8.04815897
_cell_length_c   18.28342527
_cell_angle_alpha   90.07919817
_cell_angle_beta   90.00000000
_cell_angle_gamma   90.00000000
_symmetry_Int_Tables_number   1
_chemical_formula_structural   Sm2Er8In8PtRh3
_chemical_formula_sum   'Sm2 Er8 In8 Pt1 Rh3'
_cell_volume   532.97717771
_cell_formula_units_Z   1
loop_
 _symmetry_equiv_pos_site_id
 _symmetry_equiv_pos_as_xyz
  1  'x, y, z'
loop_
 _atom_site_type_symbol
 _atom_site_label
 _atom_site_symmetry_multiplicity
 _atom_site_fract_x
 _atom_site_fract_y
 _atom_site_fract_z
 _atom_site_occupancy
  Sm  Sm0  1  0.000000  0.000496  0.999847  1
  Sm  Sm1  1  0.000000  0.500501  0.499984  1
  Er  Er2  1  0.000000  0.116441  0.411201  1
  Er  Er3  1  0.000000  0.882729  0.589689  1
  Er  Er4  1  0.000000  0.383076  0.910157  1
  Er  Er5  1  0.000000  0.618412  0.086857  1
  Er  Er6  1  0.000000  0.238730  0.221246  1
  Er  Er7  1  0.000000  0.755225  0.779232  1
  Er  Er8  1  0.000000  0.255042  0.721069  1
  Er  Er9  1  0.000000  0.749088  0.280130  1
  In  In10  1  0.500000  0.422495  0.349548  1
  In  In11  1  0.500000  0.574699  0.651638  1
  In  In12  1  0.500000  0.075083  0.848384  1
  In  In13  1  0.500000  0.925841  0.151455  1
  In  In14  1  0.500000  0.296586  0.066945  1
  In  In15  1  0.500000  0.702501  0.931505  1
  In  In16  1  0.500000  0.202509  0.568485  1
  In  In17  1  0.500000  0.797687  0.431628  1
  Pt  Pt18  1  0.500000  0.523874  0.196537  1
  Rh  Rh19  1  0.500000  0.022995  0.304611  1
  Rh  Rh20  1  0.500000  0.978160  0.695222  1
  Rh  Rh21  1  0.500000  0.477831  0.804632  1
