# generated using pymatgen
data_Er9Lu3Co4TcPb
_symmetry_space_group_name_H-M   'P 1'
_cell_length_a   8.20562297
_cell_length_b   8.20968547
_cell_length_c   8.20562255
_cell_angle_alpha   111.57459340
_cell_angle_beta   110.65280036
_cell_angle_gamma   106.21623992
_symmetry_Int_Tables_number   1
_chemical_formula_structural   Er9Lu3Co4TcPb
_chemical_formula_sum   'Er9 Lu3 Co4 Tc1 Pb1'
_cell_volume   424.58213059
_cell_formula_units_Z   1
loop_
 _symmetry_equiv_pos_site_id
 _symmetry_equiv_pos_as_xyz
  1  'x, y, z'
loop_
 _atom_site_type_symbol
 _atom_site_label
 _atom_site_symmetry_multiplicity
 _atom_site_fract_x
 _atom_site_fract_y
 _atom_site_fract_z
 _atom_site_occupancy
  Er  Er0  1  0.418365  0.220929  0.196492  1
  Er  Er1  1  0.582232  0.778714  0.803997  1
  Er  Er2  1  0.024436  0.220929  0.802564  1
  Er  Er3  1  0.974718  0.778714  0.196482  1
  Er  Er4  1  0.182235  0.278223  0.461935  1
  Er  Er5  1  0.818420  0.720923  0.538521  1
  Er  Er6  1  0.182400  0.720923  0.902503  1
  Er  Er7  1  0.816289  0.278223  0.095986  1
  Er  Er8  1  0.312680  0.619941  0.307261  1
  Lu  Lu9  1  0.687212  0.379140  0.691928  1
  Lu  Lu10  1  0.312893  0.004802  0.691911  1
  Lu  Lu11  1  0.687351  0.995426  0.308074  1
  Co  Co12  1  0.378026  0.001810  0.378203  1
  Co  Co13  1  0.623606  0.001810  0.623784  1
  Co  Co14  1  0.111415  0.611738  0.500323  1
  Co  Co15  1  0.887608  0.387236  0.499628  1
  Tc  Tc16  1  0.999989  0.001007  0.001019  1
  Pb  Pb17  1  0.500126  0.499514  0.999388  1
