# generated using pymatgen
data_Ba3NaFeO6
_symmetry_space_group_name_H-M   'P 1'
_cell_length_a   7.09095803
_cell_length_b   7.09095733
_cell_length_c   7.09095744
_cell_angle_alpha   91.46935522
_cell_angle_beta   91.46935023
_cell_angle_gamma   91.46934548
_symmetry_Int_Tables_number   1
_chemical_formula_structural   Ba3NaFeO6
_chemical_formula_sum   'Ba6 Na2 Fe2 O12'
_cell_volume   356.18741332
_cell_formula_units_Z   2
loop_
 _symmetry_equiv_pos_site_id
 _symmetry_equiv_pos_as_xyz
  1  'x, y, z'
loop_
 _atom_site_type_symbol
 _atom_site_label
 _atom_site_symmetry_multiplicity
 _atom_site_fract_x
 _atom_site_fract_y
 _atom_site_fract_z
 _atom_site_occupancy
  Ba  Ba0  1  0.894196  0.250000  0.605804  1
  Ba  Ba1  1  0.605804  0.894196  0.250000  1
  Ba  Ba2  1  0.750000  0.394196  0.105804  1
  Ba  Ba3  1  0.105804  0.750000  0.394196  1
  Ba  Ba4  1  0.394196  0.105804  0.750000  1
  Ba  Ba5  1  0.250000  0.605804  0.894196  1
  Na  Na6  1  0.250000  0.250000  0.250000  1
  Na  Na7  1  0.750000  0.750000  0.750000  1
  Fe  Fe8  1  0.000000  0.000000  0.000000  1
  Fe  Fe9  1  0.500000  0.500000  0.500000  1
  O  O10  1  0.551180  0.240490  0.420188  1
  O  O11  1  0.420188  0.551180  0.240490  1
  O  O12  1  0.240490  0.420188  0.551180  1
  O  O13  1  0.948820  0.079812  0.259510  1
  O  O14  1  0.259510  0.948820  0.079812  1
  O  O15  1  0.079812  0.259510  0.948820  1
  O  O16  1  0.448820  0.759510  0.579812  1
  O  O17  1  0.579812  0.448820  0.759510  1
  O  O18  1  0.759510  0.579812  0.448820  1
  O  O19  1  0.051180  0.920188  0.740490  1
  O  O20  1  0.920188  0.740490  0.051180  1
  O  O21  1  0.740490  0.051180  0.920188  1
