# generated using pymatgen
data_Dy4Hf4IrPt3
_symmetry_space_group_name_H-M   'P 1'
_cell_length_a   4.65811300
_cell_length_b   7.05278940
_cell_length_c   8.23624392
_cell_angle_alpha   89.83067922
_cell_angle_beta   90.00000000
_cell_angle_gamma   90.00000000
_symmetry_Int_Tables_number   1
_chemical_formula_structural   Dy4Hf4IrPt3
_chemical_formula_sum   'Dy4 Hf4 Ir1 Pt3'
_cell_volume   270.58158639
_cell_formula_units_Z   1
loop_
 _symmetry_equiv_pos_site_id
 _symmetry_equiv_pos_as_xyz
  1  'x, y, z'
loop_
 _atom_site_type_symbol
 _atom_site_label
 _atom_site_symmetry_multiplicity
 _atom_site_fract_x
 _atom_site_fract_y
 _atom_site_fract_z
 _atom_site_occupancy
  Dy  Dy0  1  0.250000  0.985527  0.319258  1
  Dy  Dy1  1  0.250000  0.482109  0.176478  1
  Dy  Dy2  1  0.750000  0.017577  0.680029  1
  Dy  Dy3  1  0.750000  0.512911  0.823431  1
  Hf  Hf4  1  0.250000  0.354184  0.578283  1
  Hf  Hf5  1  0.250000  0.858818  0.921718  1
  Hf  Hf6  1  0.750000  0.646023  0.422747  1
  Hf  Hf7  1  0.750000  0.145727  0.073937  1
  Ir  Ir8  1  0.250000  0.227474  0.908616  1
  Pt  Pt9  1  0.250000  0.727926  0.594128  1
  Pt  Pt10  1  0.750000  0.769826  0.095376  1
  Pt  Pt11  1  0.750000  0.271900  0.405998  1
