# generated using pymatgen
data_Hf(Zr3Pt5)2
_symmetry_space_group_name_H-M   'P 1'
_cell_length_a   8.21142809
_cell_length_b   8.21142780
_cell_length_c   9.71768500
_cell_angle_alpha   90.00000000
_cell_angle_beta   90.00000000
_cell_angle_gamma   107.48528065
_symmetry_Int_Tables_number   1
_chemical_formula_structural   Hf(Zr3Pt5)2
_chemical_formula_sum   'Hf2 Zr12 Pt20'
_cell_volume   624.96378759
_cell_formula_units_Z   2
loop_
 _symmetry_equiv_pos_site_id
 _symmetry_equiv_pos_as_xyz
  1  'x, y, z'
loop_
 _atom_site_type_symbol
 _atom_site_label
 _atom_site_symmetry_multiplicity
 _atom_site_fract_x
 _atom_site_fract_y
 _atom_site_fract_z
 _atom_site_occupancy
  Hf  Hf0  1  0.000000  0.000000  0.000000  1
  Hf  Hf1  1  0.500000  0.500000  0.500000  1
  Zr  Zr2  1  0.690390  0.309610  0.000000  1
  Zr  Zr3  1  0.309610  0.690390  0.000000  1
  Zr  Zr4  1  0.809610  0.190390  0.500000  1
  Zr  Zr5  1  0.190390  0.809610  0.500000  1
  Zr  Zr6  1  0.002442  0.502442  0.250000  1
  Zr  Zr7  1  0.997558  0.497558  0.750000  1
  Zr  Zr8  1  0.497558  0.997558  0.750000  1
  Zr  Zr9  1  0.502442  0.002442  0.250000  1
  Zr  Zr10  1  0.317553  0.317553  0.183303  1
  Zr  Zr11  1  0.682447  0.682447  0.816697  1
  Zr  Zr12  1  0.182447  0.182447  0.683303  1
  Zr  Zr13  1  0.817553  0.817553  0.316697  1
  Pt  Pt14  1  0.854766  0.145585  0.208127  1
  Pt  Pt15  1  0.145234  0.854415  0.791873  1
  Pt  Pt16  1  0.645234  0.354415  0.708127  1
  Pt  Pt17  1  0.645585  0.354766  0.291873  1
  Pt  Pt18  1  0.354766  0.645585  0.291873  1
  Pt  Pt19  1  0.354415  0.645234  0.708127  1
  Pt  Pt20  1  0.854415  0.145234  0.791873  1
  Pt  Pt21  1  0.145585  0.854766  0.208127  1
  Pt  Pt22  1  0.937279  0.646284  0.999616  1
  Pt  Pt23  1  0.062721  0.353716  0.000384  1
  Pt  Pt24  1  0.562721  0.853716  0.499616  1
  Pt  Pt25  1  0.146284  0.437279  0.500384  1
  Pt  Pt26  1  0.437279  0.146284  0.500384  1
  Pt  Pt27  1  0.853716  0.562721  0.499616  1
  Pt  Pt28  1  0.353716  0.062721  0.000384  1
  Pt  Pt29  1  0.646284  0.937279  0.999616  1
  Pt  Pt30  1  0.107917  0.107917  0.393299  1
  Pt  Pt31  1  0.892083  0.892083  0.606701  1
  Pt  Pt32  1  0.392083  0.392083  0.893299  1
  Pt  Pt33  1  0.607917  0.607917  0.106701  1
