# generated using pymatgen
data_Y8Ho8Cd4Co3Ru
_symmetry_space_group_name_H-M   'P 1'
_cell_length_a   9.54858018
_cell_length_b   9.50234367
_cell_length_c   9.53294998
_cell_angle_alpha   59.76460459
_cell_angle_beta   59.78481727
_cell_angle_gamma   59.98869774
_symmetry_Int_Tables_number   1
_chemical_formula_structural   Y8Ho8Cd4Co3Ru
_chemical_formula_sum   'Y8 Ho8 Cd4 Co3 Ru1'
_cell_volume   609.47748219
_cell_formula_units_Z   1
loop_
 _symmetry_equiv_pos_site_id
 _symmetry_equiv_pos_as_xyz
  1  'x, y, z'
loop_
 _atom_site_type_symbol
 _atom_site_label
 _atom_site_symmetry_multiplicity
 _atom_site_fract_x
 _atom_site_fract_y
 _atom_site_fract_z
 _atom_site_occupancy
  Y  Y0  1  0.939039  0.938380  0.561395  1
  Y  Y1  1  0.814259  0.188691  0.188324  1
  Y  Y2  1  0.938026  0.561933  0.564308  1
  Y  Y3  1  0.937387  0.561544  0.937452  1
  Y  Y4  1  0.815545  0.807753  0.185699  1
  Y  Y5  1  0.342065  0.348936  0.350574  1
  Y  Y6  1  0.561128  0.940825  0.940701  1
  Y  Y7  1  0.562698  0.938119  0.560781  1
  Ho  Ho8  1  0.188791  0.810733  0.810707  1
  Ho  Ho9  1  0.187997  0.186949  0.811722  1
  Ho  Ho10  1  0.340283  0.351681  0.959173  1
  Ho  Ho11  1  0.342045  0.960405  0.350927  1
  Ho  Ho12  1  0.814832  0.186907  0.807439  1
  Ho  Ho13  1  0.561322  0.556233  0.941224  1
  Ho  Ho14  1  0.189015  0.810660  0.187168  1
  Ho  Ho15  1  0.966232  0.347289  0.345834  1
  Cd  Cd16  1  0.580815  0.579973  0.257881  1
  Cd  Cd17  1  0.258216  0.579506  0.580119  1
  Cd  Cd18  1  0.580051  0.580238  0.577584  1
  Cd  Cd19  1  0.580113  0.257745  0.580340  1
  Co  Co20  1  0.140900  0.140629  0.142028  1
  Co  Co21  1  0.144721  0.579101  0.139794  1
  Co  Co22  1  0.139245  0.141174  0.580994  1
  Ru  Ru23  1  0.575280  0.144599  0.137836  1
