# generated using pymatgen
data_Cs2Hf(CuTe2)2
_symmetry_space_group_name_H-M   'P 1'
_cell_length_a   8.37688510
_cell_length_b   8.37688513
_cell_length_c   6.30955800
_cell_angle_alpha   90.00000000
_cell_angle_beta   90.00000000
_cell_angle_gamma   135.78340103
_symmetry_Int_Tables_number   1
_chemical_formula_structural   Cs2Hf(CuTe2)2
_chemical_formula_sum   'Cs2 Hf1 Cu2 Te4'
_cell_volume   308.76569306
_cell_formula_units_Z   1
loop_
 _symmetry_equiv_pos_site_id
 _symmetry_equiv_pos_as_xyz
  1  'x, y, z'
loop_
 _atom_site_type_symbol
 _atom_site_label
 _atom_site_symmetry_multiplicity
 _atom_site_fract_x
 _atom_site_fract_y
 _atom_site_fract_z
 _atom_site_occupancy
  Cs  Cs0  1  0.500000  0.000000  0.248889  1
  Cs  Cs1  1  0.000000  0.500000  0.751111  1
  Hf  Hf2  1  0.000000  0.000000  0.000000  1
  Cu  Cu3  1  0.000000  0.000000  0.500000  1
  Cu  Cu4  1  0.500000  0.500000  0.000000  1
  Te  Te5  1  0.841181  0.647386  0.255603  1
  Te  Te6  1  0.158819  0.352614  0.255603  1
  Te  Te7  1  0.647386  0.841181  0.744397  1
  Te  Te8  1  0.352614  0.158819  0.744397  1
