# generated using pymatgen
data_Nd3MnCoNi7P6
_symmetry_space_group_name_H-M   'P 1'
_cell_length_a   3.84073700
_cell_length_b   10.68777900
_cell_length_c   12.46426200
_cell_angle_alpha   90.00000000
_cell_angle_beta   90.00000000
_cell_angle_gamma   90.00000000
_symmetry_Int_Tables_number   1
_chemical_formula_structural   Nd3MnCoNi7P6
_chemical_formula_sum   'Nd6 Mn2 Co2 Ni14 P12'
_cell_volume   511.64484585
_cell_formula_units_Z   2
loop_
 _symmetry_equiv_pos_site_id
 _symmetry_equiv_pos_as_xyz
  1  'x, y, z'
loop_
 _atom_site_type_symbol
 _atom_site_label
 _atom_site_symmetry_multiplicity
 _atom_site_fract_x
 _atom_site_fract_y
 _atom_site_fract_z
 _atom_site_occupancy
  Nd  Nd0  1  0.000000  0.500000  0.519330  1
  Nd  Nd1  1  0.500000  0.000000  0.480670  1
  Nd  Nd2  1  0.500000  0.815432  0.205219  1
  Nd  Nd3  1  0.500000  0.184568  0.205219  1
  Nd  Nd4  1  0.000000  0.684568  0.794781  1
  Nd  Nd5  1  0.000000  0.315432  0.794781  1
  Mn  Mn6  1  0.500000  0.500000  0.151808  1
  Mn  Mn7  1  0.000000  0.000000  0.848192  1
  Co  Co8  1  0.000000  0.500000  0.984624  1
  Co  Co9  1  0.500000  0.000000  0.015376  1
  Ni  Ni10  1  0.500000  0.500000  0.702122  1
  Ni  Ni11  1  0.000000  0.000000  0.297878  1
  Ni  Ni12  1  0.500000  0.332452  0.993206  1
  Ni  Ni13  1  0.500000  0.667548  0.993206  1
  Ni  Ni14  1  0.000000  0.167548  0.006794  1
  Ni  Ni15  1  0.000000  0.832452  0.006794  1
  Ni  Ni16  1  0.500000  0.299832  0.427278  1
  Ni  Ni17  1  0.500000  0.700168  0.427278  1
  Ni  Ni18  1  0.000000  0.200168  0.572722  1
  Ni  Ni19  1  0.000000  0.799832  0.572722  1
  Ni  Ni20  1  0.500000  0.882458  0.712379  1
  Ni  Ni21  1  0.500000  0.117542  0.712379  1
  Ni  Ni22  1  0.000000  0.617542  0.287621  1
  Ni  Ni23  1  0.000000  0.382458  0.287621  1
  P  P24  1  0.500000  0.500000  0.883085  1
  P  P25  1  0.000000  0.000000  0.116915  1
  P  P26  1  0.500000  0.500000  0.340515  1
  P  P27  1  0.000000  0.000000  0.659485  1
  P  P28  1  0.500000  0.309211  0.612914  1
  P  P29  1  0.500000  0.690789  0.612914  1
  P  P30  1  0.000000  0.190789  0.387086  1
  P  P31  1  0.000000  0.809211  0.387086  1
  P  P32  1  0.500000  0.850017  0.896075  1
  P  P33  1  0.500000  0.149983  0.896075  1
  P  P34  1  0.000000  0.649983  0.103925  1
  P  P35  1  0.000000  0.350017  0.103925  1
