# generated using pymatgen
data_LaHoNi2(B4Os3)2
_symmetry_space_group_name_H-M   'P 1'
_cell_length_a   7.53309900
_cell_length_b   7.30394474
_cell_length_c   3.99894100
_cell_angle_alpha   90.00000000
_cell_angle_beta   90.00000000
_cell_angle_gamma   87.76691411
_symmetry_Int_Tables_number   1
_chemical_formula_structural   LaHoNi2(B4Os3)2
_chemical_formula_sum   'La1 Ho1 Ni2 B8 Os6'
_cell_volume   219.85999535
_cell_formula_units_Z   1
loop_
 _symmetry_equiv_pos_site_id
 _symmetry_equiv_pos_as_xyz
  1  'x, y, z'
loop_
 _atom_site_type_symbol
 _atom_site_label
 _atom_site_symmetry_multiplicity
 _atom_site_fract_x
 _atom_site_fract_y
 _atom_site_fract_z
 _atom_site_occupancy
  La  La0  1  0.000000  0.000000  0.018972  1
  Ho  Ho1  1  0.500000  0.500000  0.598206  1
  Ni  Ni2  1  0.139849  0.385814  0.881434  1
  Ni  Ni3  1  0.860151  0.614186  0.881434  1
  B  B4  1  0.672663  0.777256  0.106629  1
  B  B5  1  0.327337  0.222744  0.106629  1
  B  B6  1  0.283653  0.833920  0.601527  1
  B  B7  1  0.716347  0.166080  0.601527  1
  B  B8  1  0.843271  0.688977  0.385869  1
  B  B9  1  0.156729  0.311023  0.385869  1
  B  B10  1  0.209664  0.666823  0.880359  1
  B  B11  1  0.790336  0.333177  0.880359  1
  Os  Os12  1  0.877909  0.371451  0.375785  1
  Os  Os13  1  0.122091  0.628549  0.375785  1
  Os  Os14  1  0.348729  0.115711  0.605632  1
  Os  Os15  1  0.651271  0.884289  0.605632  1
  Os  Os16  1  0.601943  0.152536  0.104176  1
  Os  Os17  1  0.398057  0.847464  0.104176  1
