# generated using pymatgen
data_Er3(NiOs2)2
_symmetry_space_group_name_H-M   'P 1'
_cell_length_a   5.24494295
_cell_length_b   5.27451810
_cell_length_c   12.79794656
_cell_angle_alpha   90.18304685
_cell_angle_beta   91.32824500
_cell_angle_gamma   119.61681561
_symmetry_Int_Tables_number   1
_chemical_formula_structural   Er3(NiOs2)2
_chemical_formula_sum   'Er6 Ni4 Os8'
_cell_volume   307.66638666
_cell_formula_units_Z   2
loop_
 _symmetry_equiv_pos_site_id
 _symmetry_equiv_pos_as_xyz
  1  'x, y, z'
loop_
 _atom_site_type_symbol
 _atom_site_label
 _atom_site_symmetry_multiplicity
 _atom_site_fract_x
 _atom_site_fract_y
 _atom_site_fract_z
 _atom_site_occupancy
  Er  Er0  1  0.664177  0.339173  0.205289  1
  Er  Er1  1  0.011088  0.003231  0.875363  1
  Er  Er2  1  0.336209  0.671385  0.541530  1
  Er  Er3  1  0.663791  0.328615  0.458470  1
  Er  Er4  1  0.988912  0.996769  0.124637  1
  Er  Er5  1  0.335823  0.660827  0.794711  1
  Ni  Ni6  1  0.500000  0.000000  0.000000  1
  Ni  Ni7  1  0.836122  0.668833  0.666841  1
  Ni  Ni8  1  0.163878  0.331167  0.333159  1
  Ni  Ni9  1  0.500000  0.500000  0.000000  1
  Os  Os10  1  0.834237  0.166689  0.667864  1
  Os  Os11  1  0.165763  0.833311  0.332136  1
  Os  Os12  1  0.677115  0.336199  0.836707  1
  Os  Os13  1  0.000000  0.000000  0.500000  1
  Os  Os14  1  0.322885  0.663801  0.163293  1
  Os  Os15  1  0.000000  0.500000  0.000000  1
  Os  Os16  1  0.337392  0.167388  0.668449  1
  Os  Os17  1  0.662608  0.832612  0.331551  1
