# generated using pymatgen
data_Tb3NpFe8
_symmetry_space_group_name_H-M   'P 1'
_cell_length_a   8.44758954
_cell_length_b   8.44758916
_cell_length_c   8.44758910
_cell_angle_alpha   36.61497012
_cell_angle_beta   36.61497243
_cell_angle_gamma   36.61497338
_symmetry_Int_Tables_number   1
_chemical_formula_structural   Tb3NpFe8
_chemical_formula_sum   'Tb3 Np1 Fe8'
_cell_volume   192.01744099
_cell_formula_units_Z   1
loop_
 _symmetry_equiv_pos_site_id
 _symmetry_equiv_pos_as_xyz
  1  'x, y, z'
loop_
 _atom_site_type_symbol
 _atom_site_label
 _atom_site_symmetry_multiplicity
 _atom_site_fract_x
 _atom_site_fract_y
 _atom_site_fract_z
 _atom_site_occupancy
  Tb  Tb0  1  0.000054  0.000054  0.000054  1
  Tb  Tb1  1  0.142035  0.142035  0.142035  1
  Tb  Tb2  1  0.857606  0.857606  0.857606  1
  Np  Np3  1  0.333772  0.333772  0.333772  1
  Fe  Fe4  1  0.499430  0.499430  0.499430  1
  Fe  Fe5  1  0.666573  0.666573  0.666573  1
  Fe  Fe6  1  0.076838  0.583297  0.583297  1
  Fe  Fe7  1  0.583297  0.583297  0.076838  1
  Fe  Fe8  1  0.583297  0.076838  0.583297  1
  Fe  Fe9  1  0.422777  0.911543  0.422777  1
  Fe  Fe10  1  0.911543  0.422777  0.422777  1
  Fe  Fe11  1  0.422777  0.422777  0.911543  1
