# generated using pymatgen
data_Pr8Be4GaSi11
_symmetry_space_group_name_H-M   'P 1'
_cell_length_a   8.00720911
_cell_length_b   8.00720899
_cell_length_c   8.68173700
_cell_angle_alpha   90.00285429
_cell_angle_beta   89.99714408
_cell_angle_gamma   119.98119959
_symmetry_Int_Tables_number   1
_chemical_formula_structural   Pr8Be4GaSi11
_chemical_formula_sum   'Pr8 Be4 Ga1 Si11'
_cell_volume   482.14962627
_cell_formula_units_Z   1
loop_
 _symmetry_equiv_pos_site_id
 _symmetry_equiv_pos_as_xyz
  1  'x, y, z'
loop_
 _atom_site_type_symbol
 _atom_site_label
 _atom_site_symmetry_multiplicity
 _atom_site_fract_x
 _atom_site_fract_y
 _atom_site_fract_z
 _atom_site_occupancy
  Pr  Pr0  1  0.500061  0.499939  0.750116  1
  Pr  Pr1  1  0.500259  0.499741  0.249829  1
  Pr  Pr2  1  0.001450  0.502195  0.748504  1
  Pr  Pr3  1  0.001188  0.502084  0.251526  1
  Pr  Pr4  1  0.497805  0.998550  0.748504  1
  Pr  Pr5  1  0.497916  0.998812  0.251526  1
  Pr  Pr6  1  0.000856  0.999144  0.749080  1
  Pr  Pr7  1  0.000802  0.999198  0.250918  1
  Be  Be8  1  0.664553  0.335447  0.997490  1
  Be  Be9  1  0.334121  0.665879  0.002426  1
  Be  Be10  1  0.333472  0.666528  0.497526  1
  Be  Be11  1  0.666566  0.333434  0.502459  1
  Ga  Ga12  1  0.827018  0.172982  0.000257  1
  Si  Si13  1  0.171899  0.828101  0.999786  1
  Si  Si14  1  0.344949  0.173116  0.000217  1
  Si  Si15  1  0.172119  0.827881  0.500248  1
  Si  Si16  1  0.655291  0.825394  0.999793  1
  Si  Si17  1  0.828022  0.171978  0.499758  1
  Si  Si18  1  0.826884  0.655051  0.000217  1
  Si  Si19  1  0.655671  0.827664  0.500243  1
  Si  Si20  1  0.174606  0.344709  0.999793  1
  Si  Si21  1  0.344269  0.172114  0.499770  1
  Si  Si22  1  0.172336  0.344329  0.500243  1
  Si  Si23  1  0.827886  0.655731  0.499770  1
