# generated using pymatgen
data_Y15Ho5Si15Hg
_symmetry_space_group_name_H-M   'P 1'
_cell_length_a   7.45302444
_cell_length_b   7.71529378
_cell_length_c   14.67456307
_cell_angle_alpha   89.94599708
_cell_angle_beta   89.24926506
_cell_angle_gamma   90.09227479
_symmetry_Int_Tables_number   1
_chemical_formula_structural   Y15Ho5Si15Hg
_chemical_formula_sum   'Y15 Ho5 Si15 Hg1'
_cell_volume   843.74681318
_cell_formula_units_Z   1
loop_
 _symmetry_equiv_pos_site_id
 _symmetry_equiv_pos_as_xyz
  1  'x, y, z'
loop_
 _atom_site_type_symbol
 _atom_site_label
 _atom_site_symmetry_multiplicity
 _atom_site_fract_x
 _atom_site_fract_y
 _atom_site_fract_z
 _atom_site_occupancy
  Y  Y0  1  0.649868  0.991053  0.250515  1
  Y  Y1  1  0.152444  0.510279  0.248805  1
  Y  Y2  1  0.848133  0.490073  0.747695  1
  Y  Y3  1  0.347487  0.011085  0.749338  1
  Y  Y4  1  0.977970  0.823783  0.101995  1
  Y  Y5  1  0.472147  0.684043  0.401275  1
  Y  Y6  1  0.516966  0.312339  0.898989  1
  Y  Y7  1  0.029593  0.181948  0.597847  1
  Y  Y8  1  0.026817  0.175844  0.899924  1
  Y  Y9  1  0.529035  0.316077  0.598042  1
  Y  Y10  1  0.476299  0.682578  0.101188  1
  Y  Y11  1  0.970519  0.816820  0.400603  1
  Y  Y12  1  0.671951  0.830575  0.873659  1
  Y  Y13  1  0.182340  0.679629  0.621237  1
  Y  Y14  1  0.823022  0.320099  0.126686  1
  Ho  Ho15  1  0.318621  0.178064  0.377871  1
  Ho  Ho16  1  0.324145  0.176879  0.124492  1
  Ho  Ho17  1  0.819739  0.321108  0.377564  1
  Ho  Ho18  1  0.181092  0.675498  0.876907  1
  Ho  Ho19  1  0.682132  0.822597  0.621598  1
  Si  Si20  1  0.768656  0.629109  0.252412  1
  Si  Si21  1  0.268697  0.872932  0.252095  1
  Si  Si22  1  0.733138  0.127239  0.747591  1
  Si  Si23  1  0.229521  0.372630  0.747487  1
  Si  Si24  1  0.024528  0.104416  0.252395  1
  Si  Si25  1  0.524133  0.394614  0.252875  1
  Si  Si26  1  0.475672  0.604703  0.747412  1
  Si  Si27  1  0.975967  0.891828  0.747589  1
  Si  Si28  1  0.355420  0.971960  0.540261  1
  Si  Si29  1  0.652554  0.030004  0.041236  1
  Si  Si30  1  0.146473  0.469971  0.459849  1
  Si  Si31  1  0.162517  0.469077  0.042238  1
  Si  Si32  1  0.646093  0.028932  0.458954  1
  Si  Si33  1  0.347139  0.967793  0.961670  1
  Si  Si34  1  0.854709  0.530096  0.538910  1
  Hg  Hg35  1  0.834460  0.534330  0.960796  1
