# generated using pymatgen
data_HoEr5Zn23P
_symmetry_space_group_name_H-M   'P 1'
_cell_length_a   9.02265075
_cell_length_b   9.02059197
_cell_length_c   9.02060900
_cell_angle_alpha   60.01490936
_cell_angle_beta   59.99219322
_cell_angle_gamma   59.99226421
_symmetry_Int_Tables_number   1
_chemical_formula_structural   HoEr5Zn23P
_chemical_formula_sum   'Ho1 Er5 Zn23 P1'
_cell_volume   519.14410045
_cell_formula_units_Z   1
loop_
 _symmetry_equiv_pos_site_id
 _symmetry_equiv_pos_as_xyz
  1  'x, y, z'
loop_
 _atom_site_type_symbol
 _atom_site_label
 _atom_site_symmetry_multiplicity
 _atom_site_fract_x
 _atom_site_fract_y
 _atom_site_fract_z
 _atom_site_occupancy
  Ho  Ho0  1  0.711486  0.288508  0.288522  1
  Er  Er1  1  0.710933  0.289073  0.711059  1
  Er  Er2  1  0.710945  0.711056  0.289058  1
  Er  Er3  1  0.288514  0.711490  0.711473  1
  Er  Er4  1  0.288944  0.711055  0.289066  1
  Er  Er5  1  0.288951  0.289054  0.711054  1
  Zn  Zn6  1  0.625571  0.124418  0.124411  1
  Zn  Zn7  1  0.124599  0.626051  0.124765  1
  Zn  Zn8  1  0.124590  0.124772  0.626049  1
  Zn  Zn9  1  0.125600  0.124412  0.124415  1
  Zn  Zn10  1  0.373944  0.875405  0.875416  1
  Zn  Zn11  1  0.875582  0.374428  0.874406  1
  Zn  Zn12  1  0.875589  0.874399  0.374431  1
  Zn  Zn13  1  0.875222  0.875414  0.875408  1
  Zn  Zn14  1  0.499928  0.000071  0.000070  1
  Zn  Zn15  1  0.499846  0.999839  0.500151  1
  Zn  Zn16  1  0.499847  0.500155  0.999837  1
  Zn  Zn17  1  0.999934  0.500069  0.500069  1
  Zn  Zn18  1  0.000169  0.500151  0.999833  1
  Zn  Zn19  1  0.000165  0.999837  0.500155  1
  Zn  Zn20  1  0.999782  0.000209  0.000216  1
  Zn  Zn21  1  0.012220  0.329306  0.329298  1
  Zn  Zn22  1  0.329421  0.011510  0.329649  1
  Zn  Zn23  1  0.329414  0.329652  0.011516  1
  Zn  Zn24  1  0.329176  0.329304  0.329302  1
  Zn  Zn25  1  0.988483  0.670578  0.670586  1
  Zn  Zn26  1  0.670699  0.987783  0.670820  1
  Zn  Zn27  1  0.670701  0.670819  0.987782  1
  Zn  Zn28  1  0.670348  0.670582  0.670577  1
  P  P29  1  0.499399  0.500600  0.500603  1
