# generated using pymatgen
data_Dy8Zr12Si15Os
_symmetry_space_group_name_H-M   'P 1'
_cell_length_a   7.11090138
_cell_length_b   7.36139547
_cell_length_c   14.00806600
_cell_angle_alpha   90.00000000
_cell_angle_beta   90.00000000
_cell_angle_gamma   89.98002506
_symmetry_Int_Tables_number   1
_chemical_formula_structural   Dy8Zr12Si15Os
_chemical_formula_sum   'Dy8 Zr12 Si15 Os1'
_cell_volume   733.26838055
_cell_formula_units_Z   1
loop_
 _symmetry_equiv_pos_site_id
 _symmetry_equiv_pos_as_xyz
  1  'x, y, z'
loop_
 _atom_site_type_symbol
 _atom_site_label
 _atom_site_symmetry_multiplicity
 _atom_site_fract_x
 _atom_site_fract_y
 _atom_site_fract_z
 _atom_site_occupancy
  Dy  Dy0  1  0.013500  0.177982  0.097056  1
  Dy  Dy1  1  0.987301  0.822521  0.906637  1
  Dy  Dy2  1  0.488436  0.675061  0.905193  1
  Dy  Dy3  1  0.987301  0.822521  0.593363  1
  Dy  Dy4  1  0.513387  0.323268  0.098001  1
  Dy  Dy5  1  0.013500  0.177982  0.402944  1
  Dy  Dy6  1  0.513387  0.323268  0.401999  1
  Dy  Dy7  1  0.488436  0.675061  0.594807  1
  Zr  Zr8  1  0.153637  0.506522  0.750000  1
  Zr  Zr9  1  0.844462  0.502914  0.250000  1
  Zr  Zr10  1  0.344162  0.001092  0.250000  1
  Zr  Zr11  1  0.661471  0.001040  0.750000  1
  Zr  Zr12  1  0.320059  0.174798  0.625338  1
  Zr  Zr13  1  0.670756  0.823836  0.374587  1
  Zr  Zr14  1  0.172694  0.678380  0.375402  1
  Zr  Zr15  1  0.670756  0.823836  0.125413  1
  Zr  Zr16  1  0.835554  0.322523  0.625771  1
  Zr  Zr17  1  0.320059  0.174798  0.874662  1
  Zr  Zr18  1  0.835554  0.322523  0.874229  1
  Zr  Zr19  1  0.172694  0.678380  0.124598  1
  Si  Si20  1  0.968697  0.882696  0.250000  1
  Si  Si21  1  0.467260  0.617902  0.250000  1
  Si  Si22  1  0.532049  0.381896  0.750000  1
  Si  Si23  1  0.284779  0.869596  0.750000  1
  Si  Si24  1  0.718164  0.128784  0.250000  1
  Si  Si25  1  0.217260  0.374379  0.250000  1
  Si  Si26  1  0.778174  0.627280  0.750000  1
  Si  Si27  1  0.158543  0.469520  0.538751  1
  Si  Si28  1  0.843336  0.531079  0.457245  1
  Si  Si29  1  0.346650  0.968643  0.458847  1
  Si  Si30  1  0.843336  0.531079  0.042755  1
  Si  Si31  1  0.653983  0.033080  0.539043  1
  Si  Si32  1  0.158543  0.469520  0.961249  1
  Si  Si33  1  0.653983  0.033080  0.960957  1
  Si  Si34  1  0.346650  0.968643  0.041153  1
  Os  Os35  1  0.021483  0.104523  0.750000  1
