# generated using pymatgen
data_Hf8Ta11VSi16
_symmetry_space_group_name_H-M   'P 1'
_cell_length_a   6.82256724
_cell_length_b   6.82689873
_cell_length_c   12.65987904
_cell_angle_alpha   90.14048581
_cell_angle_beta   89.93366576
_cell_angle_gamma   90.00750230
_symmetry_Int_Tables_number   1
_chemical_formula_structural   Hf8Ta11VSi16
_chemical_formula_sum   'Hf8 Ta11 V1 Si16'
_cell_volume   589.65670519
_cell_formula_units_Z   1
loop_
 _symmetry_equiv_pos_site_id
 _symmetry_equiv_pos_as_xyz
  1  'x, y, z'
loop_
 _atom_site_type_symbol
 _atom_site_label
 _atom_site_symmetry_multiplicity
 _atom_site_fract_x
 _atom_site_fract_y
 _atom_site_fract_z
 _atom_site_occupancy
  Hf  Hf0  1  0.998885  0.661729  0.031011  1
  Hf  Hf1  1  0.839649  0.502251  0.280116  1
  Hf  Hf2  1  0.160839  0.500532  0.779720  1
  Hf  Hf3  1  0.500662  0.839596  0.718776  1
  Hf  Hf4  1  0.497584  0.160492  0.220608  1
  Hf  Hf5  1  0.000292  0.341130  0.529368  1
  Hf  Hf6  1  0.660930  0.000114  0.970134  1
  Hf  Hf7  1  0.338273  0.999884  0.470228  1
  Ta  Ta8  1  0.330119  0.330599  0.000462  1
  Ta  Ta9  1  0.169239  0.831759  0.250966  1
  Ta  Ta10  1  0.830501  0.169478  0.749291  1
  Ta  Ta11  1  0.670880  0.668280  0.499499  1
  Ta  Ta12  1  0.003342  0.152212  0.126186  1
  Ta  Ta13  1  0.348001  0.502296  0.376276  1
  Ta  Ta14  1  0.652168  0.496405  0.876165  1
  Ta  Ta15  1  0.505663  0.345624  0.622096  1
  Ta  Ta16  1  0.496787  0.653775  0.124717  1
  Ta  Ta17  1  0.997067  0.846604  0.626566  1
  Ta  Ta18  1  0.152491  0.003955  0.873748  1
  V  V19  1  0.846498  0.992873  0.373937  1
  Si  Si20  1  0.300124  0.956516  0.064216  1
  Si  Si21  1  0.547811  0.803297  0.315918  1
  Si  Si22  1  0.456523  0.199814  0.813294  1
  Si  Si23  1  0.800251  0.543317  0.685958  1
  Si  Si24  1  0.200215  0.456105  0.187310  1
  Si  Si25  1  0.704179  0.041894  0.559535  1
  Si  Si26  1  0.956238  0.300953  0.936332  1
  Si  Si27  1  0.040988  0.706912  0.435216  1
  Si  Si28  1  0.707615  0.364159  0.074056  1
  Si  Si29  1  0.125986  0.204332  0.325523  1
  Si  Si30  1  0.863502  0.792131  0.823298  1
  Si  Si31  1  0.208371  0.136541  0.675956  1
  Si  Si32  1  0.792794  0.866736  0.180568  1
  Si  Si33  1  0.292118  0.634572  0.572514  1
  Si  Si34  1  0.363665  0.708266  0.927004  1
  Si  Si35  1  0.639748  0.284865  0.423430  1
