# generated using pymatgen
data_Tb4ErGaCo5
_symmetry_space_group_name_H-M   'P 1'
_cell_length_a   5.50753745
_cell_length_b   5.50753735
_cell_length_c   20.58199100
_cell_angle_alpha   90.00000000
_cell_angle_beta   90.00000000
_cell_angle_gamma   137.04776268
_symmetry_Int_Tables_number   1
_chemical_formula_structural   Tb4ErGaCo5
_chemical_formula_sum   'Tb8 Er2 Ga2 Co10'
_cell_volume   425.39958806
_cell_formula_units_Z   2
loop_
 _symmetry_equiv_pos_site_id
 _symmetry_equiv_pos_as_xyz
  1  'x, y, z'
loop_
 _atom_site_type_symbol
 _atom_site_label
 _atom_site_symmetry_multiplicity
 _atom_site_fract_x
 _atom_site_fract_y
 _atom_site_fract_z
 _atom_site_occupancy
  Tb  Tb0  1  0.291152  0.708848  0.065908  1
  Tb  Tb1  1  0.997968  0.002032  0.842698  1
  Tb  Tb2  1  0.708848  0.291152  0.565908  1
  Tb  Tb3  1  0.002032  0.997968  0.342698  1
  Tb  Tb4  1  0.997968  0.002032  0.657302  1
  Tb  Tb5  1  0.708848  0.291152  0.934092  1
  Tb  Tb6  1  0.002032  0.997968  0.157302  1
  Tb  Tb7  1  0.291152  0.708848  0.434092  1
  Er  Er8  1  0.287118  0.712882  0.250000  1
  Er  Er9  1  0.712882  0.287118  0.750000  1
  Ga  Ga10  1  0.000000  0.000000  0.500000  1
  Ga  Ga11  1  0.000000  0.000000  0.000000  1
  Co  Co12  1  0.294921  0.705079  0.654393  1
  Co  Co13  1  0.581737  0.418263  0.441491  1
  Co  Co14  1  0.412141  0.587859  0.750000  1
  Co  Co15  1  0.418263  0.581737  0.941491  1
  Co  Co16  1  0.587859  0.412141  0.250000  1
  Co  Co17  1  0.418263  0.581737  0.558509  1
  Co  Co18  1  0.705079  0.294921  0.345607  1
  Co  Co19  1  0.705079  0.294921  0.154393  1
  Co  Co20  1  0.581737  0.418263  0.058509  1
  Co  Co21  1  0.294921  0.705079  0.845607  1
