# generated using pymatgen
data_LiGd2Tm(B6Os)2
_symmetry_space_group_name_H-M   'P 1'
_cell_length_a   3.59908200
_cell_length_b   8.99783219
_cell_length_c   11.40798411
_cell_angle_alpha   89.78983244
_cell_angle_beta   90.00000000
_cell_angle_gamma   90.00000000
_symmetry_Int_Tables_number   1
_chemical_formula_structural   LiGd2Tm(B6Os)2
_chemical_formula_sum   'Li2 Gd4 Tm2 B24 Os4'
_cell_volume   369.43294065
_cell_formula_units_Z   2
loop_
 _symmetry_equiv_pos_site_id
 _symmetry_equiv_pos_as_xyz
  1  'x, y, z'
loop_
 _atom_site_type_symbol
 _atom_site_label
 _atom_site_symmetry_multiplicity
 _atom_site_fract_x
 _atom_site_fract_y
 _atom_site_fract_z
 _atom_site_occupancy
  Li  Li0  1  0.000000  0.945326  0.376121  1
  Li  Li1  1  0.000000  0.054674  0.623880  1
  Gd  Gd2  1  0.000000  0.315351  0.416183  1
  Gd  Gd3  1  0.000000  0.684649  0.583817  1
  Gd  Gd4  1  0.000000  0.824265  0.087878  1
  Gd  Gd5  1  0.000000  0.175735  0.912122  1
  Tm  Tm6  1  0.000000  0.442018  0.131671  1
  Tm  Tm7  1  0.000000  0.557982  0.868328  1
  B  B8  1  0.500000  0.555479  0.432889  1
  B  B9  1  0.500000  0.444521  0.567111  1
  B  B10  1  0.500000  0.053631  0.068892  1
  B  B11  1  0.500000  0.946369  0.931108  1
  B  B12  1  0.500000  0.759389  0.417299  1
  B  B13  1  0.500000  0.240611  0.582701  1
  B  B14  1  0.500000  0.248439  0.083205  1
  B  B15  1  0.500000  0.751561  0.916795  1
  B  B16  1  0.500000  0.795675  0.265837  1
  B  B17  1  0.500000  0.204325  0.734163  1
  B  B18  1  0.500000  0.287927  0.237027  1
  B  B19  1  0.500000  0.712072  0.762973  1
  B  B20  1  0.500000  0.631630  0.186554  1
  B  B21  1  0.500000  0.368370  0.813446  1
  B  B22  1  0.500000  0.122283  0.319623  1
  B  B23  1  0.500000  0.877717  0.680377  1
  B  B24  1  0.500000  0.979200  0.215372  1
  B  B25  1  0.500000  0.020800  0.784628  1
  B  B26  1  0.500000  0.482551  0.289292  1
  B  B27  1  0.500000  0.517449  0.710708  1
  B  B28  1  0.500000  0.600342  0.027258  1
  B  B29  1  0.500000  0.399658  0.972742  1
  B  B30  1  0.500000  0.090461  0.474857  1
  B  B31  1  0.500000  0.909539  0.525143  1
  Os  Os32  1  0.000000  0.642938  0.322213  1
  Os  Os33  1  0.000000  0.357062  0.677787  1
  Os  Os34  1  0.000000  0.135499  0.184663  1
  Os  Os35  1  0.000000  0.864501  0.815337  1
