# generated using pymatgen
data_Nd2Er14Cd4NiRu3
_symmetry_space_group_name_H-M   'P 1'
_cell_length_a   9.54670550
_cell_length_b   9.61208466
_cell_length_c   9.61693600
_cell_angle_alpha   59.98329594
_cell_angle_beta   59.75634158
_cell_angle_gamma   59.55626371
_symmetry_Int_Tables_number   1
_chemical_formula_structural   Nd2Er14Cd4NiRu3
_chemical_formula_sum   'Nd2 Er14 Cd4 Ni1 Ru3'
_cell_volume   620.66908854
_cell_formula_units_Z   1
loop_
 _symmetry_equiv_pos_site_id
 _symmetry_equiv_pos_as_xyz
  1  'x, y, z'
loop_
 _atom_site_type_symbol
 _atom_site_label
 _atom_site_symmetry_multiplicity
 _atom_site_fract_x
 _atom_site_fract_y
 _atom_site_fract_z
 _atom_site_occupancy
  Nd  Nd0  1  0.813636  0.821909  0.182227  1
  Nd  Nd1  1  0.185824  0.185669  0.814253  1
  Er  Er2  1  0.602601  0.596754  0.591248  1
  Er  Er3  1  0.602601  0.596754  0.209397  1
  Er  Er4  1  0.598085  0.211276  0.595320  1
  Er  Er5  1  0.209051  0.594168  0.598390  1
  Er  Er6  1  0.061875  0.437096  0.437047  1
  Er  Er7  1  0.435038  0.062997  0.063858  1
  Er  Er8  1  0.435038  0.062997  0.438105  1
  Er  Er9  1  0.061875  0.437096  0.063983  1
  Er  Er10  1  0.439336  0.440249  0.060207  1
  Er  Er11  1  0.058364  0.059255  0.441191  1
  Er  Er12  1  0.193467  0.805740  0.806473  1
  Er  Er13  1  0.804726  0.191268  0.190234  1
  Er  Er14  1  0.804726  0.191268  0.813773  1
  Er  Er15  1  0.193467  0.805740  0.194319  1
  Cd  Cd16  1  0.829397  0.830935  0.829848  1
  Cd  Cd17  1  0.829397  0.830935  0.509820  1
  Cd  Cd18  1  0.826437  0.509356  0.832104  1
  Cd  Cd19  1  0.508358  0.827904  0.831869  1
  Ni  Ni20  1  0.829154  0.385243  0.392802  1
  Ru  Ru21  1  0.395697  0.393825  0.382656  1
  Ru  Ru22  1  0.395697  0.393825  0.827821  1
  Ru  Ru23  1  0.386152  0.827739  0.393054  1
