# generated using pymatgen
data_Er6Tm4InSb5
_symmetry_space_group_name_H-M   'P 1'
_cell_length_a   8.85959300
_cell_length_b   8.87718788
_cell_length_c   6.33096300
_cell_angle_alpha   90.00000000
_cell_angle_beta   90.00000000
_cell_angle_gamma   119.93445279
_symmetry_Int_Tables_number   1
_chemical_formula_structural   Er6Tm4InSb5
_chemical_formula_sum   'Er6 Tm4 In1 Sb5'
_cell_volume   431.49529178
_cell_formula_units_Z   1
loop_
 _symmetry_equiv_pos_site_id
 _symmetry_equiv_pos_as_xyz
  1  'x, y, z'
loop_
 _atom_site_type_symbol
 _atom_site_label
 _atom_site_symmetry_multiplicity
 _atom_site_fract_x
 _atom_site_fract_y
 _atom_site_fract_z
 _atom_site_occupancy
  Er  Er0  1  0.004064  0.758838  0.750000  1
  Er  Er1  1  0.997841  0.243391  0.250000  1
  Er  Er2  1  0.754450  0.756609  0.250000  1
  Er  Er3  1  0.757125  0.000000  0.750000  1
  Er  Er4  1  0.245226  0.241162  0.750000  1
  Er  Er5  1  0.242097  0.000000  0.250000  1
  Tm  Tm6  1  0.333890  0.669247  0.499405  1
  Tm  Tm7  1  0.664643  0.330753  0.000595  1
  Tm  Tm8  1  0.664643  0.330753  0.499405  1
  Tm  Tm9  1  0.333890  0.669247  0.000595  1
  In  In10  1  0.395208  0.000000  0.750000  1
  Sb  Sb11  1  0.389244  0.390830  0.250000  1
  Sb  Sb12  1  0.998414  0.609170  0.250000  1
  Sb  Sb13  1  0.000779  0.390343  0.750000  1
  Sb  Sb14  1  0.610436  0.609657  0.750000  1
  Sb  Sb15  1  0.608048  0.000000  0.250000  1
