# generated using pymatgen
data_Tb2Sc4CoTe2
_symmetry_space_group_name_H-M   'P 1'
_cell_length_a   3.91453000
_cell_length_b   7.90388185
_cell_length_c   7.95215474
_cell_angle_alpha   119.79938849
_cell_angle_beta   90.00000000
_cell_angle_gamma   90.00000000
_symmetry_Int_Tables_number   1
_chemical_formula_structural   Tb2Sc4CoTe2
_chemical_formula_sum   'Tb2 Sc4 Co1 Te2'
_cell_volume   213.50590872
_cell_formula_units_Z   1
loop_
 _symmetry_equiv_pos_site_id
 _symmetry_equiv_pos_as_xyz
  1  'x, y, z'
loop_
 _atom_site_type_symbol
 _atom_site_label
 _atom_site_symmetry_multiplicity
 _atom_site_fract_x
 _atom_site_fract_y
 _atom_site_fract_z
 _atom_site_occupancy
  Tb  Tb0  1  0.000000  0.396620  0.395373  1
  Tb  Tb1  1  0.000000  0.001247  0.604627  1
  Sc  Sc2  1  0.500000  0.773749  0.770156  1
  Sc  Sc3  1  0.500000  0.003593  0.229844  1
  Sc  Sc4  1  0.500000  0.228297  0.000000  1
  Sc  Sc5  1  0.000000  0.621891  0.000000  1
  Co  Co6  1  0.000000  0.963728  0.000000  1
  Te  Te7  1  0.500000  0.665278  0.319679  1
  Te  Te8  1  0.500000  0.345598  0.680321  1
