# generated using pymatgen
data_Ac5NdCd23P
_symmetry_space_group_name_H-M   'P 1'
_cell_length_a   10.27923866
_cell_length_b   10.31492780
_cell_length_c   10.31492753
_cell_angle_alpha   59.77122261
_cell_angle_beta   60.11439268
_cell_angle_gamma   60.11438887
_symmetry_Int_Tables_number   1
_chemical_formula_structural   Ac5NdCd23P
_chemical_formula_sum   'Ac5 Nd1 Cd23 P1'
_cell_volume   773.33555178
_cell_formula_units_Z   1
loop_
 _symmetry_equiv_pos_site_id
 _symmetry_equiv_pos_as_xyz
  1  'x, y, z'
loop_
 _atom_site_type_symbol
 _atom_site_label
 _atom_site_symmetry_multiplicity
 _atom_site_fract_x
 _atom_site_fract_y
 _atom_site_fract_z
 _atom_site_occupancy
  Ac  Ac0  1  0.791792  0.790826  0.208208  1
  Ac  Ac1  1  0.209174  0.790826  0.208208  1
  Ac  Ac2  1  0.794882  0.205118  0.205118  1
  Ac  Ac3  1  0.209174  0.208208  0.790826  1
  Ac  Ac4  1  0.791792  0.208208  0.790826  1
  Nd  Nd5  1  0.204448  0.795552  0.795552  1
  Cd  Cd6  1  0.829021  0.827039  0.514918  1
  Cd  Cd7  1  0.829021  0.514918  0.827039  1
  Cd  Cd8  1  0.509586  0.829005  0.829005  1
  Cd  Cd9  1  0.832402  0.829005  0.829005  1
  Cd  Cd10  1  0.170995  0.167598  0.490414  1
  Cd  Cd11  1  0.170995  0.490414  0.167598  1
  Cd  Cd12  1  0.485082  0.170979  0.170979  1
  Cd  Cd13  1  0.172961  0.170979  0.170979  1
  Cd  Cd14  1  0.622651  0.621445  0.133252  1
  Cd  Cd15  1  0.622651  0.133252  0.621445  1
  Cd  Cd16  1  0.136381  0.625072  0.625072  1
  Cd  Cd17  1  0.613474  0.625072  0.625072  1
  Cd  Cd18  1  0.374928  0.386526  0.863619  1
  Cd  Cd19  1  0.374928  0.863619  0.386526  1
  Cd  Cd20  1  0.866748  0.377349  0.377349  1
  Cd  Cd21  1  0.378555  0.377349  0.377349  1
  Cd  Cd22  1  0.001550  0.998450  0.501173  1
  Cd  Cd23  1  0.498827  0.998450  0.501173  1
  Cd  Cd24  1  0.000803  0.499197  0.499197  1
  Cd  Cd25  1  0.498827  0.501173  0.998450  1
  Cd  Cd26  1  0.001550  0.501173  0.998450  1
  Cd  Cd27  1  0.500803  0.999197  0.999197  1
  Cd  Cd28  1  0.501026  0.498974  0.498974  1
  P  P29  1  0.004976  0.995024  0.995024  1
