# generated using pymatgen
data_Tb4Er12Cd4Co3Os
_symmetry_space_group_name_H-M   'P 1'
_cell_length_a   9.51209631
_cell_length_b   9.51189336
_cell_length_c   9.51107497
_cell_angle_alpha   59.37431295
_cell_angle_beta   59.32652434
_cell_angle_gamma   59.29889588
_symmetry_Int_Tables_number   1
_chemical_formula_structural   Tb4Er12Cd4Co3Os
_chemical_formula_sum   'Tb4 Er12 Cd4 Co3 Os1'
_cell_volume   599.25918380
_cell_formula_units_Z   1
loop_
 _symmetry_equiv_pos_site_id
 _symmetry_equiv_pos_as_xyz
  1  'x, y, z'
loop_
 _atom_site_type_symbol
 _atom_site_label
 _atom_site_symmetry_multiplicity
 _atom_site_fract_x
 _atom_site_fract_y
 _atom_site_fract_z
 _atom_site_occupancy
  Tb  Tb0  1  0.189435  0.805817  0.190149  1
  Tb  Tb1  1  0.600466  0.601079  0.210737  1
  Tb  Tb2  1  0.190761  0.190698  0.804336  1
  Tb  Tb3  1  0.061619  0.435285  0.061515  1
  Er  Er4  1  0.438119  0.436458  0.057457  1
  Er  Er5  1  0.595658  0.596062  0.596328  1
  Er  Er6  1  0.188059  0.812445  0.811493  1
  Er  Er7  1  0.061310  0.060700  0.436517  1
  Er  Er8  1  0.436613  0.061258  0.061631  1
  Er  Er9  1  0.812208  0.187933  0.812829  1
  Er  Er10  1  0.437525  0.057558  0.436648  1
  Er  Er11  1  0.601105  0.211335  0.600481  1
  Er  Er12  1  0.812226  0.813791  0.187574  1
  Er  Er13  1  0.212054  0.600949  0.599436  1
  Er  Er14  1  0.803941  0.190305  0.191161  1
  Er  Er15  1  0.057139  0.437131  0.437890  1
  Cd  Cd16  1  0.829364  0.830126  0.507438  1
  Cd  Cd17  1  0.830167  0.830818  0.829191  1
  Cd  Cd18  1  0.508233  0.829030  0.828976  1
  Cd  Cd19  1  0.829233  0.507062  0.829558  1
  Co  Co20  1  0.829324  0.391516  0.393792  1
  Co  Co21  1  0.391388  0.830125  0.393740  1
  Co  Co22  1  0.392802  0.392777  0.828691  1
  Os  Os23  1  0.391252  0.389742  0.392433  1
