# generated using pymatgen
data_LaPr5RuRhI6
_symmetry_space_group_name_H-M   'P 1'
_cell_length_a   4.23476000
_cell_length_b   9.53957491
_cell_length_c   12.76390031
_cell_angle_alpha   87.47673956
_cell_angle_beta   90.00000000
_cell_angle_gamma   90.00000000
_symmetry_Int_Tables_number   1
_chemical_formula_structural   LaPr5RuRhI6
_chemical_formula_sum   'La1 Pr5 Ru1 Rh1 I6'
_cell_volume   515.13368023
_cell_formula_units_Z   1
loop_
 _symmetry_equiv_pos_site_id
 _symmetry_equiv_pos_as_xyz
  1  'x, y, z'
loop_
 _atom_site_type_symbol
 _atom_site_label
 _atom_site_symmetry_multiplicity
 _atom_site_fract_x
 _atom_site_fract_y
 _atom_site_fract_z
 _atom_site_occupancy
  La  La0  1  0.250000  0.307766  0.879872  1
  Pr  Pr1  1  0.750000  0.689589  0.119181  1
  Pr  Pr2  1  0.250000  0.885234  0.339027  1
  Pr  Pr3  1  0.750000  0.114658  0.664053  1
  Pr  Pr4  1  0.250000  0.907870  0.888744  1
  Pr  Pr5  1  0.750000  0.093591  0.109820  1
  Ru  Ru6  1  0.750000  0.116159  0.880649  1
  Rh  Rh7  1  0.250000  0.886701  0.119173  1
  I  I8  1  0.250000  0.862022  0.616803  1
  I  I9  1  0.750000  0.137237  0.383180  1
  I  I10  1  0.750000  0.630543  0.374421  1
  I  I11  1  0.250000  0.367302  0.622529  1
  I  I12  1  0.250000  0.393482  0.134742  1
  I  I13  1  0.750000  0.607848  0.867805  1
