# generated using pymatgen
data_P4PtPbO14
_symmetry_space_group_name_H-M   'P 1'
_cell_length_a   4.92086225
_cell_length_b   7.18871419
_cell_length_c   8.30406443
_cell_angle_alpha   91.51958079
_cell_angle_beta   91.69444304
_cell_angle_gamma   106.56263197
_symmetry_Int_Tables_number   1
_chemical_formula_structural   P4PtPbO14
_chemical_formula_sum   'P4 Pt1 Pb1 O14'
_cell_volume   281.25492393
_cell_formula_units_Z   1
loop_
 _symmetry_equiv_pos_site_id
 _symmetry_equiv_pos_as_xyz
  1  'x, y, z'
loop_
 _atom_site_type_symbol
 _atom_site_label
 _atom_site_symmetry_multiplicity
 _atom_site_fract_x
 _atom_site_fract_y
 _atom_site_fract_z
 _atom_site_occupancy
  P  P0  1  0.533896  0.134084  0.773891  1
  P  P1  1  0.119513  0.755441  0.700254  1
  P  P2  1  0.880487  0.244559  0.299746  1
  P  P3  1  0.466104  0.865916  0.226109  1
  Pt  Pt4  1  0.000000  0.000000  0.000000  1
  Pb  Pb5  1  0.500000  0.500000  0.500000  1
  O  O6  1  0.379318  0.164216  0.926954  1
  O  O7  1  0.029999  0.759957  0.876865  1
  O  O8  1  0.805041  0.070906  0.804221  1
  O  O9  1  0.288438  0.606093  0.692592  1
  O  O10  1  0.622971  0.314172  0.673437  1
  O  O11  1  0.322143  0.967210  0.659100  1
  O  O12  1  0.883813  0.727245  0.569460  1
  O  O13  1  0.116187  0.272755  0.430540  1
  O  O14  1  0.677857  0.032790  0.340900  1
  O  O15  1  0.377029  0.685828  0.326563  1
  O  O16  1  0.711562  0.393907  0.307408  1
  O  O17  1  0.194959  0.929094  0.195779  1
  O  O18  1  0.970001  0.240043  0.123135  1
  O  O19  1  0.620682  0.835784  0.073046  1
