# generated using pymatgen
data_Y3HoAl4PdRh3
_symmetry_space_group_name_H-M   'P 1'
_cell_length_a   4.29512100
_cell_length_b   6.91803203
_cell_length_c   7.91298543
_cell_angle_alpha   89.96030347
_cell_angle_beta   90.00000000
_cell_angle_gamma   90.00000000
_symmetry_Int_Tables_number   1
_chemical_formula_structural   Y3HoAl4PdRh3
_chemical_formula_sum   'Y3 Ho1 Al4 Pd1 Rh3'
_cell_volume   235.12468857
_cell_formula_units_Z   1
loop_
 _symmetry_equiv_pos_site_id
 _symmetry_equiv_pos_as_xyz
  1  'x, y, z'
loop_
 _atom_site_type_symbol
 _atom_site_label
 _atom_site_symmetry_multiplicity
 _atom_site_fract_x
 _atom_site_fract_y
 _atom_site_fract_z
 _atom_site_occupancy
  Y  Y0  1  0.250000  0.028899  0.322933  1
  Y  Y1  1  0.250000  0.537360  0.181203  1
  Y  Y2  1  0.750000  0.470953  0.815820  1
  Ho  Ho3  1  0.750000  0.968124  0.680218  1
  Al  Al4  1  0.250000  0.138216  0.934966  1
  Al  Al5  1  0.250000  0.639307  0.562449  1
  Al  Al6  1  0.750000  0.856209  0.061891  1
  Al  Al7  1  0.750000  0.362632  0.439545  1
  Pd  Pd8  1  0.750000  0.228313  0.119046  1
  Rh  Rh9  1  0.250000  0.267399  0.617650  1
  Rh  Rh10  1  0.250000  0.769581  0.881712  1
  Rh  Rh11  1  0.750000  0.733008  0.382566  1
