# generated using pymatgen
data_Pr5Sc3(P3Ir4)4
_symmetry_space_group_name_H-M   'P 1'
_cell_length_a   12.97519700
_cell_length_b   12.97519792
_cell_length_c   4.01881600
_cell_angle_alpha   90.00000000
_cell_angle_beta   90.00000000
_cell_angle_gamma   120.00000019
_symmetry_Int_Tables_number   1
_chemical_formula_structural   Pr5Sc3(P3Ir4)4
_chemical_formula_sum   'Pr5 Sc3 P12 Ir16'
_cell_volume   585.94480103
_cell_formula_units_Z   1
loop_
 _symmetry_equiv_pos_site_id
 _symmetry_equiv_pos_as_xyz
  1  'x, y, z'
loop_
 _atom_site_type_symbol
 _atom_site_label
 _atom_site_symmetry_multiplicity
 _atom_site_fract_x
 _atom_site_fract_y
 _atom_site_fract_z
 _atom_site_occupancy
  Pr  Pr0  1  0.333333  0.666667  0.500000  1
  Pr  Pr1  1  0.666667  0.333333  0.500000  1
  Pr  Pr2  1  0.000000  0.811511  0.000000  1
  Pr  Pr3  1  0.188489  0.188489  0.000000  1
  Pr  Pr4  1  0.811511  0.000000  0.000000  1
  Sc  Sc5  1  0.000000  0.443438  0.500000  1
  Sc  Sc6  1  0.556562  0.556562  0.500000  1
  Sc  Sc7  1  0.443438  0.000000  0.500000  1
  P  P8  1  0.000000  0.641718  0.500000  1
  P  P9  1  0.358282  0.358282  0.500000  1
  P  P10  1  0.641718  0.000000  0.500000  1
  P  P11  1  0.518944  0.686927  0.000000  1
  P  P12  1  0.313073  0.832017  0.000000  1
  P  P13  1  0.167983  0.481056  0.000000  1
  P  P14  1  0.481056  0.167983  0.000000  1
  P  P15  1  0.686927  0.518944  0.000000  1
  P  P16  1  0.832017  0.313073  0.000000  1
  P  P17  1  0.000000  0.179420  0.500000  1
  P  P18  1  0.820580  0.820580  0.500000  1
  P  P19  1  0.179420  0.000000  0.500000  1
  Ir  Ir20  1  0.512185  0.869932  0.000000  1
  Ir  Ir21  1  0.130068  0.642254  0.000000  1
  Ir  Ir22  1  0.357746  0.487815  0.000000  1
  Ir  Ir23  1  0.487815  0.357746  0.000000  1
  Ir  Ir24  1  0.869932  0.512185  0.000000  1
  Ir  Ir25  1  0.642254  0.130068  0.000000  1
  Ir  Ir26  1  0.000000  0.280320  0.000000  1
  Ir  Ir27  1  0.719680  0.719680  0.000000  1
  Ir  Ir28  1  0.280320  0.000000  0.000000  1
  Ir  Ir29  1  0.625573  0.804035  0.500000  1
  Ir  Ir30  1  0.195965  0.821538  0.500000  1
  Ir  Ir31  1  0.178462  0.374427  0.500000  1
  Ir  Ir32  1  0.374427  0.178462  0.500000  1
  Ir  Ir33  1  0.804035  0.625573  0.500000  1
  Ir  Ir34  1  0.821538  0.195965  0.500000  1
  Ir  Ir35  1  0.000000  0.000000  0.500000  1
