# generated using pymatgen
data_Pa2Co3(Ni3B)6
_symmetry_space_group_name_H-M   'P 1'
_cell_length_a   7.54130638
_cell_length_b   7.54130585
_cell_length_c   7.54130648
_cell_angle_alpha   59.97821193
_cell_angle_beta   59.97821463
_cell_angle_gamma   59.97821607
_symmetry_Int_Tables_number   1
_chemical_formula_structural   Pa2Co3(Ni3B)6
_chemical_formula_sum   'Pa2 Co3 Ni18 B6'
_cell_volume   303.11688939
_cell_formula_units_Z   1
loop_
 _symmetry_equiv_pos_site_id
 _symmetry_equiv_pos_as_xyz
  1  'x, y, z'
loop_
 _atom_site_type_symbol
 _atom_site_label
 _atom_site_symmetry_multiplicity
 _atom_site_fract_x
 _atom_site_fract_y
 _atom_site_fract_z
 _atom_site_occupancy
  Pa  Pa0  1  0.753178  0.753178  0.753178  1
  Pa  Pa1  1  0.250271  0.250271  0.250271  1
  Co  Co2  1  0.616171  0.616171  0.151260  1
  Co  Co3  1  0.616171  0.151260  0.616171  1
  Co  Co4  1  0.151260  0.616171  0.616171  1
  Ni  Ni5  1  0.999864  0.999864  0.999864  1
  Ni  Ni6  1  0.613757  0.613757  0.613757  1
  Ni  Ni7  1  0.386814  0.386814  0.839039  1
  Ni  Ni8  1  0.386814  0.839039  0.386814  1
  Ni  Ni9  1  0.839039  0.386814  0.386814  1
  Ni  Ni10  1  0.386939  0.386939  0.386939  1
  Ni  Ni11  1  0.000817  0.000817  0.335900  1
  Ni  Ni12  1  0.661675  0.000249  0.337149  1
  Ni  Ni13  1  0.000249  0.661675  0.337149  1
  Ni  Ni14  1  0.661675  0.337149  0.000249  1
  Ni  Ni15  1  0.000817  0.335900  0.000817  1
  Ni  Ni16  1  0.000249  0.337149  0.661675  1
  Ni  Ni17  1  0.337149  0.661675  0.000249  1
  Ni  Ni18  1  0.337149  0.000249  0.661675  1
  Ni  Ni19  1  0.335900  0.000817  0.000817  1
  Ni  Ni20  1  0.002271  0.002271  0.660238  1
  Ni  Ni21  1  0.002271  0.660238  0.002271  1
  Ni  Ni22  1  0.660238  0.002271  0.002271  1
  B  B23  1  0.730189  0.730189  0.267542  1
  B  B24  1  0.271634  0.728071  0.271634  1
  B  B25  1  0.728071  0.271634  0.271634  1
  B  B26  1  0.271634  0.271634  0.728071  1
  B  B27  1  0.730189  0.267542  0.730189  1
  B  B28  1  0.267542  0.730189  0.730189  1
