# generated using pymatgen
data_Lu12In2Os3
_symmetry_space_group_name_H-M   'P 1'
_cell_length_a   8.28492964
_cell_length_b   8.28493057
_cell_length_c   8.28492956
_cell_angle_alpha   109.31802537
_cell_angle_beta   109.31803111
_cell_angle_gamma   109.77803924
_symmetry_Int_Tables_number   1
_chemical_formula_structural   Lu12In2Os3
_chemical_formula_sum   'Lu12 In2 Os3'
_cell_volume   437.75921288
_cell_formula_units_Z   1
loop_
 _symmetry_equiv_pos_site_id
 _symmetry_equiv_pos_as_xyz
  1  'x, y, z'
loop_
 _atom_site_type_symbol
 _atom_site_label
 _atom_site_symmetry_multiplicity
 _atom_site_fract_x
 _atom_site_fract_y
 _atom_site_fract_z
 _atom_site_occupancy
  Lu  Lu0  1  0.317073  0.317073  0.633902  1
  Lu  Lu1  1  0.683170  0.683170  0.366098  1
  Lu  Lu2  1  0.683170  0.317073  0.000000  1
  Lu  Lu3  1  0.317073  0.683170  0.000000  1
  Lu  Lu4  1  0.185871  0.427170  0.241300  1
  Lu  Lu5  1  0.814392  0.573372  0.758980  1
  Lu  Lu6  1  0.185871  0.944569  0.758700  1
  Lu  Lu7  1  0.944569  0.185871  0.758700  1
  Lu  Lu8  1  0.814392  0.055413  0.241020  1
  Lu  Lu9  1  0.055413  0.814392  0.241020  1
  Lu  Lu10  1  0.427170  0.185871  0.241300  1
  Lu  Lu11  1  0.573372  0.814392  0.758980  1
  In  In12  1  0.999138  0.499138  0.500000  1
  In  In13  1  0.499138  0.999138  0.500000  1
  Os  Os14  1  0.652819  0.652819  0.000000  1
  Os  Os15  1  0.347168  0.347168  0.000000  1
  Os  Os16  1  0.000205  0.000205  0.000000  1
