# generated using pymatgen
data_Nd6Dy2Sc12Si15Au
_symmetry_space_group_name_H-M   'P 1'
_cell_length_a   7.22778210
_cell_length_b   7.47259951
_cell_length_c   14.22020873
_cell_angle_alpha   89.80815673
_cell_angle_beta   89.74996438
_cell_angle_gamma   90.29621212
_symmetry_Int_Tables_number   1
_chemical_formula_structural   Nd6Dy2Sc12Si15Au
_chemical_formula_sum   'Nd6 Dy2 Sc12 Si15 Au1'
_cell_volume   768.01609731
_cell_formula_units_Z   1
loop_
 _symmetry_equiv_pos_site_id
 _symmetry_equiv_pos_as_xyz
  1  'x, y, z'
loop_
 _atom_site_type_symbol
 _atom_site_label
 _atom_site_symmetry_multiplicity
 _atom_site_fract_x
 _atom_site_fract_y
 _atom_site_fract_z
 _atom_site_occupancy
  Nd  Nd0  1  0.011898  0.173332  0.098625  1
  Nd  Nd1  1  0.987907  0.827651  0.902371  1
  Nd  Nd2  1  0.487536  0.673393  0.903581  1
  Nd  Nd3  1  0.988114  0.829040  0.596838  1
  Nd  Nd4  1  0.511884  0.327091  0.096263  1
  Nd  Nd5  1  0.010465  0.173311  0.400733  1
  Dy  Dy6  1  0.510255  0.324637  0.400320  1
  Dy  Dy7  1  0.491860  0.676299  0.599615  1
  Sc  Sc8  1  0.162637  0.499522  0.750610  1
  Sc  Sc9  1  0.837455  0.499915  0.251450  1
  Sc  Sc10  1  0.338459  0.998098  0.249957  1
  Sc  Sc11  1  0.663893  0.999096  0.750403  1
  Sc  Sc12  1  0.339724  0.177273  0.625735  1
  Sc  Sc13  1  0.665599  0.822703  0.373864  1
  Sc  Sc14  1  0.169729  0.671854  0.373997  1
  Sc  Sc15  1  0.670199  0.824731  0.125937  1
  Sc  Sc16  1  0.826455  0.327158  0.624331  1
  Sc  Sc17  1  0.328845  0.174410  0.874963  1
  Sc  Sc18  1  0.829843  0.323463  0.875155  1
  Sc  Sc19  1  0.169658  0.675720  0.125810  1
  Si  Si20  1  0.035989  0.125683  0.749677  1
  Si  Si21  1  0.965460  0.876784  0.250330  1
  Si  Si22  1  0.466053  0.619329  0.249712  1
  Si  Si23  1  0.535798  0.381436  0.751108  1
  Si  Si24  1  0.288600  0.879060  0.748869  1
  Si  Si25  1  0.708934  0.122760  0.250431  1
  Si  Si26  1  0.215236  0.377399  0.250100  1
  Si  Si27  1  0.786277  0.621458  0.750374  1
  Si  Si28  1  0.833562  0.537019  0.458918  1
  Si  Si29  1  0.346777  0.961824  0.460373  1
  Si  Si30  1  0.848182  0.537304  0.039445  1
  Si  Si31  1  0.651518  0.036771  0.537742  1
  Si  Si32  1  0.151234  0.462590  0.961150  1
  Si  Si33  1  0.652664  0.036571  0.960707  1
  Si  Si34  1  0.346786  0.962780  0.039553  1
  Au  Au35  1  0.164515  0.462535  0.540950  1
