# generated using pymatgen
data_Au2IF17
_symmetry_space_group_name_H-M   'P 1'
_cell_length_a   8.65776200
_cell_length_b   12.15430876
_cell_length_c   16.13429800
_cell_angle_alpha   49.21183562
_cell_angle_beta   90.00000000
_cell_angle_gamma   90.00000000
_symmetry_Int_Tables_number   1
_chemical_formula_structural   Au2IF17
_chemical_formula_sum   'Au8 I4 F68'
_cell_volume   1285.45372261
_cell_formula_units_Z   4
loop_
 _symmetry_equiv_pos_site_id
 _symmetry_equiv_pos_as_xyz
  1  'x, y, z'
loop_
 _atom_site_type_symbol
 _atom_site_label
 _atom_site_symmetry_multiplicity
 _atom_site_fract_x
 _atom_site_fract_y
 _atom_site_fract_z
 _atom_site_occupancy
  Au  Au0  1  0.520846  0.541700  0.148464  1
  Au  Au1  1  0.979154  0.541700  0.648464  1
  Au  Au2  1  0.479154  0.458300  0.851536  1
  Au  Au3  1  0.020846  0.458300  0.351536  1
  Au  Au4  1  0.502096  0.902800  0.865926  1
  Au  Au5  1  0.997904  0.902800  0.365926  1
  Au  Au6  1  0.497904  0.097200  0.134074  1
  Au  Au7  1  0.002096  0.097200  0.634074  1
  I  I8  1  0.500000  0.500000  0.500000  1
  I  I9  1  0.000000  0.500000  0.000000  1
  I  I10  1  0.500000  0.000000  0.500000  1
  I  I11  1  0.000000  0.000000  0.000000  1
  F  F12  1  0.331065  0.442300  0.165596  1
  F  F13  1  0.168935  0.442300  0.665596  1
  F  F14  1  0.668935  0.557700  0.834404  1
  F  F15  1  0.831065  0.557700  0.334404  1
  F  F16  1  0.406540  0.662964  0.166251  1
  F  F17  1  0.093460  0.662964  0.666251  1
  F  F18  1  0.593460  0.337036  0.833749  1
  F  F19  1  0.906540  0.337036  0.333749  1
  F  F20  1  0.712007  0.641342  0.126977  1
  F  F21  1  0.787993  0.641342  0.626977  1
  F  F22  1  0.287993  0.358658  0.873023  1
  F  F23  1  0.212007  0.358658  0.373023  1
  F  F24  1  0.633691  0.423167  0.127456  1
  F  F25  1  0.866309  0.423167  0.627456  1
  F  F26  1  0.366309  0.576833  0.872544  1
  F  F27  1  0.133691  0.576833  0.372544  1
  F  F28  1  0.519171  0.107575  0.747721  1
  F  F29  1  0.980829  0.107575  0.247721  1
  F  F30  1  0.480829  0.892425  0.252279  1
  F  F31  1  0.019171  0.892425  0.752279  1
  F  F32  1  0.556611  0.400121  0.302790  1
  F  F33  1  0.943389  0.400121  0.802790  1
  F  F34  1  0.443389  0.599879  0.697210  1
  F  F35  1  0.056611  0.599879  0.197210  1
  F  F36  1  0.427252  0.873082  0.767991  1
  F  F37  1  0.072748  0.873082  0.267991  1
  F  F38  1  0.572748  0.126918  0.232009  1
  F  F39  1  0.927252  0.126918  0.732009  1
  F  F40  1  0.478879  0.681812  0.984154  1
  F  F41  1  0.021121  0.681812  0.484154  1
  F  F42  1  0.521121  0.318188  0.015846  1
  F  F43  1  0.978879  0.318188  0.515846  1
  F  F44  1  0.290341  0.921109  0.895820  1
  F  F45  1  0.209659  0.921109  0.395820  1
  F  F46  1  0.709659  0.078891  0.104180  1
  F  F47  1  0.790341  0.078891  0.604180  1
  F  F48  1  0.576429  0.929229  0.965424  1
  F  F49  1  0.923571  0.929229  0.465424  1
  F  F50  1  0.423571  0.070771  0.034576  1
  F  F51  1  0.076429  0.070771  0.534576  1
  F  F52  1  0.712967  0.876198  0.840992  1
  F  F53  1  0.787033  0.876198  0.340992  1
  F  F54  1  0.287033  0.123802  0.159008  1
  F  F55  1  0.212967  0.123802  0.659008  1
  F  F56  1  0.657858  0.630901  0.451861  1
  F  F57  1  0.842142  0.630901  0.951861  1
  F  F58  1  0.342142  0.369099  0.548139  1
  F  F59  1  0.157858  0.369099  0.048139  1
  F  F60  1  0.527356  0.428114  0.640858  1
  F  F61  1  0.972644  0.428114  0.140858  1
  F  F62  1  0.472644  0.571886  0.359142  1
  F  F63  1  0.027356  0.571886  0.859142  1
  F  F64  1  0.636399  0.363231  0.526802  1
  F  F65  1  0.863601  0.363231  0.026802  1
  F  F66  1  0.363601  0.636769  0.473198  1
  F  F67  1  0.136399  0.636769  0.973198  1
  F  F68  1  0.521674  0.889072  0.460989  1
  F  F69  1  0.978326  0.889072  0.960989  1
  F  F70  1  0.478326  0.110928  0.539011  1
  F  F71  1  0.021674  0.110928  0.039011  1
  F  F72  1  0.670777  0.104980  0.419154  1
  F  F73  1  0.829223  0.104980  0.919154  1
  F  F74  1  0.329223  0.895020  0.580846  1
  F  F75  1  0.170777  0.895020  0.080846  1
  F  F76  1  0.622080  0.870639  0.619430  1
  F  F77  1  0.877920  0.870639  0.119430  1
  F  F78  1  0.377920  0.129361  0.380570  1
  F  F79  1  0.122080  0.129361  0.880570  1
