# generated using pymatgen
data_Li3Zn(SnPt3)2
_symmetry_space_group_name_H-M   'P 1'
_cell_length_a   4.10107706
_cell_length_b   7.29230200
_cell_length_c   12.24520216
_cell_angle_alpha   90.00000000
_cell_angle_beta   90.01878824
_cell_angle_gamma   90.00000000
_symmetry_Int_Tables_number   1
_chemical_formula_structural   Li3Zn(SnPt3)2
_chemical_formula_sum   'Li6 Zn2 Sn4 Pt12'
_cell_volume   366.20857688
_cell_formula_units_Z   2
loop_
 _symmetry_equiv_pos_site_id
 _symmetry_equiv_pos_as_xyz
  1  'x, y, z'
loop_
 _atom_site_type_symbol
 _atom_site_label
 _atom_site_symmetry_multiplicity
 _atom_site_fract_x
 _atom_site_fract_y
 _atom_site_fract_z
 _atom_site_occupancy
  Li  Li0  1  0.999751  0.000000  0.006920  1
  Li  Li1  1  0.501725  0.499999  0.159832  1
  Li  Li2  1  0.001415  0.000000  0.322488  1
  Li  Li3  1  0.499962  0.499999  0.496411  1
  Li  Li4  1  0.998719  0.000000  0.670313  1
  Li  Li5  1  0.498419  0.499999  0.844086  1
  Zn  Zn6  1  0.000056  0.499999  0.003720  1
  Zn  Zn7  1  0.501481  0.000000  0.162920  1
  Sn  Sn8  1  0.001290  0.499999  0.326132  1
  Sn  Sn9  1  0.499939  0.000000  0.497522  1
  Sn  Sn10  1  0.998716  0.499999  0.669128  1
  Sn  Sn11  1  0.498734  0.000000  0.840628  1
  Pt  Pt12  1  0.500131  0.254576  0.004666  1
  Pt  Pt13  1  0.500131  0.745424  0.004666  1
  Pt  Pt14  1  0.001009  0.245530  0.162005  1
  Pt  Pt15  1  0.001009  0.754470  0.162005  1
  Pt  Pt16  1  0.501059  0.244488  0.326841  1
  Pt  Pt17  1  0.501059  0.755512  0.326841  1
  Pt  Pt18  1  0.999929  0.249826  0.497899  1
  Pt  Pt19  1  0.999929  0.750174  0.497899  1
  Pt  Pt20  1  0.498782  0.250053  0.668753  1
  Pt  Pt21  1  0.498782  0.749947  0.668753  1
  Pt  Pt22  1  0.998990  0.255583  0.839787  1
  Pt  Pt23  1  0.998990  0.744417  0.839787  1
