# generated using pymatgen
data_YbLu9(In2Pd)4
_symmetry_space_group_name_H-M   'P 1'
_cell_length_a   3.57574700
_cell_length_b   8.02575454
_cell_length_c   18.04063100
_cell_angle_alpha   90.02109572
_cell_angle_beta   90.00000000
_cell_angle_gamma   90.00000000
_symmetry_Int_Tables_number   1
_chemical_formula_structural   YbLu9(In2Pd)4
_chemical_formula_sum   'Yb1 Lu9 In8 Pd4'
_cell_volume   517.73121530
_cell_formula_units_Z   1
loop_
 _symmetry_equiv_pos_site_id
 _symmetry_equiv_pos_as_xyz
  1  'x, y, z'
loop_
 _atom_site_type_symbol
 _atom_site_label
 _atom_site_symmetry_multiplicity
 _atom_site_fract_x
 _atom_site_fract_y
 _atom_site_fract_z
 _atom_site_occupancy
  Yb  Yb0  1  0.000000  0.500000  0.500000  1
  Lu  Lu1  1  0.000000  0.000000  0.000000  1
  Lu  Lu2  1  0.000000  0.742550  0.279431  1
  Lu  Lu3  1  0.000000  0.257450  0.720569  1
  Lu  Lu4  1  0.000000  0.756731  0.779597  1
  Lu  Lu5  1  0.000000  0.243269  0.220403  1
  Lu  Lu6  1  0.000000  0.618821  0.084260  1
  Lu  Lu7  1  0.000000  0.381179  0.915740  1
  Lu  Lu8  1  0.000000  0.880546  0.584459  1
  Lu  Lu9  1  0.000000  0.119454  0.415541  1
  In  In10  1  0.500000  0.708431  0.932946  1
  In  In11  1  0.500000  0.291569  0.067054  1
  In  In12  1  0.500000  0.794776  0.432422  1
  In  In13  1  0.500000  0.205224  0.567578  1
  In  In14  1  0.500000  0.577062  0.649876  1
  In  In15  1  0.500000  0.422938  0.350124  1
  In  In16  1  0.500000  0.923147  0.148773  1
  In  In17  1  0.500000  0.076853  0.851227  1
  Pd  Pd18  1  0.500000  0.526232  0.195027  1
  Pd  Pd19  1  0.500000  0.473768  0.804973  1
  Pd  Pd20  1  0.500000  0.975372  0.696720  1
  Pd  Pd21  1  0.500000  0.024628  0.303280  1
