# generated using pymatgen
data_Li2CdSiS4
_symmetry_space_group_name_H-M   'P 1'
_cell_length_a   6.38528800
_cell_length_b   6.83253500
_cell_length_c   7.70828700
_cell_angle_alpha   90.00000000
_cell_angle_beta   90.00000000
_cell_angle_gamma   90.00000000
_symmetry_Int_Tables_number   1
_chemical_formula_structural   Li2CdSiS4
_chemical_formula_sum   'Li4 Cd2 Si2 S8'
_cell_volume   336.29486162
_cell_formula_units_Z   2
loop_
 _symmetry_equiv_pos_site_id
 _symmetry_equiv_pos_as_xyz
  1  'x, y, z'
loop_
 _atom_site_type_symbol
 _atom_site_label
 _atom_site_symmetry_multiplicity
 _atom_site_fract_x
 _atom_site_fract_y
 _atom_site_fract_z
 _atom_site_occupancy
  Li  Li0  1  0.505568  0.322607  0.246095  1
  Li  Li1  1  0.505568  0.322607  0.753905  1
  Li  Li2  1  0.005568  0.677393  0.746095  1
  Li  Li3  1  0.005568  0.677393  0.253905  1
  Cd  Cd4  1  0.012627  0.147983  0.000000  1
  Cd  Cd5  1  0.512627  0.852017  0.500000  1
  Si  Si6  1  0.008546  0.180021  0.500000  1
  Si  Si7  1  0.508546  0.819979  0.000000  1
  S  S8  1  0.172846  0.805078  0.000000  1
  S  S9  1  0.625169  0.664967  0.777523  1
  S  S10  1  0.607606  0.119174  0.000000  1
  S  S11  1  0.672846  0.194922  0.500000  1
  S  S12  1  0.125169  0.335033  0.722477  1
  S  S13  1  0.625169  0.664967  0.222477  1
  S  S14  1  0.107606  0.880826  0.500000  1
  S  S15  1  0.125169  0.335033  0.277523  1
