# generated using pymatgen
data_Y5ErVB14W
_symmetry_space_group_name_H-M   'P 1'
_cell_length_a   8.14786429
_cell_length_b   8.14786286
_cell_length_c   9.46693657
_cell_angle_alpha   89.93558143
_cell_angle_beta   90.06441869
_cell_angle_gamma   155.55573556
_symmetry_Int_Tables_number   1
_chemical_formula_structural   Y5ErVB14W
_chemical_formula_sum   'Y5 Er1 V1 B14 W1'
_cell_volume   260.07309002
_cell_formula_units_Z   1
loop_
 _symmetry_equiv_pos_site_id
 _symmetry_equiv_pos_as_xyz
  1  'x, y, z'
loop_
 _atom_site_type_symbol
 _atom_site_label
 _atom_site_symmetry_multiplicity
 _atom_site_fract_x
 _atom_site_fract_y
 _atom_site_fract_z
 _atom_site_occupancy
  Y  Y0  1  0.893838  0.106162  0.438016  1
  Y  Y1  1  0.106899  0.893101  0.557634  1
  Y  Y2  1  0.893648  0.106352  0.061846  1
  Y  Y3  1  0.241842  0.758158  0.249950  1
  Y  Y4  1  0.754534  0.245466  0.750209  1
  Er  Er5  1  0.106415  0.893585  0.943626  1
  V  V6  1  0.052609  0.947391  0.249660  1
  B  B7  1  0.727134  0.272866  0.466575  1
  B  B8  1  0.272847  0.727153  0.531632  1
  B  B9  1  0.726413  0.273587  0.032631  1
  B  B10  1  0.272104  0.727896  0.968054  1
  B  B11  1  0.632133  0.367867  0.149366  1
  B  B12  1  0.365456  0.634544  0.853461  1
  B  B13  1  0.632202  0.367798  0.349437  1
  B  B14  1  0.365578  0.634422  0.646699  1
  B  B15  1  0.521342  0.478658  0.094976  1
  B  B16  1  0.481216  0.518784  0.909184  1
  B  B17  1  0.521169  0.478831  0.404223  1
  B  B18  1  0.480819  0.519181  0.591679  1
  B  B19  1  0.459123  0.540877  0.249656  1
  B  B20  1  0.545431  0.454569  0.751113  1
  W  W21  1  0.947247  0.052753  0.750376  1
