# generated using pymatgen
data_Ho3FeCo3P6Rh5
_symmetry_space_group_name_H-M   'P 1'
_cell_length_a   3.78667000
_cell_length_b   10.94367100
_cell_length_c   12.53223400
_cell_angle_alpha   90.00000000
_cell_angle_beta   90.00000000
_cell_angle_gamma   90.00000000
_symmetry_Int_Tables_number   1
_chemical_formula_structural   Ho3FeCo3P6Rh5
_chemical_formula_sum   'Ho6 Fe2 Co6 P12 Rh10'
_cell_volume   519.33666256
_cell_formula_units_Z   2
loop_
 _symmetry_equiv_pos_site_id
 _symmetry_equiv_pos_as_xyz
  1  'x, y, z'
loop_
 _atom_site_type_symbol
 _atom_site_label
 _atom_site_symmetry_multiplicity
 _atom_site_fract_x
 _atom_site_fract_y
 _atom_site_fract_z
 _atom_site_occupancy
  Ho  Ho0  1  0.000000  0.500000  0.518290  1
  Ho  Ho1  1  0.500000  0.000000  0.475990  1
  Ho  Ho2  1  0.500000  0.816476  0.197455  1
  Ho  Ho3  1  0.500000  0.183524  0.197455  1
  Ho  Ho4  1  0.000000  0.679290  0.804186  1
  Ho  Ho5  1  0.000000  0.320710  0.804186  1
  Fe  Fe6  1  0.000000  0.500000  0.992889  1
  Fe  Fe7  1  0.500000  0.000000  0.011013  1
  Co  Co8  1  0.000000  0.620789  0.284079  1
  Co  Co9  1  0.000000  0.379211  0.284079  1
  Co  Co10  1  0.500000  0.332987  0.997624  1
  Co  Co11  1  0.500000  0.667013  0.997624  1
  Co  Co12  1  0.000000  0.168250  0.007046  1
  Co  Co13  1  0.000000  0.831750  0.007046  1
  P  P14  1  0.500000  0.316530  0.619613  1
  P  P15  1  0.500000  0.683470  0.619613  1
  P  P16  1  0.000000  0.192578  0.372576  1
  P  P17  1  0.000000  0.807422  0.372576  1
  P  P18  1  0.500000  0.500000  0.895241  1
  P  P19  1  0.000000  0.000000  0.107230  1
  P  P20  1  0.500000  0.840819  0.904777  1
  P  P21  1  0.500000  0.159181  0.904777  1
  P  P22  1  0.000000  0.655791  0.103742  1
  P  P23  1  0.000000  0.344209  0.103742  1
  P  P24  1  0.500000  0.500000  0.341257  1
  P  P25  1  0.000000  0.000000  0.652280  1
  Rh  Rh26  1  0.500000  0.301051  0.425608  1
  Rh  Rh27  1  0.500000  0.698949  0.425608  1
  Rh  Rh28  1  0.000000  0.205141  0.568346  1
  Rh  Rh29  1  0.000000  0.794859  0.568346  1
  Rh  Rh30  1  0.500000  0.872266  0.716449  1
  Rh  Rh31  1  0.500000  0.127734  0.716449  1
  Rh  Rh32  1  0.500000  0.500000  0.156975  1
  Rh  Rh33  1  0.000000  0.000000  0.844354  1
  Rh  Rh34  1  0.500000  0.500000  0.708074  1
  Rh  Rh35  1  0.000000  0.000000  0.293403  1
