# generated using pymatgen
data_Tb3Gd3TaO12
_symmetry_space_group_name_H-M   'P 1'
_cell_length_a   6.54383842
_cell_length_b   6.53692171
_cell_length_c   6.53968997
_cell_angle_alpha   98.56051338
_cell_angle_beta   98.67629224
_cell_angle_gamma   98.68165636
_symmetry_Int_Tables_number   1
_chemical_formula_structural   Tb3Gd3TaO12
_chemical_formula_sum   'Tb3 Gd3 Ta1 O12'
_cell_volume   269.12662402
_cell_formula_units_Z   1
loop_
 _symmetry_equiv_pos_site_id
 _symmetry_equiv_pos_as_xyz
  1  'x, y, z'
loop_
 _atom_site_type_symbol
 _atom_site_label
 _atom_site_symmetry_multiplicity
 _atom_site_fract_x
 _atom_site_fract_y
 _atom_site_fract_z
 _atom_site_occupancy
  Tb  Tb0  1  0.860459  0.387883  0.699460  1
  Tb  Tb1  1  0.611223  0.299529  0.136510  1
  Tb  Tb2  1  0.303064  0.142218  0.612478  1
  Gd  Gd3  1  0.699559  0.862864  0.391751  1
  Gd  Gd4  1  0.391577  0.695039  0.858811  1
  Gd  Gd5  1  0.138830  0.607644  0.303579  1
  Ta  Ta6  1  0.001777  0.999123  0.000745  1
  O  O7  1  0.929727  0.042831  0.698964  1
  O  O8  1  0.956824  0.301438  0.070078  1
  O  O9  1  0.587878  0.176861  0.436989  1
  O  O10  1  0.820106  0.562926  0.410380  1
  O  O11  1  0.301451  0.074103  0.959653  1
  O  O12  1  0.563231  0.410775  0.822557  1
  O  O13  1  0.435664  0.587630  0.176763  1
  O  O14  1  0.699032  0.930263  0.041264  1
  O  O15  1  0.175192  0.435809  0.586835  1
  O  O16  1  0.412468  0.823223  0.565189  1
  O  O17  1  0.038279  0.698859  0.926328  1
  O  O18  1  0.073659  0.960983  0.301666  1
