# generated using pymatgen
data_Cs(MnSe2)12
_symmetry_space_group_name_H-M   'P 1'
_cell_length_a   11.35392980
_cell_length_b   11.31158968
_cell_length_c   10.56827452
_cell_angle_alpha   108.39011033
_cell_angle_beta   108.33383111
_cell_angle_gamma   64.55260508
_symmetry_Int_Tables_number   1
_chemical_formula_structural   Cs(MnSe2)12
_chemical_formula_sum   'Cs1 Mn12 Se24'
_cell_volume   1137.35995089
_cell_formula_units_Z   1
loop_
 _symmetry_equiv_pos_site_id
 _symmetry_equiv_pos_as_xyz
  1  'x, y, z'
loop_
 _atom_site_type_symbol
 _atom_site_label
 _atom_site_symmetry_multiplicity
 _atom_site_fract_x
 _atom_site_fract_y
 _atom_site_fract_z
 _atom_site_occupancy
  Cs  Cs0  1  0.000000  0.500000  0.000000  1
  Mn  Mn1  1  0.497907  0.500264  0.665805  1
  Mn  Mn2  1  0.998437  0.998797  0.664714  1
  Mn  Mn3  1  0.746492  0.246503  0.830753  1
  Mn  Mn4  1  0.251100  0.754130  0.833966  1
  Mn  Mn5  1  0.500000  0.500000  0.000000  1
  Mn  Mn6  1  0.000000  0.000000  0.000000  1
  Mn  Mn7  1  0.748900  0.245870  0.166034  1
  Mn  Mn8  1  0.253508  0.753497  0.169247  1
  Mn  Mn9  1  0.502093  0.499736  0.334195  1
  Mn  Mn10  1  0.001563  0.001203  0.335286  1
  Mn  Mn11  1  0.748098  0.246203  0.497562  1
  Mn  Mn12  1  0.251902  0.753797  0.502438  1
  Se  Se13  1  0.499769  0.337236  0.778581  1
  Se  Se14  1  0.004585  0.836148  0.779827  1
  Se  Se15  1  0.752455  0.083306  0.944998  1
  Se  Se16  1  0.254468  0.590964  0.946850  1
  Se  Se17  1  0.744367  0.409462  0.717756  1
  Se  Se18  1  0.246337  0.916976  0.721363  1
  Se  Se19  1  0.501448  0.337492  0.112998  1
  Se  Se20  1  0.005640  0.838981  0.115164  1
  Se  Se21  1  0.994360  0.161019  0.884836  1
  Se  Se22  1  0.498552  0.662508  0.887002  1
  Se  Se23  1  0.255633  0.590538  0.282244  1
  Se  Se24  1  0.753663  0.083024  0.278637  1
  Se  Se25  1  0.745532  0.409036  0.053150  1
  Se  Se26  1  0.247545  0.916694  0.055002  1
  Se  Se27  1  0.500601  0.337277  0.444608  1
  Se  Se28  1  0.005050  0.836403  0.445368  1
  Se  Se29  1  0.995415  0.163852  0.220173  1
  Se  Se30  1  0.500231  0.662764  0.221419  1
  Se  Se31  1  0.252201  0.590942  0.613550  1
  Se  Se32  1  0.750988  0.083288  0.610481  1
  Se  Se33  1  0.747799  0.409058  0.386450  1
  Se  Se34  1  0.249012  0.916712  0.389519  1
  Se  Se35  1  0.994950  0.163597  0.554632  1
  Se  Se36  1  0.499399  0.662723  0.555392  1
