# generated using pymatgen
data_VIr5RhW
_symmetry_space_group_name_H-M   'P 1'
_cell_length_a   5.50557726
_cell_length_b   5.50557775
_cell_length_c   4.38910200
_cell_angle_alpha   90.00000000
_cell_angle_beta   90.00000000
_cell_angle_gamma   119.92493059
_symmetry_Int_Tables_number   1
_chemical_formula_structural   VIr5RhW
_chemical_formula_sum   'V1 Ir5 Rh1 W1'
_cell_volume   115.30286328
_cell_formula_units_Z   1
loop_
 _symmetry_equiv_pos_site_id
 _symmetry_equiv_pos_as_xyz
  1  'x, y, z'
loop_
 _atom_site_type_symbol
 _atom_site_label
 _atom_site_symmetry_multiplicity
 _atom_site_fract_x
 _atom_site_fract_y
 _atom_site_fract_z
 _atom_site_occupancy
  V  V0  1  0.666269  0.333731  0.250000  1
  Ir  Ir1  1  0.165471  0.331461  0.250000  1
  Ir  Ir2  1  0.668539  0.834529  0.250000  1
  Ir  Ir3  1  0.165598  0.834402  0.250000  1
  Ir  Ir4  1  0.832074  0.663561  0.750000  1
  Ir  Ir5  1  0.336439  0.167926  0.750000  1
  Rh  Rh6  1  0.831692  0.168308  0.750000  1
  W  W7  1  0.333919  0.666081  0.750000  1
