# generated using pymatgen
data_Dy4IrPt2Au
_symmetry_space_group_name_H-M   'P 1'
_cell_length_a   4.50016800
_cell_length_b   5.64560409
_cell_length_c   7.08979471
_cell_angle_alpha   90.57399511
_cell_angle_beta   90.00000000
_cell_angle_gamma   90.00000000
_symmetry_Int_Tables_number   1
_chemical_formula_structural   Dy4IrPt2Au
_chemical_formula_sum   'Dy4 Ir1 Pt2 Au1'
_cell_volume   180.11546873
_cell_formula_units_Z   1
loop_
 _symmetry_equiv_pos_site_id
 _symmetry_equiv_pos_as_xyz
  1  'x, y, z'
loop_
 _atom_site_type_symbol
 _atom_site_label
 _atom_site_symmetry_multiplicity
 _atom_site_fract_x
 _atom_site_fract_y
 _atom_site_fract_z
 _atom_site_occupancy
  Dy  Dy0  1  0.250000  0.358434  0.687684  1
  Dy  Dy1  1  0.250000  0.141477  0.176772  1
  Dy  Dy2  1  0.750000  0.636966  0.304938  1
  Dy  Dy3  1  0.750000  0.858422  0.833458  1
  Ir  Ir4  1  0.250000  0.658676  0.043289  1
  Pt  Pt5  1  0.750000  0.154039  0.458777  1
  Pt  Pt6  1  0.750000  0.345591  0.952815  1
  Au  Au7  1  0.250000  0.846393  0.542266  1
