# generated using pymatgen
data_DyLu4Sc3(P3Ir4)4
_symmetry_space_group_name_H-M   'P 1'
_cell_length_a   12.82903700
_cell_length_b   12.82903729
_cell_length_c   3.94401800
_cell_angle_alpha   90.00000000
_cell_angle_beta   90.00000000
_cell_angle_gamma   120.00000182
_symmetry_Int_Tables_number   1
_chemical_formula_structural   DyLu4Sc3(P3Ir4)4
_chemical_formula_sum   'Dy1 Lu4 Sc3 P12 Ir16'
_cell_volume   562.15701881
_cell_formula_units_Z   1
loop_
 _symmetry_equiv_pos_site_id
 _symmetry_equiv_pos_as_xyz
  1  'x, y, z'
loop_
 _atom_site_type_symbol
 _atom_site_label
 _atom_site_symmetry_multiplicity
 _atom_site_fract_x
 _atom_site_fract_y
 _atom_site_fract_z
 _atom_site_occupancy
  Dy  Dy0  1  0.666667  0.333333  0.500000  1
  Lu  Lu1  1  0.333333  0.666667  0.500000  1
  Lu  Lu2  1  0.999948  0.812137  0.000000  1
  Lu  Lu3  1  0.187863  0.187810  0.000000  1
  Lu  Lu4  1  0.812190  0.000052  0.000000  1
  Sc  Sc5  1  0.000218  0.445220  0.500000  1
  Sc  Sc6  1  0.554780  0.554998  0.500000  1
  Sc  Sc7  1  0.445002  0.999782  0.500000  1
  P  P8  1  0.999880  0.646547  0.500000  1
  P  P9  1  0.353453  0.353333  0.500000  1
  P  P10  1  0.646667  0.000120  0.500000  1
  P  P11  1  0.516392  0.686661  0.000000  1
  P  P12  1  0.313339  0.829730  0.000000  1
  P  P13  1  0.170270  0.483608  0.000000  1
  P  P14  1  0.482836  0.169421  0.000000  1
  P  P15  1  0.686586  0.517164  0.000000  1
  P  P16  1  0.830579  0.313414  0.000000  1
  P  P17  1  0.000107  0.175945  0.500000  1
  P  P18  1  0.824055  0.824162  0.500000  1
  P  P19  1  0.175838  0.999893  0.500000  1
  Ir  Ir20  1  0.508147  0.865861  0.000000  1
  Ir  Ir21  1  0.134139  0.642287  0.000000  1
  Ir  Ir22  1  0.357713  0.491853  0.000000  1
  Ir  Ir23  1  0.489941  0.358016  0.000000  1
  Ir  Ir24  1  0.868075  0.510059  0.000000  1
  Ir  Ir25  1  0.641984  0.131925  0.000000  1
  Ir  Ir26  1  0.000150  0.276965  0.000000  1
  Ir  Ir27  1  0.723035  0.723186  0.000000  1
  Ir  Ir28  1  0.276814  0.999850  0.000000  1
  Ir  Ir29  1  0.629386  0.808742  0.500000  1
  Ir  Ir30  1  0.191258  0.820645  0.500000  1
  Ir  Ir31  1  0.179355  0.370614  0.500000  1
  Ir  Ir32  1  0.370357  0.179055  0.500000  1
  Ir  Ir33  1  0.808697  0.629643  0.500000  1
  Ir  Ir34  1  0.820945  0.191303  0.500000  1
  Ir  Ir35  1  0.000000  0.000000  0.500000  1
