# generated using pymatgen
data_Nd6EuIrBr12
_symmetry_space_group_name_H-M   'P 1'
_cell_length_a   9.55299273
_cell_length_b   9.55299370
_cell_length_c   9.55299400
_cell_angle_alpha   106.60666434
_cell_angle_beta   106.60666608
_cell_angle_gamma   106.60666398
_symmetry_Int_Tables_number   1
_chemical_formula_structural   Nd6EuIrBr12
_chemical_formula_sum   'Nd6 Eu1 Ir1 Br12'
_cell_volume   733.69693418
_cell_formula_units_Z   1
loop_
 _symmetry_equiv_pos_site_id
 _symmetry_equiv_pos_as_xyz
  1  'x, y, z'
loop_
 _atom_site_type_symbol
 _atom_site_label
 _atom_site_symmetry_multiplicity
 _atom_site_fract_x
 _atom_site_fract_y
 _atom_site_fract_z
 _atom_site_occupancy
  Nd  Nd0  1  0.396852  0.478848  0.185626  1
  Nd  Nd1  1  0.185626  0.396852  0.478848  1
  Nd  Nd2  1  0.478848  0.185626  0.396852  1
  Nd  Nd3  1  0.603148  0.521152  0.814374  1
  Nd  Nd4  1  0.814374  0.603148  0.521152  1
  Nd  Nd5  1  0.521152  0.814374  0.603148  1
  Eu  Eu6  1  0.000000  0.000000  0.000000  1
  Ir  Ir7  1  0.500000  0.500000  0.500000  1
  Br  Br8  1  0.047255  0.345668  0.127646  1
  Br  Br9  1  0.127646  0.047255  0.345668  1
  Br  Br10  1  0.345668  0.127646  0.047255  1
  Br  Br11  1  0.952745  0.654332  0.872354  1
  Br  Br12  1  0.872354  0.952745  0.654332  1
  Br  Br13  1  0.654332  0.872354  0.952745  1
  Br  Br14  1  0.721475  0.572613  0.181715  1
  Br  Br15  1  0.181715  0.721475  0.572613  1
  Br  Br16  1  0.572613  0.181715  0.721475  1
  Br  Br17  1  0.278525  0.427387  0.818285  1
  Br  Br18  1  0.818285  0.278525  0.427387  1
  Br  Br19  1  0.427387  0.818285  0.278525  1
