# generated using pymatgen
data_Ti3V2Ga2Ge
_symmetry_space_group_name_H-M   'P 1'
_cell_length_a   7.50354600
_cell_length_b   7.50430822
_cell_length_c   5.06873500
_cell_angle_alpha   90.00000000
_cell_angle_beta   90.00000000
_cell_angle_gamma   119.99664892
_symmetry_Int_Tables_number   1
_chemical_formula_structural   Ti3V2Ga2Ge
_chemical_formula_sum   'Ti6 V4 Ga4 Ge2'
_cell_volume   247.18498976
_cell_formula_units_Z   2
loop_
 _symmetry_equiv_pos_site_id
 _symmetry_equiv_pos_as_xyz
  1  'x, y, z'
loop_
 _atom_site_type_symbol
 _atom_site_label
 _atom_site_symmetry_multiplicity
 _atom_site_fract_x
 _atom_site_fract_y
 _atom_site_fract_z
 _atom_site_occupancy
  Ti  Ti0  1  0.000643  0.753912  0.750000  1
  Ti  Ti1  1  0.247575  0.247905  0.750000  1
  Ti  Ti2  1  0.000330  0.247905  0.250000  1
  Ti  Ti3  1  0.754068  0.000578  0.750000  1
  Ti  Ti4  1  0.753269  0.753912  0.250000  1
  Ti  Ti5  1  0.246511  0.000578  0.250000  1
  V  V6  1  0.331718  0.663437  0.500000  1
  V  V7  1  0.331718  0.663437  0.000000  1
  V  V8  1  0.667180  0.334359  0.500000  1
  V  V9  1  0.667180  0.334359  0.000000  1
  Ga  Ga10  1  0.604189  0.604390  0.750000  1
  Ga  Ga11  1  0.398109  0.999225  0.750000  1
  Ga  Ga12  1  0.000201  0.604390  0.250000  1
  Ga  Ga13  1  0.601116  0.999225  0.250000  1
  Ge  Ge14  1  0.998831  0.396193  0.750000  1
  Ge  Ge15  1  0.397362  0.396193  0.250000  1
