# generated using pymatgen
data_SrEuBO4
_symmetry_space_group_name_H-M   'P 1'
_cell_length_a   3.76479800
_cell_length_b   9.92290100
_cell_length_c   11.02460500
_cell_angle_alpha   90.00000000
_cell_angle_beta   90.00000000
_cell_angle_gamma   90.00000000
_symmetry_Int_Tables_number   1
_chemical_formula_structural   SrEuBO4
_chemical_formula_sum   'Sr4 Eu4 B4 O16'
_cell_volume   411.85408288
_cell_formula_units_Z   4
loop_
 _symmetry_equiv_pos_site_id
 _symmetry_equiv_pos_as_xyz
  1  'x, y, z'
loop_
 _atom_site_type_symbol
 _atom_site_label
 _atom_site_symmetry_multiplicity
 _atom_site_fract_x
 _atom_site_fract_y
 _atom_site_fract_z
 _atom_site_occupancy
  Sr  Sr0  1  0.250000  0.666376  0.081220  1
  Sr  Sr1  1  0.750000  0.333624  0.918780  1
  Sr  Sr2  1  0.750000  0.166376  0.418780  1
  Sr  Sr3  1  0.250000  0.833624  0.581220  1
  Eu  Eu4  1  0.250000  0.078270  0.117503  1
  Eu  Eu5  1  0.750000  0.921730  0.882497  1
  Eu  Eu6  1  0.750000  0.578270  0.382497  1
  Eu  Eu7  1  0.250000  0.421730  0.617503  1
  B  B8  1  0.250000  0.366366  0.199893  1
  B  B9  1  0.750000  0.633634  0.800107  1
  B  B10  1  0.750000  0.866366  0.300107  1
  B  B11  1  0.250000  0.133634  0.699893  1
  O  O12  1  0.250000  0.494391  0.251702  1
  O  O13  1  0.750000  0.505609  0.748298  1
  O  O14  1  0.750000  0.994391  0.248298  1
  O  O15  1  0.250000  0.005609  0.751702  1
  O  O16  1  0.250000  0.250575  0.272155  1
  O  O17  1  0.750000  0.749425  0.727845  1
  O  O18  1  0.750000  0.750575  0.227845  1
  O  O19  1  0.250000  0.249425  0.772155  1
  O  O20  1  0.250000  0.353683  0.073473  1
  O  O21  1  0.750000  0.646317  0.926527  1
  O  O22  1  0.750000  0.853683  0.426527  1
  O  O23  1  0.250000  0.146317  0.573473  1
  O  O24  1  0.250000  0.608745  0.498892  1
  O  O25  1  0.750000  0.391255  0.501108  1
  O  O26  1  0.750000  0.108745  0.001108  1
  O  O27  1  0.250000  0.891255  0.998892  1
