# generated using pymatgen
data_Tb11DyIn2(CoTc)2
_symmetry_space_group_name_H-M   'P 1'
_cell_length_a   8.48012168
_cell_length_b   8.47934857
_cell_length_c   8.48012113
_cell_angle_alpha   112.91084835
_cell_angle_beta   111.01743849
_cell_angle_gamma   104.60229291
_symmetry_Int_Tables_number   1
_chemical_formula_structural   Tb11DyIn2(CoTc)2
_chemical_formula_sum   'Tb11 Dy1 In2 Co2 Tc2'
_cell_volume   466.72647171
_cell_formula_units_Z   1
loop_
 _symmetry_equiv_pos_site_id
 _symmetry_equiv_pos_as_xyz
  1  'x, y, z'
loop_
 _atom_site_type_symbol
 _atom_site_label
 _atom_site_symmetry_multiplicity
 _atom_site_fract_x
 _atom_site_fract_y
 _atom_site_fract_z
 _atom_site_occupancy
  Tb  Tb0  1  0.443947  0.243329  0.200254  1
  Tb  Tb1  1  0.556500  0.756596  0.800212  1
  Tb  Tb2  1  0.043076  0.243329  0.799381  1
  Tb  Tb3  1  0.956384  0.756596  0.200098  1
  Tb  Tb4  1  0.185198  0.286930  0.472300  1
  Tb  Tb5  1  0.814713  0.713166  0.527705  1
  Tb  Tb6  1  0.185462  0.713166  0.898454  1
  Tb  Tb7  1  0.814630  0.286930  0.101732  1
  Tb  Tb8  1  0.327219  0.646376  0.319157  1
  Tb  Tb9  1  0.673010  0.353473  0.680463  1
  Tb  Tb10  1  0.326715  0.007555  0.680841  1
  Dy  Dy11  1  0.672995  0.992518  0.319522  1
  In  In12  1  0.500058  0.500265  0.000207  1
  In  In13  1  0.000132  0.000034  0.999901  1
  Co  Co14  1  0.109463  0.609532  0.500069  1
  Co  Co15  1  0.890311  0.390088  0.499777  1
  Tc  Tc16  1  0.321895  0.000058  0.321766  1
  Tc  Tc17  1  0.678293  0.000058  0.678163  1
