# generated using pymatgen
data_V3Ni13B6Rh7
_symmetry_space_group_name_H-M   'P 1'
_cell_length_a   7.66248224
_cell_length_b   7.66248298
_cell_length_c   7.66248248
_cell_angle_alpha   59.56872362
_cell_angle_beta   59.56872168
_cell_angle_gamma   59.56872402
_symmetry_Int_Tables_number   1
_chemical_formula_structural   V3Ni13B6Rh7
_chemical_formula_sum   'V3 Ni13 B6 Rh7'
_cell_volume   315.00289042
_cell_formula_units_Z   1
loop_
 _symmetry_equiv_pos_site_id
 _symmetry_equiv_pos_as_xyz
  1  'x, y, z'
loop_
 _atom_site_type_symbol
 _atom_site_label
 _atom_site_symmetry_multiplicity
 _atom_site_fract_x
 _atom_site_fract_y
 _atom_site_fract_z
 _atom_site_occupancy
  V  V0  1  0.999357  0.999357  0.999357  1
  V  V1  1  0.750042  0.750042  0.750042  1
  V  V2  1  0.254484  0.254484  0.254484  1
  Ni  Ni3  1  0.378681  0.378681  0.378681  1
  Ni  Ni4  1  0.998470  0.998470  0.329258  1
  Ni  Ni5  1  0.665713  0.003623  0.330154  1
  Ni  Ni6  1  0.003623  0.665713  0.330154  1
  Ni  Ni7  1  0.665713  0.330154  0.003623  1
  Ni  Ni8  1  0.998470  0.329258  0.998470  1
  Ni  Ni9  1  0.003623  0.330154  0.665713  1
  Ni  Ni10  1  0.330154  0.665713  0.003623  1
  Ni  Ni11  1  0.330154  0.003623  0.665713  1
  Ni  Ni12  1  0.329258  0.998470  0.998470  1
  Ni  Ni13  1  0.999826  0.999826  0.670041  1
  Ni  Ni14  1  0.999826  0.670041  0.999826  1
  Ni  Ni15  1  0.670041  0.999826  0.999826  1
  B  B16  1  0.734295  0.734295  0.266245  1
  B  B17  1  0.266628  0.730452  0.266628  1
  B  B18  1  0.730452  0.266628  0.266628  1
  B  B19  1  0.266628  0.266628  0.730452  1
  B  B20  1  0.734295  0.266245  0.734295  1
  B  B21  1  0.266245  0.734295  0.734295  1
  Rh  Rh22  1  0.620511  0.620511  0.132772  1
  Rh  Rh23  1  0.620511  0.132772  0.620511  1
  Rh  Rh24  1  0.132772  0.620511  0.620511  1
  Rh  Rh25  1  0.624726  0.624726  0.624726  1
  Rh  Rh26  1  0.374107  0.374107  0.877289  1
  Rh  Rh27  1  0.374107  0.877289  0.374107  1
  Rh  Rh28  1  0.877289  0.374107  0.374107  1
