# generated using pymatgen
data_LiYEr2(Co4P3)2
_symmetry_space_group_name_H-M   'P 1'
_cell_length_a   3.71014400
_cell_length_b   10.56280200
_cell_length_c   12.16718700
_cell_angle_alpha   90.00000000
_cell_angle_beta   90.00000000
_cell_angle_gamma   90.00000000
_symmetry_Int_Tables_number   1
_chemical_formula_structural   LiYEr2(Co4P3)2
_chemical_formula_sum   'Li2 Y2 Er4 Co16 P12'
_cell_volume   476.82617525
_cell_formula_units_Z   2
loop_
 _symmetry_equiv_pos_site_id
 _symmetry_equiv_pos_as_xyz
  1  'x, y, z'
loop_
 _atom_site_type_symbol
 _atom_site_label
 _atom_site_symmetry_multiplicity
 _atom_site_fract_x
 _atom_site_fract_y
 _atom_site_fract_z
 _atom_site_occupancy
  Li  Li0  1  0.250000  0.250000  0.846711  1
  Li  Li1  1  0.750000  0.750000  0.153289  1
  Y  Y2  1  0.750000  0.250000  0.476633  1
  Y  Y3  1  0.250000  0.750000  0.523367  1
  Er  Er4  1  0.250000  0.930000  0.794050  1
  Er  Er5  1  0.250000  0.570000  0.794050  1
  Er  Er6  1  0.750000  0.070000  0.205950  1
  Er  Er7  1  0.750000  0.430000  0.205950  1
  Co  Co8  1  0.250000  0.250000  0.294877  1
  Co  Co9  1  0.750000  0.750000  0.705123  1
  Co  Co10  1  0.750000  0.250000  0.012706  1
  Co  Co11  1  0.250000  0.750000  0.987294  1
  Co  Co12  1  0.250000  0.417232  0.003029  1
  Co  Co13  1  0.250000  0.082768  0.003029  1
  Co  Co14  1  0.750000  0.582768  0.996971  1
  Co  Co15  1  0.750000  0.917232  0.996971  1
  Co  Co16  1  0.250000  0.453669  0.569064  1
  Co  Co17  1  0.250000  0.046331  0.569064  1
  Co  Co18  1  0.750000  0.546331  0.430936  1
  Co  Co19  1  0.750000  0.953669  0.430936  1
  Co  Co20  1  0.250000  0.871721  0.293196  1
  Co  Co21  1  0.250000  0.628279  0.293196  1
  Co  Co22  1  0.750000  0.128279  0.706804  1
  Co  Co23  1  0.750000  0.371721  0.706804  1
  P  P24  1  0.250000  0.250000  0.115092  1
  P  P25  1  0.750000  0.750000  0.884908  1
  P  P26  1  0.250000  0.250000  0.654125  1
  P  P27  1  0.750000  0.750000  0.345875  1
  P  P28  1  0.250000  0.440238  0.383364  1
  P  P29  1  0.250000  0.059762  0.383364  1
  P  P30  1  0.750000  0.559762  0.616636  1
  P  P31  1  0.750000  0.940238  0.616636  1
  P  P32  1  0.250000  0.907212  0.107090  1
  P  P33  1  0.250000  0.592788  0.107090  1
  P  P34  1  0.750000  0.092788  0.892910  1
  P  P35  1  0.750000  0.407212  0.892910  1
