# generated using pymatgen
data_Th(ZrSe2)4
_symmetry_space_group_name_H-M   'P 1'
_cell_length_a   8.16905457
_cell_length_b   8.16905449
_cell_length_c   8.16905422
_cell_angle_alpha   55.52414717
_cell_angle_beta   55.52414799
_cell_angle_gamma   55.52414265
_symmetry_Int_Tables_number   1
_chemical_formula_structural   Th(ZrSe2)4
_chemical_formula_sum   'Th1 Zr4 Se8'
_cell_volume   345.42341148
_cell_formula_units_Z   1
loop_
 _symmetry_equiv_pos_site_id
 _symmetry_equiv_pos_as_xyz
  1  'x, y, z'
loop_
 _atom_site_type_symbol
 _atom_site_label
 _atom_site_symmetry_multiplicity
 _atom_site_fract_x
 _atom_site_fract_y
 _atom_site_fract_z
 _atom_site_occupancy
  Th  Th0  1  0.500000  0.500000  0.500000  1
  Zr  Zr1  1  0.000000  0.500000  0.500000  1
  Zr  Zr2  1  0.500000  0.000000  0.500000  1
  Zr  Zr3  1  0.500000  0.500000  0.000000  1
  Zr  Zr4  1  0.000000  0.000000  0.000000  1
  Se  Se5  1  0.242908  0.757868  0.757868  1
  Se  Se6  1  0.242132  0.242132  0.757092  1
  Se  Se7  1  0.757092  0.242132  0.242132  1
  Se  Se8  1  0.242132  0.757092  0.242132  1
  Se  Se9  1  0.257112  0.257112  0.257112  1
  Se  Se10  1  0.742888  0.742888  0.742888  1
  Se  Se11  1  0.757868  0.242908  0.757868  1
  Se  Se12  1  0.757868  0.757868  0.242908  1
