# generated using pymatgen
data_Zn21Cd(IrPt)2
_symmetry_space_group_name_H-M   'P 1'
_cell_length_a   7.96780774
_cell_length_b   8.03314852
_cell_length_c   7.97553088
_cell_angle_alpha   109.86895864
_cell_angle_beta   109.02756687
_cell_angle_gamma   109.78608111
_symmetry_Int_Tables_number   1
_chemical_formula_structural   Zn21Cd(IrPt)2
_chemical_formula_sum   'Zn21 Cd1 Ir2 Pt2'
_cell_volume   391.64373593
_cell_formula_units_Z   1
loop_
 _symmetry_equiv_pos_site_id
 _symmetry_equiv_pos_as_xyz
  1  'x, y, z'
loop_
 _atom_site_type_symbol
 _atom_site_label
 _atom_site_symmetry_multiplicity
 _atom_site_fract_x
 _atom_site_fract_y
 _atom_site_fract_z
 _atom_site_occupancy
  Zn  Zn0  1  0.617368  0.359272  0.345379  1
  Zn  Zn1  1  0.346085  0.357086  0.615540  1
  Zn  Zn2  1  0.653034  0.267305  0.006718  1
  Zn  Zn3  1  0.217789  0.215010  0.220624  1
  Zn  Zn4  1  0.998566  0.997574  0.782442  1
  Zn  Zn5  1  0.788441  0.997353  0.001888  1
  Zn  Zn6  1  0.996840  0.794678  0.999935  1
  Zn  Zn7  1  0.359575  0.357948  0.000412  1
  Zn  Zn8  1  0.000697  0.642180  0.644059  1
  Zn  Zn9  1  0.993117  0.353935  0.355857  1
  Zn  Zn10  1  0.349962  0.987711  0.350482  1
  Zn  Zn11  1  0.636478  0.989529  0.644658  1
  Zn  Zn12  1  0.640574  0.645092  0.000895  1
  Zn  Zn13  1  0.352175  0.618025  0.350030  1
  Zn  Zn14  1  0.267731  0.003015  0.648903  1
  Zn  Zn15  1  0.651506  0.002109  0.269877  1
  Zn  Zn16  1  0.267994  0.649223  0.999888  1
  Zn  Zn17  1  0.735656  0.735280  0.381651  1
  Zn  Zn18  1  0.380296  0.732156  0.731384  1
  Zn  Zn19  1  0.001519  0.650981  0.267505  1
  Zn  Zn20  1  0.008676  0.265316  0.651984  1
  Cd  Cd21  1  0.725409  0.371468  0.723742  1
  Ir  Ir22  1  0.001594  0.000820  0.346471  1
  Ir  Ir23  1  0.652718  0.662558  0.651194  1
  Pt  Pt24  1  0.009843  0.344016  0.008552  1
  Pt  Pt25  1  0.346355  0.000361  0.999928  1
