# generated using pymatgen
data_YTh2(MgPt)3
_symmetry_space_group_name_H-M   'P 1'
_cell_length_a   7.63681301
_cell_length_b   7.63681204
_cell_length_c   4.02112300
_cell_angle_alpha   90.00000000
_cell_angle_beta   90.00000000
_cell_angle_gamma   120.67634700
_symmetry_Int_Tables_number   1
_chemical_formula_structural   YTh2(MgPt)3
_chemical_formula_sum   'Y1 Th2 Mg3 Pt3'
_cell_volume   201.69812526
_cell_formula_units_Z   1
loop_
 _symmetry_equiv_pos_site_id
 _symmetry_equiv_pos_as_xyz
  1  'x, y, z'
loop_
 _atom_site_type_symbol
 _atom_site_label
 _atom_site_symmetry_multiplicity
 _atom_site_fract_x
 _atom_site_fract_y
 _atom_site_fract_z
 _atom_site_occupancy
  Y  Y0  1  0.408939  0.408939  0.000000  1
  Th  Th1  1  0.584648  0.001399  0.000000  1
  Th  Th2  1  0.001399  0.584648  0.000000  1
  Mg  Mg3  1  0.242055  0.007946  0.500000  1
  Mg  Mg4  1  0.007946  0.242055  0.500000  1
  Mg  Mg5  1  0.750829  0.750829  0.500000  1
  Pt  Pt6  1  0.332634  0.675553  0.500000  1
  Pt  Pt7  1  0.675553  0.332634  0.500000  1
  Pt  Pt8  1  0.995997  0.995997  0.000000  1
