# generated using pymatgen
data_Mg4CoAs6(IrRu)3
_symmetry_space_group_name_H-M   'P 1'
_cell_length_a   6.99987507
_cell_length_b   7.01120531
_cell_length_c   7.01120685
_cell_angle_alpha   110.01110576
_cell_angle_beta   109.17760282
_cell_angle_gamma   109.17759491
_symmetry_Int_Tables_number   1
_chemical_formula_structural   Mg4CoAs6(IrRu)3
_chemical_formula_sum   'Mg4 Co1 As6 Ir3 Ru3'
_cell_volume   265.02350838
_cell_formula_units_Z   1
loop_
 _symmetry_equiv_pos_site_id
 _symmetry_equiv_pos_as_xyz
  1  'x, y, z'
loop_
 _atom_site_type_symbol
 _atom_site_label
 _atom_site_symmetry_multiplicity
 _atom_site_fract_x
 _atom_site_fract_y
 _atom_site_fract_z
 _atom_site_occupancy
  Mg  Mg0  1  0.997482  0.997235  0.498248  1
  Mg  Mg1  1  0.500000  0.999299  0.000701  1
  Mg  Mg2  1  0.002518  0.501752  0.002765  1
  Mg  Mg3  1  0.500000  0.501829  0.498171  1
  Co  Co4  1  0.500000  0.249785  0.750215  1
  As  As5  1  0.683866  0.679650  0.988715  1
  As  As6  1  0.309137  0.304916  0.988942  1
  As  As7  1  0.000341  0.685956  0.693215  1
  As  As8  1  0.999659  0.306785  0.314044  1
  As  As9  1  0.690863  0.011058  0.695084  1
  As  As10  1  0.316134  0.011285  0.320350  1
  Ir  Ir11  1  0.500000  0.749996  0.250004  1
  Ir  Ir12  1  0.748681  0.494180  0.241953  1
  Ir  Ir13  1  0.251319  0.758047  0.505820  1
  Ru  Ru14  1  0.000000  0.999795  0.000205  1
  Ru  Ru15  1  0.251900  0.495309  0.746875  1
  Ru  Ru16  1  0.748100  0.253125  0.504691  1
