# generated using pymatgen
data_Nb2VB2
_symmetry_space_group_name_H-M   'P 1'
_cell_length_a   6.04521900
_cell_length_b   6.04521900
_cell_length_c   3.26255500
_cell_angle_alpha   90.00000000
_cell_angle_beta   90.00000000
_cell_angle_gamma   90.00000000
_symmetry_Int_Tables_number   1
_chemical_formula_structural   Nb2VB2
_chemical_formula_sum   'Nb4 V2 B4'
_cell_volume   119.22900483
_cell_formula_units_Z   2
loop_
 _symmetry_equiv_pos_site_id
 _symmetry_equiv_pos_as_xyz
  1  'x, y, z'
loop_
 _atom_site_type_symbol
 _atom_site_label
 _atom_site_symmetry_multiplicity
 _atom_site_fract_x
 _atom_site_fract_y
 _atom_site_fract_z
 _atom_site_occupancy
  Nb  Nb0  1  0.680351  0.180351  0.500000  1
  Nb  Nb1  1  0.319649  0.819649  0.500000  1
  Nb  Nb2  1  0.180351  0.319649  0.500000  1
  Nb  Nb3  1  0.819649  0.680351  0.500000  1
  V  V4  1  0.500000  0.500000  0.000000  1
  V  V5  1  0.000000  0.000000  0.000000  1
  B  B6  1  0.108151  0.608151  0.000000  1
  B  B7  1  0.891849  0.391849  0.000000  1
  B  B8  1  0.608151  0.891849  0.000000  1
  B  B9  1  0.391849  0.108151  0.000000  1
