# generated using pymatgen
data_Pa5Nb3Co16(GeP2)4
_symmetry_space_group_name_H-M   'P 1'
_cell_length_a   12.35641268
_cell_length_b   12.33999367
_cell_length_c   3.79384700
_cell_angle_alpha   90.00000000
_cell_angle_beta   90.00000000
_cell_angle_gamma   120.08195367
_symmetry_Int_Tables_number   1
_chemical_formula_structural   Pa5Nb3Co16(GeP2)4
_chemical_formula_sum   'Pa5 Nb3 Co16 Ge4 P8'
_cell_volume   500.56276834
_cell_formula_units_Z   1
loop_
 _symmetry_equiv_pos_site_id
 _symmetry_equiv_pos_as_xyz
  1  'x, y, z'
loop_
 _atom_site_type_symbol
 _atom_site_label
 _atom_site_symmetry_multiplicity
 _atom_site_fract_x
 _atom_site_fract_y
 _atom_site_fract_z
 _atom_site_occupancy
  Pa  Pa0  1  0.815150  0.997794  0.500000  1
  Pa  Pa1  1  0.000761  0.816139  0.500000  1
  Pa  Pa2  1  0.183852  0.185857  0.500000  1
  Pa  Pa3  1  0.334268  0.666028  0.000000  1
  Pa  Pa4  1  0.673576  0.339104  0.000000  1
  Nb  Nb5  1  0.441516  0.001766  0.000000  1
  Nb  Nb6  1  0.994224  0.437369  0.000000  1
  Nb  Nb7  1  0.563714  0.558535  0.000000  1
  Co  Co8  1  0.268476  0.001497  0.500000  1
  Co  Co9  1  0.992016  0.267787  0.500000  1
  Co  Co10  1  0.732508  0.723998  0.500000  1
  Co  Co11  1  0.636770  0.816039  0.000000  1
  Co  Co12  1  0.183991  0.821355  0.000000  1
  Co  Co13  1  0.178669  0.364239  0.000000  1
  Co  Co14  1  0.364649  0.181821  0.000000  1
  Co  Co15  1  0.810248  0.626110  0.000000  1
  Co  Co16  1  0.818829  0.190545  0.000000  1
  Co  Co17  1  0.525844  0.883222  0.500000  1
  Co  Co18  1  0.114496  0.641806  0.500000  1
  Co  Co19  1  0.358236  0.475715  0.500000  1
  Co  Co20  1  0.490346  0.364656  0.500000  1
  Co  Co21  1  0.867019  0.508977  0.500000  1
  Co  Co22  1  0.649474  0.128085  0.500000  1
  Co  Co23  1  0.998477  0.999337  0.000000  1
  Ge  Ge24  1  0.525492  0.691327  0.500000  1
  Ge  Ge25  1  0.309146  0.832754  0.500000  1
  Ge  Ge26  1  0.165558  0.475652  0.500000  1
  Ge  Ge27  1  0.478487  0.169436  0.500000  1
  P  P28  1  0.177221  0.001382  0.000000  1
  P  P29  1  0.998367  0.177767  0.000000  1
  P  P30  1  0.821628  0.819781  0.000000  1
  P  P31  1  0.693465  0.526522  0.500000  1
  P  P32  1  0.832838  0.305362  0.500000  1
  P  P33  1  0.638317  0.001610  0.000000  1
  P  P34  1  0.998899  0.636162  0.000000  1
  P  P35  1  0.363473  0.364465  0.000000  1
