# generated using pymatgen
data_Pr3NdGa5Ir9
_symmetry_space_group_name_H-M   'P 1'
_cell_length_a   12.40005090
_cell_length_b   12.40005149
_cell_length_c   12.40005081
_cell_angle_alpha   26.31222488
_cell_angle_beta   26.31223012
_cell_angle_gamma   26.31222426
_symmetry_Int_Tables_number   1
_chemical_formula_structural   Pr3NdGa5Ir9
_chemical_formula_sum   'Pr3 Nd1 Ga5 Ir9'
_cell_volume   330.12844077
_cell_formula_units_Z   1
loop_
 _symmetry_equiv_pos_site_id
 _symmetry_equiv_pos_as_xyz
  1  'x, y, z'
loop_
 _atom_site_type_symbol
 _atom_site_label
 _atom_site_symmetry_multiplicity
 _atom_site_fract_x
 _atom_site_fract_y
 _atom_site_fract_z
 _atom_site_occupancy
  Pr  Pr0  1  0.950774  0.950774  0.950774  1
  Pr  Pr1  1  0.049239  0.049239  0.049239  1
  Pr  Pr2  1  0.853406  0.853406  0.853406  1
  Nd  Nd3  1  0.146581  0.146581  0.146581  1
  Ga  Ga4  1  0.499993  0.499993  0.499993  1
  Ga  Ga5  1  0.721472  0.721472  0.721472  1
  Ga  Ga6  1  0.278529  0.278529  0.278529  1
  Ga  Ga7  1  0.611036  0.611036  0.611036  1
  Ga  Ga8  1  0.388966  0.388966  0.388966  1
  Ir  Ir9  1  0.500001  0.500001  0.999995  1
  Ir  Ir10  1  0.999995  0.500001  0.500001  1
  Ir  Ir11  1  0.500001  0.999995  0.500001  1
  Ir  Ir12  1  0.387180  0.895880  0.387180  1
  Ir  Ir13  1  0.387180  0.387180  0.895880  1
  Ir  Ir14  1  0.895880  0.387180  0.387180  1
  Ir  Ir15  1  0.612792  0.104182  0.612792  1
  Ir  Ir16  1  0.612792  0.612792  0.104182  1
  Ir  Ir17  1  0.104182  0.612792  0.612792  1
