# generated using pymatgen
data_U2Zn2Co4SiP
_symmetry_space_group_name_H-M   'P 1'
_cell_length_a   3.67166100
_cell_length_b   3.67166100
_cell_length_c   10.74223600
_cell_angle_alpha   90.00000000
_cell_angle_beta   90.00000000
_cell_angle_gamma   90.00000000
_symmetry_Int_Tables_number   1
_chemical_formula_structural   U2Zn2Co4SiP
_chemical_formula_sum   'U2 Zn2 Co4 Si1 P1'
_cell_volume   144.81709865
_cell_formula_units_Z   1
loop_
 _symmetry_equiv_pos_site_id
 _symmetry_equiv_pos_as_xyz
  1  'x, y, z'
loop_
 _atom_site_type_symbol
 _atom_site_label
 _atom_site_symmetry_multiplicity
 _atom_site_fract_x
 _atom_site_fract_y
 _atom_site_fract_z
 _atom_site_occupancy
  U  U0  1  0.500000  0.000000  0.251295  1
  U  U1  1  0.000000  0.500000  0.743076  1
  Zn  Zn2  1  0.500000  0.500000  0.997841  1
  Zn  Zn3  1  0.000000  0.000000  0.997841  1
  Co  Co4  1  0.000000  0.500000  0.170985  1
  Co  Co5  1  0.500000  0.000000  0.825872  1
  Co  Co6  1  0.000000  0.000000  0.505922  1
  Co  Co7  1  0.500000  0.500000  0.505922  1
  Si  Si8  1  0.000000  0.500000  0.383220  1
  P  P9  1  0.500000  0.000000  0.618026  1
