# generated using pymatgen
data_NaEr3(Ga2Ag)4
_symmetry_space_group_name_H-M   'P 1'
_cell_length_a   4.31770600
_cell_length_b   6.94416525
_cell_length_c   10.33668287
_cell_angle_alpha   90.33287223
_cell_angle_beta   90.00000000
_cell_angle_gamma   90.00000000
_symmetry_Int_Tables_number   1
_chemical_formula_structural   NaEr3(Ga2Ag)4
_chemical_formula_sum   'Na1 Er3 Ga8 Ag4'
_cell_volume   309.91812569
_cell_formula_units_Z   1
loop_
 _symmetry_equiv_pos_site_id
 _symmetry_equiv_pos_as_xyz
  1  'x, y, z'
loop_
 _atom_site_type_symbol
 _atom_site_label
 _atom_site_symmetry_multiplicity
 _atom_site_fract_x
 _atom_site_fract_y
 _atom_site_fract_z
 _atom_site_occupancy
  Na  Na0  1  0.250000  0.268608  0.675983  1
  Er  Er1  1  0.250000  0.778366  0.825030  1
  Er  Er2  1  0.750000  0.225599  0.172533  1
  Er  Er3  1  0.750000  0.721254  0.328574  1
  Ga  Ga4  1  0.250000  0.702846  0.533470  1
  Ga  Ga5  1  0.750000  0.302365  0.467324  1
  Ga  Ga6  1  0.750000  0.792198  0.037273  1
  Ga  Ga7  1  0.250000  0.201751  0.964462  1
  Ga  Ga8  1  0.250000  0.928046  0.154116  1
  Ga  Ga9  1  0.750000  0.070353  0.849180  1
  Ga  Ga10  1  0.750000  0.570387  0.651777  1
  Ga  Ga11  1  0.250000  0.428964  0.342335  1
  Ag  Ag12  1  0.250000  0.545433  0.096596  1
  Ag  Ag13  1  0.750000  0.456289  0.901796  1
  Ag  Ag14  1  0.750000  0.960439  0.597996  1
  Ag  Ag15  1  0.250000  0.047102  0.401558  1
