# generated using pymatgen
data_TbDy2Tm2Sn3
_symmetry_space_group_name_H-M   'P 1'
_cell_length_a   6.49859500
_cell_length_b   8.94713681
_cell_length_c   8.95064506
_cell_angle_alpha   120.00589870
_cell_angle_beta   89.99964445
_cell_angle_gamma   89.99994802
_symmetry_Int_Tables_number   1
_chemical_formula_structural   TbDy2Tm2Sn3
_chemical_formula_sum   'Tb2 Dy4 Tm4 Sn6'
_cell_volume   450.67420357
_cell_formula_units_Z   2
loop_
 _symmetry_equiv_pos_site_id
 _symmetry_equiv_pos_as_xyz
  1  'x, y, z'
loop_
 _atom_site_type_symbol
 _atom_site_label
 _atom_site_symmetry_multiplicity
 _atom_site_fract_x
 _atom_site_fract_y
 _atom_site_fract_z
 _atom_site_occupancy
  Tb  Tb0  1  0.750003  0.239475  0.000044  1
  Tb  Tb1  1  0.749997  0.760441  0.760541  1
  Dy  Dy2  1  0.749999  0.999944  0.239562  1
  Dy  Dy3  1  0.250002  0.760580  0.000041  1
  Dy  Dy4  1  0.249999  0.239506  0.239490  1
  Dy  Dy5  1  0.249997  0.000055  0.760454  1
  Tm  Tm6  1  0.499961  0.333330  0.666693  1
  Tm  Tm7  1  0.499960  0.666651  0.333271  1
  Tm  Tm8  1  0.000037  0.666669  0.333269  1
  Tm  Tm9  1  0.000036  0.333349  0.666694  1
  Sn  Sn10  1  0.749999  0.604475  0.000116  1
  Sn  Sn11  1  0.750003  0.395433  0.395534  1
  Sn  Sn12  1  0.750002  0.000012  0.604274  1
  Sn  Sn13  1  0.249996  0.395560  0.000002  1
  Sn  Sn14  1  0.250004  0.604537  0.604559  1
  Sn  Sn15  1  0.250003  0.999983  0.395455  1
