# generated using pymatgen
data_Hf6Co13Ni5P12
_symmetry_space_group_name_H-M   'P 1'
_cell_length_a   3.61025700
_cell_length_b   10.28747711
_cell_length_c   11.90686496
_cell_angle_alpha   89.95036849
_cell_angle_beta   90.00000000
_cell_angle_gamma   90.00000000
_symmetry_Int_Tables_number   1
_chemical_formula_structural   Hf6Co13Ni5P12
_chemical_formula_sum   'Hf6 Co13 Ni5 P12'
_cell_volume   442.22599308
_cell_formula_units_Z   1
loop_
 _symmetry_equiv_pos_site_id
 _symmetry_equiv_pos_as_xyz
  1  'x, y, z'
loop_
 _atom_site_type_symbol
 _atom_site_label
 _atom_site_symmetry_multiplicity
 _atom_site_fract_x
 _atom_site_fract_y
 _atom_site_fract_z
 _atom_site_occupancy
  Hf  Hf0  1  0.000000  0.500713  0.524138  1
  Hf  Hf1  1  0.500000  0.999555  0.475574  1
  Hf  Hf2  1  0.500000  0.819609  0.206417  1
  Hf  Hf3  1  0.500000  0.179653  0.207458  1
  Hf  Hf4  1  0.000000  0.679923  0.793274  1
  Hf  Hf5  1  0.000000  0.320330  0.792508  1
  Co  Co6  1  0.000000  0.498426  0.988117  1
  Co  Co7  1  0.500000  0.001264  0.011890  1
  Co  Co8  1  0.500000  0.667714  0.996372  1
  Co  Co9  1  0.000000  0.170113  0.005640  1
  Co  Co10  1  0.000000  0.832367  0.005214  1
  Co  Co11  1  0.500000  0.300738  0.433302  1
  Co  Co12  1  0.500000  0.700117  0.433223  1
  Co  Co13  1  0.000000  0.199362  0.566380  1
  Co  Co14  1  0.000000  0.801083  0.566801  1
  Co  Co15  1  0.500000  0.872309  0.708200  1
  Co  Co16  1  0.500000  0.126400  0.705482  1
  Co  Co17  1  0.000000  0.627770  0.292268  1
  Co  Co18  1  0.000000  0.373165  0.294206  1
  Ni  Ni19  1  0.500000  0.495737  0.164360  1
  Ni  Ni20  1  0.000000  0.000278  0.836991  1
  Ni  Ni21  1  0.500000  0.499952  0.701332  1
  Ni  Ni22  1  0.000000  0.000353  0.297241  1
  Ni  Ni23  1  0.500000  0.331145  0.994069  1
  P  P24  1  0.500000  0.502101  0.879344  1
  P  P25  1  0.000000  0.000362  0.118996  1
  P  P26  1  0.500000  0.500951  0.351877  1
  P  P27  1  0.000000  0.999826  0.648801  1
  P  P28  1  0.500000  0.315994  0.616332  1
  P  P29  1  0.500000  0.684572  0.616680  1
  P  P30  1  0.000000  0.183844  0.383447  1
  P  P31  1  0.000000  0.816090  0.382904  1
  P  P32  1  0.500000  0.842780  0.889538  1
  P  P33  1  0.500000  0.154622  0.886099  1
  P  P34  1  0.000000  0.655866  0.111070  1
  P  P35  1  0.000000  0.344916  0.114460  1
