# generated using pymatgen
data_LiEr3S4
_symmetry_space_group_name_H-M   'P 1'
_cell_length_a   3.84184700
_cell_length_b   5.43760200
_cell_length_c   7.67122500
_cell_angle_alpha   90.00000000
_cell_angle_beta   90.00000000
_cell_angle_gamma   90.00000000
_symmetry_Int_Tables_number   1
_chemical_formula_structural   LiEr3S4
_chemical_formula_sum   'Li1 Er3 S4'
_cell_volume   160.25522670
_cell_formula_units_Z   1
loop_
 _symmetry_equiv_pos_site_id
 _symmetry_equiv_pos_as_xyz
  1  'x, y, z'
loop_
 _atom_site_type_symbol
 _atom_site_label
 _atom_site_symmetry_multiplicity
 _atom_site_fract_x
 _atom_site_fract_y
 _atom_site_fract_z
 _atom_site_occupancy
  Li  Li0  1  0.000000  0.000000  0.000000  1
  Er  Er1  1  0.500000  0.500000  0.250119  1
  Er  Er2  1  0.000000  0.000000  0.500000  1
  Er  Er3  1  0.500000  0.500000  0.749881  1
  S  S4  1  0.000000  0.500000  0.500000  1
  S  S5  1  0.500000  0.000000  0.755952  1
  S  S6  1  0.000000  0.500000  0.000000  1
  S  S7  1  0.500000  0.000000  0.244048  1
