# generated using pymatgen
data_MgCuNi20B6As
_symmetry_space_group_name_H-M   'P 1'
_cell_length_a   7.42116043
_cell_length_b   7.42116059
_cell_length_c   7.42116100
_cell_angle_alpha   59.99999370
_cell_angle_beta   59.99999298
_cell_angle_gamma   59.99999861
_symmetry_Int_Tables_number   1
_chemical_formula_structural   MgCuNi20B6As
_chemical_formula_sum   'Mg1 Cu1 Ni20 B6 As1'
_cell_volume   289.00173954
_cell_formula_units_Z   1
loop_
 _symmetry_equiv_pos_site_id
 _symmetry_equiv_pos_as_xyz
  1  'x, y, z'
loop_
 _atom_site_type_symbol
 _atom_site_label
 _atom_site_symmetry_multiplicity
 _atom_site_fract_x
 _atom_site_fract_y
 _atom_site_fract_z
 _atom_site_occupancy
  Mg  Mg0  1  0.250000  0.250000  0.250000  1
  Cu  Cu1  1  0.000000  0.000000  0.000000  1
  Ni  Ni2  1  0.622909  0.622909  0.131273  1
  Ni  Ni3  1  0.622909  0.131273  0.622909  1
  Ni  Ni4  1  0.131273  0.622909  0.622909  1
  Ni  Ni5  1  0.622909  0.622909  0.622909  1
  Ni  Ni6  1  0.389015  0.389015  0.832955  1
  Ni  Ni7  1  0.389015  0.832955  0.389015  1
  Ni  Ni8  1  0.832955  0.389015  0.389015  1
  Ni  Ni9  1  0.389015  0.389015  0.389015  1
  Ni  Ni10  1  0.002020  0.002020  0.335417  1
  Ni  Ni11  1  0.660542  0.002020  0.335417  1
  Ni  Ni12  1  0.002020  0.660542  0.335417  1
  Ni  Ni13  1  0.660542  0.335417  0.002020  1
  Ni  Ni14  1  0.002020  0.335417  0.002020  1
  Ni  Ni15  1  0.002020  0.335417  0.660542  1
  Ni  Ni16  1  0.335417  0.660542  0.002020  1
  Ni  Ni17  1  0.335417  0.002020  0.660542  1
  Ni  Ni18  1  0.335417  0.002020  0.002020  1
  Ni  Ni19  1  0.002020  0.002020  0.660542  1
  Ni  Ni20  1  0.002020  0.660542  0.002020  1
  Ni  Ni21  1  0.660542  0.002020  0.002020  1
  B  B22  1  0.727385  0.727385  0.272615  1
  B  B23  1  0.272615  0.727385  0.272615  1
  B  B24  1  0.727385  0.272615  0.272615  1
  B  B25  1  0.272615  0.272615  0.727385  1
  B  B26  1  0.727385  0.272615  0.727385  1
  B  B27  1  0.272615  0.727385  0.727385  1
  As  As28  1  0.750000  0.750000  0.750000  1
