# generated using pymatgen
data_TbErAlCdPd2
_symmetry_space_group_name_H-M   'P 1'
_cell_length_a   4.38010500
_cell_length_b   6.97022583
_cell_length_c   8.19545769
_cell_angle_alpha   87.85310737
_cell_angle_beta   90.00000000
_cell_angle_gamma   90.00000000
_symmetry_Int_Tables_number   1
_chemical_formula_structural   TbErAlCdPd2
_chemical_formula_sum   'Tb2 Er2 Al2 Cd2 Pd4'
_cell_volume   250.03432398
_cell_formula_units_Z   2
loop_
 _symmetry_equiv_pos_site_id
 _symmetry_equiv_pos_as_xyz
  1  'x, y, z'
loop_
 _atom_site_type_symbol
 _atom_site_label
 _atom_site_symmetry_multiplicity
 _atom_site_fract_x
 _atom_site_fract_y
 _atom_site_fract_z
 _atom_site_occupancy
  Tb  Tb0  1  0.250000  0.036895  0.688101  1
  Tb  Tb1  1  0.750000  0.963105  0.311899  1
  Er  Er2  1  0.250000  0.538072  0.824314  1
  Er  Er3  1  0.750000  0.461928  0.175686  1
  Al  Al4  1  0.250000  0.141988  0.056780  1
  Al  Al5  1  0.750000  0.858012  0.943220  1
  Cd  Cd6  1  0.250000  0.641764  0.436222  1
  Cd  Cd7  1  0.750000  0.358236  0.563778  1
  Pd  Pd8  1  0.750000  0.756439  0.641702  1
  Pd  Pd9  1  0.250000  0.243561  0.358298  1
  Pd  Pd10  1  0.750000  0.230905  0.898270  1
  Pd  Pd11  1  0.250000  0.769095  0.101730  1
