# generated using pymatgen
data_Ba3Yb(PPt3)8
_symmetry_space_group_name_H-M   'P 1'
_cell_length_a   8.63736105
_cell_length_b   8.63736111
_cell_length_c   8.63736100
_cell_angle_alpha   90.00634161
_cell_angle_beta   90.00634161
_cell_angle_gamma   90.00634091
_symmetry_Int_Tables_number   1
_chemical_formula_structural   Ba3Yb(PPt3)8
_chemical_formula_sum   'Ba3 Yb1 P8 Pt24'
_cell_volume   644.38172361
_cell_formula_units_Z   1
loop_
 _symmetry_equiv_pos_site_id
 _symmetry_equiv_pos_as_xyz
  1  'x, y, z'
loop_
 _atom_site_type_symbol
 _atom_site_label
 _atom_site_symmetry_multiplicity
 _atom_site_fract_x
 _atom_site_fract_y
 _atom_site_fract_z
 _atom_site_occupancy
  Ba  Ba0  1  0.500000  0.500000  0.000000  1
  Ba  Ba1  1  0.500000  0.000000  0.500000  1
  Ba  Ba2  1  0.000000  0.500000  0.500000  1
  Yb  Yb3  1  0.000000  0.000000  0.000000  1
  P  P4  1  0.808348  0.304928  0.196679  1
  P  P5  1  0.196679  0.808348  0.304928  1
  P  P6  1  0.695194  0.695194  0.695194  1
  P  P7  1  0.304928  0.196679  0.808348  1
  P  P8  1  0.191652  0.695072  0.803321  1
  P  P9  1  0.803321  0.191652  0.695072  1
  P  P10  1  0.304806  0.304806  0.304806  1
  P  P11  1  0.695072  0.803321  0.191652  1
  Pt  Pt12  1  0.425241  0.843088  0.155057  1
  Pt  Pt13  1  0.577865  0.341623  0.344640  1
  Pt  Pt14  1  0.080264  0.151025  0.665228  1
  Pt  Pt15  1  0.922288  0.664774  0.850948  1
  Pt  Pt16  1  0.155057  0.425241  0.843088  1
  Pt  Pt17  1  0.344640  0.577865  0.341623  1
  Pt  Pt18  1  0.665228  0.080264  0.151025  1
  Pt  Pt19  1  0.850948  0.922288  0.664774  1
  Pt  Pt20  1  0.843088  0.155057  0.425241  1
  Pt  Pt21  1  0.341623  0.344640  0.577865  1
  Pt  Pt22  1  0.151025  0.665228  0.080264  1
  Pt  Pt23  1  0.664774  0.850948  0.922288  1
  Pt  Pt24  1  0.574759  0.156912  0.844943  1
  Pt  Pt25  1  0.422135  0.658377  0.655360  1
  Pt  Pt26  1  0.919736  0.848975  0.334772  1
  Pt  Pt27  1  0.077712  0.335226  0.149052  1
  Pt  Pt28  1  0.844943  0.574759  0.156912  1
  Pt  Pt29  1  0.655360  0.422135  0.658377  1
  Pt  Pt30  1  0.334772  0.919736  0.848975  1
  Pt  Pt31  1  0.149052  0.077712  0.335226  1
  Pt  Pt32  1  0.156912  0.844943  0.574759  1
  Pt  Pt33  1  0.658377  0.655360  0.422135  1
  Pt  Pt34  1  0.848975  0.334772  0.919736  1
  Pt  Pt35  1  0.335226  0.149052  0.077712  1
