# generated using pymatgen
data_LiPr3(P3Ir4)2
_symmetry_space_group_name_H-M   'P 1'
_cell_length_a   4.00625800
_cell_length_b   11.44075100
_cell_length_c   12.94692200
_cell_angle_alpha   90.00000000
_cell_angle_beta   90.00000000
_cell_angle_gamma   90.00000000
_symmetry_Int_Tables_number   1
_chemical_formula_structural   LiPr3(P3Ir4)2
_chemical_formula_sum   'Li2 Pr6 P12 Ir16'
_cell_volume   593.41699395
_cell_formula_units_Z   2
loop_
 _symmetry_equiv_pos_site_id
 _symmetry_equiv_pos_as_xyz
  1  'x, y, z'
loop_
 _atom_site_type_symbol
 _atom_site_label
 _atom_site_symmetry_multiplicity
 _atom_site_fract_x
 _atom_site_fract_y
 _atom_site_fract_z
 _atom_site_occupancy
  Li  Li0  1  0.500000  0.500000  0.153145  1
  Li  Li1  1  0.000000  0.000000  0.846855  1
  Pr  Pr2  1  0.000000  0.500000  0.516497  1
  Pr  Pr3  1  0.500000  0.000000  0.483503  1
  Pr  Pr4  1  0.500000  0.818658  0.203896  1
  Pr  Pr5  1  0.500000  0.181342  0.203896  1
  Pr  Pr6  1  0.000000  0.681342  0.796104  1
  Pr  Pr7  1  0.000000  0.318658  0.796104  1
  P  P8  1  0.500000  0.500000  0.884485  1
  P  P9  1  0.000000  0.000000  0.115515  1
  P  P10  1  0.500000  0.500000  0.339572  1
  P  P11  1  0.000000  0.000000  0.660428  1
  P  P12  1  0.500000  0.310731  0.617165  1
  P  P13  1  0.500000  0.689269  0.617165  1
  P  P14  1  0.000000  0.189269  0.382835  1
  P  P15  1  0.000000  0.810731  0.382835  1
  P  P16  1  0.500000  0.844372  0.893552  1
  P  P17  1  0.500000  0.155628  0.893552  1
  P  P18  1  0.000000  0.655628  0.106448  1
  P  P19  1  0.000000  0.344372  0.106448  1
  Ir  Ir20  1  0.500000  0.500000  0.702484  1
  Ir  Ir21  1  0.000000  0.000000  0.297516  1
  Ir  Ir22  1  0.000000  0.500000  0.986165  1
  Ir  Ir23  1  0.500000  0.000000  0.013835  1
  Ir  Ir24  1  0.500000  0.332885  0.995922  1
  Ir  Ir25  1  0.500000  0.667115  0.995922  1
  Ir  Ir26  1  0.000000  0.167115  0.004078  1
  Ir  Ir27  1  0.000000  0.832885  0.004078  1
  Ir  Ir28  1  0.500000  0.289212  0.429653  1
  Ir  Ir29  1  0.500000  0.710788  0.429653  1
  Ir  Ir30  1  0.000000  0.210788  0.570347  1
  Ir  Ir31  1  0.000000  0.789212  0.570347  1
  Ir  Ir32  1  0.500000  0.875496  0.710280  1
  Ir  Ir33  1  0.500000  0.124504  0.710280  1
  Ir  Ir34  1  0.000000  0.624504  0.289720  1
  Ir  Ir35  1  0.000000  0.375496  0.289720  1
