# generated using pymatgen
data_TbErSi2NiOs
_symmetry_space_group_name_H-M   'P 1'
_cell_length_a   4.22794100
_cell_length_b   6.89164267
_cell_length_c   7.18468462
_cell_angle_alpha   92.03249986
_cell_angle_beta   90.00000000
_cell_angle_gamma   90.00000000
_symmetry_Int_Tables_number   1
_chemical_formula_structural   TbErSi2NiOs
_chemical_formula_sum   'Tb2 Er2 Si4 Ni2 Os2'
_cell_volume   209.21174645
_cell_formula_units_Z   2
loop_
 _symmetry_equiv_pos_site_id
 _symmetry_equiv_pos_as_xyz
  1  'x, y, z'
loop_
 _atom_site_type_symbol
 _atom_site_label
 _atom_site_symmetry_multiplicity
 _atom_site_fract_x
 _atom_site_fract_y
 _atom_site_fract_z
 _atom_site_occupancy
  Tb  Tb0  1  0.750000  0.009808  0.700714  1
  Tb  Tb1  1  0.250000  0.990192  0.299286  1
  Er  Er2  1  0.250000  0.488013  0.181453  1
  Er  Er3  1  0.750000  0.511987  0.818547  1
  Si  Si4  1  0.250000  0.801442  0.896106  1
  Si  Si5  1  0.750000  0.198558  0.103894  1
  Si  Si6  1  0.750000  0.698203  0.400544  1
  Si  Si7  1  0.250000  0.301797  0.599456  1
  Ni  Ni8  1  0.750000  0.836050  0.073395  1
  Ni  Ni9  1  0.250000  0.163950  0.926605  1
  Os  Os10  1  0.250000  0.655975  0.570810  1
  Os  Os11  1  0.750000  0.344025  0.429190  1
