# generated using pymatgen
data_Nd2CrNiO6
_symmetry_space_group_name_H-M   'P 1'
_cell_length_a   5.47213280
_cell_length_b   5.62570000
_cell_length_c   7.72477554
_cell_angle_alpha   90.00000000
_cell_angle_beta   90.49526545
_cell_angle_gamma   90.00000000
_symmetry_Int_Tables_number   1
_chemical_formula_structural   Nd2CrNiO6
_chemical_formula_sum   'Nd4 Cr2 Ni2 O12'
_cell_volume   237.79506701
_cell_formula_units_Z   2
loop_
 _symmetry_equiv_pos_site_id
 _symmetry_equiv_pos_as_xyz
  1  'x, y, z'
loop_
 _atom_site_type_symbol
 _atom_site_label
 _atom_site_symmetry_multiplicity
 _atom_site_fract_x
 _atom_site_fract_y
 _atom_site_fract_z
 _atom_site_occupancy
  Nd  Nd0  1  0.015510  0.945495  0.748211  1
  Nd  Nd1  1  0.484490  0.445495  0.751789  1
  Nd  Nd2  1  0.515510  0.554505  0.248211  1
  Nd  Nd3  1  0.984490  0.054505  0.251789  1
  Cr  Cr4  1  0.500000  0.000000  0.500000  1
  Cr  Cr5  1  0.000000  0.500000  0.000000  1
  Ni  Ni6  1  0.000000  0.500000  0.500000  1
  Ni  Ni7  1  0.500000  0.000000  0.000000  1
  O  O8  1  0.694809  0.281488  0.452344  1
  O  O9  1  0.805191  0.781488  0.047656  1
  O  O10  1  0.211510  0.202616  0.548692  1
  O  O11  1  0.288490  0.702616  0.951308  1
  O  O12  1  0.305191  0.718512  0.547656  1
  O  O13  1  0.194809  0.218512  0.952344  1
  O  O14  1  0.788490  0.797384  0.451308  1
  O  O15  1  0.711510  0.297384  0.048692  1
  O  O16  1  0.089349  0.476193  0.240551  1
  O  O17  1  0.410651  0.976193  0.259449  1
  O  O18  1  0.589349  0.023807  0.740551  1
  O  O19  1  0.910651  0.523807  0.759449  1
