# generated using pymatgen
data_ThU2(SnRu)3
_symmetry_space_group_name_H-M   'P 1'
_cell_length_a   7.48265326
_cell_length_b   7.32349723
_cell_length_c   4.04580400
_cell_angle_alpha   90.00000000
_cell_angle_beta   90.00000000
_cell_angle_gamma   119.29885024
_symmetry_Int_Tables_number   1
_chemical_formula_structural   ThU2(SnRu)3
_chemical_formula_sum   'Th1 U2 Sn3 Ru3'
_cell_volume   193.34585086
_cell_formula_units_Z   1
loop_
 _symmetry_equiv_pos_site_id
 _symmetry_equiv_pos_as_xyz
  1  'x, y, z'
loop_
 _atom_site_type_symbol
 _atom_site_label
 _atom_site_symmetry_multiplicity
 _atom_site_fract_x
 _atom_site_fract_y
 _atom_site_fract_z
 _atom_site_occupancy
  Th  Th0  1  0.000000  0.412577  0.500000  1
  U  U1  1  0.586226  0.584079  0.500000  1
  U  U2  1  0.413774  0.997854  0.500000  1
  Sn  Sn3  1  0.000000  0.747341  0.000000  1
  Sn  Sn4  1  0.251510  0.250621  0.000000  1
  Sn  Sn5  1  0.748490  0.999110  0.000000  1
  Ru  Ru6  1  0.350569  0.683413  0.000000  1
  Ru  Ru7  1  0.649431  0.332842  0.000000  1
  Ru  Ru8  1  0.000000  0.992163  0.500000  1
