# generated using pymatgen
data_Mg4SiAsPd10
_symmetry_space_group_name_H-M   'P 1'
_cell_length_a   4.15417500
_cell_length_b   5.51837549
_cell_length_c   10.69452432
_cell_angle_alpha   90.20063031
_cell_angle_beta   90.00000000
_cell_angle_gamma   90.00000000
_symmetry_Int_Tables_number   1
_chemical_formula_structural   Mg4SiAsPd10
_chemical_formula_sum   'Mg4 Si1 As1 Pd10'
_cell_volume   245.16295431
_cell_formula_units_Z   1
loop_
 _symmetry_equiv_pos_site_id
 _symmetry_equiv_pos_as_xyz
  1  'x, y, z'
loop_
 _atom_site_type_symbol
 _atom_site_label
 _atom_site_symmetry_multiplicity
 _atom_site_fract_x
 _atom_site_fract_y
 _atom_site_fract_z
 _atom_site_occupancy
  Mg  Mg0  1  0.500000  0.158371  0.142159  1
  Mg  Mg1  1  0.500000  0.841629  0.857841  1
  Mg  Mg2  1  0.500000  0.341000  0.646313  1
  Mg  Mg3  1  0.500000  0.659000  0.353687  1
  Si  Si4  1  0.000000  0.500000  0.000000  1
  As  As5  1  0.000000  0.000000  0.500000  1
  Pd  Pd6  1  0.500000  0.182296  0.394797  1
  Pd  Pd7  1  0.500000  0.817704  0.605203  1
  Pd  Pd8  1  0.500000  0.324559  0.900556  1
  Pd  Pd9  1  0.500000  0.675441  0.099444  1
  Pd  Pd10  1  0.000000  0.417061  0.229925  1
  Pd  Pd11  1  0.000000  0.582939  0.770075  1
  Pd  Pd12  1  0.000000  0.083442  0.738039  1
  Pd  Pd13  1  0.000000  0.916558  0.261961  1
  Pd  Pd14  1  0.000000  0.000000  0.000000  1
  Pd  Pd15  1  0.000000  0.500000  0.500000  1
