# generated using pymatgen
data_Ho2Si14Ir5Ru
_symmetry_space_group_name_H-M   'P 1'
_cell_length_a   8.00831684
_cell_length_b   8.00831662
_cell_length_c   8.03774774
_cell_angle_alpha   56.77632865
_cell_angle_beta   56.77632930
_cell_angle_gamma   56.84371773
_symmetry_Int_Tables_number   1
_chemical_formula_structural   Ho2Si14Ir5Ru
_chemical_formula_sum   'Ho2 Si14 Ir5 Ru1'
_cell_volume   337.57179392
_cell_formula_units_Z   1
loop_
 _symmetry_equiv_pos_site_id
 _symmetry_equiv_pos_as_xyz
  1  'x, y, z'
loop_
 _atom_site_type_symbol
 _atom_site_label
 _atom_site_symmetry_multiplicity
 _atom_site_fract_x
 _atom_site_fract_y
 _atom_site_fract_z
 _atom_site_occupancy
  Ho  Ho0  1  0.000857  0.001721  0.998098  1
  Ho  Ho1  1  0.498279  0.499143  0.501902  1
  Si  Si2  1  0.753754  0.746246  0.750000  1
  Si  Si3  1  0.249477  0.250523  0.250000  1
  Si  Si4  1  0.850421  0.065364  0.672000  1
  Si  Si5  1  0.671496  0.851962  0.064465  1
  Si  Si6  1  0.064378  0.669601  0.850568  1
  Si  Si7  1  0.648038  0.828504  0.435535  1
  Si  Si8  1  0.434636  0.649579  0.828000  1
  Si  Si9  1  0.830399  0.435622  0.649432  1
  Si  Si10  1  0.171275  0.563340  0.355201  1
  Si  Si11  1  0.565985  0.351140  0.171305  1
  Si  Si12  1  0.349212  0.174468  0.566149  1
  Si  Si13  1  0.936660  0.328725  0.144799  1
  Si  Si14  1  0.325532  0.150788  0.933851  1
  Si  Si15  1  0.148860  0.934015  0.328695  1
  Ir  Ir16  1  0.250175  0.928534  0.571294  1
  Ir  Ir17  1  0.571466  0.249825  0.928706  1
  Ir  Ir18  1  0.927012  0.572988  0.250000  1
  Ir  Ir19  1  0.428443  0.750145  0.071515  1
  Ir  Ir20  1  0.749855  0.071557  0.428485  1
  Ru  Ru21  1  0.073789  0.426211  0.750000  1
