# generated using pymatgen
data_Hf18TiRe7RuS
_symmetry_space_group_name_H-M   'P 1'
_cell_length_a   8.60862500
_cell_length_b   8.60862493
_cell_length_c   8.55138700
_cell_angle_alpha   89.99997598
_cell_angle_beta   89.99997329
_cell_angle_gamma   120.00001844
_symmetry_Int_Tables_number   1
_chemical_formula_structural   Hf18TiRe7RuS
_chemical_formula_sum   'Hf18 Ti1 Re7 Ru1 S1'
_cell_volume   548.82601446
_cell_formula_units_Z   1
loop_
 _symmetry_equiv_pos_site_id
 _symmetry_equiv_pos_as_xyz
  1  'x, y, z'
loop_
 _atom_site_type_symbol
 _atom_site_label
 _atom_site_symmetry_multiplicity
 _atom_site_fract_x
 _atom_site_fract_y
 _atom_site_fract_z
 _atom_site_occupancy
  Hf  Hf0  1  0.196674  0.803326  0.445955  1
  Hf  Hf1  1  0.196672  0.393345  0.445953  1
  Hf  Hf2  1  0.606657  0.803329  0.445953  1
  Hf  Hf3  1  0.804145  0.195854  0.550667  1
  Hf  Hf4  1  0.804147  0.608295  0.550667  1
  Hf  Hf5  1  0.391707  0.195854  0.550668  1
  Hf  Hf6  1  0.806606  0.193393  0.948722  1
  Hf  Hf7  1  0.806607  0.613214  0.948722  1
  Hf  Hf8  1  0.386784  0.193392  0.948722  1
  Hf  Hf9  1  0.197173  0.802825  0.055279  1
  Hf  Hf10  1  0.197175  0.394349  0.055278  1
  Hf  Hf11  1  0.605652  0.802826  0.055277  1
  Hf  Hf12  1  0.542431  0.457568  0.248834  1
  Hf  Hf13  1  0.542431  0.084860  0.248835  1
  Hf  Hf14  1  0.915138  0.457568  0.248835  1
  Hf  Hf15  1  0.454821  0.545178  0.750806  1
  Hf  Hf16  1  0.454822  0.909643  0.750806  1
  Hf  Hf17  1  0.090355  0.545177  0.750806  1
  Ti  Ti18  1  0.000001  0.000000  0.497372  1
  Re  Re19  1  0.888100  0.111900  0.251848  1
  Re  Re20  1  0.888100  0.776198  0.251848  1
  Re  Re21  1  0.223806  0.111903  0.251849  1
  Re  Re22  1  0.110908  0.889092  0.748036  1
  Re  Re23  1  0.110908  0.221816  0.748036  1
  Re  Re24  1  0.778184  0.889092  0.748035  1
  Re  Re25  1  0.999999  0.000000  0.000065  1
  Ru  Ru26  1  0.333335  0.666668  0.249678  1
  S  S27  1  0.666666  0.333333  0.752446  1
