# generated using pymatgen
data_Er3Al12CuRu3
_symmetry_space_group_name_H-M   'P 1'
_cell_length_a   8.81159810
_cell_length_b   8.81159657
_cell_length_c   9.45796700
_cell_angle_alpha   90.00000000
_cell_angle_beta   90.00000000
_cell_angle_gamma   119.53966613
_symmetry_Int_Tables_number   1
_chemical_formula_structural   Er3Al12CuRu3
_chemical_formula_sum   'Er6 Al24 Cu2 Ru6'
_cell_volume   638.90106344
_cell_formula_units_Z   2
loop_
 _symmetry_equiv_pos_site_id
 _symmetry_equiv_pos_as_xyz
  1  'x, y, z'
loop_
 _atom_site_type_symbol
 _atom_site_label
 _atom_site_symmetry_multiplicity
 _atom_site_fract_x
 _atom_site_fract_y
 _atom_site_fract_z
 _atom_site_occupancy
  Er  Er0  1  0.188726  0.385047  0.250000  1
  Er  Er1  1  0.811274  0.614953  0.750000  1
  Er  Er2  1  0.614953  0.811274  0.250000  1
  Er  Er3  1  0.385047  0.188726  0.750000  1
  Er  Er4  1  0.194829  0.805171  0.250000  1
  Er  Er5  1  0.805171  0.194829  0.750000  1
  Al  Al6  1  0.332390  0.667610  0.020679  1
  Al  Al7  1  0.667610  0.332390  0.979321  1
  Al  Al8  1  0.667610  0.332390  0.520679  1
  Al  Al9  1  0.332390  0.667610  0.479321  1
  Al  Al10  1  0.157511  0.323969  0.578596  1
  Al  Al11  1  0.842489  0.676031  0.421404  1
  Al  Al12  1  0.676031  0.842489  0.578596  1
  Al  Al13  1  0.842489  0.676031  0.078596  1
  Al  Al14  1  0.323969  0.157511  0.421404  1
  Al  Al15  1  0.157511  0.323969  0.921404  1
  Al  Al16  1  0.163655  0.836345  0.577633  1
  Al  Al17  1  0.323969  0.157511  0.078596  1
  Al  Al18  1  0.836345  0.163655  0.422367  1
  Al  Al19  1  0.676031  0.842489  0.921404  1
  Al  Al20  1  0.836345  0.163655  0.077633  1
  Al  Al21  1  0.163655  0.836345  0.922367  1
  Al  Al22  1  0.559820  0.121594  0.250000  1
  Al  Al23  1  0.440180  0.878406  0.750000  1
  Al  Al24  1  0.878406  0.440180  0.250000  1
  Al  Al25  1  0.121594  0.559820  0.750000  1
  Al  Al26  1  0.560251  0.439749  0.250000  1
  Al  Al27  1  0.439749  0.560251  0.750000  1
  Al  Al28  1  0.998132  0.001868  0.250000  1
  Al  Al29  1  0.001868  0.998132  0.750000  1
  Cu  Cu30  1  0.500000  0.500000  0.000000  1
  Cu  Cu31  1  0.500000  0.500000  0.500000  1
  Ru  Ru32  1  0.500000  0.000000  0.000000  1
  Ru  Ru33  1  0.000000  0.500000  0.000000  1
  Ru  Ru34  1  0.500000  0.000000  0.500000  1
  Ru  Ru35  1  0.000000  0.500000  0.500000  1
  Ru  Ru36  1  0.000000  0.000000  0.000000  1
  Ru  Ru37  1  0.000000  0.000000  0.500000  1
