# generated using pymatgen
data_HoU(TlCl2)6
_symmetry_space_group_name_H-M   'P 1'
_cell_length_a   9.32726900
_cell_length_b   9.33646067
_cell_length_c   7.77004100
_cell_angle_alpha   90.00000000
_cell_angle_beta   90.00000000
_cell_angle_gamma   89.86305155
_symmetry_Int_Tables_number   1
_chemical_formula_structural   HoU(TlCl2)6
_chemical_formula_sum   'Ho1 U1 Tl6 Cl12'
_cell_volume   676.64183254
_cell_formula_units_Z   1
loop_
 _symmetry_equiv_pos_site_id
 _symmetry_equiv_pos_as_xyz
  1  'x, y, z'
loop_
 _atom_site_type_symbol
 _atom_site_label
 _atom_site_symmetry_multiplicity
 _atom_site_fract_x
 _atom_site_fract_y
 _atom_site_fract_z
 _atom_site_occupancy
  Ho  Ho0  1  0.000000  0.500000  0.000000  1
  U  U1  1  0.500000  0.000000  0.500000  1
  Tl  Tl2  1  0.000000  0.000000  0.500000  1
  Tl  Tl3  1  0.000000  0.000000  0.000000  1
  Tl  Tl4  1  0.223048  0.518487  0.500000  1
  Tl  Tl5  1  0.776952  0.481513  0.500000  1
  Tl  Tl6  1  0.472917  0.234309  0.000000  1
  Tl  Tl7  1  0.527083  0.765691  0.000000  1
  Cl  Cl8  1  0.702083  0.019262  0.755082  1
  Cl  Cl9  1  0.297917  0.980738  0.755082  1
  Cl  Cl10  1  0.977343  0.694793  0.245648  1
  Cl  Cl11  1  0.022657  0.305207  0.245648  1
  Cl  Cl12  1  0.297917  0.980738  0.244918  1
  Cl  Cl13  1  0.702083  0.019262  0.244918  1
  Cl  Cl14  1  0.022657  0.305207  0.754352  1
  Cl  Cl15  1  0.977343  0.694793  0.754352  1
  Cl  Cl16  1  0.520947  0.707552  0.500000  1
  Cl  Cl17  1  0.479053  0.292448  0.500000  1
  Cl  Cl18  1  0.283048  0.524620  0.000000  1
  Cl  Cl19  1  0.716952  0.475380  0.000000  1
