# generated using pymatgen
data_LaNd3(Si5Pt3)2
_symmetry_space_group_name_H-M   'P 1'
_cell_length_a   8.29217925
_cell_length_b   8.28125975
_cell_length_c   8.28125829
_cell_angle_alpha   136.54580827
_cell_angle_beta   105.56725957
_cell_angle_gamma   90.30625910
_symmetry_Int_Tables_number   1
_chemical_formula_structural   LaNd3(Si5Pt3)2
_chemical_formula_sum   'La1 Nd3 Si10 Pt6'
_cell_volume   359.16465319
_cell_formula_units_Z   1
loop_
 _symmetry_equiv_pos_site_id
 _symmetry_equiv_pos_as_xyz
  1  'x, y, z'
loop_
 _atom_site_type_symbol
 _atom_site_label
 _atom_site_symmetry_multiplicity
 _atom_site_fract_x
 _atom_site_fract_y
 _atom_site_fract_z
 _atom_site_occupancy
  La  La0  1  0.896320  0.129325  0.766994  1
  Nd  Nd1  1  0.639168  0.370877  0.268290  1
  Nd  Nd2  1  0.360962  0.628918  0.732044  1
  Nd  Nd3  1  0.103240  0.871268  0.231972  1
  Si  Si4  1  0.271426  0.520490  0.249526  1
  Si  Si5  1  0.729120  0.480159  0.750700  1
  Si  Si6  1  0.729120  0.978421  0.248961  1
  Si  Si7  1  0.271426  0.021899  0.750936  1
  Si  Si8  1  0.463580  0.112713  0.350866  1
  Si  Si9  1  0.534871  0.885821  0.649051  1
  Si  Si10  1  0.762137  0.612494  0.149643  1
  Si  Si11  1  0.238364  0.387992  0.850372  1
  Si  Si12  1  0.999965  0.249651  0.249927  1
  Si  Si13  1  0.999965  0.750038  0.750315  1
  Pt  Pt14  1  0.247032  0.136339  0.110693  1
  Pt  Pt15  1  0.753119  0.863231  0.889888  1
  Pt  Pt16  1  0.027777  0.636665  0.391111  1
  Pt  Pt17  1  0.973572  0.364326  0.609245  1
  Pt  Pt18  1  0.499419  0.249678  0.749725  1
  Pt  Pt19  1  0.499419  0.749694  0.249741  1
