# generated using pymatgen
data_CaYb(Cd2Ag)2
_symmetry_space_group_name_H-M   'P 1'
_cell_length_a   5.81143534
_cell_length_b   5.81143609
_cell_length_c   8.03472000
_cell_angle_alpha   90.00000000
_cell_angle_beta   90.00000000
_cell_angle_gamma   134.26979908
_symmetry_Int_Tables_number   1
_chemical_formula_structural   CaYb(Cd2Ag)2
_chemical_formula_sum   'Ca1 Yb1 Cd4 Ag2'
_cell_volume   194.30657913
_cell_formula_units_Z   1
loop_
 _symmetry_equiv_pos_site_id
 _symmetry_equiv_pos_as_xyz
  1  'x, y, z'
loop_
 _atom_site_type_symbol
 _atom_site_label
 _atom_site_symmetry_multiplicity
 _atom_site_fract_x
 _atom_site_fract_y
 _atom_site_fract_z
 _atom_site_occupancy
  Ca  Ca0  1  0.932679  0.067321  0.750000  1
  Yb  Yb1  1  0.067603  0.932397  0.250000  1
  Cd  Cd2  1  0.363864  0.636136  0.057100  1
  Cd  Cd3  1  0.363864  0.636136  0.442900  1
  Cd  Cd4  1  0.636223  0.363777  0.555342  1
  Cd  Cd5  1  0.636223  0.363777  0.944658  1
  Ag  Ag6  1  0.775505  0.224495  0.250000  1
  Ag  Ag7  1  0.224040  0.775960  0.750000  1
