# generated using pymatgen
data_DyY4Ho(Si3Ru)8
_symmetry_space_group_name_H-M   'P 1'
_cell_length_a   10.12101889
_cell_length_b   10.12107523
_cell_length_c   8.14427820
_cell_angle_alpha   89.98740973
_cell_angle_beta   89.97591929
_cell_angle_gamma   132.59720289
_symmetry_Int_Tables_number   1
_chemical_formula_structural   DyY4Ho(Si3Ru)8
_chemical_formula_sum   'Dy1 Y4 Ho1 Si24 Ru8'
_cell_volume   614.12664795
_cell_formula_units_Z   1
loop_
 _symmetry_equiv_pos_site_id
 _symmetry_equiv_pos_as_xyz
  1  'x, y, z'
loop_
 _atom_site_type_symbol
 _atom_site_label
 _atom_site_symmetry_multiplicity
 _atom_site_fract_x
 _atom_site_fract_y
 _atom_site_fract_z
 _atom_site_occupancy
  Dy  Dy0  1  0.502504  0.002690  0.750341  1
  Y  Y1  1  0.500020  0.500003  0.499972  1
  Y  Y2  1  0.997257  0.497432  0.249664  1
  Y  Y3  1  0.497571  0.997396  0.249657  1
  Y  Y4  1  0.002591  0.502414  0.750338  1
  Ho  Ho5  1  0.000032  0.000024  0.999999  1
  Si  Si6  1  0.794508  0.205257  0.500103  1
  Si  Si7  1  0.294479  0.705806  0.999887  1
  Si  Si8  1  0.205510  0.794760  0.500121  1
  Si  Si9  1  0.705542  0.294215  0.999897  1
  Si  Si10  1  0.332782  0.332816  0.832975  1
  Si  Si11  1  0.667212  0.667201  0.166981  1
  Si  Si12  1  0.167652  0.167657  0.333178  1
  Si  Si13  1  0.832353  0.832321  0.666857  1
  Si  Si14  1  0.122508  0.888396  0.728481  1
  Si  Si15  1  0.111795  0.877763  0.271471  1
  Si  Si16  1  0.613046  0.378604  0.228000  1
  Si  Si17  1  0.621213  0.386706  0.772067  1
  Si  Si18  1  0.877776  0.111913  0.271496  1
  Si  Si19  1  0.887823  0.122015  0.728439  1
  Si  Si20  1  0.387274  0.621688  0.772012  1
  Si  Si21  1  0.378574  0.612916  0.228028  1
  Si  Si22  1  0.345287  0.111815  0.505201  1
  Si  Si23  1  0.888121  0.654741  0.495025  1
  Si  Si24  1  0.388728  0.155025  0.004438  1
  Si  Si25  1  0.844980  0.611377  0.995394  1
  Si  Si26  1  0.654781  0.888250  0.495294  1
  Si  Si27  1  0.111860  0.345230  0.504880  1
  Si  Si28  1  0.611342  0.845045  0.995068  1
  Si  Si29  1  0.154981  0.388598  0.004713  1
  Ru  Ru30  1  0.669035  0.330717  0.500163  1
  Ru  Ru31  1  0.168679  0.831587  0.999821  1
  Ru  Ru32  1  0.330950  0.669311  0.500185  1
  Ru  Ru33  1  0.831348  0.168410  0.999863  1
  Ru  Ru34  1  0.125807  0.125954  0.627752  1
  Ru  Ru35  1  0.873980  0.874154  0.372261  1
  Ru  Ru36  1  0.373546  0.373390  0.126189  1
  Ru  Ru37  1  0.626552  0.626404  0.873788  1
