# generated using pymatgen
data_TbDy7(Ge4Mo3)4
_symmetry_space_group_name_H-M   'P 1'
_cell_length_a   6.96576907
_cell_length_b   7.07475567
_cell_length_c   13.17792493
_cell_angle_alpha   89.99396062
_cell_angle_beta   89.99506285
_cell_angle_gamma   89.99755950
_symmetry_Int_Tables_number   1
_chemical_formula_structural   TbDy7(Ge4Mo3)4
_chemical_formula_sum   'Tb1 Dy7 Ge16 Mo12'
_cell_volume   649.42281651
_cell_formula_units_Z   1
loop_
 _symmetry_equiv_pos_site_id
 _symmetry_equiv_pos_as_xyz
  1  'x, y, z'
loop_
 _atom_site_type_symbol
 _atom_site_label
 _atom_site_symmetry_multiplicity
 _atom_site_fract_x
 _atom_site_fract_y
 _atom_site_fract_z
 _atom_site_occupancy
  Tb  Tb0  1  0.988084  0.830019  0.591911  1
  Dy  Dy1  1  0.488484  0.669575  0.592379  1
  Dy  Dy2  1  0.988730  0.830498  0.907718  1
  Dy  Dy3  1  0.511749  0.330383  0.092487  1
  Dy  Dy4  1  0.011301  0.169900  0.407843  1
  Dy  Dy5  1  0.511088  0.330222  0.408059  1
  Dy  Dy6  1  0.011434  0.169828  0.092457  1
  Dy  Dy7  1  0.488357  0.669793  0.907286  1
  Ge  Ge8  1  0.669473  0.953234  0.451888  1
  Ge  Ge9  1  0.170177  0.546976  0.048318  1
  Ge  Ge10  1  0.330470  0.047536  0.951342  1
  Ge  Ge11  1  0.829688  0.452490  0.548372  1
  Ge  Ge12  1  0.329523  0.046460  0.548276  1
  Ge  Ge13  1  0.830024  0.453103  0.951508  1
  Ge  Ge14  1  0.669883  0.952755  0.048508  1
  Ge  Ge15  1  0.170141  0.547211  0.451632  1
  Ge  Ge16  1  0.468270  0.366458  0.750013  1
  Ge  Ge17  1  0.968590  0.133090  0.749503  1
  Ge  Ge18  1  0.531841  0.633367  0.250069  1
  Ge  Ge19  1  0.031885  0.866787  0.250258  1
  Ge  Ge20  1  0.687748  0.856211  0.749946  1
  Ge  Ge21  1  0.187329  0.643743  0.749858  1
  Ge  Ge22  1  0.312488  0.143944  0.250241  1
  Ge  Ge23  1  0.812425  0.356350  0.250415  1
  Mo  Mo24  1  0.667662  0.155827  0.627331  1
  Mo  Mo25  1  0.167873  0.344143  0.872393  1
  Mo  Mo26  1  0.331616  0.844378  0.127132  1
  Mo  Mo27  1  0.831410  0.656044  0.372949  1
  Mo  Mo28  1  0.331990  0.844099  0.372704  1
  Mo  Mo29  1  0.832119  0.655898  0.127428  1
  Mo  Mo30  1  0.669077  0.155731  0.872782  1
  Mo  Mo31  1  0.168705  0.344208  0.626938  1
  Mo  Mo32  1  0.832504  0.493964  0.749810  1
  Mo  Mo33  1  0.332822  0.005584  0.749763  1
  Mo  Mo34  1  0.167531  0.505829  0.250162  1
  Mo  Mo35  1  0.667511  0.994362  0.250321  1
