# generated using pymatgen
data_Ho5Th3(InRu)2
_symmetry_space_group_name_H-M   'P 1'
_cell_length_a   9.73192627
_cell_length_b   9.79096090
_cell_length_c   9.79096179
_cell_angle_alpha   59.60148686
_cell_angle_beta   60.19926373
_cell_angle_gamma   60.19925603
_symmetry_Int_Tables_number   1
_chemical_formula_structural   Ho5Th3(InRu)2
_chemical_formula_sum   'Ho10 Th6 In4 Ru4'
_cell_volume   659.63412482
_cell_formula_units_Z   2
loop_
 _symmetry_equiv_pos_site_id
 _symmetry_equiv_pos_as_xyz
  1  'x, y, z'
loop_
 _atom_site_type_symbol
 _atom_site_label
 _atom_site_symmetry_multiplicity
 _atom_site_fract_x
 _atom_site_fract_y
 _atom_site_fract_z
 _atom_site_occupancy
  Ho  Ho0  1  0.191740  0.808260  0.191740  1
  Ho  Ho1  1  0.808260  0.191740  0.808260  1
  Ho  Ho2  1  0.191740  0.191740  0.808260  1
  Ho  Ho3  1  0.808260  0.808260  0.191740  1
  Ho  Ho4  1  0.935522  0.564478  0.564478  1
  Ho  Ho5  1  0.564478  0.935522  0.935522  1
  Ho  Ho6  1  0.561323  0.938677  0.561323  1
  Ho  Ho7  1  0.938677  0.561323  0.938677  1
  Ho  Ho8  1  0.561323  0.561323  0.938677  1
  Ho  Ho9  1  0.938677  0.938677  0.561323  1
  Th  Th10  1  0.343236  0.349412  0.349412  1
  Th  Th11  1  0.349412  0.343236  0.957941  1
  Th  Th12  1  0.349412  0.957941  0.343236  1
  Th  Th13  1  0.957941  0.349412  0.349412  1
  Th  Th14  1  0.815813  0.184187  0.184187  1
  Th  Th15  1  0.184187  0.815813  0.815813  1
  In  In16  1  0.585191  0.583094  0.583094  1
  In  In17  1  0.583094  0.585191  0.248621  1
  In  In18  1  0.583094  0.248621  0.585191  1
  In  In19  1  0.248621  0.583094  0.583094  1
  Ru  Ru20  1  0.127913  0.148057  0.148057  1
  Ru  Ru21  1  0.148057  0.127913  0.575971  1
  Ru  Ru22  1  0.148057  0.575971  0.127913  1
  Ru  Ru23  1  0.575971  0.148057  0.148057  1
