# generated using pymatgen
data_La3CdPd3Au2
_symmetry_space_group_name_H-M   'P 1'
_cell_length_a   7.81345871
_cell_length_b   7.67276850
_cell_length_c   4.05862100
_cell_angle_alpha   90.00000000
_cell_angle_beta   90.00000000
_cell_angle_gamma   119.40613609
_symmetry_Int_Tables_number   1
_chemical_formula_structural   La3CdPd3Au2
_chemical_formula_sum   'La3 Cd1 Pd3 Au2'
_cell_volume   211.96905082
_cell_formula_units_Z   1
loop_
 _symmetry_equiv_pos_site_id
 _symmetry_equiv_pos_as_xyz
  1  'x, y, z'
loop_
 _atom_site_type_symbol
 _atom_site_label
 _atom_site_symmetry_multiplicity
 _atom_site_fract_x
 _atom_site_fract_y
 _atom_site_fract_z
 _atom_site_occupancy
  La  La0  1  0.409240  0.398323  0.500000  1
  La  La1  1  0.590760  0.989084  0.500000  1
  La  La2  1  0.000000  0.623836  0.500000  1
  Cd  Cd3  1  0.000000  0.253072  0.000000  1
  Pd  Pd4  1  0.673991  0.328873  0.000000  1
  Pd  Pd5  1  0.326009  0.654884  0.000000  1
  Pd  Pd6  1  0.000000  0.006721  0.500000  1
  Au  Au7  1  0.736951  0.741079  0.000000  1
  Au  Au8  1  0.263049  0.004128  0.000000  1
