# generated using pymatgen
data_Er16MgIn(Co2Ag)2
_symmetry_space_group_name_H-M   'P 1'
_cell_length_a   9.40753836
_cell_length_b   9.38692176
_cell_length_c   9.38692191
_cell_angle_alpha   59.95800968
_cell_angle_beta   59.98354608
_cell_angle_gamma   59.98353765
_symmetry_Int_Tables_number   1
_chemical_formula_structural   Er16MgIn(Co2Ag)2
_chemical_formula_sum   'Er16 Mg1 In1 Co4 Ag2'
_cell_volume   585.81620414
_cell_formula_units_Z   1
loop_
 _symmetry_equiv_pos_site_id
 _symmetry_equiv_pos_as_xyz
  1  'x, y, z'
loop_
 _atom_site_type_symbol
 _atom_site_label
 _atom_site_symmetry_multiplicity
 _atom_site_fract_x
 _atom_site_fract_y
 _atom_site_fract_z
 _atom_site_occupancy
  Er  Er0  1  0.596154  0.595636  0.595636  1
  Er  Er1  1  0.597018  0.596713  0.211799  1
  Er  Er2  1  0.597018  0.211799  0.596713  1
  Er  Er3  1  0.205502  0.598824  0.598824  1
  Er  Er4  1  0.060382  0.438683  0.438683  1
  Er  Er5  1  0.437088  0.061938  0.061938  1
  Er  Er6  1  0.435880  0.063116  0.436616  1
  Er  Er7  1  0.059647  0.439154  0.061048  1
  Er  Er8  1  0.435880  0.436616  0.063116  1
  Er  Er9  1  0.059647  0.061048  0.439154  1
  Er  Er10  1  0.187451  0.813011  0.813011  1
  Er  Er11  1  0.811358  0.188748  0.188748  1
  Er  Er12  1  0.811662  0.191816  0.813505  1
  Er  Er13  1  0.185263  0.812751  0.190592  1
  Er  Er14  1  0.811662  0.813505  0.191816  1
  Er  Er15  1  0.185263  0.190592  0.812751  1
  Mg  Mg16  1  0.529438  0.821249  0.821249  1
  In  In17  1  0.833651  0.829558  0.829558  1
  Co  Co18  1  0.389000  0.392215  0.392215  1
  Co  Co19  1  0.389949  0.391444  0.827082  1
  Co  Co20  1  0.389949  0.827082  0.391444  1
  Co  Co21  1  0.826714  0.391040  0.391040  1
  Ag  Ag22  1  0.832215  0.832438  0.501025  1
  Ag  Ag23  1  0.832215  0.501025  0.832438  1
