# generated using pymatgen
data_Ba3YScO6
_symmetry_space_group_name_H-M   'P 1'
_cell_length_a   7.26863732
_cell_length_b   7.26863664
_cell_length_c   7.26863832
_cell_angle_alpha   92.87655119
_cell_angle_beta   92.87654944
_cell_angle_gamma   92.87655629
_symmetry_Int_Tables_number   1
_chemical_formula_structural   Ba3YScO6
_chemical_formula_sum   'Ba6 Y2 Sc2 O12'
_cell_volume   382.52237871
_cell_formula_units_Z   2
loop_
 _symmetry_equiv_pos_site_id
 _symmetry_equiv_pos_as_xyz
  1  'x, y, z'
loop_
 _atom_site_type_symbol
 _atom_site_label
 _atom_site_symmetry_multiplicity
 _atom_site_fract_x
 _atom_site_fract_y
 _atom_site_fract_z
 _atom_site_occupancy
  Ba  Ba0  1  0.250000  0.888523  0.611477  1
  Ba  Ba1  1  0.888523  0.611477  0.250000  1
  Ba  Ba2  1  0.750000  0.111477  0.388523  1
  Ba  Ba3  1  0.388523  0.750000  0.111477  1
  Ba  Ba4  1  0.111477  0.388523  0.750000  1
  Ba  Ba5  1  0.611477  0.250000  0.888523  1
  Y  Y6  1  0.750000  0.750000  0.750000  1
  Y  Y7  1  0.250000  0.250000  0.250000  1
  Sc  Sc8  1  0.500000  0.500000  0.500000  1
  Sc  Sc9  1  0.000000  0.000000  0.000000  1
  O  O10  1  0.595060  0.782074  0.466779  1
  O  O11  1  0.466779  0.595060  0.782074  1
  O  O12  1  0.782074  0.466779  0.595060  1
  O  O13  1  0.904940  0.033221  0.717926  1
  O  O14  1  0.717926  0.904940  0.033221  1
  O  O15  1  0.033221  0.717926  0.904940  1
  O  O16  1  0.404940  0.217926  0.533221  1
  O  O17  1  0.533221  0.404940  0.217926  1
  O  O18  1  0.217926  0.533221  0.404940  1
  O  O19  1  0.095060  0.966779  0.282074  1
  O  O20  1  0.966779  0.282074  0.095060  1
  O  O21  1  0.282074  0.095060  0.966779  1
