# generated using pymatgen
data_NaSr4Au
_symmetry_space_group_name_H-M   'P 1'
_cell_length_a   11.29535802
_cell_length_b   11.29535867
_cell_length_c   11.29535900
_cell_angle_alpha   60.00000195
_cell_angle_beta   60.00000007
_cell_angle_gamma   60.00000193
_symmetry_Int_Tables_number   1
_chemical_formula_structural   NaSr4Au
_chemical_formula_sum   'Na4 Sr16 Au4'
_cell_volume   1019.02556753
_cell_formula_units_Z   4
loop_
 _symmetry_equiv_pos_site_id
 _symmetry_equiv_pos_as_xyz
  1  'x, y, z'
loop_
 _atom_site_type_symbol
 _atom_site_label
 _atom_site_symmetry_multiplicity
 _atom_site_fract_x
 _atom_site_fract_y
 _atom_site_fract_z
 _atom_site_occupancy
  Na  Na0  1  0.578351  0.578351  0.578351  1
  Na  Na1  1  0.578351  0.578351  0.264948  1
  Na  Na2  1  0.578351  0.264948  0.578351  1
  Na  Na3  1  0.264948  0.578351  0.578351  1
  Sr  Sr4  1  0.342458  0.342458  0.342458  1
  Sr  Sr5  1  0.342458  0.342458  0.972626  1
  Sr  Sr6  1  0.342458  0.972626  0.342458  1
  Sr  Sr7  1  0.972626  0.342458  0.342458  1
  Sr  Sr8  1  0.813231  0.186769  0.186769  1
  Sr  Sr9  1  0.186769  0.813231  0.813231  1
  Sr  Sr10  1  0.186769  0.813231  0.186769  1
  Sr  Sr11  1  0.813231  0.186769  0.813231  1
  Sr  Sr12  1  0.186769  0.186769  0.813231  1
  Sr  Sr13  1  0.813231  0.813231  0.186769  1
  Sr  Sr14  1  0.940445  0.559555  0.559555  1
  Sr  Sr15  1  0.559555  0.940445  0.940445  1
  Sr  Sr16  1  0.559555  0.940445  0.559555  1
  Sr  Sr17  1  0.940445  0.559555  0.940445  1
  Sr  Sr18  1  0.559555  0.559555  0.940445  1
  Sr  Sr19  1  0.940445  0.940445  0.559555  1
  Au  Au20  1  0.140569  0.140569  0.140569  1
  Au  Au21  1  0.140569  0.140569  0.578294  1
  Au  Au22  1  0.140569  0.578294  0.140569  1
  Au  Au23  1  0.578294  0.140569  0.140569  1
