# generated using pymatgen
data_Tb8SmEr11Bi12
_symmetry_space_group_name_H-M   'P 1'
_cell_length_a   8.24719893
_cell_length_b   9.47475710
_cell_length_c   12.06863200
_cell_angle_alpha   89.99186651
_cell_angle_beta   90.02719174
_cell_angle_gamma   89.99932053
_symmetry_Int_Tables_number   1
_chemical_formula_structural   Tb8SmEr11Bi12
_chemical_formula_sum   'Tb8 Sm1 Er11 Bi12'
_cell_volume   943.04528177
_cell_formula_units_Z   1
loop_
 _symmetry_equiv_pos_site_id
 _symmetry_equiv_pos_as_xyz
  1  'x, y, z'
loop_
 _atom_site_type_symbol
 _atom_site_label
 _atom_site_symmetry_multiplicity
 _atom_site_fract_x
 _atom_site_fract_y
 _atom_site_fract_z
 _atom_site_occupancy
  Tb  Tb0  1  0.186048  0.749970  0.718726  1
  Tb  Tb1  1  0.686240  0.749907  0.781400  1
  Tb  Tb2  1  0.813498  0.249732  0.280924  1
  Tb  Tb3  1  0.313688  0.249893  0.218504  1
  Tb  Tb4  1  0.807206  0.436751  0.559436  1
  Tb  Tb5  1  0.354092  0.749902  0.215736  1
  Tb  Tb6  1  0.853769  0.749630  0.284215  1
  Tb  Tb7  1  0.645458  0.249570  0.784521  1
  Sm  Sm8  1  0.146602  0.249425  0.716025  1
  Er  Er9  1  0.025049  0.749765  0.988633  1
  Er  Er10  1  0.525100  0.749905  0.511469  1
  Er  Er11  1  0.974618  0.249955  0.011991  1
  Er  Er12  1  0.474357  0.249778  0.488253  1
  Er  Er13  1  0.307406  0.435160  0.941058  1
  Er  Er14  1  0.806996  0.065096  0.559559  1
  Er  Er15  1  0.692935  0.935106  0.059349  1
  Er  Er16  1  0.192539  0.564990  0.440523  1
  Er  Er17  1  0.692750  0.564960  0.059368  1
  Er  Er18  1  0.193438  0.935324  0.440204  1
  Er  Er19  1  0.307316  0.064737  0.941105  1
  Bi  Bi20  1  0.434627  0.003260  0.672756  1
  Bi  Bi21  1  0.933295  0.496645  0.828004  1
  Bi  Bi22  1  0.566144  0.503914  0.326991  1
  Bi  Bi23  1  0.066164  0.995680  0.172688  1
  Bi  Bi24  1  0.566109  0.995673  0.327222  1
  Bi  Bi25  1  0.066315  0.504001  0.172609  1
  Bi  Bi26  1  0.434091  0.496341  0.672864  1
  Bi  Bi27  1  0.933087  0.003085  0.827929  1
  Bi  Bi28  1  0.407075  0.749975  0.957523  1
  Bi  Bi29  1  0.908014  0.752358  0.542135  1
  Bi  Bi30  1  0.593049  0.250032  0.042497  1
  Bi  Bi31  1  0.092923  0.249480  0.455787  1
