# generated using pymatgen
data_RbMn2(Sb6Ru)2
_symmetry_space_group_name_H-M   'P 1'
_cell_length_a   8.22984491
_cell_length_b   8.22984513
_cell_length_c   8.19594616
_cell_angle_alpha   109.43040885
_cell_angle_beta   109.33107390
_cell_angle_gamma   109.81876389
_symmetry_Int_Tables_number   1
_chemical_formula_structural   RbMn2(Sb6Ru)2
_chemical_formula_sum   'Rb1 Mn2 Sb12 Ru2'
_cell_volume   426.43991401
_cell_formula_units_Z   1
loop_
 _symmetry_equiv_pos_site_id
 _symmetry_equiv_pos_as_xyz
  1  'x, y, z'
loop_
 _atom_site_type_symbol
 _atom_site_label
 _atom_site_symmetry_multiplicity
 _atom_site_fract_x
 _atom_site_fract_y
 _atom_site_fract_z
 _atom_site_occupancy
  Rb  Rb0  1  0.000000  0.000000  0.000000  1
  Mn  Mn1  1  0.500000  0.500000  0.500000  1
  Mn  Mn2  1  0.000000  0.000000  0.500000  1
  Sb  Sb3  1  0.160512  0.815170  0.661079  1
  Sb  Sb4  1  0.154091  0.499434  0.338921  1
  Sb  Sb5  1  0.500730  0.660978  0.845703  1
  Sb  Sb6  1  0.338565  0.841132  0.179698  1
  Sb  Sb7  1  0.815274  0.655027  0.154297  1
  Sb  Sb8  1  0.653396  0.844834  0.498230  1
  Sb  Sb9  1  0.184726  0.344973  0.845703  1
  Sb  Sb10  1  0.661435  0.158868  0.820302  1
  Sb  Sb11  1  0.346604  0.155166  0.501770  1
  Sb  Sb12  1  0.499270  0.339022  0.154297  1
  Sb  Sb13  1  0.845909  0.500566  0.661079  1
  Sb  Sb14  1  0.839488  0.184830  0.338921  1
  Ru  Ru15  1  0.500000  0.000000  0.000000  1
  Ru  Ru16  1  0.000000  0.500000  0.000000  1
