# generated using pymatgen
data_TbLu3Al5Tc3
_symmetry_space_group_name_H-M   'P 1'
_cell_length_a   5.46562392
_cell_length_b   5.49373405
_cell_length_c   8.73220483
_cell_angle_alpha   90.00000143
_cell_angle_beta   90.04307556
_cell_angle_gamma   120.17028256
_symmetry_Int_Tables_number   1
_chemical_formula_structural   TbLu3Al5Tc3
_chemical_formula_sum   'Tb1 Lu3 Al5 Tc3'
_cell_volume   226.68041611
_cell_formula_units_Z   1
loop_
 _symmetry_equiv_pos_site_id
 _symmetry_equiv_pos_as_xyz
  1  'x, y, z'
loop_
 _atom_site_type_symbol
 _atom_site_label
 _atom_site_symmetry_multiplicity
 _atom_site_fract_x
 _atom_site_fract_y
 _atom_site_fract_z
 _atom_site_occupancy
  Tb  Tb0  1  0.336510  0.668255  0.056806  1
  Lu  Lu1  1  0.338016  0.669008  0.444207  1
  Lu  Lu2  1  0.664969  0.332484  0.555110  1
  Lu  Lu3  1  0.664534  0.332266  0.944471  1
  Al  Al4  1  0.836957  0.163662  0.250879  1
  Al  Al5  1  0.836957  0.673295  0.250879  1
  Al  Al6  1  0.324846  0.162422  0.250375  1
  Al  Al7  1  0.183772  0.841153  0.749053  1
  Al  Al8  1  0.183772  0.342619  0.749053  1
  Tc  Tc9  1  0.976481  0.988241  0.509940  1
  Tc  Tc10  1  0.976675  0.988337  0.989438  1
  Tc  Tc11  1  0.676513  0.838256  0.749787  1
