# generated using pymatgen
data_Pr8ErTmPb6
_symmetry_space_group_name_H-M   'P 1'
_cell_length_a   9.37774600
_cell_length_b   9.37774664
_cell_length_c   6.88752100
_cell_angle_alpha   90.00000000
_cell_angle_beta   90.00000000
_cell_angle_gamma   119.99999776
_symmetry_Int_Tables_number   1
_chemical_formula_structural   Pr8ErTmPb6
_chemical_formula_sum   'Pr8 Er1 Tm1 Pb6'
_cell_volume   524.55440450
_cell_formula_units_Z   1
loop_
 _symmetry_equiv_pos_site_id
 _symmetry_equiv_pos_as_xyz
  1  'x, y, z'
loop_
 _atom_site_type_symbol
 _atom_site_label
 _atom_site_symmetry_multiplicity
 _atom_site_fract_x
 _atom_site_fract_y
 _atom_site_fract_z
 _atom_site_occupancy
  Pr  Pr0  1  0.333333  0.666667  0.500000  1
  Pr  Pr1  1  0.666667  0.333333  0.500000  1
  Pr  Pr2  1  0.759215  0.759176  0.752247  1
  Pr  Pr3  1  0.240824  0.000039  0.752247  1
  Pr  Pr4  1  0.999961  0.240785  0.752247  1
  Pr  Pr5  1  0.240824  0.240785  0.247753  1
  Pr  Pr6  1  0.759215  0.000039  0.247753  1
  Pr  Pr7  1  0.999961  0.759176  0.247753  1
  Er  Er8  1  0.333333  0.666667  0.000000  1
  Tm  Tm9  1  0.666667  0.333333  0.000000  1
  Pb  Pb10  1  0.396762  0.396648  0.757854  1
  Pb  Pb11  1  0.603352  0.000114  0.757854  1
  Pb  Pb12  1  0.999886  0.603238  0.757854  1
  Pb  Pb13  1  0.603352  0.603238  0.242146  1
  Pb  Pb14  1  0.396762  0.000114  0.242146  1
  Pb  Pb15  1  0.999886  0.396648  0.242146  1
