# generated using pymatgen
data_Y7Pa(Si3Rh)4
_symmetry_space_group_name_H-M   'P 1'
_cell_length_a   8.17654800
_cell_length_b   8.17653467
_cell_length_c   7.99778700
_cell_angle_alpha   90.00000000
_cell_angle_beta   90.00000000
_cell_angle_gamma   120.00009440
_symmetry_Int_Tables_number   1
_chemical_formula_structural   Y7Pa(Si3Rh)4
_chemical_formula_sum   'Y7 Pa1 Si12 Rh4'
_cell_volume   463.06219407
_cell_formula_units_Z   1
loop_
 _symmetry_equiv_pos_site_id
 _symmetry_equiv_pos_as_xyz
  1  'x, y, z'
loop_
 _atom_site_type_symbol
 _atom_site_label
 _atom_site_symmetry_multiplicity
 _atom_site_fract_x
 _atom_site_fract_y
 _atom_site_fract_z
 _atom_site_occupancy
  Y  Y0  1  0.000019  0.000005  0.750041  1
  Y  Y1  1  0.506986  0.492978  0.249967  1
  Y  Y2  1  0.507001  0.014036  0.249982  1
  Y  Y3  1  0.985990  0.492985  0.249977  1
  Y  Y4  1  0.491456  0.508550  0.749994  1
  Y  Y5  1  0.491469  0.982918  0.749999  1
  Y  Y6  1  0.017062  0.508529  0.749996  1
  Pa  Pa7  1  0.000008  0.999987  0.250028  1
  Si  Si8  1  0.166275  0.833722  0.495456  1
  Si  Si9  1  0.166275  0.332550  0.495455  1
  Si  Si10  1  0.667458  0.833728  0.495447  1
  Si  Si11  1  0.832844  0.167143  0.498019  1
  Si  Si12  1  0.832845  0.665699  0.498013  1
  Si  Si13  1  0.334307  0.167154  0.498027  1
  Si  Si14  1  0.832845  0.167149  0.001984  1
  Si  Si15  1  0.832849  0.665700  0.001987  1
  Si  Si16  1  0.334294  0.167145  0.001975  1
  Si  Si17  1  0.166273  0.833722  0.004551  1
  Si  Si18  1  0.166277  0.332557  0.004550  1
  Si  Si19  1  0.667473  0.833736  0.004557  1
  Rh  Rh20  1  0.333334  0.666674  0.477114  1
  Rh  Rh21  1  0.666664  0.333330  0.531932  1
  Rh  Rh22  1  0.666667  0.333330  0.968030  1
  Rh  Rh23  1  0.333329  0.666671  0.022919  1
