# generated using pymatgen
data_Yb6Si24Ru5Pt3
_symmetry_space_group_name_H-M   'P 1'
_cell_length_a   10.13258066
_cell_length_b   10.13258032
_cell_length_c   8.19271876
_cell_angle_alpha   90.03037899
_cell_angle_beta   90.03037264
_cell_angle_gamma   132.21652541
_symmetry_Int_Tables_number   1
_chemical_formula_structural   Yb6Si24Ru5Pt3
_chemical_formula_sum   'Yb6 Si24 Ru5 Pt3'
_cell_volume   622.95669192
_cell_formula_units_Z   1
loop_
 _symmetry_equiv_pos_site_id
 _symmetry_equiv_pos_as_xyz
  1  'x, y, z'
loop_
 _atom_site_type_symbol
 _atom_site_label
 _atom_site_symmetry_multiplicity
 _atom_site_fract_x
 _atom_site_fract_y
 _atom_site_fract_z
 _atom_site_occupancy
  Yb  Yb0  1  0.999783  0.000217  0.000000  1
  Yb  Yb1  1  0.500520  0.499480  0.500000  1
  Yb  Yb2  1  0.003086  0.502216  0.249040  1
  Yb  Yb3  1  0.999142  0.498488  0.749461  1
  Yb  Yb4  1  0.497784  0.996914  0.750960  1
  Yb  Yb5  1  0.501512  0.000858  0.250539  1
  Si  Si6  1  0.705142  0.294858  0.000000  1
  Si  Si7  1  0.297212  0.702788  0.000000  1
  Si  Si8  1  0.797918  0.202082  0.500000  1
  Si  Si9  1  0.206168  0.793832  0.500000  1
  Si  Si10  1  0.330296  0.335623  0.168388  1
  Si  Si11  1  0.664377  0.669704  0.831612  1
  Si  Si12  1  0.165321  0.171221  0.667912  1
  Si  Si13  1  0.828779  0.834679  0.332088  1
  Si  Si14  1  0.838413  0.606400  0.996595  1
  Si  Si15  1  0.164473  0.395163  0.001080  1
  Si  Si16  1  0.650524  0.882897  0.505198  1
  Si  Si17  1  0.117103  0.349476  0.494802  1
  Si  Si18  1  0.337957  0.106556  0.495206  1
  Si  Si19  1  0.893444  0.662043  0.504794  1
  Si  Si20  1  0.393600  0.161587  0.003405  1
  Si  Si21  1  0.604837  0.835527  0.998920  1
  Si  Si22  1  0.887702  0.118749  0.278832  1
  Si  Si23  1  0.108496  0.877955  0.722553  1
  Si  Si24  1  0.618875  0.386005  0.778617  1
  Si  Si25  1  0.613995  0.381125  0.221383  1
  Si  Si26  1  0.387099  0.620336  0.231708  1
  Si  Si27  1  0.379664  0.612901  0.768292  1
  Si  Si28  1  0.881251  0.112298  0.721168  1
  Si  Si29  1  0.122045  0.891504  0.277447  1
  Ru  Ru30  1  0.330528  0.669472  0.500000  1
  Ru  Ru31  1  0.126720  0.126539  0.373776  1
  Ru  Ru32  1  0.873461  0.873280  0.626224  1
  Ru  Ru33  1  0.375890  0.372753  0.874445  1
  Ru  Ru34  1  0.627247  0.624110  0.125555  1
  Pt  Pt35  1  0.834067  0.165933  0.000000  1
  Pt  Pt36  1  0.167508  0.832492  0.000000  1
  Pt  Pt37  1  0.668058  0.331942  0.500000  1
