# generated using pymatgen
data_SrEu(Ga2Ag)2
_symmetry_space_group_name_H-M   'P 1'
_cell_length_a   4.51213500
_cell_length_b   7.16130061
_cell_length_c   10.81508936
_cell_angle_alpha   88.97860257
_cell_angle_beta   90.00000000
_cell_angle_gamma   90.00000000
_symmetry_Int_Tables_number   1
_chemical_formula_structural   SrEu(Ga2Ag)2
_chemical_formula_sum   'Sr2 Eu2 Ga8 Ag4'
_cell_volume   349.40980687
_cell_formula_units_Z   2
loop_
 _symmetry_equiv_pos_site_id
 _symmetry_equiv_pos_as_xyz
  1  'x, y, z'
loop_
 _atom_site_type_symbol
 _atom_site_label
 _atom_site_symmetry_multiplicity
 _atom_site_fract_x
 _atom_site_fract_y
 _atom_site_fract_z
 _atom_site_occupancy
  Sr  Sr0  1  0.250000  0.775167  0.826114  1
  Sr  Sr1  1  0.750000  0.224833  0.173886  1
  Eu  Eu2  1  0.750000  0.721382  0.329109  1
  Eu  Eu3  1  0.250000  0.278618  0.670891  1
  Ga  Ga4  1  0.250000  0.917476  0.149001  1
  Ga  Ga5  1  0.750000  0.082524  0.850999  1
  Ga  Ga6  1  0.750000  0.576671  0.643002  1
  Ga  Ga7  1  0.250000  0.423329  0.356998  1
  Ga  Ga8  1  0.250000  0.702051  0.532508  1
  Ga  Ga9  1  0.750000  0.297949  0.467492  1
  Ga  Ga10  1  0.750000  0.797334  0.036989  1
  Ga  Ga11  1  0.250000  0.202666  0.963011  1
  Ag  Ag12  1  0.250000  0.541627  0.099068  1
  Ag  Ag13  1  0.750000  0.458373  0.900932  1
  Ag  Ag14  1  0.750000  0.959860  0.597716  1
  Ag  Ag15  1  0.250000  0.040140  0.402284  1
