# generated using pymatgen
data_Cs4Al2S5
_symmetry_space_group_name_H-M   'P 1'
_cell_length_a   8.00079529
_cell_length_b   9.06235969
_cell_length_c   10.98479919
_cell_angle_alpha   77.84994426
_cell_angle_beta   84.51792500
_cell_angle_gamma   80.39045544
_symmetry_Int_Tables_number   1
_chemical_formula_structural   Cs4Al2S5
_chemical_formula_sum   'Cs8 Al4 S10'
_cell_volume   766.18958550
_cell_formula_units_Z   2
loop_
 _symmetry_equiv_pos_site_id
 _symmetry_equiv_pos_as_xyz
  1  'x, y, z'
loop_
 _atom_site_type_symbol
 _atom_site_label
 _atom_site_symmetry_multiplicity
 _atom_site_fract_x
 _atom_site_fract_y
 _atom_site_fract_z
 _atom_site_occupancy
  Cs  Cs0  1  0.419867  0.323719  0.090692  1
  Cs  Cs1  1  0.580133  0.676281  0.909308  1
  Cs  Cs2  1  0.199065  0.076764  0.870725  1
  Cs  Cs3  1  0.068659  0.598153  0.756115  1
  Cs  Cs4  1  0.800935  0.923236  0.129275  1
  Cs  Cs5  1  0.931341  0.401847  0.243885  1
  Cs  Cs6  1  0.587900  0.710529  0.504862  1
  Cs  Cs7  1  0.412100  0.289471  0.495138  1
  Al  Al8  1  0.907538  0.087171  0.596701  1
  Al  Al9  1  0.092462  0.912829  0.403299  1
  Al  Al10  1  0.273865  0.726161  0.215897  1
  Al  Al11  1  0.726135  0.273839  0.784103  1
  S  S12  1  0.898471  0.335096  0.602917  1
  S  S13  1  0.180736  0.959303  0.581968  1
  S  S14  1  0.461384  0.399834  0.763840  1
  S  S15  1  0.162240  0.693232  0.045886  1
  S  S16  1  0.837760  0.306768  0.954114  1
  S  S17  1  0.538616  0.600166  0.236160  1
  S  S18  1  0.101529  0.664904  0.397083  1
  S  S19  1  0.254084  0.985902  0.226568  1
  S  S20  1  0.745916  0.014098  0.773432  1
  S  S21  1  0.819264  0.040697  0.418032  1
