# generated using pymatgen
data_YTmInRu
_symmetry_space_group_name_H-M   'P 1'
_cell_length_a   3.49563600
_cell_length_b   3.49563600
_cell_length_c   7.41515600
_cell_angle_alpha   90.00000000
_cell_angle_beta   90.00000000
_cell_angle_gamma   90.00000000
_symmetry_Int_Tables_number   1
_chemical_formula_structural   YTmInRu
_chemical_formula_sum   'Y1 Tm1 In1 Ru1'
_cell_volume   90.60928403
_cell_formula_units_Z   1
loop_
 _symmetry_equiv_pos_site_id
 _symmetry_equiv_pos_as_xyz
  1  'x, y, z'
loop_
 _atom_site_type_symbol
 _atom_site_label
 _atom_site_symmetry_multiplicity
 _atom_site_fract_x
 _atom_site_fract_y
 _atom_site_fract_z
 _atom_site_occupancy
  Y  Y0  1  0.000000  0.000000  0.217339  1
  Tm  Tm1  1  0.000000  0.000000  0.784442  1
  In  In2  1  0.500000  0.500000  0.504545  1
  Ru  Ru3  1  0.500000  0.500000  0.993672  1
