# generated using pymatgen
data_U(TlBr3)2
_symmetry_space_group_name_H-M   'P 1'
_cell_length_a   7.83317200
_cell_length_b   7.83317214
_cell_length_c   11.18882900
_cell_angle_alpha   90.00000000
_cell_angle_beta   90.00000000
_cell_angle_gamma   89.98915990
_symmetry_Int_Tables_number   1
_chemical_formula_structural   U(TlBr3)2
_chemical_formula_sum   'U2 Tl4 Br12'
_cell_volume   686.53069938
_cell_formula_units_Z   2
loop_
 _symmetry_equiv_pos_site_id
 _symmetry_equiv_pos_as_xyz
  1  'x, y, z'
loop_
 _atom_site_type_symbol
 _atom_site_label
 _atom_site_symmetry_multiplicity
 _atom_site_fract_x
 _atom_site_fract_y
 _atom_site_fract_z
 _atom_site_occupancy
  U  U0  1  0.000000  0.000000  0.000000  1
  U  U1  1  0.500000  0.500000  0.500000  1
  Tl  Tl2  1  0.500000  0.000000  0.750000  1
  Tl  Tl3  1  0.500000  0.000000  0.250000  1
  Tl  Tl4  1  0.000000  0.500000  0.250000  1
  Tl  Tl5  1  0.000000  0.500000  0.750000  1
  Br  Br6  1  0.823209  0.308182  0.000000  1
  Br  Br7  1  0.176791  0.691818  0.000000  1
  Br  Br8  1  0.500000  0.500000  0.250149  1
  Br  Br9  1  0.326045  0.190027  0.500000  1
  Br  Br10  1  0.309973  0.173955  0.000000  1
  Br  Br11  1  0.808182  0.323209  0.500000  1
  Br  Br12  1  0.000000  0.000000  0.249851  1
  Br  Br13  1  0.673955  0.809973  0.500000  1
  Br  Br14  1  0.191818  0.676791  0.500000  1
  Br  Br15  1  0.500000  0.500000  0.749851  1
  Br  Br16  1  0.690027  0.826045  0.000000  1
  Br  Br17  1  0.000000  0.000000  0.750149  1
