# generated using pymatgen
data_Th3Ga3CoIr2
_symmetry_space_group_name_H-M   'P 1'
_cell_length_a   7.22506600
_cell_length_b   7.22506589
_cell_length_c   4.04316300
_cell_angle_alpha   90.00000000
_cell_angle_beta   90.00000000
_cell_angle_gamma   120.00000964
_symmetry_Int_Tables_number   1
_chemical_formula_structural   Th3Ga3CoIr2
_chemical_formula_sum   'Th3 Ga3 Co1 Ir2'
_cell_volume   182.78286095
_cell_formula_units_Z   1
loop_
 _symmetry_equiv_pos_site_id
 _symmetry_equiv_pos_as_xyz
  1  'x, y, z'
loop_
 _atom_site_type_symbol
 _atom_site_label
 _atom_site_symmetry_multiplicity
 _atom_site_fract_x
 _atom_site_fract_y
 _atom_site_fract_z
 _atom_site_occupancy
  Th  Th0  1  0.408267  0.408267  0.500000  1
  Th  Th1  1  0.591733  0.000000  0.500000  1
  Th  Th2  1  0.000000  0.591733  0.500000  1
  Ga  Ga3  1  0.772624  0.772624  0.000000  1
  Ga  Ga4  1  0.227376  0.000000  0.000000  1
  Ga  Ga5  1  0.000000  0.227376  0.000000  1
  Co  Co6  1  0.000000  0.000000  0.500000  1
  Ir  Ir7  1  0.666667  0.333333  0.000000  1
  Ir  Ir8  1  0.333333  0.666667  0.000000  1
