# generated using pymatgen
data_Ca9Pr3Sn4(GeRh2)4
_symmetry_space_group_name_H-M   'P 1'
_cell_length_a   5.80224108
_cell_length_b   8.15586566
_cell_length_c   13.88125863
_cell_angle_alpha   90.02586302
_cell_angle_beta   90.06498099
_cell_angle_gamma   89.80784263
_symmetry_Int_Tables_number   1
_chemical_formula_structural   Ca9Pr3Sn4(GeRh2)4
_chemical_formula_sum   'Ca9 Pr3 Sn4 Ge4 Rh8'
_cell_volume   656.88888590
_cell_formula_units_Z   1
loop_
 _symmetry_equiv_pos_site_id
 _symmetry_equiv_pos_as_xyz
  1  'x, y, z'
loop_
 _atom_site_type_symbol
 _atom_site_label
 _atom_site_symmetry_multiplicity
 _atom_site_fract_x
 _atom_site_fract_y
 _atom_site_fract_z
 _atom_site_occupancy
  Ca  Ca0  1  0.642091  0.254248  0.251538  1
  Ca  Ca1  1  0.359373  0.742957  0.749542  1
  Ca  Ca2  1  0.355465  0.747958  0.252533  1
  Ca  Ca3  1  0.645195  0.253439  0.749302  1
  Ca  Ca4  1  0.150137  0.398749  0.101894  1
  Ca  Ca5  1  0.850060  0.600687  0.898519  1
  Ca  Ca6  1  0.851117  0.602815  0.599155  1
  Ca  Ca7  1  0.845356  0.894025  0.398043  1
  Ca  Ca8  1  0.151069  0.398809  0.398409  1
  Pr  Pr9  1  0.157848  0.105537  0.598438  1
  Pr  Pr10  1  0.160506  0.109055  0.900035  1
  Pr  Pr11  1  0.838281  0.892446  0.099243  1
  Sn  Sn12  1  0.651809  0.253020  0.000697  1
  Sn  Sn13  1  0.347480  0.747971  0.999658  1
  Sn  Sn14  1  0.358334  0.748790  0.498635  1
  Sn  Sn15  1  0.648602  0.250991  0.499484  1
  Ge  Ge16  1  0.149745  0.095777  0.250542  1
  Ge  Ge17  1  0.848505  0.905325  0.750202  1
  Ge  Ge18  1  0.847877  0.600734  0.250765  1
  Ge  Ge19  1  0.152047  0.396828  0.749584  1
  Rh  Rh20  1  0.369107  0.040470  0.098553  1
  Rh  Rh21  1  0.633346  0.957640  0.903155  1
  Rh  Rh22  1  0.630075  0.961674  0.597784  1
  Rh  Rh23  1  0.634943  0.536977  0.403277  1
  Rh  Rh24  1  0.359563  0.041639  0.404714  1
  Rh  Rh25  1  0.363013  0.460240  0.595210  1
  Rh  Rh26  1  0.365923  0.458439  0.904186  1
  Rh  Rh27  1  0.633134  0.542757  0.096904  1
