# generated using pymatgen
data_CaNd2Zn11
_symmetry_space_group_name_H-M   'P 1'
_cell_length_a   4.47269795
_cell_length_b   8.30536218
_cell_length_c   8.30536140
_cell_angle_alpha   66.72168873
_cell_angle_beta   74.37941994
_cell_angle_gamma   74.37942373
_symmetry_Int_Tables_number   1
_chemical_formula_structural   CaNd2Zn11
_chemical_formula_sum   'Ca1 Nd2 Zn11'
_cell_volume   268.27569270
_cell_formula_units_Z   1
loop_
 _symmetry_equiv_pos_site_id
 _symmetry_equiv_pos_as_xyz
  1  'x, y, z'
loop_
 _atom_site_type_symbol
 _atom_site_label
 _atom_site_symmetry_multiplicity
 _atom_site_fract_x
 _atom_site_fract_y
 _atom_site_fract_z
 _atom_site_occupancy
  Ca  Ca0  1  0.000000  0.000000  0.000000  1
  Nd  Nd1  1  0.698737  0.301263  0.301263  1
  Nd  Nd2  1  0.301263  0.698737  0.698737  1
  Zn  Zn3  1  0.661640  0.698000  0.978722  1
  Zn  Zn4  1  0.338360  0.302000  0.021278  1
  Zn  Zn5  1  0.661640  0.978722  0.698000  1
  Zn  Zn6  1  0.338360  0.021278  0.302000  1
  Zn  Zn7  1  0.500000  0.692834  0.307166  1
  Zn  Zn8  1  0.500000  0.307166  0.692834  1
  Zn  Zn9  1  0.864595  0.415163  0.855648  1
  Zn  Zn10  1  0.135405  0.584837  0.144352  1
  Zn  Zn11  1  0.864595  0.855648  0.415163  1
  Zn  Zn12  1  0.135405  0.144352  0.584837  1
  Zn  Zn13  1  0.000000  0.500000  0.500000  1
