# generated using pymatgen
data_Tm2Zn11Co6
_symmetry_space_group_name_H-M   'P 1'
_cell_length_a   6.55839606
_cell_length_b   6.55839601
_cell_length_c   6.55839487
_cell_angle_alpha   82.71545131
_cell_angle_beta   82.71544765
_cell_angle_gamma   82.71546773
_symmetry_Int_Tables_number   1
_chemical_formula_structural   Tm2Zn11Co6
_chemical_formula_sum   'Tm2 Zn11 Co6'
_cell_volume   275.79507320
_cell_formula_units_Z   1
loop_
 _symmetry_equiv_pos_site_id
 _symmetry_equiv_pos_as_xyz
  1  'x, y, z'
loop_
 _atom_site_type_symbol
 _atom_site_label
 _atom_site_symmetry_multiplicity
 _atom_site_fract_x
 _atom_site_fract_y
 _atom_site_fract_z
 _atom_site_occupancy
  Tm  Tm0  1  0.635025  0.635025  0.635025  1
  Tm  Tm1  1  0.333962  0.333962  0.333962  1
  Zn  Zn2  1  0.164891  0.654649  0.654650  1
  Zn  Zn3  1  0.654651  0.654651  0.164891  1
  Zn  Zn4  1  0.654649  0.164891  0.654650  1
  Zn  Zn5  1  0.878257  0.878257  0.878257  1
  Zn  Zn6  1  0.102058  0.102058  0.102058  1
  Zn  Zn7  1  0.698771  0.004832  0.306639  1
  Zn  Zn8  1  0.004832  0.306638  0.698771  1
  Zn  Zn9  1  0.306639  0.698772  0.004833  1
  Zn  Zn10  1  0.306638  0.004832  0.698771  1
  Zn  Zn11  1  0.004832  0.698771  0.306639  1
  Zn  Zn12  1  0.698772  0.306639  0.004833  1
  Co  Co13  1  0.011128  0.489834  0.011128  1
  Co  Co14  1  0.489834  0.011128  0.011128  1
  Co  Co15  1  0.011127  0.011127  0.489835  1
  Co  Co16  1  0.341288  0.861359  0.341287  1
  Co  Co17  1  0.341287  0.341287  0.861360  1
  Co  Co18  1  0.861359  0.341288  0.341287  1
