# generated using pymatgen
data_Tb4Ho3Lu9(CdPt)4
_symmetry_space_group_name_H-M   'P 1'
_cell_length_a   9.57706409
_cell_length_b   9.55480553
_cell_length_c   9.55480506
_cell_angle_alpha   60.11289053
_cell_angle_beta   59.98371939
_cell_angle_gamma   59.98371886
_symmetry_Int_Tables_number   1
_chemical_formula_structural   Tb4Ho3Lu9(CdPt)4
_chemical_formula_sum   'Tb4 Ho3 Lu9 Cd4 Pt4'
_cell_volume   618.61883204
_cell_formula_units_Z   1
loop_
 _symmetry_equiv_pos_site_id
 _symmetry_equiv_pos_as_xyz
  1  'x, y, z'
loop_
 _atom_site_type_symbol
 _atom_site_label
 _atom_site_symmetry_multiplicity
 _atom_site_fract_x
 _atom_site_fract_y
 _atom_site_fract_z
 _atom_site_occupancy
  Tb  Tb0  1  0.565553  0.934415  0.565572  1
  Tb  Tb1  1  0.934626  0.565295  0.934791  1
  Tb  Tb2  1  0.565553  0.565572  0.934415  1
  Tb  Tb3  1  0.934626  0.934791  0.565295  1
  Ho  Ho4  1  0.353225  0.352605  0.352605  1
  Ho  Ho5  1  0.352583  0.353268  0.941515  1
  Ho  Ho6  1  0.352583  0.941515  0.353268  1
  Lu  Lu7  1  0.943317  0.352056  0.352056  1
  Lu  Lu8  1  0.811942  0.188240  0.188240  1
  Lu  Lu9  1  0.187797  0.812266  0.812266  1
  Lu  Lu10  1  0.187664  0.812385  0.187683  1
  Lu  Lu11  1  0.812066  0.188086  0.811682  1
  Lu  Lu12  1  0.187664  0.187683  0.812385  1
  Lu  Lu13  1  0.812066  0.811682  0.188086  1
  Lu  Lu14  1  0.938724  0.561145  0.561145  1
  Lu  Lu15  1  0.561457  0.938531  0.938531  1
  Cd  Cd16  1  0.584031  0.580599  0.580599  1
  Cd  Cd17  1  0.581897  0.582757  0.254739  1
  Cd  Cd18  1  0.581897  0.254739  0.582757  1
  Cd  Cd19  1  0.254529  0.581138  0.581138  1
  Pt  Pt20  1  0.142197  0.142695  0.142695  1
  Pt  Pt21  1  0.140157  0.144800  0.572349  1
  Pt  Pt22  1  0.140157  0.572349  0.144800  1
  Pt  Pt23  1  0.573688  0.141388  0.141388  1
