# generated using pymatgen
data_Hf2Zr3Co16Si7W
_symmetry_space_group_name_H-M   'P 1'
_cell_length_a   7.99947660
_cell_length_b   8.02217440
_cell_length_c   8.02938524
_cell_angle_alpha   59.78326785
_cell_angle_beta   60.06360203
_cell_angle_gamma   60.15314980
_symmetry_Int_Tables_number   1
_chemical_formula_structural   Hf2Zr3Co16Si7W
_chemical_formula_sum   'Hf2 Zr3 Co16 Si7 W1'
_cell_volume   364.34364418
_cell_formula_units_Z   1
loop_
 _symmetry_equiv_pos_site_id
 _symmetry_equiv_pos_as_xyz
  1  'x, y, z'
loop_
 _atom_site_type_symbol
 _atom_site_label
 _atom_site_symmetry_multiplicity
 _atom_site_fract_x
 _atom_site_fract_y
 _atom_site_fract_z
 _atom_site_occupancy
  Hf  Hf0  1  0.796500  0.203500  0.793715  1
  Hf  Hf1  1  0.206285  0.793715  0.203500  1
  Zr  Zr2  1  0.798267  0.795835  0.201733  1
  Zr  Zr3  1  0.791244  0.208756  0.208756  1
  Zr  Zr4  1  0.204165  0.201733  0.795835  1
  Co  Co5  1  0.619103  0.622241  0.137716  1
  Co  Co6  1  0.169909  0.495404  0.166074  1
  Co  Co7  1  0.862284  0.379058  0.380897  1
  Co  Co8  1  0.504596  0.830091  0.831384  1
  Co  Co9  1  0.488435  0.170872  0.169325  1
  Co  Co10  1  0.830675  0.828631  0.511565  1
  Co  Co11  1  0.168616  0.166074  0.495404  1
  Co  Co12  1  0.144316  0.622631  0.621102  1
  Co  Co13  1  0.171369  0.169325  0.170872  1
  Co  Co14  1  0.378898  0.388047  0.855684  1
  Co  Co15  1  0.611953  0.621102  0.622631  1
  Co  Co16  1  0.377369  0.855684  0.388047  1
  Co  Co17  1  0.377759  0.380897  0.379058  1
  Co  Co18  1  0.833926  0.831384  0.830091  1
  Co  Co19  1  0.620942  0.137716  0.622241  1
  Co  Co20  1  0.829128  0.511565  0.828631  1
  Si  Si21  1  0.498471  0.995762  0.501529  1
  Si  Si22  1  0.498591  0.501409  0.995870  1
  Si  Si23  1  0.504287  0.495713  0.495713  1
  Si  Si24  1  0.004130  0.995870  0.501409  1
  Si  Si25  1  0.004238  0.501529  0.995762  1
  Si  Si26  1  0.000509  0.499491  0.499491  1
  Si  Si27  1  0.500509  0.999491  0.999491  1
  W  W28  1  0.203525  0.796475  0.796475  1
