# generated using pymatgen
data_PrErAl20(RuRh)2
_symmetry_space_group_name_H-M   'P 1'
_cell_length_a   6.87284229
_cell_length_b   6.86860820
_cell_length_c   9.19008200
_cell_angle_alpha   90.00000000
_cell_angle_beta   90.00000000
_cell_angle_gamma   97.20135527
_symmetry_Int_Tables_number   1
_chemical_formula_structural   PrErAl20(RuRh)2
_chemical_formula_sum   'Pr1 Er1 Al20 Ru2 Rh2'
_cell_volume   430.41271831
_cell_formula_units_Z   1
loop_
 _symmetry_equiv_pos_site_id
 _symmetry_equiv_pos_as_xyz
  1  'x, y, z'
loop_
 _atom_site_type_symbol
 _atom_site_label
 _atom_site_symmetry_multiplicity
 _atom_site_fract_x
 _atom_site_fract_y
 _atom_site_fract_z
 _atom_site_occupancy
  Pr  Pr0  1  0.872053  0.123999  0.750000  1
  Er  Er1  1  0.132145  0.874219  0.250000  1
  Al  Al2  1  0.619972  0.376192  0.547888  1
  Al  Al3  1  0.378402  0.624785  0.449670  1
  Al  Al4  1  0.378402  0.624785  0.050330  1
  Al  Al5  1  0.619972  0.376192  0.952112  1
  Al  Al6  1  0.226001  0.223510  0.496574  1
  Al  Al7  1  0.774500  0.775630  0.498737  1
  Al  Al8  1  0.774500  0.775630  0.001263  1
  Al  Al9  1  0.226001  0.223510  0.003426  1
  Al  Al10  1  0.844073  0.154725  0.103496  1
  Al  Al11  1  0.158042  0.842902  0.899262  1
  Al  Al12  1  0.158042  0.842902  0.600738  1
  Al  Al13  1  0.844073  0.154725  0.396504  1
  Al  Al14  1  0.857343  0.592096  0.750000  1
  Al  Al15  1  0.144008  0.413488  0.250000  1
  Al  Al16  1  0.408425  0.140697  0.750000  1
  Al  Al17  1  0.586519  0.858104  0.250000  1
  Al  Al18  1  0.225397  0.482703  0.750000  1
  Al  Al19  1  0.776895  0.519684  0.250000  1
  Al  Al20  1  0.516314  0.777069  0.750000  1
  Al  Al21  1  0.481312  0.221216  0.250000  1
  Ru  Ru22  1  0.498936  0.999740  0.002014  1
  Ru  Ru23  1  0.498936  0.999740  0.497986  1
  Rh  Rh24  1  0.999869  0.500879  0.498271  1
  Rh  Rh25  1  0.999869  0.500879  0.001729  1
