# generated using pymatgen
data_Tb9ScCd3Co
_symmetry_space_group_name_H-M   'P 1'
_cell_length_a   9.55249800
_cell_length_b   9.55249892
_cell_length_c   9.72067600
_cell_angle_alpha   90.00000000
_cell_angle_beta   90.00000000
_cell_angle_gamma   119.99999681
_symmetry_Int_Tables_number   1
_chemical_formula_structural   Tb9ScCd3Co
_chemical_formula_sum   'Tb18 Sc2 Cd6 Co2'
_cell_volume   768.17658685
_cell_formula_units_Z   2
loop_
 _symmetry_equiv_pos_site_id
 _symmetry_equiv_pos_as_xyz
  1  'x, y, z'
loop_
 _atom_site_type_symbol
 _atom_site_label
 _atom_site_symmetry_multiplicity
 _atom_site_fract_x
 _atom_site_fract_y
 _atom_site_fract_z
 _atom_site_occupancy
  Tb  Tb0  1  0.542567  0.457433  0.250000  1
  Tb  Tb1  1  0.542567  0.085134  0.250000  1
  Tb  Tb2  1  0.914866  0.457433  0.250000  1
  Tb  Tb3  1  0.457433  0.542567  0.750000  1
  Tb  Tb4  1  0.457433  0.914866  0.750000  1
  Tb  Tb5  1  0.085134  0.542567  0.750000  1
  Tb  Tb6  1  0.210066  0.789934  0.437078  1
  Tb  Tb7  1  0.210066  0.420135  0.437078  1
  Tb  Tb8  1  0.579865  0.789934  0.437078  1
  Tb  Tb9  1  0.789934  0.210066  0.562922  1
  Tb  Tb10  1  0.789934  0.579865  0.562922  1
  Tb  Tb11  1  0.420135  0.210066  0.562922  1
  Tb  Tb12  1  0.789934  0.210066  0.937078  1
  Tb  Tb13  1  0.789934  0.579865  0.937078  1
  Tb  Tb14  1  0.420135  0.210066  0.937078  1
  Tb  Tb15  1  0.210066  0.789934  0.062922  1
  Tb  Tb16  1  0.210066  0.420135  0.062922  1
  Tb  Tb17  1  0.579865  0.789934  0.062922  1
  Sc  Sc18  1  0.000000  0.000000  0.500000  1
  Sc  Sc19  1  0.000000  0.000000  0.000000  1
  Cd  Cd20  1  0.889334  0.110666  0.250000  1
  Cd  Cd21  1  0.889334  0.778669  0.250000  1
  Cd  Cd22  1  0.221331  0.110666  0.250000  1
  Cd  Cd23  1  0.110666  0.889334  0.750000  1
  Cd  Cd24  1  0.110666  0.221331  0.750000  1
  Cd  Cd25  1  0.778669  0.889334  0.750000  1
  Co  Co26  1  0.333333  0.666667  0.250000  1
  Co  Co27  1  0.666667  0.333333  0.750000  1
