# generated using pymatgen
data_CaYMnFeO6
_symmetry_space_group_name_H-M   'P 1'
_cell_length_a   5.34397751
_cell_length_b   5.52654300
_cell_length_c   7.62766723
_cell_angle_alpha   90.00004898
_cell_angle_beta   90.05707651
_cell_angle_gamma   90.00000032
_symmetry_Int_Tables_number   1
_chemical_formula_structural   CaYMnFeO6
_chemical_formula_sum   'Ca2 Y2 Mn2 Fe2 O12'
_cell_volume   225.27328786
_cell_formula_units_Z   2
loop_
 _symmetry_equiv_pos_site_id
 _symmetry_equiv_pos_as_xyz
  1  'x, y, z'
loop_
 _atom_site_type_symbol
 _atom_site_label
 _atom_site_symmetry_multiplicity
 _atom_site_fract_x
 _atom_site_fract_y
 _atom_site_fract_z
 _atom_site_occupancy
  Ca  Ca0  1  0.510169  0.549847  0.249609  1
  Ca  Ca1  1  0.010167  0.950154  0.749609  1
  Y  Y2  1  0.984006  0.062998  0.249196  1
  Y  Y3  1  0.484008  0.437002  0.749197  1
  Mn  Mn4  1  0.999783  0.502765  0.499928  1
  Mn  Mn5  1  0.499782  0.997231  0.999926  1
  Fe  Fe6  1  0.999505  0.507002  0.999652  1
  Fe  Fe7  1  0.499506  0.992999  0.499650  1
  O  O8  1  0.798521  0.806299  0.049883  1
  O  O9  1  0.711663  0.295655  0.454688  1
  O  O10  1  0.202269  0.214565  0.547281  1
  O  O11  1  0.310476  0.702342  0.949648  1
  O  O12  1  0.211662  0.204345  0.954687  1
  O  O13  1  0.298524  0.693700  0.549885  1
  O  O14  1  0.810479  0.797657  0.449649  1
  O  O15  1  0.702267  0.285434  0.047279  1
  O  O16  1  0.399751  0.973701  0.245364  1
  O  O17  1  0.083856  0.469663  0.254753  1
  O  O18  1  0.583854  0.030338  0.754751  1
  O  O19  1  0.899752  0.526299  0.745365  1
