# generated using pymatgen
data_NaNb6AlS12
_symmetry_space_group_name_H-M   'P 1'
_cell_length_a   5.75297100
_cell_length_b   5.75297295
_cell_length_c   13.60202900
_cell_angle_alpha   90.00000000
_cell_angle_beta   90.00000000
_cell_angle_gamma   119.99999452
_symmetry_Int_Tables_number   1
_chemical_formula_structural   NaNb6AlS12
_chemical_formula_sum   'Na1 Nb6 Al1 S12'
_cell_volume   389.86914819
_cell_formula_units_Z   1
loop_
 _symmetry_equiv_pos_site_id
 _symmetry_equiv_pos_as_xyz
  1  'x, y, z'
loop_
 _atom_site_type_symbol
 _atom_site_label
 _atom_site_symmetry_multiplicity
 _atom_site_fract_x
 _atom_site_fract_y
 _atom_site_fract_z
 _atom_site_occupancy
  Na  Na0  1  0.333333  0.666667  0.250000  1
  Nb  Nb1  1  0.000000  0.000000  0.526700  1
  Nb  Nb2  1  0.000000  0.000000  0.973300  1
  Nb  Nb3  1  0.333333  0.666667  0.973074  1
  Nb  Nb4  1  0.666667  0.333333  0.975422  1
  Nb  Nb5  1  0.666667  0.333333  0.524578  1
  Nb  Nb6  1  0.333333  0.666667  0.526926  1
  Al  Al7  1  0.666667  0.333333  0.750000  1
  S  S8  1  0.332776  0.331666  0.409940  1
  S  S9  1  0.668334  0.001111  0.409940  1
  S  S10  1  0.998889  0.667224  0.409940  1
  S  S11  1  0.331218  0.333351  0.643831  1
  S  S12  1  0.002133  0.668782  0.643831  1
  S  S13  1  0.666649  0.997867  0.643831  1
  S  S14  1  0.666649  0.668782  0.856169  1
  S  S15  1  0.331218  0.997867  0.856169  1
  S  S16  1  0.002133  0.333351  0.856169  1
  S  S17  1  0.668334  0.667224  0.090060  1
  S  S18  1  0.998889  0.331666  0.090060  1
  S  S19  1  0.332776  0.001111  0.090060  1
