# generated using pymatgen
data_Tb12InCo4Cu
_symmetry_space_group_name_H-M   'P 1'
_cell_length_a   8.36830562
_cell_length_b   8.36830501
_cell_length_c   8.36830505
_cell_angle_alpha   111.38633064
_cell_angle_beta   110.39559579
_cell_angle_gamma   106.66918425
_symmetry_Int_Tables_number   1
_chemical_formula_structural   Tb12InCo4Cu
_chemical_formula_sum   'Tb12 In1 Co4 Cu1'
_cell_volume   450.27884213
_cell_formula_units_Z   1
loop_
 _symmetry_equiv_pos_site_id
 _symmetry_equiv_pos_as_xyz
  1  'x, y, z'
loop_
 _atom_site_type_symbol
 _atom_site_label
 _atom_site_symmetry_multiplicity
 _atom_site_fract_x
 _atom_site_fract_y
 _atom_site_fract_z
 _atom_site_occupancy
  Tb  Tb0  1  0.813386  0.705072  0.518459  1
  Tb  Tb1  1  0.186614  0.294928  0.481541  1
  Tb  Tb2  1  0.186614  0.705072  0.891688  1
  Tb  Tb3  1  0.813386  0.294928  0.108312  1
  Tb  Tb4  1  0.684223  0.378473  0.694248  1
  Tb  Tb5  1  0.315777  0.621527  0.305752  1
  Tb  Tb6  1  0.684223  0.989975  0.305752  1
  Tb  Tb7  1  0.315777  0.010025  0.694248  1
  Tb  Tb8  1  0.587915  0.786404  0.801512  1
  Tb  Tb9  1  0.412085  0.213596  0.198488  1
  Tb  Tb10  1  0.984892  0.786404  0.198488  1
  Tb  Tb11  1  0.015108  0.213596  0.801512  1
  In  In12  1  0.500000  0.500000  0.000000  1
  Co  Co13  1  0.623081  0.000000  0.623081  1
  Co  Co14  1  0.376919  0.000000  0.376919  1
  Co  Co15  1  0.111858  0.611858  0.500000  1
  Co  Co16  1  0.888142  0.388142  0.500000  1
  Cu  Cu17  1  0.000000  0.000000  0.000000  1
