# generated using pymatgen
data_CsK3Rb5GaBi4
_symmetry_space_group_name_H-M   'P 1'
_cell_length_a   11.19945235
_cell_length_b   11.11289889
_cell_length_c   11.76680254
_cell_angle_alpha   89.99999819
_cell_angle_beta   89.90235082
_cell_angle_gamma   119.74466793
_symmetry_Int_Tables_number   1
_chemical_formula_structural   CsK3Rb5GaBi4
_chemical_formula_sum   'Cs2 K6 Rb10 Ga2 Bi8'
_cell_volume   1271.52254209
_cell_formula_units_Z   2
loop_
 _symmetry_equiv_pos_site_id
 _symmetry_equiv_pos_as_xyz
  1  'x, y, z'
loop_
 _atom_site_type_symbol
 _atom_site_label
 _atom_site_symmetry_multiplicity
 _atom_site_fract_x
 _atom_site_fract_y
 _atom_site_fract_z
 _atom_site_occupancy
  Cs  Cs0  1  0.209611  0.418831  0.958027  1
  Cs  Cs1  1  0.209611  0.790778  0.958027  1
  K  K2  1  0.118296  0.236573  0.251105  1
  K  K3  1  0.880244  0.117943  0.749443  1
  K  K4  1  0.237344  0.118672  0.749059  1
  K  K5  1  0.763001  0.881500  0.250106  1
  K  K6  1  0.118296  0.881722  0.251105  1
  K  K7  1  0.880244  0.762302  0.749443  1
  Rb  Rb8  1  0.208082  0.416613  0.540179  1
  Rb  Rb9  1  0.791011  0.208048  0.041089  1
  Rb  Rb10  1  0.417666  0.208834  0.041137  1
  Rb  Rb11  1  0.583540  0.791769  0.540800  1
  Rb  Rb12  1  0.208082  0.791467  0.540179  1
  Rb  Rb13  1  0.791817  0.583272  0.459501  1
  Rb  Rb14  1  0.791817  0.208547  0.459501  1
  Rb  Rb15  1  0.791011  0.582965  0.041089  1
  Rb  Rb16  1  0.416892  0.208447  0.459270  1
  Rb  Rb17  1  0.584711  0.792354  0.959203  1
  Ga  Ga18  1  0.332553  0.666277  0.251454  1
  Ga  Ga19  1  0.668166  0.334083  0.747758  1
  Bi  Bi20  1  0.478643  0.522671  0.251176  1
  Bi  Bi21  1  0.952759  0.476380  0.748405  1
  Bi  Bi22  1  0.522483  0.045456  0.749256  1
  Bi  Bi23  1  0.478643  0.955971  0.251176  1
  Bi  Bi24  1  0.044558  0.522278  0.252736  1
  Bi  Bi25  1  0.522483  0.477029  0.749256  1
  Bi  Bi26  1  0.998124  0.999062  0.000375  1
  Bi  Bi27  1  0.000315  0.000157  0.500145  1
