# generated using pymatgen
data_Hf3AlGa2PdPt2
_symmetry_space_group_name_H-M   'P 1'
_cell_length_a   7.10209700
_cell_length_b   7.17304307
_cell_length_c   7.10582400
_cell_angle_alpha   90.00000000
_cell_angle_beta   90.00000000
_cell_angle_gamma   119.67336028
_symmetry_Int_Tables_number   1
_chemical_formula_structural   Hf3AlGa2PdPt2
_chemical_formula_sum   'Hf6 Al2 Ga4 Pd2 Pt4'
_cell_volume   314.52500676
_cell_formula_units_Z   2
loop_
 _symmetry_equiv_pos_site_id
 _symmetry_equiv_pos_as_xyz
  1  'x, y, z'
loop_
 _atom_site_type_symbol
 _atom_site_label
 _atom_site_symmetry_multiplicity
 _atom_site_fract_x
 _atom_site_fract_y
 _atom_site_fract_z
 _atom_site_occupancy
  Hf  Hf0  1  0.419168  0.392403  0.250000  1
  Hf  Hf1  1  0.584160  0.971722  0.750000  1
  Hf  Hf2  1  0.391179  0.419389  0.750000  1
  Hf  Hf3  1  0.026765  0.607597  0.750000  1
  Hf  Hf4  1  0.971790  0.580611  0.250000  1
  Hf  Hf5  1  0.612438  0.028278  0.250000  1
  Al  Al6  1  0.260809  0.000000  0.000000  1
  Al  Al7  1  0.260809  0.000000  0.500000  1
  Ga  Ga8  1  0.003869  0.266762  0.500161  1
  Ga  Ga9  1  0.003869  0.266762  0.999839  1
  Ga  Ga10  1  0.737107  0.733238  0.000161  1
  Ga  Ga11  1  0.737107  0.733238  0.499839  1
  Pd  Pd12  1  0.002031  0.999340  0.750000  1
  Pd  Pd13  1  0.002691  0.000660  0.250000  1
  Pt  Pt14  1  0.660437  0.327768  0.536222  1
  Pt  Pt15  1  0.660437  0.327768  0.963778  1
  Pt  Pt16  1  0.332667  0.672232  0.036222  1
  Pt  Pt17  1  0.332667  0.672232  0.463778  1
