# generated using pymatgen
data_Zr10C8N
_symmetry_space_group_name_H-M   'P 1'
_cell_length_a   8.81171053
_cell_length_b   8.81427446
_cell_length_c   11.03851216
_cell_angle_alpha   63.00472446
_cell_angle_beta   63.01183749
_cell_angle_gamma   44.53237075
_symmetry_Int_Tables_number   1
_chemical_formula_structural   Zr10C8N
_chemical_formula_sum   'Zr20 C16 N2'
_cell_volume   523.99359208
_cell_formula_units_Z   2
loop_
 _symmetry_equiv_pos_site_id
 _symmetry_equiv_pos_as_xyz
  1  'x, y, z'
loop_
 _atom_site_type_symbol
 _atom_site_label
 _atom_site_symmetry_multiplicity
 _atom_site_fract_x
 _atom_site_fract_y
 _atom_site_fract_z
 _atom_site_occupancy
  Zr  Zr0  1  0.224819  0.478973  0.946540  1
  Zr  Zr1  1  0.721376  0.966582  0.956303  1
  Zr  Zr2  1  0.564517  0.330809  0.648619  1
  Zr  Zr3  1  0.435483  0.669191  0.351381  1
  Zr  Zr4  1  0.278624  0.033418  0.043697  1
  Zr  Zr5  1  0.081541  0.814441  0.644842  1
  Zr  Zr6  1  0.123935  0.372066  0.750201  1
  Zr  Zr7  1  0.918459  0.185559  0.355158  1
  Zr  Zr8  1  0.967371  0.720857  0.456236  1
  Zr  Zr9  1  0.775181  0.521027  0.053460  1
  Zr  Zr10  1  0.627550  0.876656  0.749271  1
  Zr  Zr11  1  0.814104  0.081164  0.145195  1
  Zr  Zr12  1  0.478566  0.223361  0.447142  1
  Zr  Zr13  1  0.669678  0.435649  0.851276  1
  Zr  Zr14  1  0.521434  0.776639  0.552858  1
  Zr  Zr15  1  0.330322  0.564351  0.148724  1
  Zr  Zr16  1  0.372450  0.123344  0.250729  1
  Zr  Zr17  1  0.185896  0.918836  0.854805  1
  Zr  Zr18  1  0.032629  0.279143  0.543764  1
  Zr  Zr19  1  0.876065  0.627934  0.249799  1
  C  C20  1  0.576403  0.826846  0.146641  1
  C  C21  1  0.777053  0.024661  0.550667  1
  C  C22  1  0.423597  0.173154  0.853359  1
  C  C23  1  0.625620  0.376319  0.249072  1
  C  C24  1  0.274354  0.528960  0.551873  1
  C  C25  1  0.473271  0.724568  0.949345  1
  C  C26  1  0.322411  0.075366  0.650831  1
  C  C27  1  0.172842  0.424240  0.352070  1
  C  C28  1  0.974842  0.224832  0.950304  1
  C  C29  1  0.827158  0.575760  0.647930  1
  C  C30  1  0.025158  0.775168  0.049696  1
  C  C31  1  0.677589  0.924634  0.349169  1
  C  C32  1  0.725646  0.471040  0.448127  1
  C  C33  1  0.526729  0.275432  0.050655  1
  C  C34  1  0.374380  0.623681  0.750928  1
  C  C35  1  0.222947  0.975339  0.449333  1
  N  N36  1  0.074773  0.322732  0.149113  1
  N  N37  1  0.925227  0.677268  0.850887  1
