# generated using pymatgen
data_Sc8V7Si16W5
_symmetry_space_group_name_H-M   'P 1'
_cell_length_a   6.66778322
_cell_length_b   6.67115741
_cell_length_c   12.37548910
_cell_angle_alpha   90.03944123
_cell_angle_beta   89.97197182
_cell_angle_gamma   90.00820899
_symmetry_Int_Tables_number   1
_chemical_formula_structural   Sc8V7Si16W5
_chemical_formula_sum   'Sc8 V7 Si16 W5'
_cell_volume   550.48421821
_cell_formula_units_Z   1
loop_
 _symmetry_equiv_pos_site_id
 _symmetry_equiv_pos_as_xyz
  1  'x, y, z'
loop_
 _atom_site_type_symbol
 _atom_site_label
 _atom_site_symmetry_multiplicity
 _atom_site_fract_x
 _atom_site_fract_y
 _atom_site_fract_z
 _atom_site_occupancy
  Sc  Sc0  1  0.002275  0.662329  0.029876  1
  Sc  Sc1  1  0.837121  0.500999  0.280257  1
  Sc  Sc2  1  0.163131  0.498278  0.779386  1
  Sc  Sc3  1  0.502034  0.837288  0.719993  1
  Sc  Sc4  1  0.498313  0.162864  0.220162  1
  Sc  Sc5  1  0.997733  0.337441  0.530198  1
  Sc  Sc6  1  0.663730  0.002138  0.969720  1
  Sc  Sc7  1  0.337429  0.997258  0.470486  1
  V  V8  1  0.342761  0.504849  0.376501  1
  V  V9  1  0.657197  0.494928  0.876046  1
  V  V10  1  0.505352  0.342682  0.623566  1
  V  V11  1  0.494604  0.657927  0.123662  1
  V  V12  1  0.994717  0.842683  0.626420  1
  V  V13  1  0.157187  0.005071  0.874056  1
  V  V14  1  0.842789  0.995307  0.373182  1
  Si  Si15  1  0.299079  0.957678  0.062830  1
  Si  Si16  1  0.539518  0.794843  0.314518  1
  Si  Si17  1  0.459600  0.205117  0.813305  1
  Si  Si18  1  0.794723  0.540195  0.686249  1
  Si  Si19  1  0.208013  0.462701  0.187507  1
  Si  Si20  1  0.705305  0.039909  0.563497  1
  Si  Si21  1  0.959241  0.297235  0.933722  1
  Si  Si22  1  0.039896  0.705562  0.436722  1
  Si  Si23  1  0.702599  0.374224  0.070032  1
  Si  Si24  1  0.130468  0.206662  0.323707  1
  Si  Si25  1  0.871061  0.794299  0.820969  1
  Si  Si26  1  0.205686  0.128892  0.678677  1
  Si  Si27  1  0.791435  0.865193  0.179742  1
  Si  Si28  1  0.294214  0.628840  0.571346  1
  Si  Si29  1  0.371013  0.705271  0.928188  1
  Si  Si30  1  0.629023  0.294119  0.428976  1
  W  W31  1  0.332712  0.333065  0.999530  1
  W  W32  1  0.167605  0.832355  0.250682  1
  W  W33  1  0.832559  0.166866  0.749588  1
  W  W34  1  0.667184  0.667079  0.500179  1
  W  W35  1  0.002694  0.157853  0.126522  1
