# generated using pymatgen
data_DyAs3PRu6
_symmetry_space_group_name_H-M   'P 1'
_cell_length_a   7.12310700
_cell_length_b   7.12310845
_cell_length_c   3.83101900
_cell_angle_alpha   90.00000000
_cell_angle_beta   90.00000000
_cell_angle_gamma   119.99999792
_symmetry_Int_Tables_number   1
_chemical_formula_structural   DyAs3PRu6
_chemical_formula_sum   'Dy1 As3 P1 Ru6'
_cell_volume   168.33870091
_cell_formula_units_Z   1
loop_
 _symmetry_equiv_pos_site_id
 _symmetry_equiv_pos_as_xyz
  1  'x, y, z'
loop_
 _atom_site_type_symbol
 _atom_site_label
 _atom_site_symmetry_multiplicity
 _atom_site_fract_x
 _atom_site_fract_y
 _atom_site_fract_z
 _atom_site_occupancy
  Dy  Dy0  1  0.000000  0.000000  0.000000  1
  As  As1  1  0.190142  0.380283  0.500000  1
  As  As2  1  0.619717  0.809858  0.500000  1
  As  As3  1  0.190142  0.809858  0.500000  1
  P  P4  1  0.666667  0.333333  0.000000  1
  Ru  Ru5  1  0.795791  0.591583  0.500000  1
  Ru  Ru6  1  0.408417  0.204209  0.500000  1
  Ru  Ru7  1  0.795791  0.204209  0.500000  1
  Ru  Ru8  1  0.468285  0.936568  0.000000  1
  Ru  Ru9  1  0.063432  0.531715  0.000000  1
  Ru  Ru10  1  0.468285  0.531715  0.000000  1
