# generated using pymatgen
data_Er4Zr3PtF28
_symmetry_space_group_name_H-M   'P 1'
_cell_length_a   5.62876693
_cell_length_b   8.96320797
_cell_length_c   12.13433303
_cell_angle_alpha   62.69775829
_cell_angle_beta   89.95262192
_cell_angle_gamma   89.93785383
_symmetry_Int_Tables_number   1
_chemical_formula_structural   Er4Zr3PtF28
_chemical_formula_sum   'Er4 Zr3 Pt1 F28'
_cell_volume   543.99927974
_cell_formula_units_Z   1
loop_
 _symmetry_equiv_pos_site_id
 _symmetry_equiv_pos_as_xyz
  1  'x, y, z'
loop_
 _atom_site_type_symbol
 _atom_site_label
 _atom_site_symmetry_multiplicity
 _atom_site_fract_x
 _atom_site_fract_y
 _atom_site_fract_z
 _atom_site_occupancy
  Er  Er0  1  0.756414  0.818312  0.764455  1
  Er  Er1  1  0.257015  0.182966  0.733740  1
  Er  Er2  1  0.242598  0.181978  0.239717  1
  Er  Er3  1  0.744901  0.813907  0.266063  1
  Zr  Zr4  1  0.757040  0.272661  0.958222  1
  Zr  Zr5  1  0.255643  0.725681  0.542447  1
  Zr  Zr6  1  0.244429  0.724417  0.044434  1
  Pt  Pt7  1  0.739235  0.271880  0.456900  1
  F  F8  1  0.456985  0.709237  0.914036  1
  F  F9  1  0.937111  0.295108  0.582021  1
  F  F10  1  0.543867  0.288622  0.087491  1
  F  F11  1  0.043194  0.710868  0.413519  1
  F  F12  1  0.444866  0.273835  0.545344  1
  F  F13  1  0.938093  0.729318  0.950336  1
  F  F14  1  0.562048  0.727324  0.450902  1
  F  F15  1  0.062281  0.269367  0.051806  1
  F  F16  1  0.782736  0.527725  0.859550  1
  F  F17  1  0.275494  0.470586  0.638758  1
  F  F18  1  0.217276  0.470343  0.143269  1
  F  F19  1  0.721391  0.518366  0.359485  1
  F  F20  1  0.758705  0.019711  0.060352  1
  F  F21  1  0.258039  0.979189  0.440582  1
  F  F22  1  0.241808  0.978054  0.939231  1
  F  F23  1  0.746319  0.025637  0.551117  1
  F  F24  1  0.970568  0.734820  0.643401  1
  F  F25  1  0.473554  0.268621  0.854616  1
  F  F26  1  0.025274  0.274886  0.362239  1
  F  F27  1  0.527953  0.729410  0.146343  1
  F  F28  1  0.043171  0.749541  0.175011  1
  F  F29  1  0.548587  0.254730  0.326552  1
  F  F30  1  0.959248  0.250443  0.824825  1
  F  F31  1  0.460163  0.751401  0.673135  1
  F  F32  1  0.425507  0.971466  0.235165  1
  F  F33  1  0.925172  0.028383  0.266189  1
  F  F34  1  0.576635  0.029780  0.766242  1
  F  F35  1  0.076678  0.971428  0.732507  1
