# generated using pymatgen
data_Cs3Os2Br10N
_symmetry_space_group_name_H-M   'P 1'
_cell_length_a   7.77780500
_cell_length_b   7.77780500
_cell_length_c   19.59982800
_cell_angle_alpha   90.00000000
_cell_angle_beta   90.00000000
_cell_angle_gamma   90.00000000
_symmetry_Int_Tables_number   1
_chemical_formula_structural   Cs3Os2Br10N
_chemical_formula_sum   'Cs6 Os4 Br20 N2'
_cell_volume   1185.67690710
_cell_formula_units_Z   2
loop_
 _symmetry_equiv_pos_site_id
 _symmetry_equiv_pos_as_xyz
  1  'x, y, z'
loop_
 _atom_site_type_symbol
 _atom_site_label
 _atom_site_symmetry_multiplicity
 _atom_site_fract_x
 _atom_site_fract_y
 _atom_site_fract_z
 _atom_site_occupancy
  Cs  Cs0  1  0.500000  0.500000  0.000000  1
  Cs  Cs1  1  0.000000  0.000000  0.500000  1
  Cs  Cs2  1  0.000000  0.500000  0.250000  1
  Cs  Cs3  1  0.500000  0.000000  0.750000  1
  Cs  Cs4  1  0.500000  0.000000  0.250000  1
  Cs  Cs5  1  0.000000  0.500000  0.750000  1
  Os  Os6  1  0.500000  0.500000  0.409007  1
  Os  Os7  1  0.000000  0.000000  0.909007  1
  Os  Os8  1  0.500000  0.500000  0.590993  1
  Os  Os9  1  0.000000  0.000000  0.090993  1
  Br  Br10  1  0.765812  0.682482  0.398671  1
  Br  Br11  1  0.234188  0.317518  0.398671  1
  Br  Br12  1  0.734188  0.182482  0.898671  1
  Br  Br13  1  0.265812  0.817518  0.898671  1
  Br  Br14  1  0.682482  0.234188  0.398671  1
  Br  Br15  1  0.317518  0.765812  0.398671  1
  Br  Br16  1  0.182482  0.265812  0.898671  1
  Br  Br17  1  0.817518  0.734188  0.898671  1
  Br  Br18  1  0.234188  0.317518  0.601329  1
  Br  Br19  1  0.765812  0.682482  0.601329  1
  Br  Br20  1  0.265812  0.817518  0.101329  1
  Br  Br21  1  0.734188  0.182482  0.101329  1
  Br  Br22  1  0.317518  0.765812  0.601329  1
  Br  Br23  1  0.682482  0.234188  0.601329  1
  Br  Br24  1  0.817518  0.734188  0.101329  1
  Br  Br25  1  0.182482  0.265812  0.101329  1
  Br  Br26  1  0.500000  0.500000  0.273579  1
  Br  Br27  1  0.000000  0.000000  0.773579  1
  Br  Br28  1  0.500000  0.500000  0.726421  1
  Br  Br29  1  0.000000  0.000000  0.226421  1
  N  N30  1  0.500000  0.500000  0.500000  1
  N  N31  1  0.000000  0.000000  0.000000  1
