# generated using pymatgen
data_Y5Ho3Pt4
_symmetry_space_group_name_H-M   'P 1'
_cell_length_a   4.77294100
_cell_length_b   7.17678111
_cell_length_c   8.81302914
_cell_angle_alpha   89.97979496
_cell_angle_beta   90.00000000
_cell_angle_gamma   90.00000000
_symmetry_Int_Tables_number   1
_chemical_formula_structural   Y5Ho3Pt4
_chemical_formula_sum   'Y5 Ho3 Pt4'
_cell_volume   301.88459066
_cell_formula_units_Z   1
loop_
 _symmetry_equiv_pos_site_id
 _symmetry_equiv_pos_as_xyz
  1  'x, y, z'
loop_
 _atom_site_type_symbol
 _atom_site_label
 _atom_site_symmetry_multiplicity
 _atom_site_fract_x
 _atom_site_fract_y
 _atom_site_fract_z
 _atom_site_occupancy
  Y  Y0  1  0.750000  0.644731  0.419977  1
  Y  Y1  1  0.250000  0.989402  0.331239  1
  Y  Y2  1  0.250000  0.488932  0.168395  1
  Y  Y3  1  0.750000  0.011158  0.669023  1
  Y  Y4  1  0.750000  0.510944  0.831367  1
  Ho  Ho5  1  0.250000  0.855750  0.920118  1
  Ho  Ho6  1  0.250000  0.355448  0.580033  1
  Ho  Ho7  1  0.750000  0.144264  0.079864  1
  Pt  Pt8  1  0.250000  0.257089  0.906113  1
  Pt  Pt9  1  0.250000  0.757557  0.594774  1
  Pt  Pt10  1  0.750000  0.743114  0.093010  1
  Pt  Pt11  1  0.750000  0.241612  0.406088  1
