# generated using pymatgen
data_Nd2Ni10P7W2
_symmetry_space_group_name_H-M   'P 1'
_cell_length_a   9.17801814
_cell_length_b   9.21821679
_cell_length_c   3.74726600
_cell_angle_alpha   90.00000000
_cell_angle_beta   90.00000000
_cell_angle_gamma   119.91545705
_symmetry_Int_Tables_number   1
_chemical_formula_structural   Nd2Ni10P7W2
_chemical_formula_sum   'Nd2 Ni10 P7 W2'
_cell_volume   274.79595372
_cell_formula_units_Z   1
loop_
 _symmetry_equiv_pos_site_id
 _symmetry_equiv_pos_as_xyz
  1  'x, y, z'
loop_
 _atom_site_type_symbol
 _atom_site_label
 _atom_site_symmetry_multiplicity
 _atom_site_fract_x
 _atom_site_fract_y
 _atom_site_fract_z
 _atom_site_occupancy
  Nd  Nd0  1  0.667257  0.334642  0.500000  1
  Nd  Nd1  1  0.336816  0.667545  0.000000  1
  Ni  Ni2  1  0.723904  0.874614  0.000000  1
  Ni  Ni3  1  0.939526  0.366878  0.000000  1
  Ni  Ni4  1  0.155726  0.281772  0.000000  1
  Ni  Ni5  1  0.384651  0.436815  0.500000  1
  Ni  Ni6  1  0.121767  0.844611  0.000000  1
  Ni  Ni7  1  0.428867  0.060935  0.000000  1
  Ni  Ni8  1  0.047455  0.619762  0.500000  1
  Ni  Ni9  1  0.563288  0.946377  0.500000  1
  Ni  Ni10  1  0.628780  0.567729  0.000000  1
  Ni  Ni11  1  0.879538  0.781515  0.500000  1
  P  P12  1  0.407770  0.300612  0.000000  1
  P  P13  1  0.291552  0.887119  0.500000  1
  P  P14  1  0.700471  0.107852  0.000000  1
  P  P15  1  0.603328  0.710045  0.500000  1
  P  P16  1  0.892011  0.593259  0.000000  1
  P  P17  1  0.110156  0.406767  0.500000  1
  P  P18  1  0.999064  0.995825  0.000000  1
  W  W19  1  0.214975  0.100148  0.500000  1
  W  W20  1  0.903096  0.115173  0.500000  1
