# generated using pymatgen
data_CePrPt2Pb
_symmetry_space_group_name_H-M   'P 1'
_cell_length_a   8.08162400
_cell_length_b   8.07026300
_cell_length_c   3.73057100
_cell_angle_alpha   90.00000000
_cell_angle_beta   90.00000000
_cell_angle_gamma   90.00000000
_symmetry_Int_Tables_number   1
_chemical_formula_structural   CePrPt2Pb
_chemical_formula_sum   'Ce2 Pr2 Pt4 Pb2'
_cell_volume   243.31094127
_cell_formula_units_Z   2
loop_
 _symmetry_equiv_pos_site_id
 _symmetry_equiv_pos_as_xyz
  1  'x, y, z'
loop_
 _atom_site_type_symbol
 _atom_site_label
 _atom_site_symmetry_multiplicity
 _atom_site_fract_x
 _atom_site_fract_y
 _atom_site_fract_z
 _atom_site_occupancy
  Ce  Ce0  1  0.827696  0.671875  0.500000  1
  Ce  Ce1  1  0.327696  0.828125  0.500000  1
  Pr  Pr2  1  0.672773  0.172360  0.500000  1
  Pr  Pr3  1  0.172773  0.327640  0.500000  1
  Pt  Pt4  1  0.372819  0.110030  0.000000  1
  Pt  Pt5  1  0.127061  0.639471  0.000000  1
  Pt  Pt6  1  0.627061  0.860529  0.000000  1
  Pt  Pt7  1  0.872819  0.389970  0.000000  1
  Pb  Pb8  1  0.999650  0.000671  0.000000  1
  Pb  Pb9  1  0.499650  0.499329  0.000000  1
