# generated using pymatgen
data_PmSi2PdPt
_symmetry_space_group_name_H-M   'P 1'
_cell_length_a   5.83134910
_cell_length_b   5.83134872
_cell_length_c   5.83134903
_cell_angle_alpha   137.78907283
_cell_angle_beta   137.78906287
_cell_angle_gamma   61.22620269
_symmetry_Int_Tables_number   1
_chemical_formula_structural   PmSi2PdPt
_chemical_formula_sum   'Pm1 Si2 Pd1 Pt1'
_cell_volume   88.51020854
_cell_formula_units_Z   1
loop_
 _symmetry_equiv_pos_site_id
 _symmetry_equiv_pos_as_xyz
  1  'x, y, z'
loop_
 _atom_site_type_symbol
 _atom_site_label
 _atom_site_symmetry_multiplicity
 _atom_site_fract_x
 _atom_site_fract_y
 _atom_site_fract_z
 _atom_site_occupancy
  Pm  Pm0  1  0.000000  0.000000  0.000000  1
  Si  Si1  1  0.382109  0.382109  0.000000  1
  Si  Si2  1  0.617890  0.617890  0.000000  1
  Pd  Pd3  1  0.750000  0.250000  0.500000  1
  Pt  Pt4  1  0.250000  0.750000  0.500000  1
