# generated using pymatgen
data_K3CoO4F
_symmetry_space_group_name_H-M   'P 1'
_cell_length_a   7.76589731
_cell_length_b   7.76591435
_cell_length_c   7.76642326
_cell_angle_alpha   123.01875724
_cell_angle_beta   122.67657827
_cell_angle_gamma   85.13111877
_symmetry_Int_Tables_number   1
_chemical_formula_structural   K3CoO4F
_chemical_formula_sum   'K6 Co2 O8 F2'
_cell_volume   315.70765649
_cell_formula_units_Z   2
loop_
 _symmetry_equiv_pos_site_id
 _symmetry_equiv_pos_as_xyz
  1  'x, y, z'
loop_
 _atom_site_type_symbol
 _atom_site_label
 _atom_site_symmetry_multiplicity
 _atom_site_fract_x
 _atom_site_fract_y
 _atom_site_fract_z
 _atom_site_occupancy
  K  K0  1  0.184907  0.684734  0.869626  1
  K  K1  1  0.749992  0.750032  0.000025  1
  K  K2  1  0.315327  0.184505  0.499842  1
  K  K3  1  0.815093  0.315266  0.130374  1
  K  K4  1  0.684673  0.815495  0.500158  1
  K  K5  1  0.250008  0.249968  0.999975  1
  Co  Co6  1  0.749869  0.249868  0.499991  1
  Co  Co7  1  0.250131  0.750132  0.500009  1
  O  O8  1  0.036524  0.790134  0.499144  1
  O  O9  1  0.463663  0.962814  0.754065  1
  O  O10  1  0.791271  0.290434  0.754050  1
  O  O11  1  0.208729  0.709566  0.245950  1
  O  O12  1  0.290987  0.537386  0.500824  1
  O  O13  1  0.536337  0.037186  0.245935  1
  O  O14  1  0.709013  0.462614  0.499176  1
  O  O15  1  0.963476  0.209866  0.500856  1
  F  F16  1  0.500000  0.500000  0.000000  1
  F  F17  1  0.000000  0.000000  0.000000  1
