# generated using pymatgen
data_Sc8Nb11Si16Ni
_symmetry_space_group_name_H-M   'P 1'
_cell_length_a   6.66128127
_cell_length_b   6.88703877
_cell_length_c   13.11545200
_cell_angle_alpha   90.00000000
_cell_angle_beta   90.00000000
_cell_angle_gamma   90.57231902
_symmetry_Int_Tables_number   1
_chemical_formula_structural   Sc8Nb11Si16Ni
_chemical_formula_sum   'Sc8 Nb11 Si16 Ni1'
_cell_volume   601.66104728
_cell_formula_units_Z   1
loop_
 _symmetry_equiv_pos_site_id
 _symmetry_equiv_pos_as_xyz
  1  'x, y, z'
loop_
 _atom_site_type_symbol
 _atom_site_label
 _atom_site_symmetry_multiplicity
 _atom_site_fract_x
 _atom_site_fract_y
 _atom_site_fract_z
 _atom_site_occupancy
  Sc  Sc0  1  0.497989  0.675556  0.593709  1
  Sc  Sc1  1  0.002220  0.826563  0.906281  1
  Sc  Sc2  1  0.497639  0.327012  0.095061  1
  Sc  Sc3  1  0.999172  0.173780  0.402753  1
  Sc  Sc4  1  0.497639  0.327012  0.404939  1
  Sc  Sc5  1  0.999172  0.173780  0.097247  1
  Sc  Sc6  1  0.497989  0.675556  0.906291  1
  Sc  Sc7  1  0.002220  0.826563  0.593719  1
  Nb  Nb8  1  0.669760  0.173218  0.628117  1
  Nb  Nb9  1  0.158672  0.324060  0.871714  1
  Nb  Nb10  1  0.336472  0.826148  0.124487  1
  Nb  Nb11  1  0.835941  0.674328  0.376707  1
  Nb  Nb12  1  0.336472  0.826148  0.375513  1
  Nb  Nb13  1  0.835941  0.674328  0.123293  1
  Nb  Nb14  1  0.669760  0.173218  0.871883  1
  Nb  Nb15  1  0.158672  0.324060  0.628286  1
  Nb  Nb16  1  0.340484  0.999341  0.750000  1
  Nb  Nb17  1  0.161545  0.505571  0.250000  1
  Nb  Nb18  1  0.662381  0.995668  0.250000  1
  Si  Si19  1  0.669181  0.968213  0.460919  1
  Si  Si20  1  0.168402  0.532878  0.037830  1
  Si  Si21  1  0.333546  0.035240  0.959376  1
  Si  Si22  1  0.831856  0.463924  0.539195  1
  Si  Si23  1  0.333546  0.035240  0.540624  1
  Si  Si24  1  0.831856  0.463924  0.960805  1
  Si  Si25  1  0.669181  0.968213  0.039081  1
  Si  Si26  1  0.168402  0.532878  0.462170  1
  Si  Si27  1  0.471908  0.391065  0.750000  1
  Si  Si28  1  0.962915  0.104573  0.750000  1
  Si  Si29  1  0.538568  0.613264  0.250000  1
  Si  Si30  1  0.039238  0.886642  0.250000  1
  Si  Si31  1  0.708698  0.851853  0.750000  1
  Si  Si32  1  0.197645  0.629992  0.750000  1
  Si  Si33  1  0.295646  0.138592  0.250000  1
  Si  Si34  1  0.792159  0.362944  0.250000  1
  Ni  Ni35  1  0.827114  0.518656  0.750000  1
