# generated using pymatgen
data_Sr2PrHg(Pt2O7)2
_symmetry_space_group_name_H-M   'P 1'
_cell_length_a   7.51885680
_cell_length_b   7.51885571
_cell_length_c   7.40765056
_cell_angle_alpha   59.47632515
_cell_angle_beta   59.47631240
_cell_angle_gamma   59.57715403
_symmetry_Int_Tables_number   1
_chemical_formula_structural   Sr2PrHg(Pt2O7)2
_chemical_formula_sum   'Sr2 Pr1 Hg1 Pt4 O14'
_cell_volume   292.82006623
_cell_formula_units_Z   1
loop_
 _symmetry_equiv_pos_site_id
 _symmetry_equiv_pos_as_xyz
  1  'x, y, z'
loop_
 _atom_site_type_symbol
 _atom_site_label
 _atom_site_symmetry_multiplicity
 _atom_site_fract_x
 _atom_site_fract_y
 _atom_site_fract_z
 _atom_site_occupancy
  Sr  Sr0  1  0.625000  0.125000  0.125000  1
  Sr  Sr1  1  0.125000  0.625000  0.125000  1
  Pr  Pr2  1  0.125000  0.125000  0.125000  1
  Hg  Hg3  1  0.125000  0.125000  0.625000  1
  Pt  Pt4  1  0.625000  0.625000  0.125000  1
  Pt  Pt5  1  0.625000  0.625000  0.625000  1
  Pt  Pt6  1  0.625000  0.125000  0.625000  1
  Pt  Pt7  1  0.125000  0.625000  0.625000  1
  O  O8  1  0.712334  0.295486  0.292860  1
  O  O9  1  0.694750  0.301418  0.700470  1
  O  O10  1  0.016954  0.016954  0.965115  1
  O  O11  1  0.295486  0.712334  0.292860  1
  O  O12  1  0.701612  0.701612  0.296166  1
  O  O13  1  0.948582  0.555250  0.549530  1
  O  O14  1  0.301418  0.694750  0.700470  1
  O  O15  1  0.233046  0.233046  0.284885  1
  O  O16  1  0.954514  0.537666  0.957140  1
  O  O17  1  0.555250  0.948582  0.549530  1
  O  O18  1  0.548388  0.548388  0.953834  1
  O  O19  1  0.949094  0.949094  0.539878  1
  O  O20  1  0.537666  0.954514  0.957140  1
  O  O21  1  0.300906  0.300906  0.710122  1
