# generated using pymatgen
data_Ho4Si10Ir5Pt
_symmetry_space_group_name_H-M   'P 1'
_cell_length_a   8.14607062
_cell_length_b   8.16071113
_cell_length_c   8.16071134
_cell_angle_alpha   138.33370729
_cell_angle_beta   103.93889764
_cell_angle_gamma   90.71841193
_symmetry_Int_Tables_number   1
_chemical_formula_structural   Ho4Si10Ir5Pt
_chemical_formula_sum   'Ho4 Si10 Ir5 Pt1'
_cell_volume   334.09303914
_cell_formula_units_Z   1
loop_
 _symmetry_equiv_pos_site_id
 _symmetry_equiv_pos_as_xyz
  1  'x, y, z'
loop_
 _atom_site_type_symbol
 _atom_site_label
 _atom_site_symmetry_multiplicity
 _atom_site_fract_x
 _atom_site_fract_y
 _atom_site_fract_z
 _atom_site_occupancy
  Ho  Ho0  1  0.598215  0.869799  0.728417  1
  Ho  Ho1  1  0.140228  0.369312  0.770916  1
  Ho  Ho2  1  0.861527  0.630833  0.230695  1
  Ho  Ho3  1  0.400343  0.130757  0.269586  1
  Si  Si4  1  0.773215  0.024575  0.247229  1
  Si  Si5  1  0.225722  0.974556  0.749675  1
  Si  Si6  1  0.773215  0.525987  0.748639  1
  Si  Si7  1  0.953983  0.105598  0.848385  1
  Si  Si8  1  0.050514  0.893384  0.157131  1
  Si  Si9  1  0.497700  0.253889  0.751618  1
  Si  Si10  1  0.497700  0.746082  0.243811  1
  Si  Si11  1  0.736340  0.393393  0.342947  1
  Si  Si12  1  0.262171  0.605677  0.656494  1
  Si  Si13  1  0.225722  0.476048  0.251167  1
  Ir  Ir14  1  0.999392  0.249660  0.251574  1
  Ir  Ir15  1  0.999392  0.747818  0.749732  1
  Ir  Ir16  1  0.247691  0.860809  0.386883  1
  Ir  Ir17  1  0.526005  0.640223  0.885782  1
  Ir  Ir18  1  0.474214  0.361326  0.112888  1
  Pt  Pt19  1  0.756708  0.140277  0.616430  1
