# generated using pymatgen
data_CaYb6HoBi6
_symmetry_space_group_name_H-M   'P 1'
_cell_length_a   8.28523175
_cell_length_b   8.35274254
_cell_length_c   8.35274129
_cell_angle_alpha   109.63436524
_cell_angle_beta   109.30758089
_cell_angle_gamma   109.30757313
_symmetry_Int_Tables_number   1
_chemical_formula_structural   CaYb6HoBi6
_chemical_formula_sum   'Ca1 Yb6 Ho1 Bi6'
_cell_volume   445.87591866
_cell_formula_units_Z   1
loop_
 _symmetry_equiv_pos_site_id
 _symmetry_equiv_pos_as_xyz
  1  'x, y, z'
loop_
 _atom_site_type_symbol
 _atom_site_label
 _atom_site_symmetry_multiplicity
 _atom_site_fract_x
 _atom_site_fract_y
 _atom_site_fract_z
 _atom_site_occupancy
  Ca  Ca0  1  0.148309  0.500000  0.000000  1
  Yb  Yb1  1  0.500095  0.997581  0.645542  1
  Yb  Yb2  1  0.350949  0.350969  0.351164  1
  Yb  Yb3  1  0.499979  0.000194  0.149031  1
  Yb  Yb4  1  0.002514  0.647961  0.502419  1
  Yb  Yb5  1  0.854554  0.854458  0.852039  1
  Yb  Yb6  1  0.999784  0.148836  0.499806  1
  Ho  Ho7  1  0.645459  0.500000  0.000000  1
  Bi  Bi8  1  0.380992  0.625247  0.754508  1
  Bi  Bi9  1  0.871265  0.254295  0.124368  1
  Bi  Bi10  1  0.626485  0.745492  0.370739  1
  Bi  Bi11  1  0.116971  0.870073  0.245705  1
  Bi  Bi12  1  0.255745  0.129261  0.874753  1
  Bi  Bi13  1  0.746897  0.375632  0.629927  1
