# generated using pymatgen
data_LiPr8InCo2
_symmetry_space_group_name_H-M   'P 1'
_cell_length_a   9.89399390
_cell_length_b   9.92400449
_cell_length_c   9.89399369
_cell_angle_alpha   59.89961206
_cell_angle_beta   59.96738755
_cell_angle_gamma   59.89961325
_symmetry_Int_Tables_number   1
_chemical_formula_structural   LiPr8InCo2
_chemical_formula_sum   'Li2 Pr16 In2 Co4'
_cell_volume   685.72146687
_cell_formula_units_Z   2
loop_
 _symmetry_equiv_pos_site_id
 _symmetry_equiv_pos_as_xyz
  1  'x, y, z'
loop_
 _atom_site_type_symbol
 _atom_site_label
 _atom_site_symmetry_multiplicity
 _atom_site_fract_x
 _atom_site_fract_y
 _atom_site_fract_z
 _atom_site_occupancy
  Li  Li0  1  0.674162  0.678039  0.969759  1
  Li  Li1  1  0.969759  0.678039  0.674162  1
  Pr  Pr2  1  0.290940  0.903899  0.901263  1
  Pr  Pr3  1  0.689718  0.689140  0.309612  1
  Pr  Pr4  1  0.901263  0.903899  0.290940  1
  Pr  Pr5  1  0.309076  0.690924  0.309076  1
  Pr  Pr6  1  0.689718  0.311529  0.309612  1
  Pr  Pr7  1  0.061137  0.438533  0.440856  1
  Pr  Pr8  1  0.440856  0.059475  0.061137  1
  Pr  Pr9  1  0.061137  0.059475  0.440856  1
  Pr  Pr10  1  0.309612  0.311529  0.689718  1
  Pr  Pr11  1  0.444084  0.055916  0.444084  1
  Pr  Pr12  1  0.904181  0.905204  0.904181  1
  Pr  Pr13  1  0.440856  0.438533  0.061137  1
  Pr  Pr14  1  0.309612  0.689140  0.689718  1
  Pr  Pr15  1  0.690182  0.309818  0.690182  1
  Pr  Pr16  1  0.066446  0.433554  0.066446  1
  Pr  Pr17  1  0.904181  0.286435  0.904181  1
  In  In18  1  0.672136  0.988113  0.672136  1
  In  In19  1  0.672136  0.667615  0.672136  1
  Co  Co20  1  0.108852  0.110268  0.108852  1
  Co  Co21  1  0.107302  0.109448  0.673802  1
  Co  Co22  1  0.673802  0.109448  0.107302  1
  Co  Co23  1  0.108852  0.672027  0.108852  1
