# generated using pymatgen
data_Tm12Mn(FePb)2
_symmetry_space_group_name_H-M   'P 1'
_cell_length_a   8.29280767
_cell_length_b   8.29335041
_cell_length_c   8.29280809
_cell_angle_alpha   108.56602099
_cell_angle_beta   108.58505452
_cell_angle_gamma   111.27509075
_symmetry_Int_Tables_number   1
_chemical_formula_structural   Tm12Mn(FePb)2
_chemical_formula_sum   'Tm12 Mn1 Fe2 Pb2'
_cell_volume   438.73412223
_cell_formula_units_Z   1
loop_
 _symmetry_equiv_pos_site_id
 _symmetry_equiv_pos_as_xyz
  1  'x, y, z'
loop_
 _atom_site_type_symbol
 _atom_site_label
 _atom_site_symmetry_multiplicity
 _atom_site_fract_x
 _atom_site_fract_y
 _atom_site_fract_z
 _atom_site_occupancy
  Tm  Tm0  1  0.191491  0.425088  0.233596  1
  Tm  Tm1  1  0.808400  0.575437  0.767036  1
  Tm  Tm2  1  0.191477  0.957931  0.766454  1
  Tm  Tm3  1  0.957968  0.191498  0.766493  1
  Tm  Tm4  1  0.808412  0.041330  0.232919  1
  Tm  Tm5  1  0.041318  0.808397  0.232893  1
  Tm  Tm6  1  0.425006  0.191498  0.233532  1
  Tm  Tm7  1  0.575504  0.808397  0.767078  1
  Tm  Tm8  1  0.307443  0.307429  0.616838  1
  Tm  Tm9  1  0.690589  0.690574  0.383158  1
  Tm  Tm10  1  0.690591  0.307429  0.999986  1
  Tm  Tm11  1  0.307417  0.690574  0.999984  1
  Mn  Mn12  1  0.389062  0.389067  0.000005  1
  Fe  Fe13  1  0.616030  0.616026  0.999995  1
  Fe  Fe14  1  0.999736  0.999740  0.000004  1
  Pb  Pb15  1  0.999769  0.499781  0.500013  1
  Pb  Pb16  1  0.499787  0.999804  0.500017  1
