# generated using pymatgen
data_DyHo5Rh18
_symmetry_space_group_name_H-M   'P 1'
_cell_length_a   5.24873700
_cell_length_b   5.24873625
_cell_length_c   17.55200300
_cell_angle_alpha   90.00000000
_cell_angle_beta   90.00000000
_cell_angle_gamma   119.99999844
_symmetry_Int_Tables_number   1
_chemical_formula_structural   DyHo5Rh18
_chemical_formula_sum   'Dy1 Ho5 Rh18'
_cell_volume   418.76163304
_cell_formula_units_Z   1
loop_
 _symmetry_equiv_pos_site_id
 _symmetry_equiv_pos_as_xyz
  1  'x, y, z'
loop_
 _atom_site_type_symbol
 _atom_site_label
 _atom_site_symmetry_multiplicity
 _atom_site_fract_x
 _atom_site_fract_y
 _atom_site_fract_z
 _atom_site_occupancy
  Dy  Dy0  1  0.666667  0.333333  0.250000  1
  Ho  Ho1  1  0.333333  0.666667  0.542115  1
  Ho  Ho2  1  0.666667  0.333333  0.041394  1
  Ho  Ho3  1  0.666667  0.333333  0.458606  1
  Ho  Ho4  1  0.333333  0.666667  0.957885  1
  Ho  Ho5  1  0.333333  0.666667  0.750000  1
  Rh  Rh6  1  0.167375  0.334749  0.125248  1
  Rh  Rh7  1  0.832598  0.665197  0.625646  1
  Rh  Rh8  1  0.665251  0.832625  0.125248  1
  Rh  Rh9  1  0.167375  0.832625  0.125248  1
  Rh  Rh10  1  0.832598  0.167402  0.625646  1
  Rh  Rh11  1  0.334803  0.167402  0.625646  1
  Rh  Rh12  1  0.832598  0.665197  0.874354  1
  Rh  Rh13  1  0.832598  0.167402  0.874354  1
  Rh  Rh14  1  0.334803  0.167402  0.874354  1
  Rh  Rh15  1  0.665251  0.832625  0.374752  1
  Rh  Rh16  1  0.167375  0.832625  0.374752  1
  Rh  Rh17  1  0.167375  0.334749  0.374752  1
  Rh  Rh18  1  0.000000  0.000000  0.250000  1
  Rh  Rh19  1  0.000000  0.000000  0.750000  1
  Rh  Rh20  1  0.333333  0.666667  0.250000  1
  Rh  Rh21  1  0.666667  0.333333  0.750000  1
  Rh  Rh22  1  0.000000  0.000000  0.999796  1
  Rh  Rh23  1  0.000000  0.000000  0.500204  1
