# generated using pymatgen
data_Tm4Lu8Tc3Ir
_symmetry_space_group_name_H-M   'P 1'
_cell_length_a   6.16813126
_cell_length_b   7.30132710
_cell_length_c   8.92634018
_cell_angle_alpha   89.99699213
_cell_angle_beta   90.02272771
_cell_angle_gamma   90.04861138
_symmetry_Int_Tables_number   1
_chemical_formula_structural   Tm4Lu8Tc3Ir
_chemical_formula_sum   'Tm4 Lu8 Tc3 Ir1'
_cell_volume   402.00240837
_cell_formula_units_Z   1
loop_
 _symmetry_equiv_pos_site_id
 _symmetry_equiv_pos_as_xyz
  1  'x, y, z'
loop_
 _atom_site_type_symbol
 _atom_site_label
 _atom_site_symmetry_multiplicity
 _atom_site_fract_x
 _atom_site_fract_y
 _atom_site_fract_z
 _atom_site_occupancy
  Tm  Tm0  1  0.333435  0.676303  0.062726  1
  Tm  Tm1  1  0.875262  0.538693  0.250239  1
  Tm  Tm2  1  0.624887  0.037809  0.250174  1
  Tm  Tm3  1  0.129052  0.458864  0.749789  1
  Lu  Lu4  1  0.162541  0.175015  0.438243  1
  Lu  Lu5  1  0.663741  0.323374  0.561005  1
  Lu  Lu6  1  0.835749  0.825726  0.938706  1
  Lu  Lu7  1  0.663996  0.323071  0.938945  1
  Lu  Lu8  1  0.835917  0.825635  0.561189  1
  Lu  Lu9  1  0.333510  0.676029  0.437524  1
  Lu  Lu10  1  0.162471  0.175053  0.061866  1
  Lu  Lu11  1  0.373635  0.961357  0.749847  1
  Tc  Tc12  1  0.040814  0.883246  0.250360  1
  Tc  Tc13  1  0.460992  0.384863  0.250202  1
  Tc  Tc14  1  0.959953  0.117063  0.750125  1
  Ir  Ir15  1  0.544046  0.617900  0.749059  1
