# generated using pymatgen
data_Hf8Ti11NbSi9Ge7
_symmetry_space_group_name_H-M   'P 1'
_cell_length_a   6.69634412
_cell_length_b   6.80667343
_cell_length_c   13.01325534
_cell_angle_alpha   89.99871652
_cell_angle_beta   89.91773638
_cell_angle_gamma   90.00089549
_symmetry_Int_Tables_number   1
_chemical_formula_structural   Hf8Ti11NbSi9Ge7
_chemical_formula_sum   'Hf8 Ti11 Nb1 Si9 Ge7'
_cell_volume   593.14132358
_cell_formula_units_Z   1
loop_
 _symmetry_equiv_pos_site_id
 _symmetry_equiv_pos_as_xyz
  1  'x, y, z'
loop_
 _atom_site_type_symbol
 _atom_site_label
 _atom_site_symmetry_multiplicity
 _atom_site_fract_x
 _atom_site_fract_y
 _atom_site_fract_z
 _atom_site_occupancy
  Hf  Hf0  1  0.493552  0.677331  0.597340  1
  Hf  Hf1  1  0.992223  0.823234  0.901642  1
  Hf  Hf2  1  0.509595  0.323076  0.099208  1
  Hf  Hf3  1  0.004463  0.172474  0.402200  1
  Hf  Hf4  1  0.510035  0.320830  0.401557  1
  Hf  Hf5  1  0.008359  0.175670  0.099211  1
  Hf  Hf6  1  0.491324  0.675531  0.901281  1
  Hf  Hf7  1  0.989909  0.825790  0.596647  1
  Ti  Ti8  1  0.657160  0.167210  0.627605  1
  Ti  Ti9  1  0.155401  0.332206  0.871438  1
  Ti  Ti10  1  0.344947  0.831594  0.127529  1
  Ti  Ti11  1  0.841213  0.673244  0.374001  1
  Ti  Ti12  1  0.346388  0.831062  0.372950  1
  Ti  Ti13  1  0.843792  0.669646  0.127641  1
  Ti  Ti14  1  0.654820  0.169049  0.871151  1
  Ti  Ti15  1  0.155199  0.331019  0.627884  1
  Ti  Ti16  1  0.828721  0.495794  0.749862  1
  Ti  Ti17  1  0.329047  0.003426  0.749807  1
  Ti  Ti18  1  0.171721  0.505316  0.250153  1
  Nb  Nb19  1  0.671575  0.996850  0.251660  1
  Si  Si20  1  0.679252  0.959967  0.463014  1
  Si  Si21  1  0.454287  0.382577  0.749190  1
  Si  Si22  1  0.954818  0.116863  0.749972  1
  Si  Si23  1  0.544600  0.615588  0.250131  1
  Si  Si24  1  0.048412  0.880225  0.250381  1
  Si  Si25  1  0.696131  0.863385  0.749909  1
  Si  Si26  1  0.195215  0.636872  0.748994  1
  Si  Si27  1  0.299580  0.138135  0.250347  1
  Si  Si28  1  0.807369  0.369150  0.250724  1
  Ge  Ge29  1  0.183891  0.539789  0.039500  1
  Ge  Ge30  1  0.316158  0.040713  0.960293  1
  Ge  Ge31  1  0.816943  0.459182  0.539641  1
  Ge  Ge32  1  0.320181  0.040062  0.539275  1
  Ge  Ge33  1  0.816174  0.458915  0.960496  1
  Ge  Ge34  1  0.684317  0.959336  0.037147  1
  Ge  Ge35  1  0.183228  0.538894  0.460219  1
