# generated using pymatgen
data_Tb2Y4Al23VOs8
_symmetry_space_group_name_H-M   'P 1'
_cell_length_a   8.84826300
_cell_length_b   8.84863902
_cell_length_c   9.54818102
_cell_angle_alpha   90.00698882
_cell_angle_beta   90.00000000
_cell_angle_gamma   119.99859054
_symmetry_Int_Tables_number   1
_chemical_formula_structural   Tb2Y4Al23VOs8
_chemical_formula_sum   'Tb2 Y4 Al23 V1 Os8'
_cell_volume   647.42869048
_cell_formula_units_Z   1
loop_
 _symmetry_equiv_pos_site_id
 _symmetry_equiv_pos_as_xyz
  1  'x, y, z'
loop_
 _atom_site_type_symbol
 _atom_site_label
 _atom_site_symmetry_multiplicity
 _atom_site_fract_x
 _atom_site_fract_y
 _atom_site_fract_z
 _atom_site_occupancy
  Tb  Tb0  1  0.195034  0.390067  0.247020  1
  Tb  Tb1  1  0.807535  0.615071  0.750542  1
  Y  Y2  1  0.609803  0.804933  0.247061  1
  Y  Y3  1  0.385133  0.192522  0.750574  1
  Y  Y4  1  0.195130  0.804933  0.247061  1
  Y  Y5  1  0.807388  0.192522  0.750574  1
  Al  Al6  1  0.666608  0.333216  0.978023  1
  Al  Al7  1  0.666612  0.333222  0.518905  1
  Al  Al8  1  0.333380  0.666761  0.483704  1
  Al  Al9  1  0.162238  0.324476  0.575326  1
  Al  Al10  1  0.837004  0.674008  0.425327  1
  Al  Al11  1  0.675495  0.837756  0.575337  1
  Al  Al12  1  0.835548  0.671095  0.075951  1
  Al  Al13  1  0.326027  0.163005  0.425348  1
  Al  Al14  1  0.160580  0.321159  0.926033  1
  Al  Al15  1  0.162260  0.837756  0.575337  1
  Al  Al16  1  0.328938  0.164453  0.075940  1
  Al  Al17  1  0.836977  0.163005  0.425348  1
  Al  Al18  1  0.678814  0.839433  0.926032  1
  Al  Al19  1  0.835516  0.164453  0.075940  1
  Al  Al20  1  0.160620  0.839433  0.926032  1
  Al  Al21  1  0.562028  0.124056  0.252991  1
  Al  Al22  1  0.441535  0.883070  0.750892  1
  Al  Al23  1  0.875871  0.437947  0.252995  1
  Al  Al24  1  0.117024  0.558506  0.750881  1
  Al  Al25  1  0.562075  0.437947  0.252995  1
  Al  Al26  1  0.441482  0.558506  0.750881  1
  Al  Al27  1  0.000001  0.000001  0.250307  1
  Al  Al28  1  0.999992  0.999984  0.749509  1
  V  V29  1  0.333285  0.666570  0.982643  1
  Os  Os30  1  0.495293  0.990586  0.004922  1
  Os  Os31  1  0.009485  0.504753  0.004965  1
  Os  Os32  1  0.499294  0.998587  0.503183  1
  Os  Os33  1  0.495268  0.504753  0.004965  1
  Os  Os34  1  0.001430  0.500717  0.503178  1
  Os  Os35  1  0.499287  0.500717  0.503178  1
  Os  Os36  1  0.000010  0.000020  0.000881  1
  Os  Os37  1  0.000000  0.000001  0.499214  1
