# generated using pymatgen
data_YHo7B24IrRu3
_symmetry_space_group_name_H-M   'P 1'
_cell_length_a   3.65204100
_cell_length_b   9.13977464
_cell_length_c   11.48543403
_cell_angle_alpha   90.03959229
_cell_angle_beta   90.00000000
_cell_angle_gamma   90.00000000
_symmetry_Int_Tables_number   1
_chemical_formula_structural   YHo7B24IrRu3
_chemical_formula_sum   'Y1 Ho7 B24 Ir1 Ru3'
_cell_volume   383.37027789
_cell_formula_units_Z   1
loop_
 _symmetry_equiv_pos_site_id
 _symmetry_equiv_pos_as_xyz
  1  'x, y, z'
loop_
 _atom_site_type_symbol
 _atom_site_label
 _atom_site_symmetry_multiplicity
 _atom_site_fract_x
 _atom_site_fract_y
 _atom_site_fract_z
 _atom_site_occupancy
  Y  Y0  1  0.000000  0.319633  0.414420  1
  Ho  Ho1  1  0.000000  0.678519  0.588987  1
  Ho  Ho2  1  0.000000  0.823878  0.084091  1
  Ho  Ho3  1  0.000000  0.178082  0.913152  1
  Ho  Ho4  1  0.000000  0.945660  0.372936  1
  Ho  Ho5  1  0.000000  0.055607  0.627227  1
  Ho  Ho6  1  0.000000  0.442194  0.125662  1
  Ho  Ho7  1  0.000000  0.555742  0.873193  1
  B  B8  1  0.500000  0.553930  0.433712  1
  B  B9  1  0.500000  0.446222  0.567304  1
  B  B10  1  0.500000  0.054086  0.066824  1
  B  B11  1  0.500000  0.946141  0.932869  1
  B  B12  1  0.500000  0.749409  0.421201  1
  B  B13  1  0.500000  0.251592  0.580389  1
  B  B14  1  0.500000  0.247837  0.079625  1
  B  B15  1  0.500000  0.752186  0.920130  1
  B  B16  1  0.500000  0.792388  0.265576  1
  B  B17  1  0.500000  0.208705  0.733861  1
  B  B18  1  0.500000  0.291400  0.233695  1
  B  B19  1  0.500000  0.708484  0.766373  1
  B  B20  1  0.500000  0.632506  0.183731  1
  B  B21  1  0.500000  0.368068  0.814787  1
  B  B22  1  0.500000  0.131860  0.314730  1
  B  B23  1  0.500000  0.867658  0.685384  1
  B  B24  1  0.500000  0.983461  0.212830  1
  B  B25  1  0.500000  0.016465  0.786928  1
  B  B26  1  0.500000  0.482633  0.286637  1
  B  B27  1  0.500000  0.516615  0.713276  1
  B  B28  1  0.500000  0.610256  0.030601  1
  B  B29  1  0.500000  0.389820  0.969680  1
  B  B30  1  0.500000  0.109243  0.469955  1
  B  B31  1  0.500000  0.889622  0.529983  1
  Ir  Ir32  1  0.000000  0.637816  0.321597  1
  Ru  Ru33  1  0.000000  0.362394  0.678693  1
  Ru  Ru34  1  0.000000  0.137698  0.178762  1
  Ru  Ru35  1  0.000000  0.862191  0.821196  1
