# generated using pymatgen
data_Ho5Er3Re(TcB8)3
_symmetry_space_group_name_H-M   'P 1'
_cell_length_a   3.66678100
_cell_length_b   9.13392914
_cell_length_c   11.51202300
_cell_angle_alpha   90.02923867
_cell_angle_beta   90.00000000
_cell_angle_gamma   90.00000000
_symmetry_Int_Tables_number   1
_chemical_formula_structural   Ho5Er3Re(TcB8)3
_chemical_formula_sum   'Ho5 Er3 Re1 Tc3 B24'
_cell_volume   385.56198044
_cell_formula_units_Z   1
loop_
 _symmetry_equiv_pos_site_id
 _symmetry_equiv_pos_as_xyz
  1  'x, y, z'
loop_
 _atom_site_type_symbol
 _atom_site_label
 _atom_site_symmetry_multiplicity
 _atom_site_fract_x
 _atom_site_fract_y
 _atom_site_fract_z
 _atom_site_occupancy
  Ho  Ho0  1  0.000000  0.323987  0.414081  1
  Ho  Ho1  1  0.000000  0.676176  0.585936  1
  Ho  Ho2  1  0.000000  0.823807  0.086047  1
  Ho  Ho3  1  0.000000  0.176533  0.914189  1
  Ho  Ho4  1  0.000000  0.942932  0.369314  1
  Er  Er5  1  0.000000  0.057695  0.629982  1
  Er  Er6  1  0.000000  0.442855  0.130750  1
  Er  Er7  1  0.000000  0.556115  0.869736  1
  Re  Re8  1  0.000000  0.861149  0.820630  1
  Tc  Tc9  1  0.000000  0.638775  0.320488  1
  Tc  Tc10  1  0.000000  0.361016  0.679474  1
  Tc  Tc11  1  0.000000  0.139228  0.179372  1
  B  B12  1  0.500000  0.553464  0.433022  1
  B  B13  1  0.500000  0.446559  0.567020  1
  B  B14  1  0.500000  0.053561  0.067063  1
  B  B15  1  0.500000  0.946679  0.933224  1
  B  B16  1  0.500000  0.749239  0.418829  1
  B  B17  1  0.500000  0.250710  0.581141  1
  B  B18  1  0.500000  0.249489  0.081184  1
  B  B19  1  0.500000  0.750096  0.918989  1
  B  B20  1  0.500000  0.792077  0.265159  1
  B  B21  1  0.500000  0.207699  0.734614  1
  B  B22  1  0.500000  0.292358  0.234797  1
  B  B23  1  0.500000  0.707305  0.765321  1
  B  B24  1  0.500000  0.630814  0.185383  1
  B  B25  1  0.500000  0.368953  0.814566  1
  B  B26  1  0.500000  0.131162  0.314498  1
  B  B27  1  0.500000  0.869266  0.685213  1
  B  B28  1  0.500000  0.982365  0.211591  1
  B  B29  1  0.500000  0.018143  0.788012  1
  B  B30  1  0.500000  0.482164  0.288208  1
  B  B31  1  0.500000  0.517697  0.711878  1
  B  B32  1  0.500000  0.599658  0.027961  1
  B  B33  1  0.500000  0.399873  0.972239  1
  B  B34  1  0.500000  0.100230  0.472048  1
  B  B35  1  0.500000  0.900173  0.528041  1
