# generated using pymatgen
data_TbU2(SnRh)3
_symmetry_space_group_name_H-M   'P 1'
_cell_length_a   7.47844476
_cell_length_b   7.47844554
_cell_length_c   4.01493100
_cell_angle_alpha   90.00000000
_cell_angle_beta   90.00000000
_cell_angle_gamma   121.32478738
_symmetry_Int_Tables_number   1
_chemical_formula_structural   TbU2(SnRh)3
_chemical_formula_sum   'Tb1 U2 Sn3 Rh3'
_cell_volume   191.81278987
_cell_formula_units_Z   1
loop_
 _symmetry_equiv_pos_site_id
 _symmetry_equiv_pos_as_xyz
  1  'x, y, z'
loop_
 _atom_site_type_symbol
 _atom_site_label
 _atom_site_symmetry_multiplicity
 _atom_site_fract_x
 _atom_site_fract_y
 _atom_site_fract_z
 _atom_site_occupancy
  Tb  Tb0  1  0.411561  0.411561  0.500000  1
  U  U1  1  0.583074  0.000877  0.500000  1
  U  U2  1  0.000877  0.583074  0.500000  1
  Sn  Sn3  1  0.739601  0.739601  0.000000  1
  Sn  Sn4  1  0.253479  0.005988  0.000000  1
  Sn  Sn5  1  0.005988  0.253479  0.000000  1
  Rh  Rh6  1  0.682998  0.331377  0.000000  1
  Rh  Rh7  1  0.331377  0.682998  0.000000  1
  Rh  Rh8  1  0.991044  0.991044  0.500000  1
