# generated using pymatgen
data_Y15Tm5(Ir2Rh)4
_symmetry_space_group_name_H-M   'P 1'
_cell_length_a   10.87615956
_cell_length_b   10.87511700
_cell_length_c   6.38052233
_cell_angle_alpha   90.00286954
_cell_angle_beta   89.96319924
_cell_angle_gamma   89.99835149
_symmetry_Int_Tables_number   1
_chemical_formula_structural   Y15Tm5(Ir2Rh)4
_chemical_formula_sum   'Y15 Tm5 Ir8 Rh4'
_cell_volume   754.68488387
_cell_formula_units_Z   1
loop_
 _symmetry_equiv_pos_site_id
 _symmetry_equiv_pos_as_xyz
  1  'x, y, z'
loop_
 _atom_site_type_symbol
 _atom_site_label
 _atom_site_symmetry_multiplicity
 _atom_site_fract_x
 _atom_site_fract_y
 _atom_site_fract_z
 _atom_site_occupancy
  Y  Y0  1  0.289710  0.911649  0.879971  1
  Y  Y1  1  0.710027  0.088601  0.880187  1
  Y  Y2  1  0.710234  0.911315  0.380077  1
  Y  Y3  1  0.588643  0.790039  0.880180  1
  Y  Y4  1  0.588161  0.210060  0.380171  1
  Y  Y5  1  0.411070  0.790312  0.380189  1
  Y  Y6  1  0.410840  0.209986  0.879968  1
  Y  Y7  1  0.210162  0.411121  0.619845  1
  Y  Y8  1  0.210170  0.588746  0.120057  1
  Y  Y9  1  0.789921  0.411159  0.119931  1
  Y  Y10  1  0.789874  0.588732  0.620049  1
  Y  Y11  1  0.911305  0.710132  0.120021  1
  Y  Y12  1  0.911213  0.289870  0.620088  1
  Y  Y13  1  0.088825  0.710153  0.619814  1
  Y  Y14  1  0.089398  0.289167  0.120183  1
  Tm  Tm15  1  0.290968  0.088546  0.381519  1
  Tm  Tm16  1  0.000688  0.000327  0.499523  1
  Tm  Tm17  1  0.000092  0.000092  0.999697  1
  Tm  Tm18  1  0.499884  0.499867  0.000089  1
  Tm  Tm19  1  0.499885  0.499974  0.499865  1
  Ir  Ir20  1  0.848258  0.151833  0.249918  1
  Ir  Ir21  1  0.848295  0.848234  0.750106  1
  Ir  Ir22  1  0.152772  0.151361  0.747219  1
  Ir  Ir23  1  0.152530  0.849358  0.250680  1
  Ir  Ir24  1  0.651790  0.348160  0.750002  1
  Ir  Ir25  1  0.651835  0.651763  0.249961  1
  Ir  Ir26  1  0.347950  0.346550  0.250914  1
  Ir  Ir27  1  0.348180  0.651791  0.750102  1
  Rh  Rh28  1  0.498622  0.000630  0.127061  1
  Rh  Rh29  1  0.498535  0.000622  0.624277  1
  Rh  Rh30  1  0.000086  0.499977  0.874160  1
  Rh  Rh31  1  0.000077  0.499875  0.374175  1
