# generated using pymatgen
data_YHo3Al4(IrPt)2
_symmetry_space_group_name_H-M   'P 1'
_cell_length_a   4.35773400
_cell_length_b   6.79608857
_cell_length_c   7.85593381
_cell_angle_alpha   89.92213419
_cell_angle_beta   90.00000000
_cell_angle_gamma   90.00000000
_symmetry_Int_Tables_number   1
_chemical_formula_structural   YHo3Al4(IrPt)2
_chemical_formula_sum   'Y1 Ho3 Al4 Ir2 Pt2'
_cell_volume   232.65755614
_cell_formula_units_Z   1
loop_
 _symmetry_equiv_pos_site_id
 _symmetry_equiv_pos_as_xyz
  1  'x, y, z'
loop_
 _atom_site_type_symbol
 _atom_site_label
 _atom_site_symmetry_multiplicity
 _atom_site_fract_x
 _atom_site_fract_y
 _atom_site_fract_z
 _atom_site_occupancy
  Y  Y0  1  0.250000  0.032201  0.679363  1
  Ho  Ho1  1  0.250000  0.532604  0.821195  1
  Ho  Ho2  1  0.750000  0.972143  0.317869  1
  Ho  Ho3  1  0.750000  0.472337  0.181953  1
  Al  Al4  1  0.250000  0.140821  0.064634  1
  Al  Al5  1  0.250000  0.640619  0.435582  1
  Al  Al6  1  0.750000  0.856200  0.940359  1
  Al  Al7  1  0.750000  0.356410  0.559776  1
  Ir  Ir8  1  0.250000  0.267638  0.380474  1
  Ir  Ir9  1  0.250000  0.766874  0.118115  1
  Pt  Pt10  1  0.750000  0.730000  0.620019  1
  Pt  Pt11  1  0.750000  0.232153  0.880660  1
