# generated using pymatgen
data_SrEu(GaP)4
_symmetry_space_group_name_H-M   'P 1'
_cell_length_a   3.92882600
_cell_length_b   9.39940178
_cell_length_c   12.22827174
_cell_angle_alpha   95.37895672
_cell_angle_beta   90.00000000
_cell_angle_gamma   90.00000000
_symmetry_Int_Tables_number   1
_chemical_formula_structural   SrEu(GaP)4
_chemical_formula_sum   'Sr2 Eu2 Ga8 P8'
_cell_volume   449.58460868
_cell_formula_units_Z   2
loop_
 _symmetry_equiv_pos_site_id
 _symmetry_equiv_pos_as_xyz
  1  'x, y, z'
loop_
 _atom_site_type_symbol
 _atom_site_label
 _atom_site_symmetry_multiplicity
 _atom_site_fract_x
 _atom_site_fract_y
 _atom_site_fract_z
 _atom_site_occupancy
  Sr  Sr0  1  0.000000  0.194976  0.279627  1
  Sr  Sr1  1  0.000000  0.805024  0.720373  1
  Eu  Eu2  1  0.500000  0.000000  0.000000  1
  Eu  Eu3  1  0.500000  0.500000  0.500000  1
  Ga  Ga4  1  0.500000  0.394920  0.056257  1
  Ga  Ga5  1  0.500000  0.605080  0.943743  1
  Ga  Ga6  1  0.500000  0.886994  0.433668  1
  Ga  Ga7  1  0.500000  0.113006  0.566332  1
  Ga  Ga8  1  0.000000  0.597975  0.279773  1
  Ga  Ga9  1  0.000000  0.402025  0.720227  1
  Ga  Ga10  1  0.000000  0.803057  0.172613  1
  Ga  Ga11  1  0.000000  0.196943  0.827387  1
  P  P12  1  0.500000  0.444031  0.257308  1
  P  P13  1  0.500000  0.555969  0.742692  1
  P  P14  1  0.000000  0.266438  0.537135  1
  P  P15  1  0.000000  0.733562  0.462865  1
  P  P16  1  0.500000  0.943536  0.238636  1
  P  P17  1  0.500000  0.056464  0.761364  1
  P  P18  1  0.000000  0.237697  0.026184  1
  P  P19  1  0.000000  0.762303  0.973816  1
