# generated using pymatgen
data_Na2Nb2Ni10P7
_symmetry_space_group_name_H-M   'P 1'
_cell_length_a   9.23348512
_cell_length_b   9.14889674
_cell_length_c   3.67996900
_cell_angle_alpha   90.00000000
_cell_angle_beta   90.00000000
_cell_angle_gamma   119.88014809
_symmetry_Int_Tables_number   1
_chemical_formula_structural   Na2Nb2Ni10P7
_chemical_formula_sum   'Na2 Nb2 Ni10 P7'
_cell_volume   269.54569863
_cell_formula_units_Z   1
loop_
 _symmetry_equiv_pos_site_id
 _symmetry_equiv_pos_as_xyz
  1  'x, y, z'
loop_
 _atom_site_type_symbol
 _atom_site_label
 _atom_site_symmetry_multiplicity
 _atom_site_fract_x
 _atom_site_fract_y
 _atom_site_fract_z
 _atom_site_occupancy
  Na  Na0  1  0.665995  0.334327  0.500000  1
  Na  Na1  1  0.339362  0.667746  0.000000  1
  Nb  Nb2  1  0.217330  0.095730  0.500000  1
  Nb  Nb3  1  0.899292  0.121085  0.500000  1
  Ni  Ni4  1  0.716723  0.873124  0.000000  1
  Ni  Ni5  1  0.940805  0.377434  0.000000  1
  Ni  Ni6  1  0.160845  0.289891  0.000000  1
  Ni  Ni7  1  0.389361  0.443415  0.500000  1
  Ni  Ni8  1  0.121268  0.832290  0.000000  1
  Ni  Ni9  1  0.430950  0.058383  0.000000  1
  Ni  Ni10  1  0.043339  0.612637  0.500000  1
  Ni  Ni11  1  0.558916  0.944252  0.500000  1
  Ni  Ni12  1  0.631495  0.567765  0.000000  1
  Ni  Ni13  1  0.877333  0.781962  0.500000  1
  P  P14  1  0.415975  0.303172  0.000000  1
  P  P15  1  0.292149  0.873927  0.500000  1
  P  P16  1  0.695065  0.112411  0.000000  1
  P  P17  1  0.600278  0.710989  0.500000  1
  P  P18  1  0.881631  0.588570  0.000000  1
  P  P19  1  0.125399  0.418956  0.500000  1
  P  P20  1  0.996488  0.991933  0.000000  1
