# generated using pymatgen
data_Dy14Y2In6CoRh
_symmetry_space_group_name_H-M   'P 1'
_cell_length_a   10.39907400
_cell_length_b   10.39907514
_cell_length_c   7.04927900
_cell_angle_alpha   90.00000000
_cell_angle_beta   90.00000000
_cell_angle_gamma   120.00000273
_symmetry_Int_Tables_number   1
_chemical_formula_structural   Dy14Y2In6CoRh
_chemical_formula_sum   'Dy14 Y2 In6 Co1 Rh1'
_cell_volume   660.18355863
_cell_formula_units_Z   1
loop_
 _symmetry_equiv_pos_site_id
 _symmetry_equiv_pos_as_xyz
  1  'x, y, z'
loop_
 _atom_site_type_symbol
 _atom_site_label
 _atom_site_symmetry_multiplicity
 _atom_site_fract_x
 _atom_site_fract_y
 _atom_site_fract_z
 _atom_site_occupancy
  Dy  Dy0  1  0.466664  0.533336  0.480811  1
  Dy  Dy1  1  0.066672  0.533336  0.480811  1
  Dy  Dy2  1  0.466664  0.933328  0.480811  1
  Dy  Dy3  1  0.536124  0.463876  0.982101  1
  Dy  Dy4  1  0.927750  0.463876  0.982101  1
  Dy  Dy5  1  0.536124  0.072250  0.982101  1
  Dy  Dy6  1  0.821793  0.178207  0.274878  1
  Dy  Dy7  1  0.356413  0.178207  0.274878  1
  Dy  Dy8  1  0.821793  0.643587  0.274878  1
  Dy  Dy9  1  0.176246  0.823754  0.776442  1
  Dy  Dy10  1  0.647506  0.823754  0.776442  1
  Dy  Dy11  1  0.176246  0.352494  0.776442  1
  Dy  Dy12  1  0.333333  0.666667  0.100337  1
  Dy  Dy13  1  0.666667  0.333333  0.590661  1
  Y  Y14  1  0.000000  0.000000  0.494721  1
  Y  Y15  1  0.000000  0.000000  0.997871  1
  In  In16  1  0.162564  0.837436  0.234516  1
  In  In17  1  0.674872  0.837436  0.234516  1
  In  In18  1  0.162564  0.325128  0.234516  1
  In  In19  1  0.836494  0.163506  0.733190  1
  In  In20  1  0.327015  0.163506  0.733190  1
  In  In21  1  0.836494  0.672985  0.733190  1
  Co  Co22  1  0.666667  0.333333  0.207250  1
  Rh  Rh23  1  0.333333  0.666667  0.707898  1
