# generated using pymatgen
data_DyZnCdPt3
_symmetry_space_group_name_H-M   'P 1'
_cell_length_a   5.20891745
_cell_length_b   5.20891584
_cell_length_c   5.20891654
_cell_angle_alpha   63.89019419
_cell_angle_beta   63.89020992
_cell_angle_gamma   63.89018964
_symmetry_Int_Tables_number   1
_chemical_formula_structural   DyZnCdPt3
_chemical_formula_sum   'Dy1 Zn1 Cd1 Pt3'
_cell_volume   108.50721824
_cell_formula_units_Z   1
loop_
 _symmetry_equiv_pos_site_id
 _symmetry_equiv_pos_as_xyz
  1  'x, y, z'
loop_
 _atom_site_type_symbol
 _atom_site_label
 _atom_site_symmetry_multiplicity
 _atom_site_fract_x
 _atom_site_fract_y
 _atom_site_fract_z
 _atom_site_occupancy
  Dy  Dy0  1  0.004296  0.004296  0.004296  1
  Zn  Zn1  1  0.622835  0.622835  0.622835  1
  Cd  Cd2  1  0.252570  0.252570  0.252570  1
  Pt  Pt3  1  0.623126  0.623126  0.124047  1
  Pt  Pt4  1  0.623126  0.124047  0.623126  1
  Pt  Pt5  1  0.124047  0.623126  0.623126  1
