# generated using pymatgen
data_Sc2GaB2IrRu4
_symmetry_space_group_name_H-M   'P 1'
_cell_length_a   9.41493701
_cell_length_b   9.41178101
_cell_length_c   3.02852600
_cell_angle_alpha   90.00000000
_cell_angle_beta   90.00000000
_cell_angle_gamma   90.05313033
_symmetry_Int_Tables_number   1
_chemical_formula_structural   Sc2GaB2IrRu4
_chemical_formula_sum   'Sc4 Ga2 B4 Ir2 Ru8'
_cell_volume   268.36158747
_cell_formula_units_Z   2
loop_
 _symmetry_equiv_pos_site_id
 _symmetry_equiv_pos_as_xyz
  1  'x, y, z'
loop_
 _atom_site_type_symbol
 _atom_site_label
 _atom_site_symmetry_multiplicity
 _atom_site_fract_x
 _atom_site_fract_y
 _atom_site_fract_z
 _atom_site_occupancy
  Sc  Sc0  1  0.675228  0.177099  0.000000  1
  Sc  Sc1  1  0.324772  0.822901  0.000000  1
  Sc  Sc2  1  0.173648  0.327534  0.000000  1
  Sc  Sc3  1  0.826352  0.672466  0.000000  1
  Ga  Ga4  1  0.000000  0.000000  0.000000  1
  Ga  Ga5  1  0.500000  0.500000  0.000000  1
  B  B6  1  0.124792  0.624000  0.000000  1
  B  B7  1  0.875208  0.376000  0.000000  1
  B  B8  1  0.621152  0.874226  0.000000  1
  B  B9  1  0.378848  0.125774  0.000000  1
  Ir  Ir10  1  0.214962  0.071375  0.500000  1
  Ir  Ir11  1  0.785038  0.928625  0.500000  1
  Ru  Ru12  1  0.070841  0.785285  0.500000  1
  Ru  Ru13  1  0.714974  0.428608  0.500000  1
  Ru  Ru14  1  0.929159  0.214715  0.500000  1
  Ru  Ru15  1  0.285026  0.571392  0.500000  1
  Ru  Ru16  1  0.570793  0.715244  0.500000  1
  Ru  Ru17  1  0.429207  0.284756  0.500000  1
  Ru  Ru18  1  0.500000  0.000000  0.500000  1
  Ru  Ru19  1  0.000000  0.500000  0.500000  1
