# generated using pymatgen
data_Ho2MnIr3
_symmetry_space_group_name_H-M   'P 1'
_cell_length_a   5.47212725
_cell_length_b   5.17031161
_cell_length_c   5.47212600
_cell_angle_alpha   58.04944272
_cell_angle_beta   59.99999549
_cell_angle_gamma   58.04943782
_symmetry_Int_Tables_number   1
_chemical_formula_structural   Ho2MnIr3
_chemical_formula_sum   'Ho2 Mn1 Ir3'
_cell_volume   106.13528834
_cell_formula_units_Z   1
loop_
 _symmetry_equiv_pos_site_id
 _symmetry_equiv_pos_as_xyz
  1  'x, y, z'
loop_
 _atom_site_type_symbol
 _atom_site_label
 _atom_site_symmetry_multiplicity
 _atom_site_fract_x
 _atom_site_fract_y
 _atom_site_fract_z
 _atom_site_occupancy
  Ho  Ho0  1  0.251413  0.245760  0.251413  1
  Ho  Ho1  1  0.998587  0.004240  0.998587  1
  Mn  Mn2  1  0.625000  0.125000  0.625000  1
  Ir  Ir3  1  0.625000  0.625000  0.125000  1
  Ir  Ir4  1  0.125000  0.625000  0.625000  1
  Ir  Ir5  1  0.625000  0.625000  0.625000  1
