# generated using pymatgen
data_Zr7(AgPd4)2
_symmetry_space_group_name_H-M   'P 1'
_cell_length_a   8.21610200
_cell_length_b   8.21609875
_cell_length_c   9.79104500
_cell_angle_alpha   90.00000000
_cell_angle_beta   90.00000000
_cell_angle_gamma   106.98156031
_symmetry_Int_Tables_number   1
_chemical_formula_structural   Zr7(AgPd4)2
_chemical_formula_sum   'Zr14 Ag4 Pd16'
_cell_volume   632.12001631
_cell_formula_units_Z   2
loop_
 _symmetry_equiv_pos_site_id
 _symmetry_equiv_pos_as_xyz
  1  'x, y, z'
loop_
 _atom_site_type_symbol
 _atom_site_label
 _atom_site_symmetry_multiplicity
 _atom_site_fract_x
 _atom_site_fract_y
 _atom_site_fract_z
 _atom_site_occupancy
  Zr  Zr0  1  0.699297  0.300703  0.000000  1
  Zr  Zr1  1  0.300703  0.699297  0.000000  1
  Zr  Zr2  1  0.800703  0.199297  0.500000  1
  Zr  Zr3  1  0.199297  0.800703  0.500000  1
  Zr  Zr4  1  0.000000  0.000000  0.000000  1
  Zr  Zr5  1  0.500000  0.500000  0.500000  1
  Zr  Zr6  1  0.999730  0.499730  0.250000  1
  Zr  Zr7  1  0.000270  0.500270  0.750000  1
  Zr  Zr8  1  0.500270  0.000270  0.750000  1
  Zr  Zr9  1  0.499730  0.999730  0.250000  1
  Zr  Zr10  1  0.313949  0.313949  0.186401  1
  Zr  Zr11  1  0.686051  0.686051  0.813599  1
  Zr  Zr12  1  0.186051  0.186051  0.686401  1
  Zr  Zr13  1  0.813949  0.813949  0.313599  1
  Ag  Ag14  1  0.105713  0.105714  0.393676  1
  Ag  Ag15  1  0.894287  0.894286  0.606324  1
  Ag  Ag16  1  0.394287  0.394286  0.893676  1
  Ag  Ag17  1  0.605713  0.605714  0.106324  1
  Pd  Pd18  1  0.855374  0.147217  0.207722  1
  Pd  Pd19  1  0.144626  0.852783  0.792278  1
  Pd  Pd20  1  0.644626  0.352783  0.707722  1
  Pd  Pd21  1  0.647217  0.355373  0.292278  1
  Pd  Pd22  1  0.355374  0.647217  0.292278  1
  Pd  Pd23  1  0.352783  0.644627  0.707722  1
  Pd  Pd24  1  0.852783  0.144627  0.792278  1
  Pd  Pd25  1  0.147217  0.855373  0.207722  1
  Pd  Pd26  1  0.937502  0.645192  0.001716  1
  Pd  Pd27  1  0.062498  0.354808  0.998284  1
  Pd  Pd28  1  0.562498  0.854808  0.501716  1
  Pd  Pd29  1  0.145192  0.437502  0.498283  1
  Pd  Pd30  1  0.437502  0.145192  0.498284  1
  Pd  Pd31  1  0.854808  0.562498  0.501717  1
  Pd  Pd32  1  0.354808  0.062498  0.998283  1
  Pd  Pd33  1  0.645192  0.937502  0.001717  1
