# generated using pymatgen
data_Hf3Al3FePd2
_symmetry_space_group_name_H-M   'P 1'
_cell_length_a   7.24253800
_cell_length_b   7.24253672
_cell_length_c   6.70657700
_cell_angle_alpha   90.00000000
_cell_angle_beta   90.00000000
_cell_angle_gamma   119.99999669
_symmetry_Int_Tables_number   1
_chemical_formula_structural   Hf3Al3FePd2
_chemical_formula_sum   'Hf6 Al6 Fe2 Pd4'
_cell_volume   304.65832493
_cell_formula_units_Z   2
loop_
 _symmetry_equiv_pos_site_id
 _symmetry_equiv_pos_as_xyz
  1  'x, y, z'
loop_
 _atom_site_type_symbol
 _atom_site_label
 _atom_site_symmetry_multiplicity
 _atom_site_fract_x
 _atom_site_fract_y
 _atom_site_fract_z
 _atom_site_occupancy
  Hf  Hf0  1  0.581910  0.607968  0.250000  1
  Hf  Hf1  1  0.027255  0.418540  0.750000  1
  Hf  Hf2  1  0.392032  0.973942  0.250000  1
  Hf  Hf3  1  0.026058  0.418090  0.250000  1
  Hf  Hf4  1  0.391285  0.972745  0.750000  1
  Hf  Hf5  1  0.581460  0.608715  0.750000  1
  Al  Al6  1  0.269312  0.265275  0.499957  1
  Al  Al7  1  0.734725  0.004037  0.499957  1
  Al  Al8  1  0.995963  0.730688  0.499957  1
  Al  Al9  1  0.734725  0.004037  0.000043  1
  Al  Al10  1  0.269312  0.265275  0.000043  1
  Al  Al11  1  0.995963  0.730688  0.000043  1
  Fe  Fe12  1  0.333333  0.666667  0.499162  1
  Fe  Fe13  1  0.333333  0.666667  0.000838  1
  Pd  Pd14  1  0.000000  0.000000  0.750000  1
  Pd  Pd15  1  0.000000  0.000000  0.250000  1
  Pd  Pd16  1  0.666667  0.333333  0.501206  1
  Pd  Pd17  1  0.666667  0.333333  0.998794  1
