# generated using pymatgen
data_CaTmCo3Ni9As7
_symmetry_space_group_name_H-M   'P 1'
_cell_length_a   9.40512400
_cell_length_b   9.38717774
_cell_length_c   3.76917500
_cell_angle_alpha   90.00000000
_cell_angle_beta   90.00000000
_cell_angle_gamma   120.04831638
_symmetry_Int_Tables_number   1
_chemical_formula_structural   CaTmCo3Ni9As7
_chemical_formula_sum   'Ca1 Tm1 Co3 Ni9 As7'
_cell_volume   288.04799091
_cell_formula_units_Z   1
loop_
 _symmetry_equiv_pos_site_id
 _symmetry_equiv_pos_as_xyz
  1  'x, y, z'
loop_
 _atom_site_type_symbol
 _atom_site_label
 _atom_site_symmetry_multiplicity
 _atom_site_fract_x
 _atom_site_fract_y
 _atom_site_fract_z
 _atom_site_occupancy
  Ca  Ca0  1  0.331140  0.666315  0.500000  1
  Tm  Tm1  1  0.000921  0.999891  0.000000  1
  Co  Co2  1  0.820105  0.611173  0.000000  1
  Co  Co3  1  0.388844  0.210071  0.000000  1
  Co  Co4  1  0.042613  0.761498  0.500000  1
  Ni  Ni5  1  0.792612  0.179746  0.000000  1
  Ni  Ni6  1  0.239664  0.282148  0.500000  1
  Ni  Ni7  1  0.717515  0.954767  0.500000  1
  Ni  Ni8  1  0.103829  0.387544  0.000000  1
  Ni  Ni9  1  0.613178  0.717521  0.000000  1
  Ni  Ni10  1  0.281730  0.895346  0.000000  1
  Ni  Ni11  1  0.874098  0.424459  0.500000  1
  Ni  Ni12  1  0.575512  0.453834  0.500000  1
  Ni  Ni13  1  0.548982  0.121845  0.500000  1
  As  As14  1  0.664487  0.333387  0.000000  1
  As  As15  1  0.782114  0.739754  0.500000  1
  As  As16  1  0.260521  0.037514  0.500000  1
  As  As17  1  0.963852  0.221021  0.500000  1
  As  As18  1  0.069714  0.621645  0.000000  1
  As  As19  1  0.381674  0.452332  0.000000  1
  As  As20  1  0.546894  0.928189  0.000000  1
