# generated using pymatgen
data_Na4Cd3SiAu4
_symmetry_space_group_name_H-M   'P 1'
_cell_length_a   4.36985500
_cell_length_b   7.44641256
_cell_length_c   8.28195000
_cell_angle_alpha   89.06874257
_cell_angle_beta   90.00000000
_cell_angle_gamma   90.00000000
_symmetry_Int_Tables_number   1
_chemical_formula_structural   Na4Cd3SiAu4
_chemical_formula_sum   'Na4 Cd3 Si1 Au4'
_cell_volume   269.45692990
_cell_formula_units_Z   1
loop_
 _symmetry_equiv_pos_site_id
 _symmetry_equiv_pos_as_xyz
  1  'x, y, z'
loop_
 _atom_site_type_symbol
 _atom_site_label
 _atom_site_symmetry_multiplicity
 _atom_site_fract_x
 _atom_site_fract_y
 _atom_site_fract_z
 _atom_site_occupancy
  Na  Na0  1  0.250000  0.005500  0.826434  1
  Na  Na1  1  0.250000  0.517798  0.674167  1
  Na  Na2  1  0.750000  0.475641  0.321583  1
  Na  Na3  1  0.750000  0.982054  0.163681  1
  Cd  Cd4  1  0.250000  0.665137  0.070829  1
  Cd  Cd5  1  0.250000  0.165287  0.428697  1
  Cd  Cd6  1  0.750000  0.867574  0.576453  1
  Si  Si7  1  0.750000  0.343494  0.945333  1
  Au  Au8  1  0.750000  0.676577  0.866800  1
  Au  Au9  1  0.250000  0.280895  0.084550  1
  Au  Au10  1  0.250000  0.782479  0.379294  1
  Au  Au11  1  0.750000  0.237565  0.662179  1
