# generated using pymatgen
data_ErTmLu2(Ga3Rh)6
_symmetry_space_group_name_H-M   'P 1'
_cell_length_a   7.53817303
_cell_length_b   7.53947680
_cell_length_c   9.49329900
_cell_angle_alpha   89.99931982
_cell_angle_beta   89.99993342
_cell_angle_gamma   119.78922413
_symmetry_Int_Tables_number   1
_chemical_formula_structural   ErTmLu2(Ga3Rh)6
_chemical_formula_sum   'Er1 Tm1 Lu2 Ga18 Rh6'
_cell_volume   468.24548188
_cell_formula_units_Z   1
loop_
 _symmetry_equiv_pos_site_id
 _symmetry_equiv_pos_as_xyz
  1  'x, y, z'
loop_
 _atom_site_type_symbol
 _atom_site_label
 _atom_site_symmetry_multiplicity
 _atom_site_fract_x
 _atom_site_fract_y
 _atom_site_fract_z
 _atom_site_occupancy
  Er  Er0  1  0.997915  0.669685  0.249999  1
  Tm  Tm1  1  0.002087  0.330314  0.749997  1
  Lu  Lu2  1  0.669680  0.997940  0.250004  1
  Lu  Lu3  1  0.330324  0.002069  0.749998  1
  Ga  Ga4  1  0.339023  0.549531  0.250000  1
  Ga  Ga5  1  0.661001  0.450483  0.750001  1
  Ga  Ga6  1  0.549385  0.338790  0.250001  1
  Ga  Ga7  1  0.450614  0.661186  0.749999  1
  Ga  Ga8  1  0.999913  0.334789  0.080993  1
  Ga  Ga9  1  0.000084  0.665156  0.918967  1
  Ga  Ga10  1  0.000081  0.665148  0.581032  1
  Ga  Ga11  1  0.335209  0.000112  0.419089  1
  Ga  Ga12  1  0.999914  0.334799  0.419008  1
  Ga  Ga13  1  0.664821  0.999926  0.580926  1
  Ga  Ga14  1  0.664817  0.999928  0.919077  1
  Ga  Ga15  1  0.335213  0.000106  0.080911  1
  Ga  Ga16  1  0.332260  0.332109  0.566564  1
  Ga  Ga17  1  0.667709  0.667899  0.433476  1
  Ga  Ga18  1  0.667713  0.667898  0.066526  1
  Ga  Ga19  1  0.332256  0.332109  0.933436  1
  Ga  Ga20  1  0.125833  0.125925  0.249999  1
  Ga  Ga21  1  0.874171  0.874097  0.750001  1
  Rh  Rh22  1  0.671820  0.328053  0.000001  1
  Rh  Rh23  1  0.328168  0.671910  0.999997  1
  Rh  Rh24  1  0.328168  0.671911  0.499997  1
  Rh  Rh25  1  0.671815  0.328063  0.500007  1
  Rh  Rh26  1  0.999993  0.000025  0.999980  1
  Rh  Rh27  1  0.000012  0.000040  0.500014  1
