# generated using pymatgen
data_Dy2Pa2Ga12Os
_symmetry_space_group_name_H-M   'P 1'
_cell_length_a   7.50967150
_cell_length_b   7.50966955
_cell_length_c   7.40291986
_cell_angle_alpha   109.44931553
_cell_angle_beta   109.44930901
_cell_angle_gamma   110.09153124
_symmetry_Int_Tables_number   1
_chemical_formula_structural   Dy2Pa2Ga12Os
_chemical_formula_sum   'Dy2 Pa2 Ga12 Os1'
_cell_volume   319.06597687
_cell_formula_units_Z   1
loop_
 _symmetry_equiv_pos_site_id
 _symmetry_equiv_pos_as_xyz
  1  'x, y, z'
loop_
 _atom_site_type_symbol
 _atom_site_label
 _atom_site_symmetry_multiplicity
 _atom_site_fract_x
 _atom_site_fract_y
 _atom_site_fract_z
 _atom_site_occupancy
  Dy  Dy0  1  0.000000  0.500000  0.000000  1
  Dy  Dy1  1  0.500000  0.000000  0.000000  1
  Pa  Pa2  1  0.000000  0.000000  0.500000  1
  Pa  Pa3  1  0.500000  0.500000  0.500000  1
  Ga  Ga4  1  0.750000  0.250000  0.500000  1
  Ga  Ga5  1  0.749315  0.500199  0.249514  1
  Ga  Ga6  1  0.499801  0.250685  0.750486  1
  Ga  Ga7  1  0.250685  0.499801  0.750486  1
  Ga  Ga8  1  0.250000  0.750000  0.500000  1
  Ga  Ga9  1  0.500199  0.749315  0.249514  1
  Ga  Ga10  1  0.707177  0.707177  0.000000  1
  Ga  Ga11  1  0.292871  0.000265  0.293136  1
  Ga  Ga12  1  0.000265  0.292871  0.293136  1
  Ga  Ga13  1  0.292823  0.292823  0.000000  1
  Ga  Ga14  1  0.707129  0.999735  0.706864  1
  Ga  Ga15  1  0.999735  0.707129  0.706864  1
  Os  Os16  1  0.000000  0.000000  0.000000  1
