# generated using pymatgen
data_NdDy3(Zn5Ge)2
_symmetry_space_group_name_H-M   'P 1'
_cell_length_a   8.25321345
_cell_length_b   8.25321289
_cell_length_c   8.83276552
_cell_angle_alpha   90.32290351
_cell_angle_beta   89.67709576
_cell_angle_gamma   149.53714129
_symmetry_Int_Tables_number   1
_chemical_formula_structural   NdDy3(Zn5Ge)2
_chemical_formula_sum   'Nd1 Dy3 Zn10 Ge2'
_cell_volume   305.01837398
_cell_formula_units_Z   1
loop_
 _symmetry_equiv_pos_site_id
 _symmetry_equiv_pos_as_xyz
  1  'x, y, z'
loop_
 _atom_site_type_symbol
 _atom_site_label
 _atom_site_symmetry_multiplicity
 _atom_site_fract_x
 _atom_site_fract_y
 _atom_site_fract_z
 _atom_site_occupancy
  Nd  Nd0  1  0.000000  0.000000  0.000000  1
  Dy  Dy1  1  0.199923  0.800077  0.252309  1
  Dy  Dy2  1  0.800077  0.199923  0.747691  1
  Dy  Dy3  1  0.000000  0.000000  0.500000  1
  Zn  Zn4  1  0.813690  0.186310  0.391124  1
  Zn  Zn5  1  0.186310  0.813690  0.608876  1
  Zn  Zn6  1  0.811358  0.188642  0.106477  1
  Zn  Zn7  1  0.188642  0.811358  0.893523  1
  Zn  Zn8  1  0.651481  0.348519  0.478217  1
  Zn  Zn9  1  0.348519  0.651481  0.521783  1
  Zn  Zn10  1  0.652156  0.347844  0.024238  1
  Zn  Zn11  1  0.347844  0.652156  0.975762  1
  Zn  Zn12  1  0.399769  0.600231  0.249689  1
  Zn  Zn13  1  0.600231  0.399769  0.750311  1
  Ge  Ge14  1  0.555692  0.444308  0.253698  1
  Ge  Ge15  1  0.444308  0.555692  0.746302  1
