# generated using pymatgen
data_LaY3S4
_symmetry_space_group_name_H-M   'P 1'
_cell_length_a   13.05111594
_cell_length_b   13.05111596
_cell_length_c   13.05111631
_cell_angle_alpha   17.61204103
_cell_angle_beta   17.61204103
_cell_angle_gamma   17.61204508
_symmetry_Int_Tables_number   1
_chemical_formula_structural   LaY3S4
_chemical_formula_sum   'La1 Y3 S4'
_cell_volume   177.63626205
_cell_formula_units_Z   1
loop_
 _symmetry_equiv_pos_site_id
 _symmetry_equiv_pos_as_xyz
  1  'x, y, z'
loop_
 _atom_site_type_symbol
 _atom_site_label
 _atom_site_symmetry_multiplicity
 _atom_site_fract_x
 _atom_site_fract_y
 _atom_site_fract_z
 _atom_site_occupancy
  La  La0  1  0.000000  0.000000  0.000000  1
  Y  Y1  1  0.248126  0.248126  0.248126  1
  Y  Y2  1  0.500000  0.500000  0.500000  1
  Y  Y3  1  0.751874  0.751874  0.751874  1
  S  S4  1  0.379541  0.379541  0.379541  1
  S  S5  1  0.126376  0.126376  0.126376  1
  S  S6  1  0.620459  0.620459  0.620459  1
  S  S7  1  0.873624  0.873624  0.873624  1
