# generated using pymatgen
data_La4MgScSi4
_symmetry_space_group_name_H-M   'P 1'
_cell_length_a   7.48903900
_cell_length_b   7.48903900
_cell_length_c   4.51417200
_cell_angle_alpha   90.00000000
_cell_angle_beta   90.00000000
_cell_angle_gamma   90.00000000
_symmetry_Int_Tables_number   1
_chemical_formula_structural   La4MgScSi4
_chemical_formula_sum   'La4 Mg1 Sc1 Si4'
_cell_volume   253.18051976
_cell_formula_units_Z   1
loop_
 _symmetry_equiv_pos_site_id
 _symmetry_equiv_pos_as_xyz
  1  'x, y, z'
loop_
 _atom_site_type_symbol
 _atom_site_label
 _atom_site_symmetry_multiplicity
 _atom_site_fract_x
 _atom_site_fract_y
 _atom_site_fract_z
 _atom_site_occupancy
  La  La0  1  0.684370  0.174902  0.500000  1
  La  La1  1  0.315630  0.825098  0.500000  1
  La  La2  1  0.174902  0.315630  0.500000  1
  La  La3  1  0.825098  0.684370  0.500000  1
  Mg  Mg4  1  0.000000  0.000000  0.000000  1
  Sc  Sc5  1  0.500000  0.500000  0.000000  1
  Si  Si6  1  0.123157  0.606883  0.000000  1
  Si  Si7  1  0.876843  0.393117  0.000000  1
  Si  Si8  1  0.606883  0.876843  0.000000  1
  Si  Si9  1  0.393117  0.123157  0.000000  1
