# generated using pymatgen
data_Sc3In2SnPt3
_symmetry_space_group_name_H-M   'P 1'
_cell_length_a   7.60694405
_cell_length_b   7.60694345
_cell_length_c   3.55218500
_cell_angle_alpha   90.00000000
_cell_angle_beta   90.00000000
_cell_angle_gamma   119.88174351
_symmetry_Int_Tables_number   1
_chemical_formula_structural   Sc3In2SnPt3
_chemical_formula_sum   'Sc3 In2 Sn1 Pt3'
_cell_volume   178.22265288
_cell_formula_units_Z   1
loop_
 _symmetry_equiv_pos_site_id
 _symmetry_equiv_pos_as_xyz
  1  'x, y, z'
loop_
 _atom_site_type_symbol
 _atom_site_label
 _atom_site_symmetry_multiplicity
 _atom_site_fract_x
 _atom_site_fract_y
 _atom_site_fract_z
 _atom_site_occupancy
  Sc  Sc0  1  0.602828  0.002368  0.000000  1
  Sc  Sc1  1  0.392965  0.392965  0.000000  1
  Sc  Sc2  1  0.002368  0.602828  0.000000  1
  In  In3  1  0.000859  0.275117  0.500000  1
  In  In4  1  0.275117  0.000859  0.500000  1
  Sn  Sn5  1  0.726877  0.726877  0.500000  1
  Pt  Pt6  1  0.667084  0.335809  0.500000  1
  Pt  Pt7  1  0.996093  0.996093  0.000000  1
  Pt  Pt8  1  0.335809  0.667084  0.500000  1
