# generated using pymatgen
data_Ca16Al5Tl
_symmetry_space_group_name_H-M   'P 1'
_cell_length_a   9.47042314
_cell_length_b   9.57440155
_cell_length_c   9.63250768
_cell_angle_alpha   98.91048831
_cell_angle_beta   101.16769542
_cell_angle_gamma   119.74710520
_symmetry_Int_Tables_number   1
_chemical_formula_structural   Ca16Al5Tl
_chemical_formula_sum   'Ca16 Al5 Tl1'
_cell_volume   710.92886083
_cell_formula_units_Z   1
loop_
 _symmetry_equiv_pos_site_id
 _symmetry_equiv_pos_as_xyz
  1  'x, y, z'
loop_
 _atom_site_type_symbol
 _atom_site_label
 _atom_site_symmetry_multiplicity
 _atom_site_fract_x
 _atom_site_fract_y
 _atom_site_fract_z
 _atom_site_occupancy
  Ca  Ca0  1  0.921592  0.770989  0.393249  1
  Ca  Ca1  1  0.701825  0.499640  0.609542  1
  Ca  Ca2  1  0.468124  0.300099  0.849047  1
  Ca  Ca3  1  0.531876  0.699901  0.150953  1
  Ca  Ca4  1  0.118159  0.596565  0.851048  1
  Ca  Ca5  1  0.298175  0.500360  0.390458  1
  Ca  Ca6  1  0.333012  0.877907  0.608024  1
  Ca  Ca7  1  0.078408  0.229011  0.606751  1
  Ca  Ca8  1  0.666988  0.122093  0.391976  1
  Ca  Ca9  1  0.881841  0.403435  0.148952  1
  Ca  Ca10  1  0.458305  0.292917  0.203976  1
  Ca  Ca11  1  0.775407  0.154630  0.798143  1
  Ca  Ca12  1  0.041051  0.939358  0.830519  1
  Ca  Ca13  1  0.958949  0.060642  0.169481  1
  Ca  Ca14  1  0.541695  0.707083  0.796024  1
  Ca  Ca15  1  0.224593  0.845370  0.201857  1
  Al  Al16  1  0.826037  0.662286  0.000669  1
  Al  Al17  1  0.676762  0.840426  0.526586  1
  Al  Al18  1  0.000000  0.500000  0.500000  1
  Al  Al19  1  0.173963  0.337714  0.999331  1
  Al  Al20  1  0.323238  0.159574  0.473414  1
  Tl  Tl21  1  0.500000  0.000000  0.000000  1
