# generated using pymatgen
data_Tb8Ho12Si15Ir
_symmetry_space_group_name_H-M   'P 1'
_cell_length_a   7.34123145
_cell_length_b   7.73835666
_cell_length_c   14.56785800
_cell_angle_alpha   90.00000000
_cell_angle_beta   90.00000000
_cell_angle_gamma   90.04975526
_symmetry_Int_Tables_number   1
_chemical_formula_structural   Tb8Ho12Si15Ir
_chemical_formula_sum   'Tb8 Ho12 Si15 Ir1'
_cell_volume   827.58611239
_cell_formula_units_Z   1
loop_
 _symmetry_equiv_pos_site_id
 _symmetry_equiv_pos_as_xyz
  1  'x, y, z'
loop_
 _atom_site_type_symbol
 _atom_site_label
 _atom_site_symmetry_multiplicity
 _atom_site_fract_x
 _atom_site_fract_y
 _atom_site_fract_z
 _atom_site_occupancy
  Tb  Tb0  1  0.019373  0.184222  0.096872  1
  Tb  Tb1  1  0.983923  0.823681  0.904857  1
  Tb  Tb2  1  0.482189  0.680008  0.905008  1
  Tb  Tb3  1  0.983923  0.823681  0.595143  1
  Tb  Tb4  1  0.518710  0.319139  0.096495  1
  Tb  Tb5  1  0.019373  0.184222  0.403128  1
  Tb  Tb6  1  0.518710  0.319139  0.403505  1
  Tb  Tb7  1  0.482189  0.680008  0.594992  1
  Ho  Ho8  1  0.154174  0.514642  0.750000  1
  Ho  Ho9  1  0.841322  0.487346  0.250000  1
  Ho  Ho10  1  0.342586  0.015055  0.250000  1
  Ho  Ho11  1  0.665242  0.987021  0.750000  1
  Ho  Ho12  1  0.315428  0.174743  0.626416  1
  Ho  Ho13  1  0.677037  0.823098  0.375732  1
  Ho  Ho14  1  0.175509  0.681034  0.376459  1
  Ho  Ho15  1  0.677037  0.823098  0.124268  1
  Ho  Ho16  1  0.832884  0.315758  0.625670  1
  Ho  Ho17  1  0.315428  0.174743  0.873584  1
  Ho  Ho18  1  0.832884  0.315758  0.874330  1
  Ho  Ho19  1  0.175509  0.681034  0.123541  1
  Si  Si20  1  0.971285  0.895113  0.250000  1
  Si  Si21  1  0.471018  0.607738  0.250000  1
  Si  Si22  1  0.527733  0.396646  0.750000  1
  Si  Si23  1  0.277479  0.866605  0.750000  1
  Si  Si24  1  0.723420  0.129257  0.250000  1
  Si  Si25  1  0.224197  0.373304  0.250000  1
  Si  Si26  1  0.767158  0.622493  0.750000  1
  Si  Si27  1  0.155575  0.471715  0.537896  1
  Si  Si28  1  0.846844  0.531561  0.462133  1
  Si  Si29  1  0.347925  0.970567  0.461421  1
  Si  Si30  1  0.846844  0.531561  0.037867  1
  Si  Si31  1  0.650040  0.030354  0.538344  1
  Si  Si32  1  0.155575  0.471715  0.962104  1
  Si  Si33  1  0.650040  0.030354  0.961656  1
  Si  Si34  1  0.347925  0.970567  0.038579  1
  Ir  Ir35  1  0.023512  0.093022  0.750000  1
