# generated using pymatgen
data_SmHfNbFe9
_symmetry_space_group_name_H-M   'P 1'
_cell_length_a   4.97341047
_cell_length_b   4.97341086
_cell_length_c   8.42875183
_cell_angle_alpha   72.84086664
_cell_angle_beta   72.84086708
_cell_angle_gamma   59.99999539
_symmetry_Int_Tables_number   1
_chemical_formula_structural   SmHfNbFe9
_chemical_formula_sum   'Sm1 Hf1 Nb1 Fe9'
_cell_volume   169.75216556
_cell_formula_units_Z   1
loop_
 _symmetry_equiv_pos_site_id
 _symmetry_equiv_pos_as_xyz
  1  'x, y, z'
loop_
 _atom_site_type_symbol
 _atom_site_label
 _atom_site_symmetry_multiplicity
 _atom_site_fract_x
 _atom_site_fract_y
 _atom_site_fract_z
 _atom_site_occupancy
  Sm  Sm0  1  0.000037  0.000037  0.999889  1
  Hf  Hf1  1  0.856091  0.856091  0.431728  1
  Nb  Nb2  1  0.143626  0.143626  0.569122  1
  Fe  Fe3  1  0.082896  0.587738  0.741627  1
  Fe  Fe4  1  0.587738  0.587738  0.741627  1
  Fe  Fe5  1  0.587738  0.082896  0.741627  1
  Fe  Fe6  1  0.916778  0.412529  0.258165  1
  Fe  Fe7  1  0.412529  0.412529  0.258165  1
  Fe  Fe8  1  0.412529  0.916778  0.258165  1
  Fe  Fe9  1  0.333098  0.333098  0.000708  1
  Fe  Fe10  1  0.667000  0.667000  0.999000  1
  Fe  Fe11  1  0.499941  0.499941  0.500176  1
