# generated using pymatgen
data_La2Gd4TaNbO14
_symmetry_space_group_name_H-M   'P 1'
_cell_length_a   6.60143950
_cell_length_b   6.60143885
_cell_length_c   7.71405728
_cell_angle_alpha   90.02507738
_cell_angle_beta   89.97491798
_cell_angle_gamma   109.30293856
_symmetry_Int_Tables_number   1
_chemical_formula_structural   La2Gd4TaNbO14
_chemical_formula_sum   'La2 Gd4 Ta1 Nb1 O14'
_cell_volume   317.27266648
_cell_formula_units_Z   1
loop_
 _symmetry_equiv_pos_site_id
 _symmetry_equiv_pos_as_xyz
  1  'x, y, z'
loop_
 _atom_site_type_symbol
 _atom_site_label
 _atom_site_symmetry_multiplicity
 _atom_site_fract_x
 _atom_site_fract_y
 _atom_site_fract_z
 _atom_site_occupancy
  La  La0  1  0.500000  0.500000  0.500000  1
  La  La1  1  0.500000  0.500000  0.000000  1
  Gd  Gd2  1  0.533349  0.000571  0.749062  1
  Gd  Gd3  1  0.000571  0.533349  0.250938  1
  Gd  Gd4  1  0.466651  0.999429  0.250938  1
  Gd  Gd5  1  0.999429  0.466651  0.749062  1
  Ta  Ta6  1  0.000000  0.000000  0.500000  1
  Nb  Nb7  1  0.000000  0.000000  0.000000  1
  O  O8  1  0.683590  0.932882  0.467453  1
  O  O9  1  0.932882  0.683590  0.532547  1
  O  O10  1  0.682157  0.932188  0.031746  1
  O  O11  1  0.932188  0.682157  0.968254  1
  O  O12  1  0.316410  0.067118  0.532547  1
  O  O13  1  0.067118  0.316410  0.467453  1
  O  O14  1  0.317843  0.067812  0.968254  1
  O  O15  1  0.067812  0.317843  0.031746  1
  O  O16  1  0.365107  0.634893  0.750066  1
  O  O17  1  0.634893  0.365107  0.249934  1
  O  O18  1  0.641256  0.358744  0.749998  1
  O  O19  1  0.358744  0.641256  0.250002  1
  O  O20  1  0.938033  0.061967  0.748374  1
  O  O21  1  0.061967  0.938033  0.251626  1
