# generated using pymatgen
data_HfZr9ZnSnGeSb5
_symmetry_space_group_name_H-M   'P 1'
_cell_length_a   8.67069505
_cell_length_b   8.67787678
_cell_length_c   5.86765000
_cell_angle_alpha   89.99010944
_cell_angle_beta   90.02818964
_cell_angle_gamma   120.00559474
_symmetry_Int_Tables_number   1
_chemical_formula_structural   HfZr9ZnSnGeSb5
_chemical_formula_sum   'Hf1 Zr9 Zn1 Sn1 Ge1 Sb5'
_cell_volume   382.32938932
_cell_formula_units_Z   1
loop_
 _symmetry_equiv_pos_site_id
 _symmetry_equiv_pos_as_xyz
  1  'x, y, z'
loop_
 _atom_site_type_symbol
 _atom_site_label
 _atom_site_symmetry_multiplicity
 _atom_site_fract_x
 _atom_site_fract_y
 _atom_site_fract_z
 _atom_site_occupancy
  Hf  Hf0  1  0.666175  0.332919  0.000922  1
  Zr  Zr1  1  0.334054  0.667079  0.000570  1
  Zr  Zr2  1  0.334498  0.667812  0.499487  1
  Zr  Zr3  1  0.665429  0.333247  0.499713  1
  Zr  Zr4  1  0.734494  0.733691  0.751576  1
  Zr  Zr5  1  0.265861  0.999913  0.751660  1
  Zr  Zr6  1  0.999621  0.265426  0.751398  1
  Zr  Zr7  1  0.267881  0.267167  0.248446  1
  Zr  Zr8  1  0.732224  0.999640  0.248335  1
  Zr  Zr9  1  0.999748  0.733625  0.248527  1
  Zn  Zn10  1  0.999981  0.000946  0.498669  1
  Sn  Sn11  1  0.999545  0.387481  0.251202  1
  Ge  Ge12  1  0.000004  0.000796  0.001243  1
  Sb  Sb13  1  0.389327  0.389673  0.748479  1
  Sb  Sb14  1  0.611123  0.001264  0.748316  1
  Sb  Sb15  1  0.999526  0.608204  0.748398  1
  Sb  Sb16  1  0.611280  0.610678  0.251499  1
  Sb  Sb17  1  0.389230  0.000443  0.251561  1
