# generated using pymatgen
data_Pr4GaSi3Pd8
_symmetry_space_group_name_H-M   'P 1'
_cell_length_a   5.75056637
_cell_length_b   7.03535700
_cell_length_c   7.64389754
_cell_angle_alpha   90.00000000
_cell_angle_beta   89.32200211
_cell_angle_gamma   90.00000000
_symmetry_Int_Tables_number   1
_chemical_formula_structural   Pr4GaSi3Pd8
_chemical_formula_sum   'Pr4 Ga1 Si3 Pd8'
_cell_volume   309.22970753
_cell_formula_units_Z   1
loop_
 _symmetry_equiv_pos_site_id
 _symmetry_equiv_pos_as_xyz
  1  'x, y, z'
loop_
 _atom_site_type_symbol
 _atom_site_label
 _atom_site_symmetry_multiplicity
 _atom_site_fract_x
 _atom_site_fract_y
 _atom_site_fract_z
 _atom_site_occupancy
  Pr  Pr0  1  0.351961  0.750000  0.032747  1
  Pr  Pr1  1  0.143237  0.750000  0.529570  1
  Pr  Pr2  1  0.649023  0.250000  0.967325  1
  Pr  Pr3  1  0.857491  0.250000  0.469096  1
  Ga  Ga4  1  0.150451  0.250000  0.123302  1
  Si  Si5  1  0.647200  0.750000  0.378128  1
  Si  Si6  1  0.850876  0.750000  0.874923  1
  Si  Si7  1  0.354692  0.250000  0.625940  1
  Pd  Pd8  1  0.896682  0.555861  0.173337  1
  Pd  Pd9  1  0.593793  0.946325  0.676162  1
  Pd  Pd10  1  0.089776  0.050939  0.818577  1
  Pd  Pd11  1  0.417284  0.448520  0.331408  1
  Pd  Pd12  1  0.089776  0.449061  0.818577  1
  Pd  Pd13  1  0.417284  0.051480  0.331408  1
  Pd  Pd14  1  0.896682  0.944139  0.173337  1
  Pd  Pd15  1  0.593793  0.553675  0.676162  1
