# generated using pymatgen
data_Ca8Nb4Fe3SbO24
_symmetry_space_group_name_H-M   'P 1'
_cell_length_a   5.51614617
_cell_length_b   9.72882635
_cell_length_c   9.75467068
_cell_angle_alpha   71.77403405
_cell_angle_beta   90.37699466
_cell_angle_gamma   90.47292996
_symmetry_Int_Tables_number   1
_chemical_formula_structural   Ca8Nb4Fe3SbO24
_chemical_formula_sum   'Ca8 Nb4 Fe3 Sb1 O24'
_cell_volume   497.20587933
_cell_formula_units_Z   1
loop_
 _symmetry_equiv_pos_site_id
 _symmetry_equiv_pos_as_xyz
  1  'x, y, z'
loop_
 _atom_site_type_symbol
 _atom_site_label
 _atom_site_symmetry_multiplicity
 _atom_site_fract_x
 _atom_site_fract_y
 _atom_site_fract_z
 _atom_site_occupancy
  Ca  Ca0  1  0.018046  0.339093  0.896124  1
  Ca  Ca1  1  0.011967  0.841194  0.399975  1
  Ca  Ca2  1  0.981951  0.660906  0.103876  1
  Ca  Ca3  1  0.988034  0.158805  0.600025  1
  Ca  Ca4  1  0.488284  0.598199  0.649122  1
  Ca  Ca5  1  0.484509  0.094253  0.145222  1
  Ca  Ca6  1  0.511715  0.401801  0.350878  1
  Ca  Ca7  1  0.515491  0.905746  0.854779  1
  Nb  Nb8  1  0.003117  0.259875  0.241117  1
  Nb  Nb9  1  0.996884  0.740125  0.758882  1
  Nb  Nb10  1  0.509018  0.255201  0.753087  1
  Nb  Nb11  1  0.490983  0.744800  0.246912  1
  Fe  Fe12  1  0.000000  0.500000  0.500000  1
  Fe  Fe13  1  0.000001  0.000000  0.000000  1
  Fe  Fe14  1  0.500000  0.500000  0.000000  1
  Sb  Sb15  1  0.500000  0.000000  0.500000  1
  O  O16  1  0.897404  0.144531  0.117179  1
  O  O17  1  0.906525  0.643192  0.608346  1
  O  O18  1  0.102592  0.855468  0.882821  1
  O  O19  1  0.093477  0.356808  0.391654  1
  O  O20  1  0.603764  0.389545  0.854541  1
  O  O21  1  0.598840  0.894348  0.362469  1
  O  O22  1  0.396237  0.610456  0.145458  1
  O  O23  1  0.401161  0.105653  0.637531  1
  O  O24  1  0.205431  0.373607  0.669819  1
  O  O25  1  0.209901  0.870021  0.180327  1
  O  O26  1  0.794570  0.626393  0.330182  1
  O  O27  1  0.790098  0.129978  0.819673  1
  O  O28  1  0.294828  0.317496  0.131200  1
  O  O29  1  0.301921  0.827882  0.617075  1
  O  O30  1  0.705171  0.682505  0.868800  1
  O  O31  1  0.698079  0.172118  0.382925  1
  O  O32  1  0.308470  0.132383  0.915150  1
  O  O33  1  0.300227  0.626811  0.423935  1
  O  O34  1  0.691530  0.867618  0.084850  1
  O  O35  1  0.699774  0.373189  0.576065  1
  O  O36  1  0.188338  0.575380  0.864147  1
  O  O37  1  0.205389  0.071626  0.375861  1
  O  O38  1  0.811663  0.424620  0.135853  1
  O  O39  1  0.794612  0.928373  0.624138  1
