# generated using pymatgen
data_Zr12Ta7Si16W
_symmetry_space_group_name_H-M   'P 1'
_cell_length_a   6.95563034
_cell_length_b   6.94754050
_cell_length_c   12.86045305
_cell_angle_alpha   90.50046690
_cell_angle_beta   90.02380894
_cell_angle_gamma   90.01625099
_symmetry_Int_Tables_number   1
_chemical_formula_structural   Zr12Ta7Si16W
_chemical_formula_sum   'Zr12 Ta7 Si16 W1'
_cell_volume   621.45147791
_cell_formula_units_Z   1
loop_
 _symmetry_equiv_pos_site_id
 _symmetry_equiv_pos_as_xyz
  1  'x, y, z'
loop_
 _atom_site_type_symbol
 _atom_site_label
 _atom_site_symmetry_multiplicity
 _atom_site_fract_x
 _atom_site_fract_y
 _atom_site_fract_z
 _atom_site_occupancy
  Zr  Zr0  1  0.651496  0.496299  0.876503  1
  Zr  Zr1  1  0.500740  0.350608  0.621912  1
  Zr  Zr2  1  0.501266  0.648072  0.125494  1
  Zr  Zr3  1  0.147864  0.998121  0.873939  1
  Zr  Zr4  1  0.003834  0.653809  0.037738  1
  Zr  Zr5  1  0.998989  0.343277  0.529210  1
  Zr  Zr6  1  0.655050  0.000265  0.968169  1
  Zr  Zr7  1  0.151779  0.497749  0.781591  1
  Zr  Zr8  1  0.844167  0.500131  0.283128  1
  Zr  Zr9  1  0.500976  0.154902  0.220850  1
  Zr  Zr10  1  0.502256  0.845099  0.713177  1
  Zr  Zr11  1  0.341219  0.000094  0.467436  1
  Ta  Ta12  1  0.852523  0.997635  0.374001  1
  Ta  Ta13  1  0.009843  0.151179  0.128660  1
  Ta  Ta14  1  0.994387  0.849378  0.623588  1
  Ta  Ta15  1  0.672387  0.673416  0.497519  1
  Ta  Ta16  1  0.828712  0.170177  0.747923  1
  Ta  Ta17  1  0.171531  0.832778  0.252295  1
  Ta  Ta18  1  0.328936  0.324328  0.002531  1
  Si  Si19  1  0.046726  0.702161  0.435290  1
  Si  Si20  1  0.956853  0.299228  0.938553  1
  Si  Si21  1  0.703694  0.045121  0.560857  1
  Si  Si22  1  0.203258  0.453241  0.189690  1
  Si  Si23  1  0.802021  0.547341  0.683587  1
  Si  Si24  1  0.454417  0.196424  0.813526  1
  Si  Si25  1  0.546088  0.799046  0.315568  1
  Si  Si26  1  0.300945  0.955215  0.065679  1
  Si  Si27  1  0.854286  0.796584  0.816675  1
  Si  Si28  1  0.139142  0.212653  0.324814  1
  Si  Si29  1  0.798344  0.866608  0.179841  1
  Si  Si30  1  0.289917  0.641486  0.569492  1
  Si  Si31  1  0.711466  0.352850  0.074397  1
  Si  Si32  1  0.631966  0.295436  0.423707  1
  Si  Si33  1  0.354713  0.700219  0.930327  1
  Si  Si34  1  0.200469  0.138523  0.676179  1
  W  W35  1  0.347740  0.510547  0.376152  1
