# generated using pymatgen
data_Pr19ErSi15Rh
_symmetry_space_group_name_H-M   'P 1'
_cell_length_a   7.91749396
_cell_length_b   7.91908224
_cell_length_c   15.28782651
_cell_angle_alpha   90.10421573
_cell_angle_beta   89.72595529
_cell_angle_gamma   90.08739751
_symmetry_Int_Tables_number   1
_chemical_formula_structural   Pr19ErSi15Rh
_chemical_formula_sum   'Pr19 Er1 Si15 Rh1'
_cell_volume   958.52215206
_cell_formula_units_Z   1
loop_
 _symmetry_equiv_pos_site_id
 _symmetry_equiv_pos_as_xyz
  1  'x, y, z'
loop_
 _atom_site_type_symbol
 _atom_site_label
 _atom_site_symmetry_multiplicity
 _atom_site_fract_x
 _atom_site_fract_y
 _atom_site_fract_z
 _atom_site_occupancy
  Pr  Pr0  1  0.190078  0.806998  0.249835  1
  Pr  Pr1  1  0.818826  0.187685  0.750062  1
  Pr  Pr2  1  0.693721  0.688440  0.499980  1
  Pr  Pr3  1  0.373252  0.010630  0.448529  1
  Pr  Pr4  1  0.489701  0.875538  0.698640  1
  Pr  Pr5  1  0.509435  0.124020  0.196880  1
  Pr  Pr6  1  0.876057  0.488110  0.299906  1
  Pr  Pr7  1  0.125855  0.508000  0.801198  1
  Pr  Pr8  1  0.626442  0.988587  0.949026  1
  Pr  Pr9  1  0.004332  0.377622  0.551549  1
  Pr  Pr10  1  0.988171  0.625012  0.051378  1
  Pr  Pr11  1  0.134696  0.985465  0.874446  1
  Pr  Pr12  1  0.516640  0.631092  0.125240  1
  Pr  Pr13  1  0.473131  0.362566  0.629448  1
  Pr  Pr14  1  0.628524  0.515556  0.874457  1
  Pr  Pr15  1  0.373057  0.482461  0.372677  1
  Pr  Pr16  1  0.872793  0.020513  0.376606  1
  Pr  Pr17  1  0.982188  0.127235  0.123686  1
  Pr  Pr18  1  0.025579  0.879818  0.625414  1
  Er  Er19  1  0.308962  0.308565  0.998830  1
  Si  Si20  1  0.330818  0.691291  0.952039  1
  Si  Si21  1  0.663493  0.303470  0.452175  1
  Si  Si22  1  0.693485  0.332694  0.048494  1
  Si  Si23  1  0.304745  0.667659  0.548147  1
  Si  Si24  1  0.804866  0.832647  0.202695  1
  Si  Si25  1  0.167857  0.197455  0.296897  1
  Si  Si26  1  0.834019  0.802852  0.799138  1
  Si  Si27  1  0.288885  0.927173  0.057846  1
  Si  Si28  1  0.578813  0.787447  0.309773  1
  Si  Si29  1  0.422672  0.210962  0.816441  1
  Si  Si30  1  0.783240  0.580690  0.690722  1
  Si  Si31  1  0.213750  0.419634  0.186189  1
  Si  Si32  1  0.704561  0.074669  0.559150  1
  Si  Si33  1  0.925744  0.289494  0.942448  1
  Si  Si34  1  0.079592  0.714840  0.441391  1
  Rh  Rh35  1  0.192017  0.173110  0.698668  1
