# generated using pymatgen
data_Ho4Co17Cu(P6Os)2
_symmetry_space_group_name_H-M   'P 1'
_cell_length_a   3.68513600
_cell_length_b   10.32048791
_cell_length_c   11.74898130
_cell_angle_alpha   89.91402931
_cell_angle_beta   90.00000000
_cell_angle_gamma   90.00000000
_symmetry_Int_Tables_number   1
_chemical_formula_structural   Ho4Co17Cu(P6Os)2
_chemical_formula_sum   'Ho4 Co17 Cu1 P12 Os2'
_cell_volume   446.84147142
_cell_formula_units_Z   1
loop_
 _symmetry_equiv_pos_site_id
 _symmetry_equiv_pos_as_xyz
  1  'x, y, z'
loop_
 _atom_site_type_symbol
 _atom_site_label
 _atom_site_symmetry_multiplicity
 _atom_site_fract_x
 _atom_site_fract_y
 _atom_site_fract_z
 _atom_site_occupancy
  Ho  Ho0  1  0.250000  0.582432  0.701974  1
  Ho  Ho1  1  0.250000  0.918813  0.202126  1
  Ho  Ho2  1  0.750000  0.414192  0.296919  1
  Ho  Ho3  1  0.750000  0.084906  0.794064  1
  Co  Co4  1  0.750000  0.216483  0.507698  1
  Co  Co5  1  0.250000  0.406495  0.486636  1
  Co  Co6  1  0.250000  0.093427  0.985960  1
  Co  Co7  1  0.750000  0.591858  0.510383  1
  Co  Co8  1  0.750000  0.906996  0.010585  1
  Co  Co9  1  0.250000  0.220983  0.179392  1
  Co  Co10  1  0.250000  0.280685  0.673427  1
  Co  Co11  1  0.750000  0.777125  0.823118  1
  Co  Co12  1  0.750000  0.722554  0.323258  1
  Co  Co13  1  0.250000  0.887112  0.702327  1
  Co  Co14  1  0.250000  0.614659  0.202190  1
  Co  Co15  1  0.750000  0.114411  0.301768  1
  Co  Co16  1  0.750000  0.383426  0.800199  1
  Co  Co17  1  0.250000  0.463514  0.933361  1
  Co  Co18  1  0.250000  0.033952  0.433203  1
  Co  Co19  1  0.750000  0.534830  0.069539  1
  Co  Co20  1  0.750000  0.965878  0.569166  1
  Cu  Cu21  1  0.750000  0.287272  0.010827  1
  P  P22  1  0.250000  0.419222  0.115879  1
  P  P23  1  0.250000  0.083399  0.612167  1
  P  P24  1  0.750000  0.578070  0.886520  1
  P  P25  1  0.750000  0.921001  0.386947  1
  P  P26  1  0.250000  0.270305  0.862744  1
  P  P27  1  0.250000  0.228965  0.369438  1
  P  P28  1  0.750000  0.731024  0.132794  1
  P  P29  1  0.750000  0.770043  0.633226  1
  P  P30  1  0.250000  0.594140  0.389986  1
  P  P31  1  0.250000  0.905831  0.890622  1
  P  P32  1  0.750000  0.398033  0.607318  1
  P  P33  1  0.750000  0.100097  0.110072  1
  Os  Os34  1  0.250000  0.713297  0.991770  1
  Os  Os35  1  0.250000  0.784569  0.492397  1
