# generated using pymatgen
data_Tm2(LuBi)3
_symmetry_space_group_name_H-M   'P 1'
_cell_length_a   8.14017600
_cell_length_b   9.38532700
_cell_length_c   11.85598500
_cell_angle_alpha   90.00000000
_cell_angle_beta   90.00000000
_cell_angle_gamma   90.00000000
_symmetry_Int_Tables_number   1
_chemical_formula_structural   Tm2(LuBi)3
_chemical_formula_sum   'Tm8 Lu12 Bi12'
_cell_volume   905.77607444
_cell_formula_units_Z   4
loop_
 _symmetry_equiv_pos_site_id
 _symmetry_equiv_pos_as_xyz
  1  'x, y, z'
loop_
 _atom_site_type_symbol
 _atom_site_label
 _atom_site_symmetry_multiplicity
 _atom_site_fract_x
 _atom_site_fract_y
 _atom_site_fract_z
 _atom_site_occupancy
  Tm  Tm0  1  0.355400  0.250000  0.282900  1
  Tm  Tm1  1  0.644600  0.750000  0.717100  1
  Tm  Tm2  1  0.144600  0.750000  0.782900  1
  Tm  Tm3  1  0.855400  0.250000  0.217100  1
  Tm  Tm4  1  0.188053  0.250000  0.781582  1
  Tm  Tm5  1  0.811947  0.750000  0.218418  1
  Tm  Tm6  1  0.311947  0.750000  0.281582  1
  Tm  Tm7  1  0.688053  0.250000  0.718418  1
  Lu  Lu8  1  0.025866  0.250000  0.511065  1
  Lu  Lu9  1  0.974134  0.750000  0.488935  1
  Lu  Lu10  1  0.474134  0.750000  0.011065  1
  Lu  Lu11  1  0.525866  0.250000  0.988935  1
  Lu  Lu12  1  0.194008  0.066282  0.060275  1
  Lu  Lu13  1  0.805992  0.933718  0.939725  1
  Lu  Lu14  1  0.305992  0.933718  0.560275  1
  Lu  Lu15  1  0.805992  0.566282  0.939725  1
  Lu  Lu16  1  0.694008  0.066282  0.439725  1
  Lu  Lu17  1  0.194008  0.433718  0.060275  1
  Lu  Lu18  1  0.694008  0.433718  0.439725  1
  Lu  Lu19  1  0.305992  0.566282  0.560275  1
  Bi  Bi20  1  0.407361  0.250000  0.542532  1
  Bi  Bi21  1  0.592639  0.750000  0.457468  1
  Bi  Bi22  1  0.092639  0.750000  0.042532  1
  Bi  Bi23  1  0.907361  0.250000  0.957468  1
  Bi  Bi24  1  0.066865  0.003560  0.326143  1
  Bi  Bi25  1  0.933135  0.996440  0.673857  1
  Bi  Bi26  1  0.433135  0.996440  0.826143  1
  Bi  Bi27  1  0.933135  0.503560  0.673857  1
  Bi  Bi28  1  0.566865  0.003560  0.173857  1
  Bi  Bi29  1  0.066865  0.496440  0.326143  1
  Bi  Bi30  1  0.566865  0.496440  0.173857  1
  Bi  Bi31  1  0.433135  0.503560  0.826143  1
