# generated using pymatgen
data_LiLaThSi3
_symmetry_space_group_name_H-M   'P 1'
_cell_length_a   8.25658800
_cell_length_b   8.33072118
_cell_length_c   4.25557300
_cell_angle_alpha   90.00000000
_cell_angle_beta   90.00000000
_cell_angle_gamma   119.70606502
_symmetry_Int_Tables_number   1
_chemical_formula_structural   LiLaThSi3
_chemical_formula_sum   'Li2 La2 Th2 Si6'
_cell_volume   254.24394280
_cell_formula_units_Z   2
loop_
 _symmetry_equiv_pos_site_id
 _symmetry_equiv_pos_as_xyz
  1  'x, y, z'
loop_
 _atom_site_type_symbol
 _atom_site_label
 _atom_site_symmetry_multiplicity
 _atom_site_fract_x
 _atom_site_fract_y
 _atom_site_fract_z
 _atom_site_occupancy
  Li  Li0  1  0.333021  0.666042  0.000000  1
  Li  Li1  1  0.666979  0.333958  0.000000  1
  La  La2  1  0.000000  0.500000  0.500000  1
  La  La3  1  0.500000  0.500000  0.500000  1
  Th  Th4  1  0.000000  0.000000  0.500000  1
  Th  Th5  1  0.500000  0.000000  0.500000  1
  Si  Si6  1  0.162901  0.325804  0.000000  1
  Si  Si7  1  0.667692  0.836661  0.000000  1
  Si  Si8  1  0.332308  0.163339  0.000000  1
  Si  Si9  1  0.168967  0.836661  0.000000  1
  Si  Si10  1  0.837099  0.674196  0.000000  1
  Si  Si11  1  0.831033  0.163339  0.000000  1
