# generated using pymatgen
data_Er12Os3Ru
_symmetry_space_group_name_H-M   'P 1'
_cell_length_a   7.36737634
_cell_length_b   8.97811500
_cell_length_c   6.25989697
_cell_angle_alpha   90.00000000
_cell_angle_beta   90.09102547
_cell_angle_gamma   90.00000000
_symmetry_Int_Tables_number   1
_chemical_formula_structural   Er12Os3Ru
_chemical_formula_sum   'Er12 Os3 Ru1'
_cell_volume   414.06131368
_cell_formula_units_Z   1
loop_
 _symmetry_equiv_pos_site_id
 _symmetry_equiv_pos_as_xyz
  1  'x, y, z'
loop_
 _atom_site_type_symbol
 _atom_site_label
 _atom_site_symmetry_multiplicity
 _atom_site_fract_x
 _atom_site_fract_y
 _atom_site_fract_z
 _atom_site_occupancy
  Er  Er0  1  0.461820  0.750000  0.128831  1
  Er  Er1  1  0.175485  0.062484  0.165526  1
  Er  Er2  1  0.175485  0.437516  0.165526  1
  Er  Er3  1  0.674614  0.061981  0.335036  1
  Er  Er4  1  0.674614  0.438019  0.335036  1
  Er  Er5  1  0.961840  0.750000  0.371008  1
  Er  Er6  1  0.038579  0.250000  0.630139  1
  Er  Er7  1  0.324945  0.562488  0.666157  1
  Er  Er8  1  0.324945  0.937512  0.666157  1
  Er  Er9  1  0.824453  0.563633  0.832884  1
  Er  Er10  1  0.824453  0.936367  0.832884  1
  Er  Er11  1  0.539396  0.250000  0.871376  1
  Os  Os12  1  0.381845  0.250000  0.460580  1
  Os  Os13  1  0.618001  0.750000  0.539471  1
  Os  Os14  1  0.117510  0.750000  0.960876  1
  Ru  Ru15  1  0.882017  0.250000  0.038514  1
