# generated using pymatgen
data_Nd6Lu(MnC4)3
_symmetry_space_group_name_H-M   'P 1'
_cell_length_a   8.36697700
_cell_length_b   8.36697693
_cell_length_c   5.24569000
_cell_angle_alpha   90.00000000
_cell_angle_beta   90.00000000
_cell_angle_gamma   119.99998050
_symmetry_Int_Tables_number   1
_chemical_formula_structural   Nd6Lu(MnC4)3
_chemical_formula_sum   'Nd6 Lu1 Mn3 C12'
_cell_volume   318.03175493
_cell_formula_units_Z   1
loop_
 _symmetry_equiv_pos_site_id
 _symmetry_equiv_pos_as_xyz
  1  'x, y, z'
loop_
 _atom_site_type_symbol
 _atom_site_label
 _atom_site_symmetry_multiplicity
 _atom_site_fract_x
 _atom_site_fract_y
 _atom_site_fract_z
 _atom_site_occupancy
  Nd  Nd0  1  0.610748  0.678794  0.750276  1
  Nd  Nd1  1  0.931954  0.610748  0.249724  1
  Nd  Nd2  1  0.678794  0.068046  0.249724  1
  Nd  Nd3  1  0.321206  0.931954  0.750276  1
  Nd  Nd4  1  0.068046  0.389252  0.750276  1
  Nd  Nd5  1  0.389252  0.321206  0.249724  1
  Lu  Lu6  1  0.000000  0.000000  0.500000  1
  Mn  Mn7  1  0.000000  0.000000  0.000000  1
  Mn  Mn8  1  0.666667  0.333333  0.750417  1
  Mn  Mn9  1  0.333333  0.666667  0.249583  1
  C  C10  1  0.960874  0.756582  0.766535  1
  C  C11  1  0.204291  0.960874  0.233465  1
  C  C12  1  0.756582  0.795709  0.233465  1
  C  C13  1  0.243418  0.204291  0.766535  1
  C  C14  1  0.795709  0.039126  0.766535  1
  C  C15  1  0.039126  0.243418  0.233465  1
  C  C16  1  0.854307  0.569759  0.759731  1
  C  C17  1  0.284547  0.854307  0.240269  1
  C  C18  1  0.569759  0.715453  0.240269  1
  C  C19  1  0.430241  0.284547  0.759731  1
  C  C20  1  0.145693  0.430241  0.240269  1
  C  C21  1  0.715453  0.145693  0.759731  1
