# generated using pymatgen
data_TaSi2B4Ru10W3
_symmetry_space_group_name_H-M   'P 1'
_cell_length_a   9.28946524
_cell_length_b   9.28946524
_cell_length_c   2.89671100
_cell_angle_alpha   90.00000000
_cell_angle_beta   90.00000000
_cell_angle_gamma   90.02585552
_symmetry_Int_Tables_number   1
_chemical_formula_structural   TaSi2B4Ru10W3
_chemical_formula_sum   'Ta1 Si2 B4 Ru10 W3'
_cell_volume   249.96922974
_cell_formula_units_Z   1
loop_
 _symmetry_equiv_pos_site_id
 _symmetry_equiv_pos_as_xyz
  1  'x, y, z'
loop_
 _atom_site_type_symbol
 _atom_site_label
 _atom_site_symmetry_multiplicity
 _atom_site_fract_x
 _atom_site_fract_y
 _atom_site_fract_z
 _atom_site_occupancy
  Ta  Ta0  1  0.677308  0.177308  0.000000  1
  Si  Si1  1  0.500770  0.499264  0.000000  1
  Si  Si2  1  0.999264  0.000770  0.000000  1
  B  B3  1  0.625722  0.875006  0.000000  1
  B  B4  1  0.375006  0.125722  0.000000  1
  B  B5  1  0.125990  0.625990  0.000000  1
  B  B6  1  0.875152  0.375152  0.000000  1
  Ru  Ru7  1  0.564436  0.711055  0.500000  1
  Ru  Ru8  1  0.431052  0.289821  0.500000  1
  Ru  Ru9  1  0.065500  0.788842  0.500000  1
  Ru  Ru10  1  0.937348  0.212435  0.500000  1
  Ru  Ru11  1  0.288842  0.565500  0.500000  1
  Ru  Ru12  1  0.712435  0.437348  0.500000  1
  Ru  Ru13  1  0.211055  0.064436  0.500000  1
  Ru  Ru14  1  0.789821  0.931052  0.500000  1
  Ru  Ru15  1  0.498025  0.998025  0.500000  1
  Ru  Ru16  1  0.000336  0.500336  0.500000  1
  W  W17  1  0.822181  0.677928  0.000000  1
  W  W18  1  0.177928  0.322181  0.000000  1
  W  W19  1  0.321829  0.821829  0.000000  1
