# generated using pymatgen
data_Tm5Lu3Re(B8Ru)3
_symmetry_space_group_name_H-M   'P 1'
_cell_length_a   3.61730300
_cell_length_b   9.05386368
_cell_length_c   11.43177603
_cell_angle_alpha   90.12326657
_cell_angle_beta   90.00000000
_cell_angle_gamma   90.00000000
_symmetry_Int_Tables_number   1
_chemical_formula_structural   Tm5Lu3Re(B8Ru)3
_chemical_formula_sum   'Tm5 Lu3 Re1 B24 Ru3'
_cell_volume   374.39629461
_cell_formula_units_Z   1
loop_
 _symmetry_equiv_pos_site_id
 _symmetry_equiv_pos_as_xyz
  1  'x, y, z'
loop_
 _atom_site_type_symbol
 _atom_site_label
 _atom_site_symmetry_multiplicity
 _atom_site_fract_x
 _atom_site_fract_y
 _atom_site_fract_z
 _atom_site_occupancy
  Tm  Tm0  1  0.000000  0.322692  0.415259  1
  Tm  Tm1  1  0.000000  0.680671  0.588026  1
  Tm  Tm2  1  0.000000  0.821623  0.083104  1
  Tm  Tm3  1  0.000000  0.177054  0.913372  1
  Tm  Tm4  1  0.000000  0.943384  0.371517  1
  Lu  Lu5  1  0.000000  0.056191  0.627805  1
  Lu  Lu6  1  0.000000  0.442952  0.128001  1
  Lu  Lu7  1  0.000000  0.555717  0.872745  1
  Re  Re8  1  0.000000  0.861981  0.820922  1
  B  B9  1  0.500000  0.553833  0.433780  1
  B  B10  1  0.500000  0.446202  0.566653  1
  B  B11  1  0.500000  0.053896  0.066939  1
  B  B12  1  0.500000  0.947170  0.933746  1
  B  B13  1  0.500000  0.749119  0.419887  1
  B  B14  1  0.500000  0.250689  0.580063  1
  B  B15  1  0.500000  0.249576  0.080333  1
  B  B16  1  0.500000  0.749753  0.919792  1
  B  B17  1  0.500000  0.791049  0.265158  1
  B  B18  1  0.500000  0.208255  0.733693  1
  B  B19  1  0.500000  0.292259  0.234587  1
  B  B20  1  0.500000  0.707042  0.765443  1
  B  B21  1  0.500000  0.630277  0.184264  1
  B  B22  1  0.500000  0.368912  0.815309  1
  B  B23  1  0.500000  0.131742  0.315602  1
  B  B24  1  0.500000  0.869242  0.684550  1
  B  B25  1  0.500000  0.982664  0.212445  1
  B  B26  1  0.500000  0.019017  0.787033  1
  B  B27  1  0.500000  0.482135  0.287627  1
  B  B28  1  0.500000  0.517581  0.712926  1
  B  B29  1  0.500000  0.603218  0.029285  1
  B  B30  1  0.500000  0.394611  0.971413  1
  B  B31  1  0.500000  0.105889  0.470869  1
  B  B32  1  0.500000  0.895414  0.528660  1
  Ru  Ru33  1  0.000000  0.637395  0.320510  1
  Ru  Ru34  1  0.000000  0.362080  0.679081  1
  Ru  Ru35  1  0.000000  0.138715  0.179601  1
