# generated using pymatgen
data_TbDy5(Er2Si3)2
_symmetry_space_group_name_H-M   'P 1'
_cell_length_a   8.41568120
_cell_length_b   8.41247607
_cell_length_c   6.31910800
_cell_angle_alpha   90.00000000
_cell_angle_beta   90.00000000
_cell_angle_gamma   119.98741135
_symmetry_Int_Tables_number   1
_chemical_formula_structural   TbDy5(Er2Si3)2
_chemical_formula_sum   'Tb1 Dy5 Er4 Si6'
_cell_volume   387.48474000
_cell_formula_units_Z   1
loop_
 _symmetry_equiv_pos_site_id
 _symmetry_equiv_pos_as_xyz
  1  'x, y, z'
loop_
 _atom_site_type_symbol
 _atom_site_label
 _atom_site_symmetry_multiplicity
 _atom_site_fract_x
 _atom_site_fract_y
 _atom_site_fract_z
 _atom_site_occupancy
  Tb  Tb0  1  0.000000  0.756359  0.750000  1
  Dy  Dy1  1  0.000000  0.243585  0.250000  1
  Dy  Dy2  1  0.755959  0.756154  0.250000  1
  Dy  Dy3  1  0.756111  0.000046  0.750000  1
  Dy  Dy4  1  0.243889  0.243935  0.750000  1
  Dy  Dy5  1  0.244041  0.000196  0.250000  1
  Er  Er6  1  0.333524  0.666699  0.499955  1
  Er  Er7  1  0.666476  0.333173  0.000045  1
  Er  Er8  1  0.666476  0.333173  0.499955  1
  Er  Er9  1  0.333524  0.666699  0.000045  1
  Si  Si10  1  0.395339  0.000405  0.750000  1
  Si  Si11  1  0.394685  0.394761  0.250000  1
  Si  Si12  1  0.000000  0.605335  0.250000  1
  Si  Si13  1  0.000000  0.394337  0.750000  1
  Si  Si14  1  0.604661  0.605066  0.750000  1
  Si  Si15  1  0.605315  0.000077  0.250000  1
