# generated using pymatgen
data_Er2Pa2CoB14
_symmetry_space_group_name_H-M   'P 1'
_cell_length_a   7.21497174
_cell_length_b   7.20689478
_cell_length_c   7.54097600
_cell_angle_alpha   90.00000000
_cell_angle_beta   90.00000000
_cell_angle_gamma   90.38051950
_symmetry_Int_Tables_number   1
_chemical_formula_structural   Er2Pa2CoB14
_chemical_formula_sum   'Er4 Pa4 Co2 B28'
_cell_volume   392.10356977
_cell_formula_units_Z   2
loop_
 _symmetry_equiv_pos_site_id
 _symmetry_equiv_pos_as_xyz
  1  'x, y, z'
loop_
 _atom_site_type_symbol
 _atom_site_label
 _atom_site_symmetry_multiplicity
 _atom_site_fract_x
 _atom_site_fract_y
 _atom_site_fract_z
 _atom_site_occupancy
  Er  Er0  1  0.305729  0.831931  0.500000  1
  Er  Er1  1  0.808591  0.665284  0.000000  1
  Er  Er2  1  0.832088  0.693292  0.500000  1
  Er  Er3  1  0.167205  0.307852  0.500000  1
  Pa  Pa4  1  0.192254  0.327487  0.000000  1
  Pa  Pa5  1  0.671289  0.191125  0.000000  1
  Pa  Pa6  1  0.328010  0.806739  0.000000  1
  Pa  Pa7  1  0.693181  0.175848  0.500000  1
  Co  Co8  1  0.999934  0.999583  0.000000  1
  Co  Co9  1  0.501932  0.498687  0.500000  1
  B  B10  1  0.173308  0.039175  0.233135  1
  B  B11  1  0.961208  0.174384  0.235997  1
  B  B12  1  0.039529  0.825245  0.230789  1
  B  B13  1  0.674637  0.461496  0.269186  1
  B  B14  1  0.325805  0.540035  0.271825  1
  B  B15  1  0.825678  0.959379  0.230992  1
  B  B16  1  0.540267  0.674754  0.273291  1
  B  B17  1  0.459610  0.326162  0.268771  1
  B  B18  1  0.825678  0.959379  0.769008  1
  B  B19  1  0.039529  0.825245  0.769211  1
  B  B20  1  0.961208  0.174384  0.764003  1
  B  B21  1  0.325805  0.540035  0.728175  1
  B  B22  1  0.674637  0.461496  0.730814  1
  B  B23  1  0.173308  0.039175  0.766865  1
  B  B24  1  0.459610  0.326162  0.731229  1
  B  B25  1  0.540267  0.674754  0.726709  1
  B  B26  1  0.090603  0.590220  0.245325  1
  B  B27  1  0.410604  0.089247  0.246541  1
  B  B28  1  0.588876  0.911523  0.248538  1
  B  B29  1  0.910215  0.409433  0.248747  1
  B  B30  1  0.910215  0.409433  0.751253  1
  B  B31  1  0.588876  0.911523  0.751462  1
  B  B32  1  0.410604  0.089247  0.753459  1
  B  B33  1  0.090603  0.590220  0.754675  1
  B  B34  1  0.999227  0.997644  0.391649  1
  B  B35  1  0.500329  0.502390  0.109914  1
  B  B36  1  0.999227  0.997644  0.608351  1
  B  B37  1  0.500329  0.502390  0.890086  1
