# generated using pymatgen
data_Co5Ni17As16
_symmetry_space_group_name_H-M   'P 1'
_cell_length_a   6.85642394
_cell_length_b   6.84531250
_cell_length_c   11.24864389
_cell_angle_alpha   81.11003481
_cell_angle_beta   81.25719936
_cell_angle_gamma   90.03177457
_symmetry_Int_Tables_number   1
_chemical_formula_structural   Co5Ni17As16
_chemical_formula_sum   'Co5 Ni17 As16'
_cell_volume   515.38864544
_cell_formula_units_Z   1
loop_
 _symmetry_equiv_pos_site_id
 _symmetry_equiv_pos_as_xyz
  1  'x, y, z'
loop_
 _atom_site_type_symbol
 _atom_site_label
 _atom_site_symmetry_multiplicity
 _atom_site_fract_x
 _atom_site_fract_y
 _atom_site_fract_z
 _atom_site_occupancy
  Co  Co0  1  0.467279  0.150219  0.906241  1
  Co  Co1  1  0.852588  0.531852  0.594469  1
  Co  Co2  1  0.530440  0.849126  0.093965  1
  Co  Co3  1  0.149961  0.468418  0.405491  1
  Co  Co4  1  0.081587  0.648168  0.907724  1
  Ni  Ni5  1  0.350338  0.914075  0.592739  1
  Ni  Ni6  1  0.914366  0.349306  0.092664  1
  Ni  Ni7  1  0.649382  0.086260  0.407310  1
  Ni  Ni8  1  0.461281  0.648259  0.905415  1
  Ni  Ni9  1  0.350892  0.539022  0.593960  1
  Ni  Ni10  1  0.539231  0.353056  0.093229  1
  Ni  Ni11  1  0.648806  0.460489  0.405953  1
  Ni  Ni12  1  0.798794  0.684583  0.786841  1
  Ni  Ni13  1  0.314749  0.197030  0.712574  1
  Ni  Ni14  1  0.198049  0.317008  0.212384  1
  Ni  Ni15  1  0.682968  0.802933  0.287465  1
  Ni  Ni16  1  0.074057  0.147504  0.905860  1
  Ni  Ni17  1  0.854837  0.925707  0.594248  1
  Ni  Ni18  1  0.148160  0.074814  0.405522  1
  Ni  Ni19  1  0.925491  0.852651  0.094515  1
  Ni  Ni20  1  0.817816  0.184172  0.750024  1
  Ni  Ni21  1  0.184034  0.815780  0.250430  1
  As  As22  1  0.751615  0.628922  0.000681  1
  As  As23  1  0.371786  0.251765  0.497944  1
  As  As24  1  0.249993  0.374612  0.997278  1
  As  As25  1  0.628780  0.747847  0.502671  1
  As  As26  1  0.877703  0.253669  0.506676  1
  As  As27  1  0.745352  0.122537  0.993679  1
  As  As28  1  0.123192  0.746770  0.492877  1
  As  As29  1  0.252072  0.873815  0.005239  1
  As  As30  1  0.070089  0.927133  0.752799  1
  As  As31  1  0.931613  0.068021  0.249751  1
  As  As32  1  0.560764  0.438539  0.749819  1
  As  As33  1  0.439662  0.560633  0.249690  1
  As  As34  1  0.554190  0.939061  0.753052  1
  As  As35  1  0.064150  0.449863  0.749891  1
  As  As36  1  0.446606  0.062737  0.245953  1
  As  As37  1  0.937327  0.553643  0.252977  1
