# generated using pymatgen
data_HfSc(SiTc)2
_symmetry_space_group_name_H-M   'P 1'
_cell_length_a   7.77248639
_cell_length_b   7.77750149
_cell_length_c   7.77248659
_cell_angle_alpha   126.62406991
_cell_angle_beta   127.93861494
_cell_angle_gamma   77.78226004
_symmetry_Int_Tables_number   1
_chemical_formula_structural   HfSc(SiTc)2
_chemical_formula_sum   'Hf3 Sc3 Si6 Tc6'
_cell_volume   288.32449932
_cell_formula_units_Z   3
loop_
 _symmetry_equiv_pos_site_id
 _symmetry_equiv_pos_as_xyz
  1  'x, y, z'
loop_
 _atom_site_type_symbol
 _atom_site_label
 _atom_site_symmetry_multiplicity
 _atom_site_fract_x
 _atom_site_fract_y
 _atom_site_fract_z
 _atom_site_occupancy
  Hf  Hf0  1  0.249916  0.856447  0.106533  1
  Hf  Hf1  1  0.052199  0.253429  0.701230  1
  Hf  Hf2  1  0.946573  0.646744  0.200171  1
  Sc  Sc3  1  0.449411  0.652213  0.702802  1
  Sc  Sc4  1  0.551274  0.252692  0.201419  1
  Sc  Sc5  1  0.749441  0.856664  0.607223  1
  Si  Si6  1  0.252561  0.256182  0.503622  1
  Si  Si7  1  0.747591  0.250292  0.002703  1
  Si  Si8  1  0.328331  0.586967  0.248770  1
  Si  Si9  1  0.669947  0.920169  0.256781  1
  Si  Si10  1  0.163388  0.920169  0.750222  1
  Si  Si11  1  0.838197  0.586967  0.758636  1
  Tc  Tc12  1  0.498371  0.510401  0.008518  1
  Tc  Tc13  1  0.001882  0.510401  0.512030  1
  Tc  Tc14  1  0.125811  0.253359  0.121572  1
  Tc  Tc15  1  0.876003  0.996572  0.129257  1
  Tc  Tc16  1  0.367315  0.996572  0.620568  1
  Tc  Tc17  1  0.631790  0.253359  0.627549  1
