# generated using pymatgen
data_Cs3FeGe2O7
_symmetry_space_group_name_H-M   'P 1'
_cell_length_a   10.18192914
_cell_length_b   10.18191968
_cell_length_c   7.89401536
_cell_angle_alpha   73.20580974
_cell_angle_beta   73.20624283
_cell_angle_gamma   122.41462561
_symmetry_Int_Tables_number   1
_chemical_formula_structural   Cs3FeGe2O7
_chemical_formula_sum   'Cs6 Fe2 Ge4 O14'
_cell_volume   552.75680866
_cell_formula_units_Z   2
loop_
 _symmetry_equiv_pos_site_id
 _symmetry_equiv_pos_as_xyz
  1  'x, y, z'
loop_
 _atom_site_type_symbol
 _atom_site_label
 _atom_site_symmetry_multiplicity
 _atom_site_fract_x
 _atom_site_fract_y
 _atom_site_fract_z
 _atom_site_occupancy
  Cs  Cs0  1  0.592424  0.983925  0.732801  1
  Cs  Cs1  1  0.010416  0.989583  0.750000  1
  Cs  Cs2  1  0.983924  0.592423  0.232803  1
  Cs  Cs3  1  0.989584  0.010417  0.250000  1
  Cs  Cs4  1  0.016076  0.407577  0.767197  1
  Cs  Cs5  1  0.407576  0.016075  0.267199  1
  Fe  Fe6  1  0.442388  0.557613  0.750002  1
  Fe  Fe7  1  0.557612  0.442387  0.249998  1
  Ge  Ge8  1  0.768156  0.564827  0.755776  1
  Ge  Ge9  1  0.435172  0.231843  0.744225  1
  Ge  Ge10  1  0.564828  0.768157  0.255775  1
  Ge  Ge11  1  0.231844  0.435173  0.244224  1
  O  O12  1  0.671192  0.667884  0.729202  1
  O  O13  1  0.667880  0.671189  0.229204  1
  O  O14  1  0.518496  0.270253  0.485623  1
  O  O15  1  0.332120  0.328811  0.770796  1
  O  O16  1  0.998755  0.277524  0.444326  1
  O  O17  1  0.481504  0.729747  0.514377  1
  O  O18  1  0.277523  0.998761  0.944327  1
  O  O19  1  0.270255  0.518498  0.985623  1
  O  O20  1  0.356127  0.643874  0.250000  1
  O  O21  1  0.328808  0.332116  0.270798  1
  O  O22  1  0.722477  0.001239  0.055673  1
  O  O23  1  0.643873  0.356126  0.750000  1
  O  O24  1  0.001245  0.722476  0.555674  1
  O  O25  1  0.729745  0.481502  0.014377  1
