# generated using pymatgen
data_Ho8In2OsPd
_symmetry_space_group_name_H-M   'P 1'
_cell_length_a   9.65202095
_cell_length_b   9.65203000
_cell_length_c   9.69516358
_cell_angle_alpha   59.78358134
_cell_angle_beta   59.78366565
_cell_angle_gamma   59.61780128
_symmetry_Int_Tables_number   1
_chemical_formula_structural   Ho8In2OsPd
_chemical_formula_sum   'Ho16 In4 Os2 Pd2'
_cell_volume   634.72699413
_cell_formula_units_Z   2
loop_
 _symmetry_equiv_pos_site_id
 _symmetry_equiv_pos_as_xyz
  1  'x, y, z'
loop_
 _atom_site_type_symbol
 _atom_site_label
 _atom_site_symmetry_multiplicity
 _atom_site_fract_x
 _atom_site_fract_y
 _atom_site_fract_z
 _atom_site_occupancy
  Ho  Ho0  1  0.349573  0.349571  0.354940  1
  Ho  Ho1  1  0.350721  0.350719  0.943762  1
  Ho  Ho2  1  0.346159  0.952233  0.352043  1
  Ho  Ho3  1  0.952231  0.346158  0.352045  1
  Ho  Ho4  1  0.815804  0.187511  0.190955  1
  Ho  Ho5  1  0.187253  0.816441  0.804597  1
  Ho  Ho6  1  0.187512  0.815805  0.190954  1
  Ho  Ho7  1  0.816443  0.187251  0.804596  1
  Ho  Ho8  1  0.189278  0.189276  0.809757  1
  Ho  Ho9  1  0.808539  0.808544  0.190689  1
  Ho  Ho10  1  0.938264  0.554836  0.566769  1
  Ho  Ho11  1  0.554886  0.938500  0.940902  1
  Ho  Ho12  1  0.554832  0.938266  0.566773  1
  Ho  Ho13  1  0.938499  0.554887  0.940902  1
  Ho  Ho14  1  0.563442  0.563443  0.937000  1
  Ho  Ho15  1  0.940984  0.940983  0.559714  1
  In  In16  1  0.582997  0.582993  0.583242  1
  In  In17  1  0.582238  0.582239  0.251611  1
  In  In18  1  0.583371  0.249993  0.583070  1
  In  In19  1  0.249993  0.583370  0.583072  1
  Os  Os20  1  0.144711  0.144711  0.138044  1
  Os  Os21  1  0.144521  0.144518  0.572868  1
  Pd  Pd22  1  0.145068  0.572682  0.140850  1
  Pd  Pd23  1  0.572682  0.145073  0.140846  1
