# generated using pymatgen
data_Ac4YbSn4
_symmetry_space_group_name_H-M   'P 1'
_cell_length_a   8.53082200
_cell_length_b   8.86892500
_cell_length_c   17.04827700
_cell_angle_alpha   90.00000000
_cell_angle_beta   90.00000000
_cell_angle_gamma   90.00000000
_symmetry_Int_Tables_number   1
_chemical_formula_structural   Ac4YbSn4
_chemical_formula_sum   'Ac16 Yb4 Sn16'
_cell_volume   1289.85934880
_cell_formula_units_Z   4
loop_
 _symmetry_equiv_pos_site_id
 _symmetry_equiv_pos_as_xyz
  1  'x, y, z'
loop_
 _atom_site_type_symbol
 _atom_site_label
 _atom_site_symmetry_multiplicity
 _atom_site_fract_x
 _atom_site_fract_y
 _atom_site_fract_z
 _atom_site_occupancy
  Ac  Ac0  1  0.648699  0.170473  0.624082  1
  Ac  Ac1  1  0.148699  0.329527  0.875918  1
  Ac  Ac2  1  0.351301  0.829527  0.124082  1
  Ac  Ac3  1  0.851301  0.670473  0.375918  1
  Ac  Ac4  1  0.351301  0.829527  0.375918  1
  Ac  Ac5  1  0.851301  0.670473  0.124082  1
  Ac  Ac6  1  0.648699  0.170473  0.875918  1
  Ac  Ac7  1  0.148699  0.329527  0.624082  1
  Ac  Ac8  1  0.496915  0.685081  0.596854  1
  Ac  Ac9  1  0.996915  0.814919  0.903146  1
  Ac  Ac10  1  0.503085  0.314919  0.096854  1
  Ac  Ac11  1  0.003085  0.185081  0.403146  1
  Ac  Ac12  1  0.503085  0.314919  0.403146  1
  Ac  Ac13  1  0.003085  0.185081  0.096854  1
  Ac  Ac14  1  0.496915  0.685081  0.903146  1
  Ac  Ac15  1  0.996915  0.814919  0.596854  1
  Yb  Yb16  1  0.815779  0.509110  0.750000  1
  Yb  Yb17  1  0.315779  0.990890  0.750000  1
  Yb  Yb18  1  0.184221  0.490890  0.250000  1
  Yb  Yb19  1  0.684221  0.009110  0.250000  1
  Sn  Sn20  1  0.687165  0.966360  0.460918  1
  Sn  Sn21  1  0.187165  0.533640  0.039082  1
  Sn  Sn22  1  0.312835  0.033640  0.960918  1
  Sn  Sn23  1  0.812835  0.466360  0.539082  1
  Sn  Sn24  1  0.312835  0.033640  0.539082  1
  Sn  Sn25  1  0.812835  0.466360  0.960918  1
  Sn  Sn26  1  0.687165  0.966360  0.039082  1
  Sn  Sn27  1  0.187165  0.533640  0.460918  1
  Sn  Sn28  1  0.453211  0.402538  0.750000  1
  Sn  Sn29  1  0.953211  0.097462  0.750000  1
  Sn  Sn30  1  0.546789  0.597462  0.250000  1
  Sn  Sn31  1  0.046789  0.902538  0.250000  1
  Sn  Sn32  1  0.692735  0.858462  0.750000  1
  Sn  Sn33  1  0.192735  0.641538  0.750000  1
  Sn  Sn34  1  0.307265  0.141538  0.250000  1
  Sn  Sn35  1  0.807265  0.358462  0.250000  1
