# generated using pymatgen
data_Nd2TmScSn2
_symmetry_space_group_name_H-M   'P 1'
_cell_length_a   9.00235394
_cell_length_b   9.00235303
_cell_length_c   9.00235243
_cell_angle_alpha   151.04325057
_cell_angle_beta   149.95326779
_cell_angle_gamma   42.21722127
_symmetry_Int_Tables_number   1
_chemical_formula_structural   Nd2TmScSn2
_chemical_formula_sum   'Nd2 Tm1 Sc1 Sn2'
_cell_volume   176.43508968
_cell_formula_units_Z   1
loop_
 _symmetry_equiv_pos_site_id
 _symmetry_equiv_pos_as_xyz
  1  'x, y, z'
loop_
 _atom_site_type_symbol
 _atom_site_label
 _atom_site_symmetry_multiplicity
 _atom_site_fract_x
 _atom_site_fract_y
 _atom_site_fract_z
 _atom_site_occupancy
  Nd  Nd0  1  0.675095  0.675095  0.000000  1
  Nd  Nd1  1  0.324905  0.324905  0.000000  1
  Tm  Tm2  1  0.500000  0.000000  0.500000  1
  Sc  Sc3  1  0.000000  0.500000  0.500000  1
  Sn  Sn4  1  0.870867  0.870867  0.000000  1
  Sn  Sn5  1  0.129133  0.129133  0.000000  1
