# generated using pymatgen
data_Er12InNi4Ir
_symmetry_space_group_name_H-M   'P 1'
_cell_length_a   8.23869205
_cell_length_b   8.23179122
_cell_length_c   8.23869401
_cell_angle_alpha   111.70127922
_cell_angle_beta   109.95499148
_cell_angle_gamma   106.82820017
_symmetry_Int_Tables_number   1
_chemical_formula_structural   Er12InNi4Ir
_chemical_formula_sum   'Er12 In1 Ni4 Ir1'
_cell_volume   429.14813024
_cell_formula_units_Z   1
loop_
 _symmetry_equiv_pos_site_id
 _symmetry_equiv_pos_as_xyz
  1  'x, y, z'
loop_
 _atom_site_type_symbol
 _atom_site_label
 _atom_site_symmetry_multiplicity
 _atom_site_fract_x
 _atom_site_fract_y
 _atom_site_fract_z
 _atom_site_occupancy
  Er  Er0  1  0.409144  0.217692  0.191600  1
  Er  Er1  1  0.590856  0.782308  0.808400  1
  Er  Er2  1  0.026091  0.217692  0.808547  1
  Er  Er3  1  0.973909  0.782308  0.191453  1
  Er  Er4  1  0.181447  0.288837  0.470524  1
  Er  Er5  1  0.818553  0.711163  0.529476  1
  Er  Er6  1  0.181687  0.711163  0.892610  1
  Er  Er7  1  0.818313  0.288837  0.107390  1
  Er  Er8  1  0.322218  0.626982  0.304765  1
  Er  Er9  1  0.677782  0.373018  0.695235  1
  Er  Er10  1  0.321749  0.016398  0.694649  1
  Er  Er11  1  0.678251  0.983602  0.305351  1
  In  In12  1  0.500000  0.500000  0.000000  1
  Ni  Ni13  1  0.363533  0.000000  0.363533  1
  Ni  Ni14  1  0.636467  0.000000  0.636467  1
  Ni  Ni15  1  0.124067  0.621734  0.497667  1
  Ni  Ni16  1  0.875933  0.378266  0.502333  1
  Ir  Ir17  1  0.000000  0.000000  0.000000  1
