# generated using pymatgen
data_CeEr3CdOs
_symmetry_space_group_name_H-M   'P 1'
_cell_length_a   9.58445431
_cell_length_b   9.58445419
_cell_length_c   9.58445500
_cell_angle_alpha   60.00000067
_cell_angle_beta   60.00000106
_cell_angle_gamma   59.99999833
_symmetry_Int_Tables_number   1
_chemical_formula_structural   CeEr3CdOs
_chemical_formula_sum   'Ce4 Er12 Cd4 Os4'
_cell_volume   622.56858531
_cell_formula_units_Z   4
loop_
 _symmetry_equiv_pos_site_id
 _symmetry_equiv_pos_as_xyz
  1  'x, y, z'
loop_
 _atom_site_type_symbol
 _atom_site_label
 _atom_site_symmetry_multiplicity
 _atom_site_fract_x
 _atom_site_fract_y
 _atom_site_fract_z
 _atom_site_occupancy
  Ce  Ce0  1  0.597289  0.597289  0.597289  1
  Ce  Ce1  1  0.597289  0.597289  0.208134  1
  Ce  Ce2  1  0.597289  0.208134  0.597289  1
  Ce  Ce3  1  0.208134  0.597289  0.597289  1
  Er  Er4  1  0.061454  0.438546  0.438546  1
  Er  Er5  1  0.438546  0.061454  0.061454  1
  Er  Er6  1  0.438546  0.061454  0.438546  1
  Er  Er7  1  0.061454  0.438546  0.061454  1
  Er  Er8  1  0.438546  0.438546  0.061454  1
  Er  Er9  1  0.061454  0.061454  0.438546  1
  Er  Er10  1  0.188636  0.811364  0.811364  1
  Er  Er11  1  0.811364  0.188636  0.188636  1
  Er  Er12  1  0.811364  0.188636  0.811364  1
  Er  Er13  1  0.188636  0.811364  0.188636  1
  Er  Er14  1  0.811364  0.811364  0.188636  1
  Er  Er15  1  0.188636  0.188636  0.811364  1
  Cd  Cd16  1  0.831229  0.831229  0.831229  1
  Cd  Cd17  1  0.831229  0.831229  0.506311  1
  Cd  Cd18  1  0.831229  0.506311  0.831229  1
  Cd  Cd19  1  0.506311  0.831229  0.831229  1
  Os  Os20  1  0.392957  0.392957  0.392957  1
  Os  Os21  1  0.392957  0.392957  0.821128  1
  Os  Os22  1  0.392957  0.821128  0.392957  1
  Os  Os23  1  0.821128  0.392957  0.392957  1
