# generated using pymatgen
data_Rb8Si2Se7S
_symmetry_space_group_name_H-M   'P 1'
_cell_length_a   8.40801206
_cell_length_b   8.00007792
_cell_length_c   11.31005900
_cell_angle_alpha   82.63296606
_cell_angle_beta   74.22152531
_cell_angle_gamma   68.71594562
_symmetry_Int_Tables_number   1
_chemical_formula_structural   Rb8Si2Se7S
_chemical_formula_sum   'Rb8 Si2 Se7 S1'
_cell_volume   681.79788231
_cell_formula_units_Z   1
loop_
 _symmetry_equiv_pos_site_id
 _symmetry_equiv_pos_as_xyz
  1  'x, y, z'
loop_
 _atom_site_type_symbol
 _atom_site_label
 _atom_site_symmetry_multiplicity
 _atom_site_fract_x
 _atom_site_fract_y
 _atom_site_fract_z
 _atom_site_occupancy
  Rb  Rb0  1  0.798553  0.280787  0.057497  1
  Rb  Rb1  1  0.560926  0.774335  0.136632  1
  Rb  Rb2  1  0.040962  0.764102  0.365465  1
  Rb  Rb3  1  0.485703  0.286667  0.434300  1
  Rb  Rb4  1  0.513209  0.708203  0.563591  1
  Rb  Rb5  1  0.956315  0.232145  0.633162  1
  Rb  Rb6  1  0.426029  0.230361  0.867136  1
  Rb  Rb7  1  0.214086  0.731953  0.945843  1
  Si  Si8  1  0.165435  0.230030  0.241975  1
  Si  Si9  1  0.836329  0.764352  0.753868  1
  Se  Se10  1  0.338922  0.408895  0.168712  1
  Se  Se11  1  0.875729  0.414558  0.321985  1
  Se  Se12  1  0.281054  0.027771  0.389290  1
  Se  Se13  1  0.716428  0.968584  0.609819  1
  Se  Se14  1  0.125919  0.581411  0.676150  1
  Se  Se15  1  0.663347  0.586964  0.829344  1
  Se  Se16  1  0.820612  0.938540  0.905974  1
  S  S17  1  0.180442  0.070346  0.099253  1
