# generated using pymatgen
data_Sr2MnSi5PPd20
_symmetry_space_group_name_H-M   'P 1'
_cell_length_a   8.72424798
_cell_length_b   8.72740874
_cell_length_c   8.72740830
_cell_angle_alpha   59.97604081
_cell_angle_beta   60.01197776
_cell_angle_gamma   60.01197583
_symmetry_Int_Tables_number   1
_chemical_formula_structural   Sr2MnSi5PPd20
_chemical_formula_sum   'Sr2 Mn1 Si5 P1 Pd20'
_cell_volume   469.87623711
_cell_formula_units_Z   1
loop_
 _symmetry_equiv_pos_site_id
 _symmetry_equiv_pos_as_xyz
  1  'x, y, z'
loop_
 _atom_site_type_symbol
 _atom_site_label
 _atom_site_symmetry_multiplicity
 _atom_site_fract_x
 _atom_site_fract_y
 _atom_site_fract_z
 _atom_site_occupancy
  Sr  Sr0  1  0.249623  0.250377  0.250377  1
  Sr  Sr1  1  0.749623  0.750377  0.750377  1
  Mn  Mn2  1  0.001998  0.998002  0.998002  1
  Si  Si3  1  0.266757  0.733243  0.733243  1
  Si  Si4  1  0.265500  0.734500  0.266968  1
  Si  Si5  1  0.733032  0.266968  0.734500  1
  Si  Si6  1  0.265500  0.266968  0.734500  1
  Si  Si7  1  0.733032  0.734500  0.266968  1
  P  P8  1  0.733379  0.266621  0.266621  1
  Pd  Pd9  1  0.342437  0.999373  0.999373  1
  Pd  Pd10  1  0.658818  0.999373  0.999373  1
  Pd  Pd11  1  0.000627  0.341182  0.657563  1
  Pd  Pd12  1  0.000627  0.657563  0.341182  1
  Pd  Pd13  1  0.998213  0.340455  0.001787  1
  Pd  Pd14  1  0.659545  0.001787  0.340455  1
  Pd  Pd15  1  0.999926  0.658606  0.000074  1
  Pd  Pd16  1  0.341394  0.000074  0.658606  1
  Pd  Pd17  1  0.998213  0.001787  0.340455  1
  Pd  Pd18  1  0.999926  0.000074  0.658606  1
  Pd  Pd19  1  0.659545  0.340455  0.001787  1
  Pd  Pd20  1  0.341394  0.658606  0.000074  1
  Pd  Pd21  1  0.387930  0.386090  0.386090  1
  Pd  Pd22  1  0.614131  0.613686  0.613686  1
  Pd  Pd23  1  0.386314  0.385869  0.841504  1
  Pd  Pd24  1  0.386314  0.841504  0.385869  1
  Pd  Pd25  1  0.613910  0.612070  0.160110  1
  Pd  Pd26  1  0.613910  0.160110  0.612070  1
  Pd  Pd27  1  0.839890  0.386090  0.386090  1
  Pd  Pd28  1  0.158496  0.613686  0.613686  1
