# generated using pymatgen
data_Eu4Al3MoO12
_symmetry_space_group_name_H-M   'P 1'
_cell_length_a   5.39507780
_cell_length_b   5.41534788
_cell_length_c   7.78743678
_cell_angle_alpha   89.73594673
_cell_angle_beta   89.79793591
_cell_angle_gamma   90.23103978
_symmetry_Int_Tables_number   1
_chemical_formula_structural   Eu4Al3MoO12
_chemical_formula_sum   'Eu4 Al3 Mo1 O12'
_cell_volume   227.51379476
_cell_formula_units_Z   1
loop_
 _symmetry_equiv_pos_site_id
 _symmetry_equiv_pos_as_xyz
  1  'x, y, z'
loop_
 _atom_site_type_symbol
 _atom_site_label
 _atom_site_symmetry_multiplicity
 _atom_site_fract_x
 _atom_site_fract_y
 _atom_site_fract_z
 _atom_site_occupancy
  Eu  Eu0  1  0.502629  0.519960  0.268942  1
  Eu  Eu1  1  0.001890  0.014039  0.268297  1
  Eu  Eu2  1  0.497371  0.480040  0.731058  1
  Eu  Eu3  1  0.998110  0.985961  0.731703  1
  Al  Al4  1  0.500000  0.000000  0.500000  1
  Al  Al5  1  0.000000  0.500000  0.500000  1
  Al  Al6  1  0.500000  0.000000  0.000000  1
  Mo  Mo7  1  0.000000  0.500000  0.000000  1
  O  O8  1  0.450653  0.994446  0.247357  1
  O  O9  1  0.048378  0.490375  0.256249  1
  O  O10  1  0.549347  0.005554  0.752643  1
  O  O11  1  0.951622  0.509625  0.743751  1
  O  O12  1  0.786206  0.800384  0.030946  1
  O  O13  1  0.734654  0.267266  0.478724  1
  O  O14  1  0.234036  0.233967  0.522786  1
  O  O15  1  0.293474  0.707418  0.974763  1
  O  O16  1  0.213794  0.199616  0.969054  1
  O  O17  1  0.265346  0.732734  0.521276  1
  O  O18  1  0.765964  0.766033  0.477214  1
  O  O19  1  0.706526  0.292582  0.025237  1
