# generated using pymatgen
data_HoTm9(InSb)4
_symmetry_space_group_name_H-M   'P 1'
_cell_length_a   8.71476016
_cell_length_b   8.71817476
_cell_length_c   8.02005601
_cell_angle_alpha   90.00564185
_cell_angle_beta   89.99512503
_cell_angle_gamma   125.16809734
_symmetry_Int_Tables_number   1
_chemical_formula_structural   HoTm9(InSb)4
_chemical_formula_sum   'Ho1 Tm9 In4 Sb4'
_cell_volume   498.11310181
_cell_formula_units_Z   1
loop_
 _symmetry_equiv_pos_site_id
 _symmetry_equiv_pos_as_xyz
  1  'x, y, z'
loop_
 _atom_site_type_symbol
 _atom_site_label
 _atom_site_symmetry_multiplicity
 _atom_site_fract_x
 _atom_site_fract_y
 _atom_site_fract_z
 _atom_site_occupancy
  Ho  Ho0  1  0.306335  0.031508  0.334258  1
  Tm  Tm1  1  0.031535  0.305862  0.334549  1
  Tm  Tm2  1  0.968388  0.693991  0.665619  1
  Tm  Tm3  1  0.468495  0.194184  0.834465  1
  Tm  Tm4  1  0.805873  0.531550  0.165521  1
  Tm  Tm5  1  0.531530  0.805784  0.165481  1
  Tm  Tm6  1  0.194124  0.468500  0.834443  1
  Tm  Tm7  1  0.694018  0.968476  0.665452  1
  Tm  Tm8  1  0.999848  0.999960  0.999856  1
  Tm  Tm9  1  0.500084  0.500217  0.500087  1
  In  In10  1  0.369644  0.369935  0.129417  1
  In  In11  1  0.630377  0.630393  0.870375  1
  In  In12  1  0.130136  0.130349  0.629803  1
  In  In13  1  0.869364  0.869607  0.370461  1
  Sb  Sb14  1  0.796751  0.203182  0.000054  1
  Sb  Sb15  1  0.203041  0.796557  0.999598  1
  Sb  Sb16  1  0.703696  0.297260  0.500290  1
  Sb  Sb17  1  0.296761  0.702684  0.500271  1
