# generated using pymatgen
data_PrEu2(CdPt)3
_symmetry_space_group_name_H-M   'P 1'
_cell_length_a   7.70571400
_cell_length_b   7.68998412
_cell_length_c   4.17176000
_cell_angle_alpha   90.00000000
_cell_angle_beta   90.00000000
_cell_angle_gamma   120.06769639
_symmetry_Int_Tables_number   1
_chemical_formula_structural   PrEu2(CdPt)3
_chemical_formula_sum   'Pr1 Eu2 Cd3 Pt3'
_cell_volume   213.93981517
_cell_formula_units_Z   1
loop_
 _symmetry_equiv_pos_site_id
 _symmetry_equiv_pos_as_xyz
  1  'x, y, z'
loop_
 _atom_site_type_symbol
 _atom_site_label
 _atom_site_symmetry_multiplicity
 _atom_site_fract_x
 _atom_site_fract_y
 _atom_site_fract_z
 _atom_site_occupancy
  Pr  Pr0  1  0.592849  0.000000  0.500000  1
  Eu  Eu1  1  0.406064  0.406574  0.500000  1
  Eu  Eu2  1  0.999492  0.593426  0.500000  1
  Cd  Cd3  1  0.749011  0.746770  0.000000  1
  Cd  Cd4  1  0.248964  0.000000  0.000000  1
  Cd  Cd5  1  0.002241  0.253230  0.000000  1
  Pt  Pt6  1  0.666469  0.328670  0.000000  1
  Pt  Pt7  1  0.997113  0.000000  0.500000  1
  Pt  Pt8  1  0.337798  0.671330  0.000000  1
