# generated using pymatgen
data_YHo11(SiPd)12
_symmetry_space_group_name_H-M   'P 1'
_cell_length_a   4.34680500
_cell_length_b   7.41511400
_cell_length_c   20.90504501
_cell_angle_alpha   89.99757688
_cell_angle_beta   90.00000274
_cell_angle_gamma   90.00007045
_symmetry_Int_Tables_number   1
_chemical_formula_structural   YHo11(SiPd)12
_chemical_formula_sum   'Y1 Ho11 Si12 Pd12'
_cell_volume   673.81255182
_cell_formula_units_Z   1
loop_
 _symmetry_equiv_pos_site_id
 _symmetry_equiv_pos_as_xyz
  1  'x, y, z'
loop_
 _atom_site_type_symbol
 _atom_site_label
 _atom_site_symmetry_multiplicity
 _atom_site_fract_x
 _atom_site_fract_y
 _atom_site_fract_z
 _atom_site_occupancy
  Y  Y0  1  0.250003  0.789919  0.501068  1
  Ho  Ho1  1  0.250000  0.705473  0.332668  1
  Ho  Ho2  1  0.750000  0.294254  0.667264  1
  Ho  Ho3  1  0.750001  0.205707  0.167167  1
  Ho  Ho4  1  0.250001  0.794337  0.832857  1
  Ho  Ho5  1  0.250000  0.792303  0.166504  1
  Ho  Ho6  1  0.750002  0.207659  0.833470  1
  Ho  Ho7  1  0.749999  0.292243  0.333296  1
  Ho  Ho8  1  0.250000  0.707482  0.666728  1
  Ho  Ho9  1  0.249999  0.711077  0.001081  1
  Ho  Ho10  1  0.749999  0.288865  0.998893  1
  Ho  Ho11  1  0.749997  0.211607  0.498869  1
  Si  Si12  1  0.250000  0.088865  0.071513  1
  Si  Si13  1  0.750000  0.911141  0.928473  1
  Si  Si14  1  0.750000  0.588394  0.428176  1
  Si  Si15  1  0.250000  0.410948  0.571551  1
  Si  Si16  1  0.250000  0.084837  0.271307  1
  Si  Si17  1  0.750000  0.915174  0.728733  1
  Si  Si18  1  0.750000  0.584877  0.228625  1
  Si  Si19  1  0.250000  0.415179  0.771429  1
  Si  Si20  1  0.250000  0.086912  0.395212  1
  Si  Si21  1  0.750000  0.913410  0.604805  1
  Si  Si22  1  0.750001  0.586717  0.104464  1
  Si  Si23  1  0.250000  0.413307  0.895529  1
  Pd  Pd24  1  0.249999  0.416490  0.237091  1
  Pd  Pd25  1  0.749999  0.583472  0.762874  1
  Pd  Pd26  1  0.749999  0.916486  0.262787  1
  Pd  Pd27  1  0.250001  0.083489  0.737226  1
  Pd  Pd28  1  0.250002  0.416186  0.437057  1
  Pd  Pd29  1  0.749999  0.582033  0.563276  1
  Pd  Pd30  1  0.749999  0.916899  0.062805  1
  Pd  Pd31  1  0.250000  0.083111  0.937204  1
  Pd  Pd32  1  0.249999  0.419538  0.093406  1
  Pd  Pd33  1  0.750000  0.580456  0.906585  1
  Pd  Pd34  1  0.749998  0.919826  0.406163  1
  Pd  Pd35  1  0.250002  0.081329  0.593845  1
