# generated using pymatgen
data_YbEu3Hf3WO14
_symmetry_space_group_name_H-M   'P 1'
_cell_length_a   7.52488504
_cell_length_b   7.52447542
_cell_length_c   7.56004683
_cell_angle_alpha   60.15552123
_cell_angle_beta   60.17595649
_cell_angle_gamma   60.00179642
_symmetry_Int_Tables_number   1
_chemical_formula_structural   YbEu3Hf3WO14
_chemical_formula_sum   'Yb1 Eu3 Hf3 W1 O14'
_cell_volume   303.44146172
_cell_formula_units_Z   1
loop_
 _symmetry_equiv_pos_site_id
 _symmetry_equiv_pos_as_xyz
  1  'x, y, z'
loop_
 _atom_site_type_symbol
 _atom_site_label
 _atom_site_symmetry_multiplicity
 _atom_site_fract_x
 _atom_site_fract_y
 _atom_site_fract_z
 _atom_site_occupancy
  Yb  Yb0  1  0.625000  0.125000  0.125000  1
  Eu  Eu1  1  0.125000  0.625000  0.125000  1
  Eu  Eu2  1  0.125000  0.125000  0.625000  1
  Eu  Eu3  1  0.125000  0.125000  0.125000  1
  Hf  Hf4  1  0.125000  0.625000  0.625000  1
  Hf  Hf5  1  0.625000  0.125000  0.625000  1
  Hf  Hf6  1  0.625000  0.625000  0.625000  1
  W  W7  1  0.625000  0.625000  0.125000  1
  O  O8  1  0.251157  0.251936  0.244970  1
  O  O9  1  0.998843  0.998064  0.005030  1
  O  O10  1  0.693067  0.693350  0.295639  1
  O  O11  1  0.292772  0.293595  0.714412  1
  O  O12  1  0.698810  0.293382  0.714426  1
  O  O13  1  0.316716  0.693548  0.296188  1
  O  O14  1  0.292772  0.699220  0.714412  1
  O  O15  1  0.693067  0.317944  0.295639  1
  O  O16  1  0.556933  0.556650  0.954361  1
  O  O17  1  0.957228  0.956405  0.535588  1
  O  O18  1  0.551190  0.956618  0.535574  1
  O  O19  1  0.933284  0.556452  0.953812  1
  O  O20  1  0.957228  0.550780  0.535588  1
  O  O21  1  0.556933  0.932056  0.954361  1
