# generated using pymatgen
data_Na3Sm3(PS4)4
_symmetry_space_group_name_H-M   'P 1'
_cell_length_a   9.94350591
_cell_length_b   9.94350593
_cell_length_c   14.68240600
_cell_angle_alpha   90.87553219
_cell_angle_beta   90.87553219
_cell_angle_gamma   71.99305827
_symmetry_Int_Tables_number   1
_chemical_formula_structural   Na3Sm3(PS4)4
_chemical_formula_sum   'Na6 Sm6 P8 S32'
_cell_volume   1380.34630253
_cell_formula_units_Z   2
loop_
 _symmetry_equiv_pos_site_id
 _symmetry_equiv_pos_as_xyz
  1  'x, y, z'
loop_
 _atom_site_type_symbol
 _atom_site_label
 _atom_site_symmetry_multiplicity
 _atom_site_fract_x
 _atom_site_fract_y
 _atom_site_fract_z
 _atom_site_occupancy
  Na  Na0  1  0.000000  0.000000  0.000000  1
  Na  Na1  1  0.974803  0.560137  0.156308  1
  Na  Na2  1  0.439863  0.025197  0.343692  1
  Na  Na3  1  0.000000  0.000000  0.500000  1
  Na  Na4  1  0.560137  0.974803  0.656308  1
  Na  Na5  1  0.025197  0.439863  0.843692  1
  Sm  Sm6  1  0.515673  0.747744  0.008948  1
  Sm  Sm7  1  0.761057  0.238942  0.250000  1
  Sm  Sm8  1  0.252256  0.484327  0.491052  1
  Sm  Sm9  1  0.747744  0.515673  0.508948  1
  Sm  Sm10  1  0.238943  0.761058  0.750000  1
  Sm  Sm11  1  0.484327  0.252256  0.991052  1
  P  P12  1  0.768473  0.387966  0.022610  1
  P  P13  1  0.672742  0.955174  0.138931  1
  P  P14  1  0.044826  0.327258  0.361068  1
  P  P15  1  0.612034  0.231527  0.477390  1
  P  P16  1  0.387967  0.768474  0.522610  1
  P  P17  1  0.955174  0.672742  0.638932  1
  P  P18  1  0.327258  0.044826  0.861068  1
  P  P19  1  0.231527  0.612034  0.977391  1
  S  S20  1  0.318382  0.054576  0.001018  1
  S  S21  1  0.200488  0.429888  0.022874  1
  S  S22  1  0.258739  0.736998  0.082924  1
  S  S23  1  0.589119  0.450890  0.104381  1
  S  S24  1  0.933776  0.277901  0.103693  1
  S  S25  1  0.530754  0.151155  0.176074  1
  S  S26  1  0.595421  0.803012  0.187425  1
  S  S27  1  0.866971  0.944452  0.190834  1
  S  S28  1  0.055548  0.133029  0.309165  1
  S  S29  1  0.196987  0.404578  0.312575  1
  S  S30  1  0.848845  0.469246  0.323926  1
  S  S31  1  0.722099  0.066224  0.396307  1
  S  S32  1  0.549110  0.410881  0.395620  1
  S  S33  1  0.263001  0.741260  0.417075  1
  S  S34  1  0.570112  0.799512  0.477126  1
  S  S35  1  0.945424  0.681618  0.498981  1
  S  S36  1  0.054576  0.318383  0.501018  1
  S  S37  1  0.429888  0.200488  0.522874  1
  S  S38  1  0.736998  0.258740  0.582924  1
  S  S39  1  0.450891  0.589120  0.604380  1
  S  S40  1  0.277901  0.933776  0.603692  1
  S  S41  1  0.151155  0.530753  0.676074  1
  S  S42  1  0.803013  0.595422  0.687425  1
  S  S43  1  0.944451  0.866970  0.690835  1
  S  S44  1  0.133029  0.055548  0.809165  1
  S  S45  1  0.404578  0.196987  0.812575  1
  S  S46  1  0.469247  0.848845  0.823925  1
  S  S47  1  0.066223  0.722099  0.896307  1
  S  S48  1  0.410881  0.549110  0.895620  1
  S  S49  1  0.741261  0.263002  0.917076  1
  S  S50  1  0.799512  0.570112  0.977126  1
  S  S51  1  0.681618  0.945424  0.998981  1
