# generated using pymatgen
data_Ho3Sc3(Zn3C)2
_symmetry_space_group_name_H-M   'P 1'
_cell_length_a   8.89391223
_cell_length_b   8.89391214
_cell_length_c   8.89391100
_cell_angle_alpha   60.00000053
_cell_angle_beta   60.00000087
_cell_angle_gamma   60.00000239
_symmetry_Int_Tables_number   1
_chemical_formula_structural   Ho3Sc3(Zn3C)2
_chemical_formula_sum   'Ho6 Sc6 Zn12 C4'
_cell_volume   497.46607401
_cell_formula_units_Z   2
loop_
 _symmetry_equiv_pos_site_id
 _symmetry_equiv_pos_as_xyz
  1  'x, y, z'
loop_
 _atom_site_type_symbol
 _atom_site_label
 _atom_site_symmetry_multiplicity
 _atom_site_fract_x
 _atom_site_fract_y
 _atom_site_fract_z
 _atom_site_occupancy
  Ho  Ho0  1  0.448779  0.448779  0.051221  1
  Ho  Ho1  1  0.051221  0.448779  0.051221  1
  Ho  Ho2  1  0.448779  0.051221  0.051221  1
  Ho  Ho3  1  0.051221  0.051221  0.448779  1
  Ho  Ho4  1  0.448779  0.051221  0.448779  1
  Ho  Ho5  1  0.051221  0.448779  0.448779  1
  Sc  Sc6  1  0.809919  0.809919  0.190081  1
  Sc  Sc7  1  0.190081  0.809919  0.190081  1
  Sc  Sc8  1  0.809919  0.190081  0.190081  1
  Sc  Sc9  1  0.190081  0.190081  0.809919  1
  Sc  Sc10  1  0.809919  0.190081  0.809919  1
  Sc  Sc11  1  0.190081  0.809919  0.809919  1
  Zn  Zn12  1  0.829172  0.829172  0.512484  1
  Zn  Zn13  1  0.829172  0.512484  0.829172  1
  Zn  Zn14  1  0.512484  0.829172  0.829172  1
  Zn  Zn15  1  0.829172  0.829172  0.829172  1
  Zn  Zn16  1  0.422797  0.422797  0.731609  1
  Zn  Zn17  1  0.422797  0.731609  0.422797  1
  Zn  Zn18  1  0.731609  0.422797  0.422797  1
  Zn  Zn19  1  0.422797  0.422797  0.422797  1
  Zn  Zn20  1  0.625046  0.625046  0.124862  1
  Zn  Zn21  1  0.625046  0.124862  0.625046  1
  Zn  Zn22  1  0.124862  0.625046  0.625046  1
  Zn  Zn23  1  0.625046  0.625046  0.625046  1
  C  C24  1  0.116913  0.116913  0.649261  1
  C  C25  1  0.116913  0.649261  0.116913  1
  C  C26  1  0.649261  0.116913  0.116913  1
  C  C27  1  0.116913  0.116913  0.116913  1
