# generated using pymatgen
data_CeTh2(SiIr)4
_symmetry_space_group_name_H-M   'P 1'
_cell_length_a   4.06610434
_cell_length_b   4.21378789
_cell_length_c   12.62497507
_cell_angle_alpha   80.39336865
_cell_angle_beta   80.73305982
_cell_angle_gamma   89.99999711
_symmetry_Int_Tables_number   1
_chemical_formula_structural   CeTh2(SiIr)4
_chemical_formula_sum   'Ce1 Th2 Si4 Ir4'
_cell_volume   210.41530727
_cell_formula_units_Z   1
loop_
 _symmetry_equiv_pos_site_id
 _symmetry_equiv_pos_as_xyz
  1  'x, y, z'
loop_
 _atom_site_type_symbol
 _atom_site_label
 _atom_site_symmetry_multiplicity
 _atom_site_fract_x
 _atom_site_fract_y
 _atom_site_fract_z
 _atom_site_occupancy
  Ce  Ce0  1  0.144440  0.644440  0.711119  1
  Th  Th1  1  0.000798  0.000798  0.998405  1
  Th  Th2  1  0.855350  0.355350  0.289302  1
  Si  Si3  1  0.696115  0.196115  0.607770  1
  Si  Si4  1  0.302786  0.802786  0.394426  1
  Si  Si5  1  0.451806  0.451806  0.096388  1
  Si  Si6  1  0.549816  0.549816  0.900366  1
  Ir  Ir7  1  0.597670  0.097670  0.804660  1
  Ir  Ir8  1  0.401879  0.901879  0.196241  1
  Ir  Ir9  1  0.249453  0.249453  0.501094  1
  Ir  Ir10  1  0.749886  0.749886  0.500228  1
