# generated using pymatgen
data_Tb3Dy5Re3B24Ir
_symmetry_space_group_name_H-M   'P 1'
_cell_length_a   3.68423800
_cell_length_b   9.18679459
_cell_length_c   11.57461701
_cell_angle_alpha   90.13297312
_cell_angle_beta   90.00000000
_cell_angle_gamma   90.00000000
_symmetry_Int_Tables_number   1
_chemical_formula_structural   Tb3Dy5Re3B24Ir
_chemical_formula_sum   'Tb3 Dy5 Re3 B24 Ir1'
_cell_volume   391.75734113
_cell_formula_units_Z   1
loop_
 _symmetry_equiv_pos_site_id
 _symmetry_equiv_pos_as_xyz
  1  'x, y, z'
loop_
 _atom_site_type_symbol
 _atom_site_label
 _atom_site_symmetry_multiplicity
 _atom_site_fract_x
 _atom_site_fract_y
 _atom_site_fract_z
 _atom_site_occupancy
  Tb  Tb0  1  0.000000  0.318559  0.415443  1
  Tb  Tb1  1  0.000000  0.678289  0.591287  1
  Tb  Tb2  1  0.000000  0.827345  0.081505  1
  Dy  Dy3  1  0.000000  0.177033  0.912532  1
  Dy  Dy4  1  0.000000  0.944098  0.370265  1
  Dy  Dy5  1  0.000000  0.055922  0.628994  1
  Dy  Dy6  1  0.000000  0.440843  0.128396  1
  Dy  Dy7  1  0.000000  0.556708  0.871613  1
  Re  Re8  1  0.000000  0.362528  0.677735  1
  Re  Re9  1  0.000000  0.138417  0.179837  1
  Re  Re10  1  0.000000  0.861882  0.821033  1
  B  B11  1  0.500000  0.553934  0.433362  1
  B  B12  1  0.500000  0.446555  0.567118  1
  B  B13  1  0.500000  0.053617  0.066798  1
  B  B14  1  0.500000  0.947129  0.932364  1
  B  B15  1  0.500000  0.748756  0.419789  1
  B  B16  1  0.500000  0.251054  0.581348  1
  B  B17  1  0.500000  0.248518  0.081374  1
  B  B18  1  0.500000  0.752195  0.918588  1
  B  B19  1  0.500000  0.790744  0.265645  1
  B  B20  1  0.500000  0.208803  0.733788  1
  B  B21  1  0.500000  0.291082  0.234565  1
  B  B22  1  0.500000  0.708573  0.766356  1
  B  B23  1  0.500000  0.631848  0.184806  1
  B  B24  1  0.500000  0.369098  0.813742  1
  B  B25  1  0.500000  0.131021  0.314344  1
  B  B26  1  0.500000  0.868272  0.686013  1
  B  B27  1  0.500000  0.983749  0.212042  1
  B  B28  1  0.500000  0.016932  0.786990  1
  B  B29  1  0.500000  0.483456  0.287798  1
  B  B30  1  0.500000  0.517496  0.712522  1
  B  B31  1  0.500000  0.604453  0.029601  1
  B  B32  1  0.500000  0.396293  0.971631  1
  B  B33  1  0.500000  0.102745  0.470842  1
  B  B34  1  0.500000  0.894369  0.528571  1
  Ir  Ir35  1  0.000000  0.637682  0.321367  1
