# generated using pymatgen
data_YbFe5Tc7
_symmetry_space_group_name_H-M   'P 1'
_cell_length_a   6.62450473
_cell_length_b   6.62450579
_cell_length_c   6.62450526
_cell_angle_alpha   137.91221577
_cell_angle_beta   95.94300826
_cell_angle_gamma   98.87863581
_symmetry_Int_Tables_number   1
_chemical_formula_structural   YbFe5Tc7
_chemical_formula_sum   'Yb1 Fe5 Tc7'
_cell_volume   181.78090501
_cell_formula_units_Z   1
loop_
 _symmetry_equiv_pos_site_id
 _symmetry_equiv_pos_as_xyz
  1  'x, y, z'
loop_
 _atom_site_type_symbol
 _atom_site_label
 _atom_site_symmetry_multiplicity
 _atom_site_fract_x
 _atom_site_fract_y
 _atom_site_fract_z
 _atom_site_occupancy
  Yb  Yb0  1  0.992961  0.000000  0.992961  1
  Fe  Fe1  1  0.508916  0.008363  0.003807  1
  Fe  Fe2  1  0.508916  0.505110  0.500554  1
  Fe  Fe3  1  0.995443  0.494890  0.003807  1
  Fe  Fe4  1  0.995443  0.991637  0.500554  1
  Fe  Fe5  1  0.773375  0.500000  0.273375  1
  Tc  Tc6  1  0.360720  0.000000  0.360720  1
  Tc  Tc7  1  0.638201  0.000000  0.638201  1
  Tc  Tc8  1  0.650048  0.646248  0.003799  1
  Tc  Tc9  1  0.357551  0.353752  0.003799  1
  Tc  Tc10  1  0.220181  0.500000  0.720181  1
  Tc  Tc11  1  0.199313  0.700191  0.499122  1
  Tc  Tc12  1  0.798931  0.299809  0.499122  1
