# generated using pymatgen
data_La5CoBi2
_symmetry_space_group_name_H-M   'P 1'
_cell_length_a   8.50406600
_cell_length_b   9.28455600
_cell_length_c   13.00214800
_cell_angle_alpha   90.00000000
_cell_angle_beta   90.00000000
_cell_angle_gamma   90.00000000
_symmetry_Int_Tables_number   1
_chemical_formula_structural   La5CoBi2
_chemical_formula_sum   'La20 Co4 Bi8'
_cell_volume   1026.60379957
_cell_formula_units_Z   4
loop_
 _symmetry_equiv_pos_site_id
 _symmetry_equiv_pos_as_xyz
  1  'x, y, z'
loop_
 _atom_site_type_symbol
 _atom_site_label
 _atom_site_symmetry_multiplicity
 _atom_site_fract_x
 _atom_site_fract_y
 _atom_site_fract_z
 _atom_site_occupancy
  La  La0  1  0.353631  0.750000  0.697096  1
  La  La1  1  0.646369  0.250000  0.302904  1
  La  La2  1  0.853631  0.250000  0.802904  1
  La  La3  1  0.146369  0.750000  0.197096  1
  La  La4  1  0.883092  0.750000  0.810182  1
  La  La5  1  0.116908  0.250000  0.189818  1
  La  La6  1  0.383092  0.250000  0.689818  1
  La  La7  1  0.616908  0.750000  0.310182  1
  La  La8  1  0.680843  0.537004  0.562350  1
  La  La9  1  0.319157  0.462996  0.437650  1
  La  La10  1  0.180843  0.462996  0.937650  1
  La  La11  1  0.319157  0.037004  0.437650  1
  La  La12  1  0.819157  0.537004  0.062350  1
  La  La13  1  0.680843  0.962996  0.562350  1
  La  La14  1  0.819157  0.962996  0.062350  1
  La  La15  1  0.180843  0.037004  0.937650  1
  La  La16  1  0.055156  0.750000  0.495643  1
  La  La17  1  0.944844  0.250000  0.504357  1
  La  La18  1  0.555156  0.250000  0.004357  1
  La  La19  1  0.444844  0.750000  0.995643  1
  Co  Co20  1  0.072983  0.750000  0.992704  1
  Co  Co21  1  0.927017  0.250000  0.007296  1
  Co  Co22  1  0.572983  0.250000  0.507296  1
  Co  Co23  1  0.427017  0.750000  0.492704  1
  Bi  Bi24  1  0.574750  0.506402  0.826184  1
  Bi  Bi25  1  0.425250  0.493598  0.173816  1
  Bi  Bi26  1  0.074750  0.493598  0.673816  1
  Bi  Bi27  1  0.425250  0.006402  0.173816  1
  Bi  Bi28  1  0.925250  0.506402  0.326184  1
  Bi  Bi29  1  0.574750  0.993598  0.826184  1
  Bi  Bi30  1  0.925250  0.993598  0.326184  1
  Bi  Bi31  1  0.074750  0.006402  0.673816  1
