# generated using pymatgen
data_Ta12Fe5Os7C4
_symmetry_space_group_name_H-M   'P 1'
_cell_length_a   8.22591102
_cell_length_b   8.22636655
_cell_length_c   8.23295097
_cell_angle_alpha   60.03086249
_cell_angle_beta   60.04071175
_cell_angle_gamma   60.00417155
_symmetry_Int_Tables_number   1
_chemical_formula_structural   Ta12Fe5Os7C4
_chemical_formula_sum   'Ta12 Fe5 Os7 C4'
_cell_volume   394.16767113
_cell_formula_units_Z   1
loop_
 _symmetry_equiv_pos_site_id
 _symmetry_equiv_pos_as_xyz
  1  'x, y, z'
loop_
 _atom_site_type_symbol
 _atom_site_label
 _atom_site_symmetry_multiplicity
 _atom_site_fract_x
 _atom_site_fract_y
 _atom_site_fract_z
 _atom_site_occupancy
  Ta  Ta0  1  0.556906  0.556871  0.940958  1
  Ta  Ta1  1  0.941876  0.941889  0.554194  1
  Ta  Ta2  1  0.693597  0.693641  0.304295  1
  Ta  Ta3  1  0.307074  0.693841  0.692048  1
  Ta  Ta4  1  0.693588  0.308476  0.304293  1
  Ta  Ta5  1  0.307068  0.307059  0.692043  1
  Ta  Ta6  1  0.562050  0.941928  0.554103  1
  Ta  Ta7  1  0.308492  0.693588  0.304314  1
  Ta  Ta8  1  0.945238  0.556907  0.940960  1
  Ta  Ta9  1  0.941890  0.562061  0.554154  1
  Ta  Ta10  1  0.693835  0.307057  0.692078  1
  Ta  Ta11  1  0.556918  0.945257  0.940954  1
  Fe  Fe12  1  0.124085  0.124089  0.627739  1
  Fe  Fe13  1  0.115685  0.630126  0.138473  1
  Fe  Fe14  1  0.630119  0.115685  0.138488  1
  Fe  Fe15  1  0.115697  0.115655  0.138465  1
  Fe  Fe16  1  0.920982  0.921021  0.236944  1
  Os  Os17  1  0.245284  0.917020  0.920652  1
  Os  Os18  1  0.916996  0.245271  0.920645  1
  Os  Os19  1  0.332166  0.332047  0.330902  1
  Os  Os20  1  0.332156  0.004892  0.330916  1
  Os  Os21  1  0.332716  0.332693  0.001916  1
  Os  Os22  1  0.004866  0.332111  0.330908  1
  Os  Os23  1  0.917009  0.917090  0.920651  1
  C  C24  1  0.625770  0.625757  0.122719  1
  C  C25  1  0.126102  0.625929  0.622057  1
  C  C26  1  0.625911  0.126117  0.622063  1
  C  C27  1  0.625919  0.625919  0.622070  1
