# generated using pymatgen
data_YHo5Al24Os5Pt3
_symmetry_space_group_name_H-M   'P 1'
_cell_length_a   8.80251571
_cell_length_b   8.82343347
_cell_length_c   9.54980067
_cell_angle_alpha   90.14174172
_cell_angle_beta   89.73743745
_cell_angle_gamma   119.48378651
_symmetry_Int_Tables_number   1
_chemical_formula_structural   YHo5Al24Os5Pt3
_chemical_formula_sum   'Y1 Ho5 Al24 Os5 Pt3'
_cell_volume   645.65488553
_cell_formula_units_Z   1
loop_
 _symmetry_equiv_pos_site_id
 _symmetry_equiv_pos_as_xyz
  1  'x, y, z'
loop_
 _atom_site_type_symbol
 _atom_site_label
 _atom_site_symmetry_multiplicity
 _atom_site_fract_x
 _atom_site_fract_y
 _atom_site_fract_z
 _atom_site_occupancy
  Y  Y0  1  0.187948  0.383372  0.250886  1
  Ho  Ho1  1  0.811872  0.615861  0.748902  1
  Ho  Ho2  1  0.613331  0.813895  0.252146  1
  Ho  Ho3  1  0.386751  0.186230  0.747859  1
  Ho  Ho4  1  0.195425  0.809211  0.251523  1
  Ho  Ho5  1  0.804623  0.191067  0.748460  1
  Al  Al6  1  0.335430  0.671456  0.029398  1
  Al  Al7  1  0.664700  0.328806  0.970295  1
  Al  Al8  1  0.669115  0.331326  0.527946  1
  Al  Al9  1  0.330872  0.668879  0.472307  1
  Al  Al10  1  0.158145  0.325486  0.575674  1
  Al  Al11  1  0.841858  0.674598  0.424668  1
  Al  Al12  1  0.673504  0.840662  0.575811  1
  Al  Al13  1  0.836916  0.676306  0.078214  1
  Al  Al14  1  0.326661  0.159247  0.424407  1
  Al  Al15  1  0.163130  0.323718  0.921450  1
  Al  Al16  1  0.163767  0.835129  0.576494  1
  Al  Al17  1  0.325653  0.158727  0.076372  1
  Al  Al18  1  0.835992  0.164827  0.423747  1
  Al  Al19  1  0.674511  0.841158  0.923384  1
  Al  Al20  1  0.831598  0.159199  0.077636  1
  Al  Al21  1  0.168190  0.840723  0.922134  1
  Al  Al22  1  0.560581  0.124544  0.249792  1
  Al  Al23  1  0.439434  0.875459  0.750218  1
  Al  Al24  1  0.874054  0.438208  0.252719  1
  Al  Al25  1  0.125827  0.561965  0.747392  1
  Al  Al26  1  0.562812  0.436881  0.249718  1
  Al  Al27  1  0.437522  0.563214  0.750282  1
  Al  Al28  1  0.998316  0.001737  0.250218  1
  Al  Al29  1  0.001220  0.997333  0.749771  1
  Os  Os30  1  0.500064  0.000091  0.999959  1
  Os  Os31  1  0.500061  0.000083  0.500048  1
  Os  Os32  1  0.999783  0.500157  0.500333  1
  Os  Os33  1  0.000038  0.000066  0.000011  1
  Os  Os34  1  0.000057  0.000099  0.499981  1
  Pt  Pt35  1  0.999891  0.500100  0.999828  1
  Pt  Pt36  1  0.500167  0.500086  0.999878  1
  Pt  Pt37  1  0.500183  0.500093  0.500139  1
