# generated using pymatgen
data_Tb2Pr2NdPb3
_symmetry_space_group_name_H-M   'P 1'
_cell_length_a   9.30767345
_cell_length_b   9.30829754
_cell_length_c   6.82789300
_cell_angle_alpha   90.00000000
_cell_angle_beta   90.00000000
_cell_angle_gamma   120.00221648
_symmetry_Int_Tables_number   1
_chemical_formula_structural   Tb2Pr2NdPb3
_chemical_formula_sum   'Tb4 Pr4 Nd2 Pb6'
_cell_volume   512.29372102
_cell_formula_units_Z   2
loop_
 _symmetry_equiv_pos_site_id
 _symmetry_equiv_pos_as_xyz
  1  'x, y, z'
loop_
 _atom_site_type_symbol
 _atom_site_label
 _atom_site_symmetry_multiplicity
 _atom_site_fract_x
 _atom_site_fract_y
 _atom_site_fract_z
 _atom_site_occupancy
  Tb  Tb0  1  0.667148  0.333388  0.999715  1
  Tb  Tb1  1  0.332852  0.666241  0.999715  1
  Tb  Tb2  1  0.332852  0.666241  0.500285  1
  Tb  Tb3  1  0.667148  0.333388  0.500285  1
  Pr  Pr4  1  0.000000  0.239270  0.750000  1
  Pr  Pr5  1  0.240305  0.239878  0.250000  1
  Pr  Pr6  1  0.759695  0.999573  0.250000  1
  Pr  Pr7  1  0.000000  0.761997  0.250000  1
  Nd  Nd8  1  0.759032  0.759515  0.750000  1
  Nd  Nd9  1  0.240968  0.000482  0.750000  1
  Pb  Pb10  1  0.398923  0.397510  0.750000  1
  Pb  Pb11  1  0.601077  0.998588  0.750000  1
  Pb  Pb12  1  0.000000  0.604491  0.750000  1
  Pb  Pb13  1  0.601198  0.600886  0.250000  1
  Pb  Pb14  1  0.398802  0.999688  0.250000  1
  Pb  Pb15  1  0.000000  0.398863  0.250000  1
