# generated using pymatgen
data_TbY3(TcRu)4
_symmetry_space_group_name_H-M   'P 1'
_cell_length_a   5.19874802
_cell_length_b   5.19874681
_cell_length_c   9.12767502
_cell_angle_alpha   89.99367104
_cell_angle_beta   90.00632969
_cell_angle_gamma   116.96319113
_symmetry_Int_Tables_number   1
_chemical_formula_structural   TbY3(TcRu)4
_chemical_formula_sum   'Tb1 Y3 Tc4 Ru4'
_cell_volume   219.87736953
_cell_formula_units_Z   1
loop_
 _symmetry_equiv_pos_site_id
 _symmetry_equiv_pos_as_xyz
  1  'x, y, z'
loop_
 _atom_site_type_symbol
 _atom_site_label
 _atom_site_symmetry_multiplicity
 _atom_site_fract_x
 _atom_site_fract_y
 _atom_site_fract_z
 _atom_site_occupancy
  Tb  Tb0  1  0.332260  0.667740  0.063121  1
  Y  Y1  1  0.332247  0.667753  0.436825  1
  Y  Y2  1  0.670767  0.329233  0.566966  1
  Y  Y3  1  0.670732  0.329268  0.933047  1
  Tc  Tc4  1  0.827267  0.172733  0.250054  1
  Tc  Tc5  1  0.829904  0.659843  0.250013  1
  Tc  Tc6  1  0.340157  0.170096  0.250013  1
  Tc  Tc7  1  0.162505  0.837495  0.749940  1
  Ru  Ru8  1  0.007115  0.992885  0.502569  1
  Ru  Ru9  1  0.007167  0.992833  0.997524  1
  Ru  Ru10  1  0.170146  0.350267  0.749964  1
  Ru  Ru11  1  0.649733  0.829854  0.749964  1
