# generated using pymatgen
data_Dy4HoLuGa10
_symmetry_space_group_name_H-M   'P 1'
_cell_length_a   6.06054900
_cell_length_b   9.59828100
_cell_length_c   11.55853200
_cell_angle_alpha   90.00000000
_cell_angle_beta   90.00000000
_cell_angle_gamma   90.00000000
_symmetry_Int_Tables_number   1
_chemical_formula_structural   Dy4HoLuGa10
_chemical_formula_sum   'Dy8 Ho2 Lu2 Ga20'
_cell_volume   672.36965796
_cell_formula_units_Z   2
loop_
 _symmetry_equiv_pos_site_id
 _symmetry_equiv_pos_as_xyz
  1  'x, y, z'
loop_
 _atom_site_type_symbol
 _atom_site_label
 _atom_site_symmetry_multiplicity
 _atom_site_fract_x
 _atom_site_fract_y
 _atom_site_fract_z
 _atom_site_occupancy
  Dy  Dy0  1  0.891161  0.506055  0.350984  1
  Dy  Dy1  1  0.608839  0.993945  0.850984  1
  Dy  Dy2  1  0.109325  0.006600  0.648883  1
  Dy  Dy3  1  0.390675  0.493400  0.148883  1
  Dy  Dy4  1  0.109325  0.493400  0.648883  1
  Dy  Dy5  1  0.390675  0.006600  0.148883  1
  Dy  Dy6  1  0.891161  0.993945  0.350984  1
  Dy  Dy7  1  0.608839  0.506055  0.850984  1
  Ho  Ho8  1  0.849918  0.750000  0.074271  1
  Ho  Ho9  1  0.650082  0.750000  0.574271  1
  Lu  Lu10  1  0.150462  0.250000  0.925415  1
  Lu  Lu11  1  0.349538  0.250000  0.425415  1
  Ga  Ga12  1  0.876403  0.053845  0.089615  1
  Ga  Ga13  1  0.623597  0.446155  0.589615  1
  Ga  Ga14  1  0.123695  0.553133  0.910425  1
  Ga  Ga15  1  0.376305  0.946867  0.410425  1
  Ga  Ga16  1  0.123695  0.946867  0.910425  1
  Ga  Ga17  1  0.376305  0.553133  0.410425  1
  Ga  Ga18  1  0.876403  0.446155  0.089615  1
  Ga  Ga19  1  0.623597  0.053845  0.589615  1
  Ga  Ga20  1  0.167770  0.750000  0.254509  1
  Ga  Ga21  1  0.332230  0.750000  0.754509  1
  Ga  Ga22  1  0.833235  0.250000  0.745837  1
  Ga  Ga23  1  0.666765  0.250000  0.245837  1
  Ga  Ga24  1  0.378202  0.750000  0.001110  1
  Ga  Ga25  1  0.121798  0.750000  0.501110  1
  Ga  Ga26  1  0.620653  0.250000  0.998812  1
  Ga  Ga27  1  0.879347  0.250000  0.498812  1
  Ga  Ga28  1  0.603668  0.750000  0.298935  1
  Ga  Ga29  1  0.896332  0.750000  0.798935  1
  Ga  Ga30  1  0.395992  0.250000  0.701297  1
  Ga  Ga31  1  0.104008  0.250000  0.201297  1
