# generated using pymatgen
data_HfSc19N19
_symmetry_space_group_name_H-M   'P 1'
_cell_length_a   8.45238464
_cell_length_b   8.45391070
_cell_length_c   8.45385221
_cell_angle_alpha   106.56472690
_cell_angle_beta   106.59973888
_cell_angle_gamma   115.43259392
_symmetry_Int_Tables_number   1
_chemical_formula_structural   HfSc19N19
_chemical_formula_sum   'Hf1 Sc19 N19'
_cell_volume   461.12868191
_cell_formula_units_Z   1
loop_
 _symmetry_equiv_pos_site_id
 _symmetry_equiv_pos_as_xyz
  1  'x, y, z'
loop_
 _atom_site_type_symbol
 _atom_site_label
 _atom_site_symmetry_multiplicity
 _atom_site_fract_x
 _atom_site_fract_y
 _atom_site_fract_z
 _atom_site_occupancy
  Hf  Hf0  1  0.047399  0.649805  0.200587  1
  Sc  Sc1  1  0.397431  0.708067  0.103067  1
  Sc  Sc2  1  0.100211  0.799231  0.897410  1
  Sc  Sc3  1  0.757378  0.759015  0.998598  1
  Sc  Sc4  1  0.798705  0.899926  0.698562  1
  Sc  Sc5  1  0.449581  0.846937  0.799724  1
  Sc  Sc6  1  0.501997  0.001404  0.501185  1
  Sc  Sc7  1  0.153143  0.953885  0.603870  1
  Sc  Sc8  1  0.202000  0.102254  0.301873  1
  Sc  Sc9  1  0.846947  0.047648  0.397698  1
  Sc  Sc10  1  0.899483  0.199352  0.100692  1
  Sc  Sc11  1  0.550648  0.153054  0.200472  1
  Sc  Sc12  1  0.602109  0.290124  0.894559  1
  Sc  Sc13  1  0.241311  0.241105  0.999844  1
  Sc  Sc14  1  0.292141  0.395751  0.687879  1
  Sc  Sc15  1  0.952474  0.348927  0.798231  1
  Sc  Sc16  1  0.999815  0.499297  0.501479  1
  Sc  Sc17  1  0.649756  0.449327  0.602254  1
  Sc  Sc18  1  0.706357  0.604246  0.312991  1
  Sc  Sc19  1  0.351353  0.550323  0.398544  1
  N  N20  1  0.898837  0.699502  0.598809  1
  N  N21  1  0.550266  0.650006  0.702112  1
  N  N22  1  0.600352  0.799003  0.398918  1
  N  N23  1  0.246951  0.748435  0.495472  1
  N  N24  1  0.297054  0.895580  0.199288  1
  N  N25  1  0.949357  0.845338  0.296660  1
  N  N26  1  0.000116  0.000443  0.000153  1
  N  N27  1  0.649793  0.948103  0.099806  1
  N  N28  1  0.699125  0.100794  0.800406  1
  N  N29  1  0.350212  0.052197  0.900550  1
  N  N30  1  0.052169  0.151851  0.702103  1
  N  N31  1  0.749815  0.249865  0.499671  1
  N  N32  1  0.400488  0.201474  0.601586  1
  N  N33  1  0.449941  0.349919  0.298017  1
  N  N34  1  0.100994  0.299966  0.401396  1
  N  N35  1  0.150040  0.452726  0.101206  1
  N  N36  1  0.201119  0.600126  0.800797  1
  N  N37  1  0.802177  0.403372  0.199036  1
  N  N38  1  0.850954  0.551624  0.904495  1
