# generated using pymatgen
data_Hf6BiSbRh
_symmetry_space_group_name_H-M   'P 1'
_cell_length_a   7.87770700
_cell_length_b   7.87770642
_cell_length_c   3.63512800
_cell_angle_alpha   90.00000000
_cell_angle_beta   90.00000000
_cell_angle_gamma   119.99999825
_symmetry_Int_Tables_number   1
_chemical_formula_structural   Hf6BiSbRh
_chemical_formula_sum   'Hf6 Bi1 Sb1 Rh1'
_cell_volume   195.36643992
_cell_formula_units_Z   1
loop_
 _symmetry_equiv_pos_site_id
 _symmetry_equiv_pos_as_xyz
  1  'x, y, z'
loop_
 _atom_site_type_symbol
 _atom_site_label
 _atom_site_symmetry_multiplicity
 _atom_site_fract_x
 _atom_site_fract_y
 _atom_site_fract_z
 _atom_site_occupancy
  Hf  Hf0  1  0.598291  0.991290  0.000000  1
  Hf  Hf1  1  0.392998  0.401708  0.000000  1
  Hf  Hf2  1  0.008710  0.607001  0.000000  1
  Hf  Hf3  1  0.244932  0.996846  0.500000  1
  Hf  Hf4  1  0.003154  0.248086  0.500000  1
  Hf  Hf5  1  0.751913  0.755067  0.500000  1
  Bi  Bi6  1  0.666667  0.333334  0.500000  1
  Sb  Sb7  1  0.333334  0.666667  0.500000  1
  Rh  Rh8  1  0.000000  0.000000  0.000000  1
