# generated using pymatgen
data_Er20ZnIn5Ru2
_symmetry_space_group_name_H-M   'P 1'
_cell_length_a   9.60002221
_cell_length_b   9.68904507
_cell_length_c   9.56434200
_cell_angle_alpha   90.00000000
_cell_angle_beta   90.00000000
_cell_angle_gamma   120.30723932
_symmetry_Int_Tables_number   1
_chemical_formula_structural   Er20ZnIn5Ru2
_chemical_formula_sum   'Er20 Zn1 In5 Ru2'
_cell_volume   768.04390548
_cell_formula_units_Z   1
loop_
 _symmetry_equiv_pos_site_id
 _symmetry_equiv_pos_as_xyz
  1  'x, y, z'
loop_
 _atom_site_type_symbol
 _atom_site_label
 _atom_site_symmetry_multiplicity
 _atom_site_fract_x
 _atom_site_fract_y
 _atom_site_fract_z
 _atom_site_occupancy
  Er  Er0  1  0.990305  0.995153  0.507340  1
  Er  Er1  1  0.990305  0.995153  0.992660  1
  Er  Er2  1  0.211085  0.790352  0.441359  1
  Er  Er3  1  0.211085  0.420734  0.441359  1
  Er  Er4  1  0.578910  0.789456  0.440349  1
  Er  Er5  1  0.789958  0.211294  0.559532  1
  Er  Er6  1  0.789958  0.578663  0.559532  1
  Er  Er7  1  0.419700  0.209850  0.561419  1
  Er  Er8  1  0.789958  0.211294  0.940468  1
  Er  Er9  1  0.789958  0.578663  0.940468  1
  Er  Er10  1  0.419700  0.209850  0.938581  1
  Er  Er11  1  0.211085  0.790352  0.058641  1
  Er  Er12  1  0.211085  0.420734  0.058641  1
  Er  Er13  1  0.578910  0.789456  0.059651  1
  Er  Er14  1  0.541677  0.460469  0.250000  1
  Er  Er15  1  0.541677  0.081209  0.250000  1
  Er  Er16  1  0.922455  0.461227  0.250000  1
  Er  Er17  1  0.467300  0.548206  0.750000  1
  Er  Er18  1  0.467300  0.919093  0.750000  1
  Er  Er19  1  0.082163  0.541081  0.750000  1
  Zn  Zn20  1  0.764223  0.882111  0.750000  1
  In  In21  1  0.885593  0.118432  0.250000  1
  In  In22  1  0.885593  0.767161  0.250000  1
  In  In23  1  0.228056  0.114028  0.250000  1
  In  In24  1  0.116276  0.881435  0.750000  1
  In  In25  1  0.116276  0.234840  0.750000  1
  Ru  Ru26  1  0.331167  0.665584  0.250000  1
  Ru  Ru27  1  0.668245  0.334122  0.750000  1
