# generated using pymatgen
data_Nd2Sc3Si7Pt7Rh2
_symmetry_space_group_name_H-M   'P 1'
_cell_length_a   10.09407897
_cell_length_b   10.06609700
_cell_length_c   3.98637700
_cell_angle_alpha   90.00000000
_cell_angle_beta   90.00000000
_cell_angle_gamma   119.77274210
_symmetry_Int_Tables_number   1
_chemical_formula_structural   Nd2Sc3Si7Pt7Rh2
_chemical_formula_sum   'Nd2 Sc3 Si7 Pt7 Rh2'
_cell_volume   351.58213244
_cell_formula_units_Z   1
loop_
 _symmetry_equiv_pos_site_id
 _symmetry_equiv_pos_as_xyz
  1  'x, y, z'
loop_
 _atom_site_type_symbol
 _atom_site_label
 _atom_site_symmetry_multiplicity
 _atom_site_fract_x
 _atom_site_fract_y
 _atom_site_fract_z
 _atom_site_occupancy
  Nd  Nd0  1  0.001957  0.000481  0.000000  1
  Nd  Nd1  1  0.331604  0.666101  0.500000  1
  Sc  Sc2  1  0.893179  0.452256  0.500000  1
  Sc  Sc3  1  0.558657  0.104663  0.500000  1
  Sc  Sc4  1  0.546414  0.440138  0.500000  1
  Si  Si5  1  0.249421  0.201231  0.500000  1
  Si  Si6  1  0.804993  0.053884  0.500000  1
  Si  Si7  1  0.956584  0.751490  0.500000  1
  Si  Si8  1  0.557696  0.646319  0.000000  1
  Si  Si9  1  0.348963  0.911966  0.000000  1
  Si  Si10  1  0.087061  0.438012  0.000000  1
  Si  Si11  1  0.665971  0.332404  0.000000  1
  Pt  Pt12  1  0.717010  0.779186  0.500000  1
  Pt  Pt13  1  0.311192  0.407161  0.000000  1
  Pt  Pt14  1  0.588849  0.903113  0.000000  1
  Pt  Pt15  1  0.095012  0.689288  0.000000  1
  Pt  Pt16  1  0.386526  0.172943  0.000000  1
  Pt  Pt17  1  0.826439  0.211632  0.000000  1
  Pt  Pt18  1  0.785969  0.612769  0.000000  1
  Rh  Rh19  1  0.224447  0.939579  0.500000  1
  Rh  Rh20  1  0.062058  0.285387  0.500000  1
