# generated using pymatgen
data_MnGa3Rh4
_symmetry_space_group_name_H-M   'P 1'
_cell_length_a   4.28612700
_cell_length_b   5.27975160
_cell_length_c   10.55543852
_cell_angle_alpha   109.44340172
_cell_angle_beta   90.00000000
_cell_angle_gamma   90.00000000
_symmetry_Int_Tables_number   1
_chemical_formula_structural   MnGa3Rh4
_chemical_formula_sum   'Mn2 Ga6 Rh8'
_cell_volume   225.24390045
_cell_formula_units_Z   2
loop_
 _symmetry_equiv_pos_site_id
 _symmetry_equiv_pos_as_xyz
  1  'x, y, z'
loop_
 _atom_site_type_symbol
 _atom_site_label
 _atom_site_symmetry_multiplicity
 _atom_site_fract_x
 _atom_site_fract_y
 _atom_site_fract_z
 _atom_site_occupancy
  Mn  Mn0  1  0.000000  0.499978  0.249679  1
  Mn  Mn1  1  0.000000  0.499779  0.750370  1
  Ga  Ga2  1  0.500000  0.260349  0.369860  1
  Ga  Ga3  1  0.500000  0.260123  0.869908  1
  Ga  Ga4  1  0.500000  0.739983  0.130144  1
  Ga  Ga5  1  0.500000  0.739309  0.630245  1
  Ga  Ga6  1  0.000000  0.000215  0.999995  1
  Ga  Ga7  1  0.000000  0.000024  0.499908  1
  Rh  Rh8  1  0.500000  0.759430  0.379648  1
  Rh  Rh9  1  0.500000  0.759318  0.879822  1
  Rh  Rh10  1  0.500000  0.240965  0.120296  1
  Rh  Rh11  1  0.500000  0.240151  0.620285  1
  Rh  Rh12  1  0.000000  0.000252  0.249909  1
  Rh  Rh13  1  0.000000  0.999873  0.749964  1
  Rh  Rh14  1  0.000000  0.500188  0.999959  1
  Rh  Rh15  1  0.000000  0.500062  0.500005  1
