# generated using pymatgen
data_ErSi7Ir3
_symmetry_space_group_name_H-M   'P 1'
_cell_length_a   8.04279768
_cell_length_b   8.04279823
_cell_length_c   8.04279827
_cell_angle_alpha   56.49851159
_cell_angle_beta   56.49850939
_cell_angle_gamma   56.49851081
_symmetry_Int_Tables_number   1
_chemical_formula_structural   ErSi7Ir3
_chemical_formula_sum   'Er2 Si14 Ir6'
_cell_volume   338.10680628
_cell_formula_units_Z   2
loop_
 _symmetry_equiv_pos_site_id
 _symmetry_equiv_pos_as_xyz
  1  'x, y, z'
loop_
 _atom_site_type_symbol
 _atom_site_label
 _atom_site_symmetry_multiplicity
 _atom_site_fract_x
 _atom_site_fract_y
 _atom_site_fract_z
 _atom_site_occupancy
  Er  Er0  1  0.000000  0.000000  0.000000  1
  Er  Er1  1  0.500000  0.500000  0.500000  1
  Si  Si2  1  0.750000  0.750000  0.750000  1
  Si  Si3  1  0.250000  0.250000  0.250000  1
  Si  Si4  1  0.850581  0.064296  0.672277  1
  Si  Si5  1  0.672277  0.850581  0.064296  1
  Si  Si6  1  0.064296  0.672277  0.850581  1
  Si  Si7  1  0.649419  0.827723  0.435704  1
  Si  Si8  1  0.435704  0.649419  0.827723  1
  Si  Si9  1  0.827723  0.435704  0.649419  1
  Si  Si10  1  0.172277  0.564296  0.350581  1
  Si  Si11  1  0.564296  0.350581  0.172277  1
  Si  Si12  1  0.350581  0.172277  0.564296  1
  Si  Si13  1  0.935704  0.327723  0.149419  1
  Si  Si14  1  0.327723  0.149419  0.935704  1
  Si  Si15  1  0.149419  0.935704  0.327723  1
  Ir  Ir16  1  0.071056  0.428944  0.750000  1
  Ir  Ir17  1  0.250000  0.928944  0.571056  1
  Ir  Ir18  1  0.571056  0.250000  0.928944  1
  Ir  Ir19  1  0.928944  0.571056  0.250000  1
  Ir  Ir20  1  0.428944  0.750000  0.071056  1
  Ir  Ir21  1  0.750000  0.071056  0.428944  1
