# generated using pymatgen
data_Ho2InNi7B2
_symmetry_space_group_name_H-M   'P 1'
_cell_length_a   5.00427000
_cell_length_b   5.00426955
_cell_length_c   14.29099100
_cell_angle_alpha   90.00000000
_cell_angle_beta   90.00000000
_cell_angle_gamma   119.99998978
_symmetry_Int_Tables_number   1
_chemical_formula_structural   Ho2InNi7B2
_chemical_formula_sum   'Ho4 In2 Ni14 B4'
_cell_volume   309.93773133
_cell_formula_units_Z   2
loop_
 _symmetry_equiv_pos_site_id
 _symmetry_equiv_pos_as_xyz
  1  'x, y, z'
loop_
 _atom_site_type_symbol
 _atom_site_label
 _atom_site_symmetry_multiplicity
 _atom_site_fract_x
 _atom_site_fract_y
 _atom_site_fract_z
 _atom_site_occupancy
  Ho  Ho0  1  0.666667  0.333333  0.531178  1
  Ho  Ho1  1  0.333333  0.666667  0.031178  1
  Ho  Ho2  1  0.666667  0.333333  0.754883  1
  Ho  Ho3  1  0.333333  0.666667  0.254883  1
  In  In4  1  0.333333  0.666667  0.469081  1
  In  In5  1  0.666667  0.333333  0.969081  1
  Ni  Ni6  1  0.834139  0.165861  0.352228  1
  Ni  Ni7  1  0.834139  0.668280  0.352228  1
  Ni  Ni8  1  0.000000  0.000000  0.998547  1
  Ni  Ni9  1  0.000000  0.000000  0.498547  1
  Ni  Ni10  1  0.833830  0.667662  0.147498  1
  Ni  Ni11  1  0.166170  0.833830  0.647498  1
  Ni  Ni12  1  0.667662  0.833830  0.647498  1
  Ni  Ni13  1  0.332338  0.166170  0.147498  1
  Ni  Ni14  1  0.833830  0.166170  0.147498  1
  Ni  Ni15  1  0.165861  0.331720  0.852228  1
  Ni  Ni16  1  0.165861  0.834139  0.852228  1
  Ni  Ni17  1  0.166170  0.332338  0.647498  1
  Ni  Ni18  1  0.668280  0.834139  0.852228  1
  Ni  Ni19  1  0.331720  0.165861  0.352228  1
  B  B20  1  0.666667  0.333333  0.249610  1
  B  B21  1  0.333333  0.666667  0.749610  1
  B  B22  1  0.000000  0.000000  0.747525  1
  B  B23  1  0.000000  0.000000  0.247525  1
