# generated using pymatgen
data_Y6P13(Ir2Rh3)4
_symmetry_space_group_name_H-M   'P 1'
_cell_length_a   13.35416600
_cell_length_b   13.35416377
_cell_length_c   3.95841000
_cell_angle_alpha   90.00000000
_cell_angle_beta   90.00000000
_cell_angle_gamma   120.00000058
_symmetry_Int_Tables_number   1
_chemical_formula_structural   Y6P13(Ir2Rh3)4
_chemical_formula_sum   'Y6 P13 Ir8 Rh12'
_cell_volume   611.34289965
_cell_formula_units_Z   1
loop_
 _symmetry_equiv_pos_site_id
 _symmetry_equiv_pos_as_xyz
  1  'x, y, z'
loop_
 _atom_site_type_symbol
 _atom_site_label
 _atom_site_symmetry_multiplicity
 _atom_site_fract_x
 _atom_site_fract_y
 _atom_site_fract_z
 _atom_site_occupancy
  Y  Y0  1  0.528812  0.717044  0.247922  1
  Y  Y1  1  0.282956  0.811768  0.247922  1
  Y  Y2  1  0.188232  0.471188  0.247922  1
  Y  Y3  1  0.470797  0.282937  0.751697  1
  Y  Y4  1  0.717063  0.187860  0.751697  1
  Y  Y5  1  0.812140  0.529203  0.751697  1
  P  P6  1  0.525360  0.139187  0.250425  1
  P  P7  1  0.860813  0.386174  0.250425  1
  P  P8  1  0.613826  0.474640  0.250425  1
  P  P9  1  0.945598  0.714654  0.255534  1
  P  P10  1  0.285346  0.230945  0.255534  1
  P  P11  1  0.769055  0.054402  0.255534  1
  P  P12  1  0.386645  0.525770  0.749847  1
  P  P13  1  0.474230  0.860873  0.749847  1
  P  P14  1  0.139127  0.613355  0.749847  1
  P  P15  1  0.714581  0.769674  0.745295  1
  P  P16  1  0.230326  0.944906  0.745295  1
  P  P17  1  0.055094  0.285419  0.745295  1
  P  P18  1  0.000000  0.000000  0.000339  1
  Ir  Ir19  1  0.333333  0.666667  0.751409  1
  Ir  Ir20  1  0.920367  0.249025  0.254110  1
  Ir  Ir21  1  0.750975  0.671342  0.254110  1
  Ir  Ir22  1  0.328658  0.079633  0.254110  1
  Ir  Ir23  1  0.438423  0.022604  0.751671  1
  Ir  Ir24  1  0.977396  0.415820  0.751671  1
  Ir  Ir25  1  0.584180  0.561577  0.751671  1
  Ir  Ir26  1  0.666667  0.333333  0.248197  1
  Rh  Rh27  1  0.094312  0.185492  0.247282  1
  Rh  Rh28  1  0.814508  0.908820  0.247282  1
  Rh  Rh29  1  0.091180  0.905688  0.247282  1
  Rh  Rh30  1  0.022909  0.584518  0.248192  1
  Rh  Rh31  1  0.415482  0.438390  0.248192  1
  Rh  Rh32  1  0.561610  0.977091  0.248192  1
  Rh  Rh33  1  0.671199  0.920894  0.745183  1
  Rh  Rh34  1  0.079106  0.750305  0.745183  1
  Rh  Rh35  1  0.249695  0.328801  0.745183  1
  Rh  Rh36  1  0.904808  0.813324  0.752860  1
  Rh  Rh37  1  0.186676  0.091483  0.752860  1
  Rh  Rh38  1  0.908517  0.095192  0.752860  1
