# generated using pymatgen
data_AcCe2Zn10Ag
_symmetry_space_group_name_H-M   'P 1'
_cell_length_a   4.62878503
_cell_length_b   8.44104092
_cell_length_c   8.44104080
_cell_angle_alpha   107.32465012
_cell_angle_beta   105.91334921
_cell_angle_gamma   105.91334425
_symmetry_Int_Tables_number   1
_chemical_formula_structural   AcCe2Zn10Ag
_chemical_formula_sum   'Ac1 Ce2 Zn10 Ag1'
_cell_volume   279.11009097
_cell_formula_units_Z   1
loop_
 _symmetry_equiv_pos_site_id
 _symmetry_equiv_pos_as_xyz
  1  'x, y, z'
loop_
 _atom_site_type_symbol
 _atom_site_label
 _atom_site_symmetry_multiplicity
 _atom_site_fract_x
 _atom_site_fract_y
 _atom_site_fract_z
 _atom_site_occupancy
  Ac  Ac0  1  0.000000  0.000000  0.000000  1
  Ce  Ce1  1  0.000001  0.706140  0.293860  1
  Ce  Ce2  1  0.000001  0.293860  0.706140  1
  Zn  Zn3  1  0.355510  0.694883  0.016137  1
  Zn  Zn4  1  0.290156  0.436007  0.144303  1
  Zn  Zn5  1  0.644492  0.983864  0.305117  1
  Zn  Zn6  1  0.823040  0.323040  0.323040  1
  Zn  Zn7  1  0.290156  0.144303  0.436007  1
  Zn  Zn8  1  0.709845  0.855697  0.563993  1
  Zn  Zn9  1  0.176961  0.676960  0.676960  1
  Zn  Zn10  1  0.355510  0.016137  0.694883  1
  Zn  Zn11  1  0.709845  0.563993  0.855697  1
  Zn  Zn12  1  0.644492  0.305117  0.983864  1
  Ag  Ag13  1  0.500000  0.500000  0.500000  1
