# generated using pymatgen
data_Ti6GaAsP
_symmetry_space_group_name_H-M   'P 1'
_cell_length_a   6.85892800
_cell_length_b   6.85892846
_cell_length_c   3.50421300
_cell_angle_alpha   90.00000000
_cell_angle_beta   90.00000000
_cell_angle_gamma   119.99998813
_symmetry_Int_Tables_number   1
_chemical_formula_structural   Ti6GaAsP
_chemical_formula_sum   'Ti6 Ga1 As1 P1'
_cell_volume   142.76892755
_cell_formula_units_Z   1
loop_
 _symmetry_equiv_pos_site_id
 _symmetry_equiv_pos_as_xyz
  1  'x, y, z'
loop_
 _atom_site_type_symbol
 _atom_site_label
 _atom_site_symmetry_multiplicity
 _atom_site_fract_x
 _atom_site_fract_y
 _atom_site_fract_z
 _atom_site_occupancy
  Ti  Ti0  1  0.998000  0.248540  0.500000  1
  Ti  Ti1  1  0.250540  0.002000  0.500000  1
  Ti  Ti2  1  0.751460  0.749460  0.500000  1
  Ti  Ti3  1  0.601754  0.991852  0.000000  1
  Ti  Ti4  1  0.390098  0.398246  0.000000  1
  Ti  Ti5  1  0.008148  0.609902  0.000000  1
  Ga  Ga6  1  0.666667  0.333333  0.500000  1
  As  As7  1  0.333333  0.666667  0.500000  1
  P  P8  1  0.000000  0.000000  0.000000  1
