# generated using pymatgen
data_Tb2TaRh3
_symmetry_space_group_name_H-M   'P 1'
_cell_length_a   5.22927709
_cell_length_b   5.22927863
_cell_length_c   5.22927827
_cell_angle_alpha   66.05081458
_cell_angle_beta   66.05080754
_cell_angle_gamma   66.05080791
_symmetry_Int_Tables_number   1
_chemical_formula_structural   Tb2TaRh3
_chemical_formula_sum   'Tb2 Ta1 Rh3'
_cell_volume   114.34756596
_cell_formula_units_Z   1
loop_
 _symmetry_equiv_pos_site_id
 _symmetry_equiv_pos_as_xyz
  1  'x, y, z'
loop_
 _atom_site_type_symbol
 _atom_site_label
 _atom_site_symmetry_multiplicity
 _atom_site_fract_x
 _atom_site_fract_y
 _atom_site_fract_z
 _atom_site_occupancy
  Tb  Tb0  1  0.372496  0.372496  0.372496  1
  Tb  Tb1  1  0.627504  0.627504  0.627504  1
  Ta  Ta2  1  0.000000  0.000000  0.000000  1
  Rh  Rh3  1  0.500000  0.000000  0.000000  1
  Rh  Rh4  1  0.000000  0.500000  0.000000  1
  Rh  Rh5  1  0.000000  0.000000  0.499999  1
