# generated using pymatgen
data_La5Mn3(P3Ir4)4
_symmetry_space_group_name_H-M   'P 1'
_cell_length_a   12.84767300
_cell_length_b   12.84767308
_cell_length_c   4.02410600
_cell_angle_alpha   90.00000000
_cell_angle_beta   90.00000000
_cell_angle_gamma   120.00000237
_symmetry_Int_Tables_number   1
_chemical_formula_structural   La5Mn3(P3Ir4)4
_chemical_formula_sum   'La5 Mn3 P12 Ir16'
_cell_volume   575.23987707
_cell_formula_units_Z   1
loop_
 _symmetry_equiv_pos_site_id
 _symmetry_equiv_pos_as_xyz
  1  'x, y, z'
loop_
 _atom_site_type_symbol
 _atom_site_label
 _atom_site_symmetry_multiplicity
 _atom_site_fract_x
 _atom_site_fract_y
 _atom_site_fract_z
 _atom_site_occupancy
  La  La0  1  0.000000  0.809009  0.000000  1
  La  La1  1  0.190991  0.190991  0.000000  1
  La  La2  1  0.809009  0.000000  0.000000  1
  La  La3  1  0.333333  0.666667  0.500000  1
  La  La4  1  0.666667  0.333333  0.500000  1
  Mn  Mn5  1  0.000000  0.454078  0.500000  1
  Mn  Mn6  1  0.545922  0.545922  0.500000  1
  Mn  Mn7  1  0.454078  0.000000  0.500000  1
  P  P8  1  0.000000  0.629106  0.500000  1
  P  P9  1  0.370894  0.370894  0.500000  1
  P  P10  1  0.629106  0.000000  0.500000  1
  P  P11  1  0.518999  0.687030  0.000000  1
  P  P12  1  0.312970  0.831970  0.000000  1
  P  P13  1  0.168030  0.481001  0.000000  1
  P  P14  1  0.481001  0.168030  0.000000  1
  P  P15  1  0.687030  0.518999  0.000000  1
  P  P16  1  0.831970  0.312970  0.000000  1
  P  P17  1  0.000000  0.181702  0.500000  1
  P  P18  1  0.818298  0.818298  0.500000  1
  P  P19  1  0.181702  0.000000  0.500000  1
  Ir  Ir20  1  0.509428  0.870824  0.000000  1
  Ir  Ir21  1  0.129176  0.638605  0.000000  1
  Ir  Ir22  1  0.361395  0.490572  0.000000  1
  Ir  Ir23  1  0.490572  0.361395  0.000000  1
  Ir  Ir24  1  0.870824  0.509428  0.000000  1
  Ir  Ir25  1  0.638605  0.129176  0.000000  1
  Ir  Ir26  1  0.000000  0.284271  0.000000  1
  Ir  Ir27  1  0.715729  0.715729  0.000000  1
  Ir  Ir28  1  0.284271  0.000000  0.000000  1
  Ir  Ir29  1  0.620610  0.798219  0.500000  1
  Ir  Ir30  1  0.201781  0.822390  0.500000  1
  Ir  Ir31  1  0.177610  0.379390  0.500000  1
  Ir  Ir32  1  0.379390  0.177610  0.500000  1
  Ir  Ir33  1  0.798219  0.620610  0.500000  1
  Ir  Ir34  1  0.822390  0.201781  0.500000  1
  Ir  Ir35  1  0.000000  0.000000  0.500000  1
