# generated using pymatgen
data_Hf6Nb4Si6C
_symmetry_space_group_name_H-M   'P 1'
_cell_length_a   7.78447000
_cell_length_b   7.78447019
_cell_length_c   5.38540500
_cell_angle_alpha   90.00000000
_cell_angle_beta   90.00000000
_cell_angle_gamma   119.99999917
_symmetry_Int_Tables_number   1
_chemical_formula_structural   Hf6Nb4Si6C
_chemical_formula_sum   'Hf6 Nb4 Si6 C1'
_cell_volume   282.62274746
_cell_formula_units_Z   1
loop_
 _symmetry_equiv_pos_site_id
 _symmetry_equiv_pos_as_xyz
  1  'x, y, z'
loop_
 _atom_site_type_symbol
 _atom_site_label
 _atom_site_symmetry_multiplicity
 _atom_site_fract_x
 _atom_site_fract_y
 _atom_site_fract_z
 _atom_site_occupancy
  Hf  Hf0  1  0.000000  0.757075  0.254691  1
  Hf  Hf1  1  0.242925  0.242925  0.254691  1
  Hf  Hf2  1  0.757075  0.000000  0.254691  1
  Hf  Hf3  1  0.000000  0.242925  0.745309  1
  Hf  Hf4  1  0.757075  0.757075  0.745309  1
  Hf  Hf5  1  0.242925  0.000000  0.745309  1
  Nb  Nb6  1  0.333333  0.666667  0.000000  1
  Nb  Nb7  1  0.666667  0.333333  0.000000  1
  Nb  Nb8  1  0.666667  0.333333  0.500000  1
  Nb  Nb9  1  0.333333  0.666667  0.500000  1
  Si  Si10  1  0.000000  0.400449  0.244350  1
  Si  Si11  1  0.599551  0.599551  0.244350  1
  Si  Si12  1  0.400449  0.000000  0.244350  1
  Si  Si13  1  0.000000  0.599551  0.755650  1
  Si  Si14  1  0.400449  0.400449  0.755650  1
  Si  Si15  1  0.599551  0.000000  0.755650  1
  C  C16  1  0.000000  0.000000  0.500000  1
