# generated using pymatgen
data_Pr20Ir3Ru2Rh7
_symmetry_space_group_name_H-M   'P 1'
_cell_length_a   11.32860569
_cell_length_b   11.32990697
_cell_length_c   6.67630370
_cell_angle_alpha   90.04105122
_cell_angle_beta   90.03241170
_cell_angle_gamma   90.02365238
_symmetry_Int_Tables_number   1
_chemical_formula_structural   Pr20Ir3Ru2Rh7
_chemical_formula_sum   'Pr20 Ir3 Ru2 Rh7'
_cell_volume   856.91682623
_cell_formula_units_Z   1
loop_
 _symmetry_equiv_pos_site_id
 _symmetry_equiv_pos_as_xyz
  1  'x, y, z'
loop_
 _atom_site_type_symbol
 _atom_site_label
 _atom_site_symmetry_multiplicity
 _atom_site_fract_x
 _atom_site_fract_y
 _atom_site_fract_z
 _atom_site_occupancy
  Pr  Pr0  1  0.294753  0.088892  0.385703  1
  Pr  Pr1  1  0.295050  0.910689  0.885797  1
  Pr  Pr2  1  0.705070  0.087272  0.885849  1
  Pr  Pr3  1  0.705137  0.911023  0.385830  1
  Pr  Pr4  1  0.586862  0.792921  0.887104  1
  Pr  Pr5  1  0.586316  0.205993  0.385929  1
  Pr  Pr6  1  0.413146  0.793558  0.386930  1
  Pr  Pr7  1  0.411341  0.206127  0.887510  1
  Pr  Pr8  1  0.210121  0.410208  0.616763  1
  Pr  Pr9  1  0.209667  0.589997  0.117008  1
  Pr  Pr10  1  0.790803  0.410351  0.117560  1
  Pr  Pr11  1  0.790965  0.591695  0.616012  1
  Pr  Pr12  1  0.907592  0.708637  0.117564  1
  Pr  Pr13  1  0.909195  0.291469  0.617646  1
  Pr  Pr14  1  0.092623  0.708398  0.617396  1
  Pr  Pr15  1  0.092330  0.291240  0.117678  1
  Pr  Pr16  1  0.000094  0.999826  0.493591  1
  Pr  Pr17  1  0.000086  0.999774  0.993412  1
  Pr  Pr18  1  0.499686  0.499979  0.993351  1
  Pr  Pr19  1  0.499861  0.500262  0.493943  1
  Ir  Ir20  1  0.655498  0.651429  0.248837  1
  Ir  Ir21  1  0.344620  0.348195  0.248603  1
  Ir  Ir22  1  0.344010  0.652247  0.748602  1
  Ru  Ru23  1  0.500559  0.000699  0.122954  1
  Ru  Ru24  1  0.500520  0.000875  0.623393  1
  Rh  Rh25  1  0.848743  0.155231  0.249444  1
  Rh  Rh26  1  0.848958  0.845232  0.748754  1
  Rh  Rh27  1  0.150907  0.154673  0.749036  1
  Rh  Rh28  1  0.150832  0.845668  0.249029  1
  Rh  Rh29  1  0.656014  0.348278  0.748613  1
  Rh  Rh30  1  0.999053  0.499602  0.879783  1
  Rh  Rh31  1  0.999590  0.499559  0.380388  1
