# generated using pymatgen
data_Li8TbY7Sn3Bi5
_symmetry_space_group_name_H-M   'P 1'
_cell_length_a   9.58529753
_cell_length_b   9.58529726
_cell_length_c   7.18453548
_cell_angle_alpha   90.06550365
_cell_angle_beta   89.93449249
_cell_angle_gamma   120.00755372
_symmetry_Int_Tables_number   1
_chemical_formula_structural   Li8TbY7Sn3Bi5
_chemical_formula_sum   'Li8 Tb1 Y7 Sn3 Bi5'
_cell_volume   571.61954368
_cell_formula_units_Z   1
loop_
 _symmetry_equiv_pos_site_id
 _symmetry_equiv_pos_as_xyz
  1  'x, y, z'
loop_
 _atom_site_type_symbol
 _atom_site_label
 _atom_site_symmetry_multiplicity
 _atom_site_fract_x
 _atom_site_fract_y
 _atom_site_fract_z
 _atom_site_occupancy
  Li  Li0  1  0.169761  0.830239  0.201228  1
  Li  Li1  1  0.337801  0.168111  0.705527  1
  Li  Li2  1  0.831889  0.662199  0.705527  1
  Li  Li3  1  0.165096  0.336339  0.209736  1
  Li  Li4  1  0.663661  0.834904  0.209736  1
  Li  Li5  1  0.830475  0.169525  0.699978  1
  Li  Li6  1  0.332532  0.667468  0.809339  1
  Li  Li7  1  0.668835  0.331165  0.306322  1
  Tb  Tb8  1  0.510265  0.489735  0.991435  1
  Y  Y9  1  0.020069  0.506833  0.487215  1
  Y  Y10  1  0.493167  0.979931  0.487215  1
  Y  Y11  1  0.518100  0.025728  0.992468  1
  Y  Y12  1  0.974272  0.481900  0.992468  1
  Y  Y13  1  0.489596  0.510404  0.489843  1
  Y  Y14  1  0.996681  0.003319  0.984670  1
  Y  Y15  1  0.997361  0.002639  0.478944  1
  Sn  Sn16  1  0.833904  0.166096  0.249307  1
  Sn  Sn17  1  0.333827  0.666173  0.225771  1
  Sn  Sn18  1  0.666223  0.333777  0.725300  1
  Bi  Bi19  1  0.166317  0.833683  0.748468  1
  Bi  Bi20  1  0.332890  0.166399  0.247553  1
  Bi  Bi21  1  0.833601  0.667110  0.247553  1
  Bi  Bi22  1  0.166631  0.332953  0.747200  1
  Bi  Bi23  1  0.667047  0.833369  0.747200  1
