# generated using pymatgen
data_TbEr2P4Ir7
_symmetry_space_group_name_H-M   'P 1'
_cell_length_a   7.68659175
_cell_length_b   7.68659189
_cell_length_c   9.19991775
_cell_angle_alpha   57.07012023
_cell_angle_beta   57.07011954
_cell_angle_gamma   29.84380864
_symmetry_Int_Tables_number   1
_chemical_formula_structural   TbEr2P4Ir7
_chemical_formula_sum   'Tb1 Er2 P4 Ir7'
_cell_volume   223.63181512
_cell_formula_units_Z   1
loop_
 _symmetry_equiv_pos_site_id
 _symmetry_equiv_pos_as_xyz
  1  'x, y, z'
loop_
 _atom_site_type_symbol
 _atom_site_label
 _atom_site_symmetry_multiplicity
 _atom_site_fract_x
 _atom_site_fract_y
 _atom_site_fract_z
 _atom_site_occupancy
  Tb  Tb0  1  0.500000  0.500000  0.500000  1
  Er  Er1  1  0.826115  0.826115  0.171195  1
  Er  Er2  1  0.173885  0.173885  0.828805  1
  P  P3  1  0.389489  0.389489  0.326310  1
  P  P4  1  0.610511  0.610511  0.673690  1
  P  P5  1  0.832962  0.832962  0.773506  1
  P  P6  1  0.167038  0.167038  0.226494  1
  Ir  Ir7  1  0.665566  0.665566  0.078706  1
  Ir  Ir8  1  0.007439  0.007439  0.221036  1
  Ir  Ir9  1  0.992561  0.992561  0.778964  1
  Ir  Ir10  1  0.500000  0.500000  0.000000  1
  Ir  Ir11  1  0.199198  0.199198  0.448934  1
  Ir  Ir12  1  0.800802  0.800802  0.551066  1
  Ir  Ir13  1  0.334434  0.334434  0.921294  1
