# generated using pymatgen
data_Hf5Sc8Si16W7
_symmetry_space_group_name_H-M   'P 1'
_cell_length_a   6.65731600
_cell_length_b   6.87148842
_cell_length_c   13.13466720
_cell_angle_alpha   89.94044605
_cell_angle_beta   90.05182369
_cell_angle_gamma   89.86900331
_symmetry_Int_Tables_number   1
_chemical_formula_structural   Hf5Sc8Si16W7
_chemical_formula_sum   'Hf5 Sc8 Si16 W7'
_cell_volume   600.85200602
_cell_formula_units_Z   1
loop_
 _symmetry_equiv_pos_site_id
 _symmetry_equiv_pos_as_xyz
  1  'x, y, z'
loop_
 _atom_site_type_symbol
 _atom_site_label
 _atom_site_symmetry_multiplicity
 _atom_site_fract_x
 _atom_site_fract_y
 _atom_site_fract_z
 _atom_site_occupancy
  Hf  Hf0  1  0.664057  0.172664  0.625470  1
  Hf  Hf1  1  0.162391  0.329833  0.876218  1
  Hf  Hf2  1  0.337823  0.829500  0.122620  1
  Hf  Hf3  1  0.835603  0.668968  0.374277  1
  Hf  Hf4  1  0.330827  0.826042  0.374295  1
  Sc  Sc5  1  0.499626  0.673492  0.596265  1
  Sc  Sc6  1  0.999770  0.825938  0.907624  1
  Sc  Sc7  1  0.499811  0.324901  0.092082  1
  Sc  Sc8  1  0.998508  0.175912  0.405538  1
  Sc  Sc9  1  0.501162  0.327585  0.404498  1
  Sc  Sc10  1  0.998831  0.176392  0.094197  1
  Sc  Sc11  1  0.499764  0.675376  0.904640  1
  Sc  Sc12  1  0.000748  0.825843  0.595241  1
  Si  Si13  1  0.669801  0.972426  0.456477  1
  Si  Si14  1  0.158294  0.529950  0.045179  1
  Si  Si15  1  0.342387  0.030324  0.954049  1
  Si  Si16  1  0.839962  0.470358  0.545849  1
  Si  Si17  1  0.322014  0.038381  0.543066  1
  Si  Si18  1  0.821977  0.464014  0.960822  1
  Si  Si19  1  0.678137  0.965089  0.038279  1
  Si  Si20  1  0.173381  0.527902  0.466023  1
  Si  Si21  1  0.466752  0.390310  0.752780  1
  Si  Si22  1  0.967114  0.108261  0.749739  1
  Si  Si23  1  0.536456  0.604599  0.247228  1
  Si  Si24  1  0.028729  0.890135  0.245386  1
  Si  Si25  1  0.703431  0.857733  0.750390  1
  Si  Si26  1  0.202205  0.644491  0.750668  1
  Si  Si27  1  0.294686  0.145861  0.249327  1
  Si  Si28  1  0.797751  0.355745  0.247939  1
  W  W29  1  0.826632  0.668644  0.122828  1
  W  W30  1  0.673165  0.169501  0.874331  1
  W  W31  1  0.169266  0.330474  0.630016  1
  W  W32  1  0.838929  0.495734  0.751013  1
  W  W33  1  0.339997  0.006622  0.751453  1
  W  W34  1  0.159890  0.504723  0.247213  1
  W  W35  1  0.660123  0.996280  0.246980  1
