# generated using pymatgen
data_Yb5As3H
_symmetry_space_group_name_H-M   'P 1'
_cell_length_a   8.42910200
_cell_length_b   8.42910160
_cell_length_c   6.54476700
_cell_angle_alpha   90.00000000
_cell_angle_beta   90.00000000
_cell_angle_gamma   120.00000157
_symmetry_Int_Tables_number   1
_chemical_formula_structural   Yb5As3H
_chemical_formula_sum   'Yb10 As6 H2'
_cell_volume   402.70536221
_cell_formula_units_Z   2
loop_
 _symmetry_equiv_pos_site_id
 _symmetry_equiv_pos_as_xyz
  1  'x, y, z'
loop_
 _atom_site_type_symbol
 _atom_site_label
 _atom_site_symmetry_multiplicity
 _atom_site_fract_x
 _atom_site_fract_y
 _atom_site_fract_z
 _atom_site_occupancy
  Yb  Yb0  1  0.752975  0.752975  0.250000  1
  Yb  Yb1  1  0.752975  0.000000  0.750000  1
  Yb  Yb2  1  0.000000  0.247025  0.250000  1
  Yb  Yb3  1  0.000000  0.752975  0.750000  1
  Yb  Yb4  1  0.247025  0.247025  0.750000  1
  Yb  Yb5  1  0.247025  0.000000  0.250000  1
  Yb  Yb6  1  0.333333  0.666667  0.500000  1
  Yb  Yb7  1  0.666667  0.333333  0.000000  1
  Yb  Yb8  1  0.666667  0.333333  0.500000  1
  Yb  Yb9  1  0.333333  0.666667  0.000000  1
  As  As10  1  0.391747  0.000000  0.750000  1
  As  As11  1  0.391747  0.391747  0.250000  1
  As  As12  1  0.000000  0.608253  0.250000  1
  As  As13  1  0.000000  0.391747  0.750000  1
  As  As14  1  0.608253  0.608253  0.750000  1
  As  As15  1  0.608253  0.000000  0.250000  1
  H  H16  1  0.000000  0.000000  0.500000  1
  H  H17  1  0.000000  0.000000  0.000000  1
