# generated using pymatgen
data_Ho4TmMg3Ir4
_symmetry_space_group_name_H-M   'P 1'
_cell_length_a   4.16694300
_cell_length_b   7.10792168
_cell_length_c   8.62772435
_cell_angle_alpha   89.12430468
_cell_angle_beta   90.00000000
_cell_angle_gamma   90.00000000
_symmetry_Int_Tables_number   1
_chemical_formula_structural   Ho4TmMg3Ir4
_chemical_formula_sum   'Ho4 Tm1 Mg3 Ir4'
_cell_volume   255.50872120
_cell_formula_units_Z   1
loop_
 _symmetry_equiv_pos_site_id
 _symmetry_equiv_pos_as_xyz
  1  'x, y, z'
loop_
 _atom_site_type_symbol
 _atom_site_label
 _atom_site_symmetry_multiplicity
 _atom_site_fract_x
 _atom_site_fract_y
 _atom_site_fract_z
 _atom_site_occupancy
  Ho  Ho0  1  0.250000  0.543126  0.163133  1
  Ho  Ho1  1  0.750000  0.469159  0.830129  1
  Ho  Ho2  1  0.250000  0.023675  0.320122  1
  Ho  Ho3  1  0.750000  0.954603  0.679048  1
  Tm  Tm4  1  0.750000  0.365009  0.440489  1
  Mg  Mg5  1  0.250000  0.134498  0.942679  1
  Mg  Mg6  1  0.750000  0.864174  0.059149  1
  Mg  Mg7  1  0.250000  0.647748  0.565075  1
  Ir  Ir8  1  0.750000  0.749768  0.371966  1
  Ir  Ir9  1  0.250000  0.244102  0.627413  1
  Ir  Ir10  1  0.750000  0.250213  0.128151  1
  Ir  Ir11  1  0.250000  0.753923  0.872648  1
