# generated using pymatgen
data_Zr4SiP3Rh4
_symmetry_space_group_name_H-M   'P 1'
_cell_length_a   3.84222800
_cell_length_b   6.55898788
_cell_length_c   7.49093084
_cell_angle_alpha   90.28255246
_cell_angle_beta   90.00000000
_cell_angle_gamma   90.00000000
_symmetry_Int_Tables_number   1
_chemical_formula_structural   Zr4SiP3Rh4
_chemical_formula_sum   'Zr4 Si1 P3 Rh4'
_cell_volume   188.77760306
_cell_formula_units_Z   1
loop_
 _symmetry_equiv_pos_site_id
 _symmetry_equiv_pos_as_xyz
  1  'x, y, z'
loop_
 _atom_site_type_symbol
 _atom_site_label
 _atom_site_symmetry_multiplicity
 _atom_site_fract_x
 _atom_site_fract_y
 _atom_site_fract_z
 _atom_site_occupancy
  Zr  Zr0  1  0.250000  0.025807  0.820000  1
  Zr  Zr1  1  0.250000  0.525689  0.682994  1
  Zr  Zr2  1  0.750000  0.975723  0.176889  1
  Zr  Zr3  1  0.750000  0.469147  0.319391  1
  Si  Si4  1  0.250000  0.767531  0.380188  1
  P  P5  1  0.250000  0.263021  0.122146  1
  P  P6  1  0.750000  0.234238  0.621657  1
  P  P7  1  0.750000  0.738240  0.877128  1
  Rh  Rh8  1  0.250000  0.145873  0.439028  1
  Rh  Rh9  1  0.250000  0.645397  0.061738  1
  Rh  Rh10  1  0.750000  0.855818  0.561527  1
  Rh  Rh11  1  0.750000  0.353516  0.937315  1
