# generated using pymatgen
data_Nd8Y2Ru3Rh
_symmetry_space_group_name_H-M   'P 1'
_cell_length_a   6.56975120
_cell_length_b   7.30791921
_cell_length_c   8.92597331
_cell_angle_alpha   96.38431461
_cell_angle_beta   111.86470905
_cell_angle_gamma   89.78076844
_symmetry_Int_Tables_number   1
_chemical_formula_structural   Nd8Y2Ru3Rh
_chemical_formula_sum   'Nd8 Y2 Ru3 Rh1'
_cell_volume   394.92479952
_cell_formula_units_Z   1
loop_
 _symmetry_equiv_pos_site_id
 _symmetry_equiv_pos_as_xyz
  1  'x, y, z'
loop_
 _atom_site_type_symbol
 _atom_site_label
 _atom_site_symmetry_multiplicity
 _atom_site_fract_x
 _atom_site_fract_y
 _atom_site_fract_z
 _atom_site_occupancy
  Nd  Nd0  1  0.985204  0.919578  0.182908  1
  Nd  Nd1  1  0.797322  0.584327  0.813274  1
  Nd  Nd2  1  0.017610  0.082678  0.817149  1
  Nd  Nd3  1  0.204722  0.414986  0.182017  1
  Nd  Nd4  1  0.639275  0.814761  0.431959  1
  Nd  Nd5  1  0.214432  0.685860  0.572717  1
  Nd  Nd6  1  0.356016  0.187539  0.568612  1
  Nd  Nd7  1  0.787263  0.311769  0.433055  1
  Y  Y8  1  0.431500  0.750019  0.999854  1
  Y  Y9  1  0.568927  0.248862  0.997635  1
  Ru  Ru10  1  0.602827  0.925879  0.784070  1
  Ru  Ru11  1  0.178929  0.426594  0.781382  1
  Ru  Ru12  1  0.399237  0.073480  0.216539  1
  Rh  Rh13  1  0.816735  0.573668  0.218829  1
