# generated using pymatgen
data_Tm4TcB12Ru
_symmetry_space_group_name_H-M   'P 1'
_cell_length_a   3.62864800
_cell_length_b   9.07928734
_cell_length_c   11.45063997
_cell_angle_alpha   89.86466933
_cell_angle_beta   90.00000000
_cell_angle_gamma   90.00000000
_symmetry_Int_Tables_number   1
_chemical_formula_structural   Tm4TcB12Ru
_chemical_formula_sum   'Tm8 Tc2 B24 Ru2'
_cell_volume   377.24644035
_cell_formula_units_Z   2
loop_
 _symmetry_equiv_pos_site_id
 _symmetry_equiv_pos_as_xyz
  1  'x, y, z'
loop_
 _atom_site_type_symbol
 _atom_site_label
 _atom_site_symmetry_multiplicity
 _atom_site_fract_x
 _atom_site_fract_y
 _atom_site_fract_z
 _atom_site_occupancy
  Tm  Tm0  1  0.000000  0.324551  0.415602  1
  Tm  Tm1  1  0.000000  0.675449  0.584398  1
  Tm  Tm2  1  0.000000  0.820782  0.087407  1
  Tm  Tm3  1  0.000000  0.179218  0.912593  1
  Tm  Tm4  1  0.000000  0.942346  0.370825  1
  Tm  Tm5  1  0.000000  0.057654  0.629175  1
  Tm  Tm6  1  0.000000  0.443142  0.129787  1
  Tm  Tm7  1  0.000000  0.556858  0.870213  1
  Tc  Tc8  1  0.000000  0.638647  0.319978  1
  Tc  Tc9  1  0.000000  0.361353  0.680022  1
  B  B10  1  0.500000  0.553071  0.433357  1
  B  B11  1  0.500000  0.446929  0.566643  1
  B  B12  1  0.500000  0.053709  0.066491  1
  B  B13  1  0.500000  0.946291  0.933509  1
  B  B14  1  0.500000  0.749204  0.419558  1
  B  B15  1  0.500000  0.250796  0.580442  1
  B  B16  1  0.500000  0.249124  0.080599  1
  B  B17  1  0.500000  0.750876  0.919401  1
  B  B18  1  0.500000  0.792239  0.264772  1
  B  B19  1  0.500000  0.207761  0.735228  1
  B  B20  1  0.500000  0.291275  0.234655  1
  B  B21  1  0.500000  0.708725  0.765345  1
  B  B22  1  0.500000  0.630978  0.184489  1
  B  B23  1  0.500000  0.369022  0.815511  1
  B  B24  1  0.500000  0.130745  0.314763  1
  B  B25  1  0.500000  0.869255  0.685237  1
  B  B26  1  0.500000  0.982294  0.211885  1
  B  B27  1  0.500000  0.017706  0.788115  1
  B  B28  1  0.500000  0.481707  0.287604  1
  B  B29  1  0.500000  0.518293  0.712396  1
  B  B30  1  0.500000  0.602988  0.028267  1
  B  B31  1  0.500000  0.397012  0.971733  1
  B  B32  1  0.500000  0.103136  0.471215  1
  B  B33  1  0.500000  0.896864  0.528785  1
  Ru  Ru34  1  0.000000  0.137855  0.178718  1
  Ru  Ru35  1  0.000000  0.862145  0.821282  1
