# generated using pymatgen
data_Zr10Cu2HgBi5
_symmetry_space_group_name_H-M   'P 1'
_cell_length_a   8.80609500
_cell_length_b   8.80448884
_cell_length_c   5.93245000
_cell_angle_alpha   90.00000000
_cell_angle_beta   90.00000000
_cell_angle_gamma   120.00603851
_symmetry_Int_Tables_number   1
_chemical_formula_structural   Zr10Cu2HgBi5
_chemical_formula_sum   'Zr10 Cu2 Hg1 Bi5'
_cell_volume   398.31421224
_cell_formula_units_Z   1
loop_
 _symmetry_equiv_pos_site_id
 _symmetry_equiv_pos_as_xyz
  1  'x, y, z'
loop_
 _atom_site_type_symbol
 _atom_site_label
 _atom_site_symmetry_multiplicity
 _atom_site_fract_x
 _atom_site_fract_y
 _atom_site_fract_z
 _atom_site_occupancy
  Zr  Zr0  1  0.736407  0.000000  0.250000  1
  Zr  Zr1  1  0.006934  0.744413  0.250000  1
  Zr  Zr2  1  0.262521  0.255587  0.250000  1
  Zr  Zr3  1  0.258681  0.000000  0.750000  1
  Zr  Zr4  1  0.999344  0.259300  0.750000  1
  Zr  Zr5  1  0.740044  0.740700  0.750000  1
  Zr  Zr6  1  0.332840  0.667829  0.498086  1
  Zr  Zr7  1  0.665012  0.332171  0.498086  1
  Zr  Zr8  1  0.665012  0.332171  0.001914  1
  Zr  Zr9  1  0.332840  0.667829  0.001914  1
  Cu  Cu10  1  0.000892  0.000000  0.498041  1
  Cu  Cu11  1  0.000892  0.000000  0.001959  1
  Hg  Hg12  1  0.387118  0.000000  0.250000  1
  Bi  Bi13  1  0.000755  0.384799  0.250000  1
  Bi  Bi14  1  0.615956  0.615201  0.250000  1
  Bi  Bi15  1  0.609922  0.000000  0.750000  1
  Bi  Bi16  1  0.999679  0.614529  0.750000  1
  Bi  Bi17  1  0.385150  0.385471  0.750000  1
