# generated using pymatgen
data_Yb3CeRu8
_symmetry_space_group_name_H-M   'P 1'
_cell_length_a   5.25487001
_cell_length_b   5.25487005
_cell_length_c   8.85437000
_cell_angle_alpha   90.00162317
_cell_angle_beta   89.99837780
_cell_angle_gamma   119.94932085
_symmetry_Int_Tables_number   1
_chemical_formula_structural   Yb3CeRu8
_chemical_formula_sum   'Yb3 Ce1 Ru8'
_cell_volume   211.85260708
_cell_formula_units_Z   1
loop_
 _symmetry_equiv_pos_site_id
 _symmetry_equiv_pos_as_xyz
  1  'x, y, z'
loop_
 _atom_site_type_symbol
 _atom_site_label
 _atom_site_symmetry_multiplicity
 _atom_site_fract_x
 _atom_site_fract_y
 _atom_site_fract_z
 _atom_site_occupancy
  Yb  Yb0  1  0.333349  0.666651  0.430635  1
  Yb  Yb1  1  0.333353  0.666647  0.065657  1
  Yb  Yb2  1  0.666673  0.333327  0.936859  1
  Ce  Ce3  1  0.666683  0.333317  0.569966  1
  Ru  Ru4  1  0.000024  0.999976  0.498554  1
  Ru  Ru5  1  0.000041  0.999959  0.998410  1
  Ru  Ru6  1  0.171701  0.343444  0.751020  1
  Ru  Ru7  1  0.171727  0.828273  0.751058  1
  Ru  Ru8  1  0.656556  0.828299  0.751020  1
  Ru  Ru9  1  0.828765  0.657335  0.248955  1
  Ru  Ru10  1  0.828463  0.171537  0.248910  1
  Ru  Ru11  1  0.342665  0.171235  0.248955  1
