# generated using pymatgen
data_Tb4Tm6Ga3Si5
_symmetry_space_group_name_H-M   'P 1'
_cell_length_a   7.39444875
_cell_length_b   7.69108529
_cell_length_c   14.69679747
_cell_angle_alpha   89.98645990
_cell_angle_beta   89.78845296
_cell_angle_gamma   89.88812393
_symmetry_Int_Tables_number   1
_chemical_formula_structural   Tb4Tm6Ga3Si5
_chemical_formula_sum   'Tb8 Tm12 Ga6 Si10'
_cell_volume   835.81919537
_cell_formula_units_Z   2
loop_
 _symmetry_equiv_pos_site_id
 _symmetry_equiv_pos_as_xyz
  1  'x, y, z'
loop_
 _atom_site_type_symbol
 _atom_site_label
 _atom_site_symmetry_multiplicity
 _atom_site_fract_x
 _atom_site_fract_y
 _atom_site_fract_z
 _atom_site_occupancy
  Tb  Tb0  1  0.016926  0.176667  0.098673  1
  Tb  Tb1  1  0.983074  0.823333  0.901327  1
  Tb  Tb2  1  0.484093  0.681252  0.901239  1
  Tb  Tb3  1  0.986452  0.822861  0.600904  1
  Tb  Tb4  1  0.515907  0.318748  0.098761  1
  Tb  Tb5  1  0.013548  0.177139  0.399096  1
  Tb  Tb6  1  0.513630  0.322103  0.399007  1
  Tb  Tb7  1  0.486370  0.677897  0.600993  1
  Tm  Tm8  1  0.162660  0.507309  0.750032  1
  Tm  Tm9  1  0.837340  0.492691  0.249968  1
  Tm  Tm10  1  0.336871  0.007148  0.250051  1
  Tm  Tm11  1  0.663129  0.992852  0.749949  1
  Tm  Tm12  1  0.329582  0.174364  0.625134  1
  Tm  Tm13  1  0.670418  0.825636  0.374866  1
  Tm  Tm14  1  0.170399  0.674288  0.374909  1
  Tm  Tm15  1  0.670647  0.823168  0.124082  1
  Tm  Tm16  1  0.829601  0.325712  0.625091  1
  Tm  Tm17  1  0.329353  0.176832  0.875918  1
  Tm  Tm18  1  0.825451  0.323395  0.877067  1
  Tm  Tm19  1  0.174549  0.676605  0.122933  1
  Ga  Ga20  1  0.160221  0.466439  0.539606  1
  Ga  Ga21  1  0.839779  0.533561  0.460394  1
  Ga  Ga22  1  0.339254  0.965683  0.460760  1
  Ga  Ga23  1  0.841198  0.534955  0.039349  1
  Ga  Ga24  1  0.660746  0.034317  0.539240  1
  Ga  Ga25  1  0.158802  0.465045  0.960651  1
  Si  Si26  1  0.032594  0.108303  0.751736  1
  Si  Si27  1  0.967406  0.891697  0.248264  1
  Si  Si28  1  0.466802  0.607785  0.248800  1
  Si  Si29  1  0.533198  0.392215  0.751200  1
  Si  Si30  1  0.279998  0.874413  0.752240  1
  Si  Si31  1  0.720002  0.125587  0.247760  1
  Si  Si32  1  0.218803  0.372656  0.248187  1
  Si  Si33  1  0.781197  0.627344  0.751813  1
  Si  Si34  1  0.652596  0.032674  0.962253  1
  Si  Si35  1  0.347404  0.967326  0.037747  1
