# generated using pymatgen
data_Hf4Ga3ReC
_symmetry_space_group_name_H-M   'P 1'
_cell_length_a   7.89795400
_cell_length_b   7.89795504
_cell_length_c   5.51546600
_cell_angle_alpha   90.00000000
_cell_angle_beta   90.00000000
_cell_angle_gamma   119.99999565
_symmetry_Int_Tables_number   1
_chemical_formula_structural   Hf4Ga3ReC
_chemical_formula_sum   'Hf8 Ga6 Re2 C2'
_cell_volume   297.94912846
_cell_formula_units_Z   2
loop_
 _symmetry_equiv_pos_site_id
 _symmetry_equiv_pos_as_xyz
  1  'x, y, z'
loop_
 _atom_site_type_symbol
 _atom_site_label
 _atom_site_symmetry_multiplicity
 _atom_site_fract_x
 _atom_site_fract_y
 _atom_site_fract_z
 _atom_site_occupancy
  Hf  Hf0  1  0.230514  0.000000  0.250323  1
  Hf  Hf1  1  0.769486  0.000000  0.749677  1
  Hf  Hf2  1  0.000000  0.230514  0.250323  1
  Hf  Hf3  1  0.000000  0.769486  0.749677  1
  Hf  Hf4  1  0.769486  0.769486  0.250323  1
  Hf  Hf5  1  0.230514  0.230514  0.749677  1
  Hf  Hf6  1  0.666667  0.333333  0.500000  1
  Hf  Hf7  1  0.333333  0.666667  0.500000  1
  Ga  Ga8  1  0.591888  0.000000  0.228353  1
  Ga  Ga9  1  0.408112  0.000000  0.771647  1
  Ga  Ga10  1  0.000000  0.591888  0.228353  1
  Ga  Ga11  1  0.000000  0.408112  0.771647  1
  Ga  Ga12  1  0.408112  0.408112  0.228353  1
  Ga  Ga13  1  0.591888  0.591888  0.771647  1
  Re  Re14  1  0.333333  0.666667  0.000000  1
  Re  Re15  1  0.666667  0.333333  0.000000  1
  C  C16  1  0.000000  0.000000  0.000000  1
  C  C17  1  0.000000  0.000000  0.500000  1
