# generated using pymatgen
data_Ca3SiAsRh2
_symmetry_space_group_name_H-M   'P 1'
_cell_length_a   5.70083200
_cell_length_b   7.67613000
_cell_length_c   13.64206300
_cell_angle_alpha   90.00000000
_cell_angle_beta   90.00000000
_cell_angle_gamma   90.00000000
_symmetry_Int_Tables_number   1
_chemical_formula_structural   Ca3SiAsRh2
_chemical_formula_sum   'Ca12 Si4 As4 Rh8'
_cell_volume   596.98114520
_cell_formula_units_Z   4
loop_
 _symmetry_equiv_pos_site_id
 _symmetry_equiv_pos_as_xyz
  1  'x, y, z'
loop_
 _atom_site_type_symbol
 _atom_site_label
 _atom_site_symmetry_multiplicity
 _atom_site_fract_x
 _atom_site_fract_y
 _atom_site_fract_z
 _atom_site_occupancy
  Ca  Ca0  1  0.131788  0.609872  0.102708  1
  Ca  Ca1  1  0.131788  0.890128  0.897292  1
  Ca  Ca2  1  0.868212  0.109872  0.397292  1
  Ca  Ca3  1  0.868212  0.390128  0.602708  1
  Ca  Ca4  1  0.868212  0.390128  0.897292  1
  Ca  Ca5  1  0.868212  0.109872  0.102708  1
  Ca  Ca6  1  0.131788  0.890128  0.602708  1
  Ca  Ca7  1  0.131788  0.609872  0.397292  1
  Ca  Ca8  1  0.367725  0.257035  0.250000  1
  Ca  Ca9  1  0.367725  0.242965  0.750000  1
  Ca  Ca10  1  0.632275  0.757035  0.250000  1
  Ca  Ca11  1  0.632275  0.742965  0.750000  1
  Si  Si12  1  0.406978  0.250000  0.000000  1
  Si  Si13  1  0.593022  0.750000  0.500000  1
  Si  Si14  1  0.593022  0.750000  0.000000  1
  Si  Si15  1  0.406978  0.250000  0.500000  1
  As  As16  1  0.852927  0.403274  0.250000  1
  As  As17  1  0.852927  0.096726  0.750000  1
  As  As18  1  0.147073  0.903274  0.250000  1
  As  As19  1  0.147073  0.596726  0.750000  1
  Rh  Rh20  1  0.626965  0.477216  0.086677  1
  Rh  Rh21  1  0.626965  0.022784  0.913323  1
  Rh  Rh22  1  0.373035  0.977216  0.413323  1
  Rh  Rh23  1  0.373035  0.522784  0.586677  1
  Rh  Rh24  1  0.373035  0.522784  0.913323  1
  Rh  Rh25  1  0.373035  0.977216  0.086677  1
  Rh  Rh26  1  0.626965  0.022784  0.586677  1
  Rh  Rh27  1  0.626965  0.477216  0.413323  1
