# generated using pymatgen
data_Tb3Pr5(Lu3Si4)4
_symmetry_space_group_name_H-M   'P 1'
_cell_length_a   7.36246194
_cell_length_b   7.66395248
_cell_length_c   14.53479876
_cell_angle_alpha   90.09690953
_cell_angle_beta   90.06803636
_cell_angle_gamma   90.09692245
_symmetry_Int_Tables_number   1
_chemical_formula_structural   Tb3Pr5(Lu3Si4)4
_chemical_formula_sum   'Tb3 Pr5 Lu12 Si16'
_cell_volume   820.13120960
_cell_formula_units_Z   1
loop_
 _symmetry_equiv_pos_site_id
 _symmetry_equiv_pos_as_xyz
  1  'x, y, z'
loop_
 _atom_site_type_symbol
 _atom_site_label
 _atom_site_symmetry_multiplicity
 _atom_site_fract_x
 _atom_site_fract_y
 _atom_site_fract_z
 _atom_site_occupancy
  Tb  Tb0  1  0.014999  0.177516  0.400404  1
  Tb  Tb1  1  0.515096  0.322675  0.400481  1
  Tb  Tb2  1  0.485677  0.676483  0.900527  1
  Pr  Pr3  1  0.485490  0.673751  0.595795  1
  Pr  Pr4  1  0.985584  0.825659  0.597090  1
  Pr  Pr5  1  0.985845  0.824973  0.901925  1
  Pr  Pr6  1  0.513208  0.325798  0.097651  1
  Pr  Pr7  1  0.014919  0.174122  0.097939  1
  Lu  Lu8  1  0.328648  0.177621  0.623635  1
  Lu  Lu9  1  0.671746  0.823683  0.376651  1
  Lu  Lu10  1  0.660878  0.992749  0.750553  1
  Lu  Lu11  1  0.171552  0.676663  0.376704  1
  Lu  Lu12  1  0.827706  0.324426  0.876989  1
  Lu  Lu13  1  0.828180  0.322375  0.623477  1
  Lu  Lu14  1  0.838961  0.492271  0.251140  1
  Lu  Lu15  1  0.338814  0.007928  0.250966  1
  Lu  Lu16  1  0.329059  0.177297  0.876341  1
  Lu  Lu17  1  0.172513  0.676542  0.124439  1
  Lu  Lu18  1  0.671244  0.822148  0.124669  1
  Lu  Lu19  1  0.161463  0.507593  0.750224  1
  Si  Si20  1  0.285356  0.876601  0.751138  1
  Si  Si21  1  0.466580  0.616131  0.251326  1
  Si  Si22  1  0.034004  0.119922  0.749888  1
  Si  Si23  1  0.533979  0.383989  0.750579  1
  Si  Si24  1  0.152060  0.461659  0.537459  1
  Si  Si25  1  0.966571  0.883476  0.251164  1
  Si  Si26  1  0.717686  0.124391  0.253359  1
  Si  Si27  1  0.846029  0.534987  0.039299  1
  Si  Si28  1  0.348103  0.961819  0.037845  1
  Si  Si29  1  0.158291  0.467991  0.960197  1
  Si  Si30  1  0.652890  0.038271  0.537292  1
  Si  Si31  1  0.343758  0.971356  0.458954  1
  Si  Si32  1  0.843750  0.528798  0.458825  1
  Si  Si33  1  0.779868  0.621889  0.751577  1
  Si  Si34  1  0.217586  0.375399  0.253261  1
  Si  Si35  1  0.651906  0.031052  0.960237  1
