# generated using pymatgen
data_Sr10Sb6BrCl
_symmetry_space_group_name_H-M   'P 1'
_cell_length_a   9.66512700
_cell_length_b   9.66512767
_cell_length_c   7.56543200
_cell_angle_alpha   90.00000000
_cell_angle_beta   90.00000000
_cell_angle_gamma   120.00000112
_symmetry_Int_Tables_number   1
_chemical_formula_structural   Sr10Sb6BrCl
_chemical_formula_sum   'Sr10 Sb6 Br1 Cl1'
_cell_volume   612.03959505
_cell_formula_units_Z   1
loop_
 _symmetry_equiv_pos_site_id
 _symmetry_equiv_pos_as_xyz
  1  'x, y, z'
loop_
 _atom_site_type_symbol
 _atom_site_label
 _atom_site_symmetry_multiplicity
 _atom_site_fract_x
 _atom_site_fract_y
 _atom_site_fract_z
 _atom_site_occupancy
  Sr  Sr0  1  0.260422  0.000000  0.241804  1
  Sr  Sr1  1  0.000000  0.739578  0.758196  1
  Sr  Sr2  1  0.739578  0.739578  0.241804  1
  Sr  Sr3  1  0.260422  0.260422  0.758196  1
  Sr  Sr4  1  0.739578  0.000000  0.758196  1
  Sr  Sr5  1  0.000000  0.260422  0.241804  1
  Sr  Sr6  1  0.666667  0.333333  0.500000  1
  Sr  Sr7  1  0.333333  0.666667  0.000000  1
  Sr  Sr8  1  0.333333  0.666667  0.500000  1
  Sr  Sr9  1  0.666667  0.333333  0.000000  1
  Sb  Sb10  1  0.608401  0.608401  0.750615  1
  Sb  Sb11  1  0.000000  0.608401  0.249385  1
  Sb  Sb12  1  0.608401  0.000000  0.249385  1
  Sb  Sb13  1  0.391599  0.000000  0.750615  1
  Sb  Sb14  1  0.000000  0.391599  0.750615  1
  Sb  Sb15  1  0.391599  0.391599  0.249385  1
  Br  Br16  1  0.000000  0.000000  0.500000  1
  Cl  Cl17  1  0.000000  0.000000  0.000000  1
