# generated using pymatgen
data_Na5Y(MoH9)3
_symmetry_space_group_name_H-M   'P 1'
_cell_length_a   9.26009600
_cell_length_b   9.11946540
_cell_length_c   5.34289300
_cell_angle_alpha   90.00000000
_cell_angle_beta   90.00000000
_cell_angle_gamma   119.49889831
_symmetry_Int_Tables_number   1
_chemical_formula_structural   Na5Y(MoH9)3
_chemical_formula_sum   'Na5 Y1 Mo3 H27'
_cell_volume   392.70175861
_cell_formula_units_Z   1
loop_
 _symmetry_equiv_pos_site_id
 _symmetry_equiv_pos_as_xyz
  1  'x, y, z'
loop_
 _atom_site_type_symbol
 _atom_site_label
 _atom_site_symmetry_multiplicity
 _atom_site_fract_x
 _atom_site_fract_y
 _atom_site_fract_z
 _atom_site_occupancy
  Na  Na0  1  0.720425  0.734892  0.500000  1
  Na  Na1  1  0.279575  0.014465  0.500000  1
  Na  Na2  1  0.000000  0.601458  0.000000  1
  Na  Na3  1  0.345289  0.429635  0.000000  1
  Na  Na4  1  0.654711  0.084346  0.000000  1
  Y  Y5  1  0.000000  0.243906  0.500000  1
  Mo  Mo6  1  0.709955  0.330232  0.500000  1
  Mo  Mo7  1  0.290045  0.620278  0.500000  1
  Mo  Mo8  1  0.000000  0.021296  0.000000  1
  H  H9  1  0.844849  0.334139  0.744942  1
  H  H10  1  0.710191  0.462550  0.735069  1
  H  H11  1  0.548948  0.195689  0.703892  1
  H  H12  1  0.155151  0.489290  0.255058  1
  H  H13  1  0.548948  0.195689  0.296108  1
  H  H14  1  0.844849  0.334139  0.255058  1
  H  H15  1  0.710191  0.462550  0.264931  1
  H  H16  1  0.289809  0.752360  0.735069  1
  H  H17  1  0.451052  0.646742  0.703892  1
  H  H18  1  0.183009  0.016582  0.000000  1
  H  H19  1  0.816991  0.833573  0.000000  1
  H  H20  1  0.000000  0.217211  0.000000  1
  H  H21  1  0.862645  0.012461  0.243892  1
  H  H22  1  0.137355  0.149817  0.756108  1
  H  H23  1  0.000000  0.877288  0.782569  1
  H  H24  1  0.000000  0.877288  0.217431  1
  H  H25  1  0.137355  0.149817  0.243892  1
  H  H26  1  0.862645  0.012461  0.756108  1
  H  H27  1  0.146570  0.694506  0.500000  1
  H  H28  1  0.445122  0.827519  0.500000  1
  H  H29  1  0.288588  0.423842  0.500000  1
  H  H30  1  0.554878  0.382397  0.500000  1
  H  H31  1  0.853430  0.547937  0.500000  1
  H  H32  1  0.711412  0.135254  0.500000  1
  H  H33  1  0.155151  0.489290  0.744942  1
  H  H34  1  0.289809  0.752360  0.264931  1
  H  H35  1  0.451052  0.646742  0.296108  1
