# generated using pymatgen
data_Er4Si6PtRh
_symmetry_space_group_name_H-M   'P 1'
_cell_length_a   8.14615200
_cell_length_b   8.14615237
_cell_length_c   7.84683500
_cell_angle_alpha   90.00000000
_cell_angle_beta   90.00000000
_cell_angle_gamma   119.99999851
_symmetry_Int_Tables_number   1
_chemical_formula_structural   Er4Si6PtRh
_chemical_formula_sum   'Er8 Si12 Pt2 Rh2'
_cell_volume   450.95187515
_cell_formula_units_Z   2
loop_
 _symmetry_equiv_pos_site_id
 _symmetry_equiv_pos_as_xyz
  1  'x, y, z'
loop_
 _atom_site_type_symbol
 _atom_site_label
 _atom_site_symmetry_multiplicity
 _atom_site_fract_x
 _atom_site_fract_y
 _atom_site_fract_z
 _atom_site_occupancy
  Er  Er0  1  0.000000  0.000000  0.250000  1
  Er  Er1  1  0.000000  0.000000  0.750000  1
  Er  Er2  1  0.490579  0.509421  0.250000  1
  Er  Er3  1  0.490579  0.981157  0.250000  1
  Er  Er4  1  0.018843  0.509421  0.250000  1
  Er  Er5  1  0.507100  0.492900  0.750000  1
  Er  Er6  1  0.985800  0.492900  0.750000  1
  Er  Er7  1  0.507100  0.014200  0.750000  1
  Si  Si8  1  0.835971  0.164029  0.500108  1
  Si  Si9  1  0.835971  0.671943  0.500108  1
  Si  Si10  1  0.328057  0.164029  0.500108  1
  Si  Si11  1  0.835971  0.164029  0.999892  1
  Si  Si12  1  0.835971  0.671943  0.999892  1
  Si  Si13  1  0.328057  0.164029  0.999892  1
  Si  Si14  1  0.167825  0.832175  0.001231  1
  Si  Si15  1  0.664351  0.832175  0.001231  1
  Si  Si16  1  0.167825  0.335649  0.001231  1
  Si  Si17  1  0.167825  0.832175  0.498769  1
  Si  Si18  1  0.664351  0.832175  0.498769  1
  Si  Si19  1  0.167825  0.335649  0.498769  1
  Pt  Pt20  1  0.666667  0.333333  0.475449  1
  Pt  Pt21  1  0.666667  0.333333  0.024551  1
  Rh  Rh22  1  0.333333  0.666667  0.962636  1
  Rh  Rh23  1  0.333333  0.666667  0.537364  1
