# generated using pymatgen
data_Hf8Pd3RhN2
_symmetry_space_group_name_H-M   'P 1'
_cell_length_a   8.75221481
_cell_length_b   8.75221446
_cell_length_c   8.75141500
_cell_angle_alpha   60.00302537
_cell_angle_beta   60.00302670
_cell_angle_gamma   60.03695849
_symmetry_Int_Tables_number   1
_chemical_formula_structural   Hf8Pd3RhN2
_chemical_formula_sum   'Hf16 Pd6 Rh2 N4'
_cell_volume   474.17672379
_cell_formula_units_Z   2
loop_
 _symmetry_equiv_pos_site_id
 _symmetry_equiv_pos_as_xyz
  1  'x, y, z'
loop_
 _atom_site_type_symbol
 _atom_site_label
 _atom_site_symmetry_multiplicity
 _atom_site_fract_x
 _atom_site_fract_y
 _atom_site_fract_z
 _atom_site_occupancy
  Hf  Hf0  1  0.115953  0.630218  0.626914  1
  Hf  Hf1  1  0.630218  0.115953  0.626914  1
  Hf  Hf2  1  0.627729  0.627729  0.120492  1
  Hf  Hf3  1  0.627729  0.627729  0.624050  1
  Hf  Hf4  1  0.817927  0.817927  0.182073  1
  Hf  Hf5  1  0.181456  0.181456  0.818544  1
  Hf  Hf6  1  0.818177  0.178626  0.818451  1
  Hf  Hf7  1  0.178626  0.818177  0.184746  1
  Hf  Hf8  1  0.178626  0.818177  0.818451  1
  Hf  Hf9  1  0.818177  0.178626  0.184746  1
  Hf  Hf10  1  0.431797  0.431797  0.068203  1
  Hf  Hf11  1  0.067816  0.067816  0.432184  1
  Hf  Hf12  1  0.432233  0.068162  0.431824  1
  Hf  Hf13  1  0.068162  0.432233  0.067780  1
  Hf  Hf14  1  0.068162  0.432233  0.431824  1
  Hf  Hf15  1  0.432233  0.068162  0.067780  1
  Pd  Pd16  1  0.771440  0.409443  0.409559  1
  Pd  Pd17  1  0.409443  0.771440  0.409559  1
  Pd  Pd18  1  0.409848  0.409848  0.770499  1
  Pd  Pd19  1  0.409848  0.409848  0.409805  1
  Pd  Pd20  1  0.474373  0.841184  0.842222  1
  Pd  Pd21  1  0.841184  0.474373  0.842222  1
  Rh  Rh22  1  0.843762  0.843762  0.468774  1
  Rh  Rh23  1  0.843762  0.843762  0.843702  1
  N  N24  1  0.624617  0.125571  0.124906  1
  N  N25  1  0.125571  0.624617  0.124906  1
  N  N26  1  0.125565  0.125565  0.623984  1
  N  N27  1  0.125565  0.125565  0.124886  1
