# generated using pymatgen
data_Tb15DyCd4(CoRu)2
_symmetry_space_group_name_H-M   'P 1'
_cell_length_a   9.69563098
_cell_length_b   9.62713050
_cell_length_c   9.61123719
_cell_angle_alpha   59.37842870
_cell_angle_beta   59.48943243
_cell_angle_gamma   59.56106642
_symmetry_Int_Tables_number   1
_chemical_formula_structural   Tb15DyCd4(CoRu)2
_chemical_formula_sum   'Tb15 Dy1 Cd4 Co2 Ru2'
_cell_volume   626.80240100
_cell_formula_units_Z   1
loop_
 _symmetry_equiv_pos_site_id
 _symmetry_equiv_pos_as_xyz
  1  'x, y, z'
loop_
 _atom_site_type_symbol
 _atom_site_label
 _atom_site_symmetry_multiplicity
 _atom_site_fract_x
 _atom_site_fract_y
 _atom_site_fract_z
 _atom_site_occupancy
  Tb  Tb0  1  0.591184  0.598044  0.599444  1
  Tb  Tb1  1  0.186559  0.813756  0.813609  1
  Tb  Tb2  1  0.064970  0.057498  0.436232  1
  Tb  Tb3  1  0.438873  0.061272  0.060136  1
  Tb  Tb4  1  0.815134  0.187790  0.809239  1
  Tb  Tb5  1  0.439114  0.057675  0.436994  1
  Tb  Tb6  1  0.593554  0.210921  0.602815  1
  Tb  Tb7  1  0.814935  0.809111  0.187959  1
  Tb  Tb8  1  0.213131  0.598789  0.599645  1
  Tb  Tb9  1  0.808777  0.191212  0.191034  1
  Tb  Tb10  1  0.061342  0.438513  0.438138  1
  Tb  Tb11  1  0.188365  0.808966  0.188858  1
  Tb  Tb12  1  0.593869  0.602404  0.210273  1
  Tb  Tb13  1  0.188147  0.188777  0.809069  1
  Tb  Tb14  1  0.065744  0.436345  0.057192  1
  Dy  Dy15  1  0.438857  0.437230  0.057254  1
  Cd  Cd16  1  0.830268  0.829338  0.508350  1
  Cd  Cd17  1  0.830733  0.829797  0.829583  1
  Cd  Cd18  1  0.508072  0.829794  0.829921  1
  Cd  Cd19  1  0.830200  0.508305  0.829391  1
  Co  Co20  1  0.389279  0.830181  0.393615  1
  Co  Co21  1  0.389583  0.393371  0.830133  1
  Ru  Ru22  1  0.389099  0.390077  0.390101  1
  Ru  Ru23  1  0.830210  0.390832  0.391014  1
