# generated using pymatgen
data_Ho5Ni19
_symmetry_space_group_name_H-M   'P 1'
_cell_length_a   4.88637754
_cell_length_b   4.88637751
_cell_length_c   16.36640262
_cell_angle_alpha   81.41475195
_cell_angle_beta   81.41475261
_cell_angle_gamma   59.99999720
_symmetry_Int_Tables_number   1
_chemical_formula_structural   Ho5Ni19
_chemical_formula_sum   'Ho5 Ni19'
_cell_volume   333.35578297
_cell_formula_units_Z   1
loop_
 _symmetry_equiv_pos_site_id
 _symmetry_equiv_pos_as_xyz
  1  'x, y, z'
loop_
 _atom_site_type_symbol
 _atom_site_label
 _atom_site_symmetry_multiplicity
 _atom_site_fract_x
 _atom_site_fract_y
 _atom_site_fract_z
 _atom_site_occupancy
  Ho  Ho0  1  0.000000  0.000000  0.000000  1
  Ho  Ho1  1  0.921751  0.921751  0.234749  1
  Ho  Ho2  1  0.078249  0.078249  0.765251  1
  Ho  Ho3  1  0.848178  0.848178  0.455466  1
  Ho  Ho4  1  0.151822  0.151822  0.544534  1
  Ni  Ni5  1  0.500000  0.500000  0.500000  1
  Ni  Ni6  1  0.749478  0.749479  0.751566  1
  Ni  Ni7  1  0.250521  0.250521  0.248435  1
  Ni  Ni8  1  0.666741  0.666741  0.999778  1
  Ni  Ni9  1  0.333259  0.333259  0.000222  1
  Ni  Ni10  1  0.584032  0.584032  0.247906  1
  Ni  Ni11  1  0.415968  0.415968  0.752094  1
  Ni  Ni12  1  0.375706  0.375706  0.371715  1
  Ni  Ni13  1  0.876872  0.375706  0.371715  1
  Ni  Ni14  1  0.375706  0.876872  0.371715  1
  Ni  Ni15  1  0.624294  0.624294  0.628285  1
  Ni  Ni16  1  0.123128  0.624294  0.628285  1
  Ni  Ni17  1  0.624294  0.123128  0.628285  1
  Ni  Ni18  1  0.458968  0.458968  0.122932  1
  Ni  Ni19  1  0.959133  0.458968  0.122932  1
  Ni  Ni20  1  0.458968  0.959133  0.122932  1
  Ni  Ni21  1  0.541032  0.541032  0.877068  1
  Ni  Ni22  1  0.040867  0.541032  0.877068  1
  Ni  Ni23  1  0.541032  0.040867  0.877068  1
