# generated using pymatgen
data_SrY2Zn11
_symmetry_space_group_name_H-M   'P 1'
_cell_length_a   8.27961403
_cell_length_b   8.27961489
_cell_length_c   8.27961406
_cell_angle_alpha   148.73252664
_cell_angle_beta   115.50137089
_cell_angle_gamma   73.42403188
_symmetry_Int_Tables_number   1
_chemical_formula_structural   SrY2Zn11
_chemical_formula_sum   'Sr1 Y2 Zn11'
_cell_volume   261.71723803
_cell_formula_units_Z   1
loop_
 _symmetry_equiv_pos_site_id
 _symmetry_equiv_pos_as_xyz
  1  'x, y, z'
loop_
 _atom_site_type_symbol
 _atom_site_label
 _atom_site_symmetry_multiplicity
 _atom_site_fract_x
 _atom_site_fract_y
 _atom_site_fract_z
 _atom_site_occupancy
  Sr  Sr0  1  0.000000  0.000000  0.000000  1
  Y  Y1  1  0.301185  0.301185  0.000000  1
  Y  Y2  1  0.698815  0.698815  0.000000  1
  Zn  Zn3  1  0.500000  0.000000  0.500000  1
  Zn  Zn4  1  0.680949  0.500000  0.180949  1
  Zn  Zn5  1  0.319051  0.500000  0.819051  1
  Zn  Zn6  1  0.690851  0.335633  0.355219  1
  Zn  Zn7  1  0.309149  0.664367  0.644781  1
  Zn  Zn8  1  0.980414  0.335633  0.644781  1
  Zn  Zn9  1  0.019586  0.664367  0.355219  1
  Zn  Zn10  1  0.428479  0.139307  0.289172  1
  Zn  Zn11  1  0.571521  0.860693  0.710828  1
  Zn  Zn12  1  0.850136  0.139307  0.710828  1
  Zn  Zn13  1  0.149864  0.860693  0.289172  1
