# generated using pymatgen
data_Ca4ZnAgPb2
_symmetry_space_group_name_H-M   'P 1'
_cell_length_a   5.45436901
_cell_length_b   7.65487300
_cell_length_c   16.38077400
_cell_angle_alpha   89.99983533
_cell_angle_beta   90.00348752
_cell_angle_gamma   90.00154189
_symmetry_Int_Tables_number   1
_chemical_formula_structural   Ca4ZnAgPb2
_chemical_formula_sum   'Ca12 Zn3 Ag3 Pb6'
_cell_volume   683.93829903
_cell_formula_units_Z   3
loop_
 _symmetry_equiv_pos_site_id
 _symmetry_equiv_pos_as_xyz
  1  'x, y, z'
loop_
 _atom_site_type_symbol
 _atom_site_label
 _atom_site_symmetry_multiplicity
 _atom_site_fract_x
 _atom_site_fract_y
 _atom_site_fract_z
 _atom_site_occupancy
  Ca  Ca0  1  0.500058  0.248502  0.001816  1
  Ca  Ca1  1  0.499955  0.751524  0.001813  1
  Ca  Ca2  1  0.999935  0.249165  0.166678  1
  Ca  Ca3  1  0.999995  0.750825  0.166674  1
  Ca  Ca4  1  0.500041  0.248495  0.331535  1
  Ca  Ca5  1  0.499947  0.751490  0.331527  1
  Ca  Ca6  1  0.999984  0.249063  0.498393  1
  Ca  Ca7  1  0.999981  0.750938  0.498397  1
  Ca  Ca8  1  0.499995  0.248388  0.666666  1
  Ca  Ca9  1  0.499989  0.751601  0.666671  1
  Ca  Ca10  1  0.000037  0.249094  0.834941  1
  Ca  Ca11  1  0.000028  0.750908  0.834937  1
  Zn  Zn12  1  0.500003  0.499991  0.498181  1
  Zn  Zn13  1  0.000020  0.000018  0.666661  1
  Zn  Zn14  1  0.500066  0.499986  0.835170  1
  Ag  Ag15  1  0.000011  0.000005  0.001128  1
  Ag  Ag16  1  0.500021  0.499983  0.166683  1
  Ag  Ag17  1  0.999960  0.000009  0.332227  1
  Pb  Pb18  1  0.000097  0.499987  0.000364  1
  Pb  Pb19  1  0.499924  0.999983  0.166665  1
  Pb  Pb20  1  0.999956  0.500026  0.332923  1
  Pb  Pb21  1  0.499983  0.000020  0.498793  1
  Pb  Pb22  1  0.999969  0.499970  0.666652  1
  Pb  Pb23  1  0.500053  0.000030  0.834504  1
