# generated using pymatgen
data_Tb4Al5Tc2Mo
_symmetry_space_group_name_H-M   'P 1'
_cell_length_a   5.57049660
_cell_length_b   5.63118454
_cell_length_c   8.77913400
_cell_angle_alpha   90.00000000
_cell_angle_beta   90.00000000
_cell_angle_gamma   120.36104981
_symmetry_Int_Tables_number   1
_chemical_formula_structural   Tb4Al5Tc2Mo
_chemical_formula_sum   'Tb4 Al5 Tc2 Mo1'
_cell_volume   237.62078029
_cell_formula_units_Z   1
loop_
 _symmetry_equiv_pos_site_id
 _symmetry_equiv_pos_as_xyz
  1  'x, y, z'
loop_
 _atom_site_type_symbol
 _atom_site_label
 _atom_site_symmetry_multiplicity
 _atom_site_fract_x
 _atom_site_fract_y
 _atom_site_fract_z
 _atom_site_occupancy
  Tb  Tb0  1  0.337940  0.668970  0.443489  1
  Tb  Tb1  1  0.663920  0.331959  0.553775  1
  Tb  Tb2  1  0.663920  0.331959  0.946225  1
  Tb  Tb3  1  0.337940  0.668970  0.056511  1
  Al  Al4  1  0.837470  0.160357  0.250000  1
  Al  Al5  1  0.837470  0.677114  0.250000  1
  Al  Al6  1  0.321685  0.160842  0.250000  1
  Al  Al7  1  0.181801  0.844821  0.750000  1
  Al  Al8  1  0.181801  0.336980  0.750000  1
  Tc  Tc9  1  0.978281  0.989140  0.509509  1
  Tc  Tc10  1  0.978281  0.989140  0.990491  1
  Mo  Mo11  1  0.679493  0.839746  0.750000  1
