# generated using pymatgen
data_TmPa3(GaFe)4
_symmetry_space_group_name_H-M   'P 1'
_cell_length_a   4.28229900
_cell_length_b   6.65573600
_cell_length_c   7.38710069
_cell_angle_alpha   89.27081768
_cell_angle_beta   90.00000000
_cell_angle_gamma   90.00000000
_symmetry_Int_Tables_number   1
_chemical_formula_structural   TmPa3(GaFe)4
_chemical_formula_sum   'Tm1 Pa3 Ga4 Fe4'
_cell_volume   210.52899726
_cell_formula_units_Z   1
loop_
 _symmetry_equiv_pos_site_id
 _symmetry_equiv_pos_as_xyz
  1  'x, y, z'
loop_
 _atom_site_type_symbol
 _atom_site_label
 _atom_site_symmetry_multiplicity
 _atom_site_fract_x
 _atom_site_fract_y
 _atom_site_fract_z
 _atom_site_occupancy
  Tm  Tm0  1  0.750000  0.540075  0.809430  1
  Pa  Pa1  1  0.250000  0.948329  0.320786  1
  Pa  Pa2  1  0.250000  0.462017  0.161028  1
  Pa  Pa3  1  0.750000  0.045175  0.671277  1
  Ga  Ga4  1  0.250000  0.372088  0.575823  1
  Ga  Ga5  1  0.250000  0.851733  0.917223  1
  Ga  Ga6  1  0.750000  0.628582  0.428013  1
  Ga  Ga7  1  0.750000  0.138632  0.074625  1
  Fe  Fe8  1  0.250000  0.257754  0.927786  1
  Fe  Fe9  1  0.250000  0.772185  0.576064  1
  Fe  Fe10  1  0.750000  0.751967  0.112140  1
  Fe  Fe11  1  0.750000  0.231465  0.425805  1
