# generated using pymatgen
data_SrHo3Pt2(RhO7)2
_symmetry_space_group_name_H-M   'P 1'
_cell_length_a   7.28713308
_cell_length_b   7.29513373
_cell_length_c   7.29513375
_cell_angle_alpha   59.81868769
_cell_angle_beta   59.85786955
_cell_angle_gamma   59.85786514
_symmetry_Int_Tables_number   1
_chemical_formula_structural   SrHo3Pt2(RhO7)2
_chemical_formula_sum   'Sr1 Ho3 Pt2 Rh2 O14'
_cell_volume   273.25982641
_cell_formula_units_Z   1
loop_
 _symmetry_equiv_pos_site_id
 _symmetry_equiv_pos_as_xyz
  1  'x, y, z'
loop_
 _atom_site_type_symbol
 _atom_site_label
 _atom_site_symmetry_multiplicity
 _atom_site_fract_x
 _atom_site_fract_y
 _atom_site_fract_z
 _atom_site_occupancy
  Sr  Sr0  1  0.625000  0.625000  0.625000  1
  Ho  Ho1  1  0.625000  0.625000  0.125000  1
  Ho  Ho2  1  0.625000  0.125000  0.625000  1
  Ho  Ho3  1  0.125000  0.625000  0.625000  1
  Pt  Pt4  1  0.125000  0.125000  0.125000  1
  Pt  Pt5  1  0.625000  0.125000  0.125000  1
  Rh  Rh6  1  0.125000  0.625000  0.125000  1
  Rh  Rh7  1  0.125000  0.125000  0.625000  1
  O  O8  1  0.060637  0.453237  0.453237  1
  O  O9  1  0.792975  0.791775  0.192984  1
  O  O10  1  0.786935  0.213820  0.213820  1
  O  O11  1  0.457025  0.057016  0.458225  1
  O  O12  1  0.758382  0.757226  0.757226  1
  O  O13  1  0.038235  0.039209  0.460257  1
  O  O14  1  0.038235  0.460257  0.039209  1
  O  O15  1  0.792975  0.192984  0.791775  1
  O  O16  1  0.211765  0.789743  0.210791  1
  O  O17  1  0.211765  0.210791  0.789743  1
  O  O18  1  0.491618  0.492774  0.492774  1
  O  O19  1  0.463065  0.036180  0.036180  1
  O  O20  1  0.457025  0.458225  0.057016  1
  O  O21  1  0.189363  0.796763  0.796763  1
