# generated using pymatgen
data_Pr5DyAl24Os5Rh3
_symmetry_space_group_name_H-M   'P 1'
_cell_length_a   8.89619607
_cell_length_b   8.87934095
_cell_length_c   9.69552335
_cell_angle_alpha   90.11344121
_cell_angle_beta   89.98124037
_cell_angle_gamma   119.55234602
_symmetry_Int_Tables_number   1
_chemical_formula_structural   Pr5DyAl24Os5Rh3
_chemical_formula_sum   'Pr5 Dy1 Al24 Os5 Rh3'
_cell_volume   666.23495458
_cell_formula_units_Z   1
loop_
 _symmetry_equiv_pos_site_id
 _symmetry_equiv_pos_as_xyz
  1  'x, y, z'
loop_
 _atom_site_type_symbol
 _atom_site_label
 _atom_site_symmetry_multiplicity
 _atom_site_fract_x
 _atom_site_fract_y
 _atom_site_fract_z
 _atom_site_occupancy
  Pr  Pr0  1  0.185693  0.382270  0.251182  1
  Pr  Pr1  1  0.814192  0.617382  0.748862  1
  Pr  Pr2  1  0.619584  0.813580  0.250590  1
  Pr  Pr3  1  0.380475  0.186332  0.749642  1
  Pr  Pr4  1  0.190119  0.806123  0.250466  1
  Dy  Dy5  1  0.808346  0.196906  0.748685  1
  Al  Al6  1  0.332142  0.665341  0.015914  1
  Al  Al7  1  0.668358  0.332910  0.979624  1
  Al  Al8  1  0.667745  0.331606  0.519339  1
  Al  Al9  1  0.333222  0.667620  0.484766  1
  Al  Al10  1  0.160732  0.326104  0.576368  1
  Al  Al11  1  0.837190  0.672235  0.425888  1
  Al  Al12  1  0.674654  0.840499  0.576494  1
  Al  Al13  1  0.837381  0.672225  0.074009  1
  Al  Al14  1  0.327214  0.161876  0.425957  1
  Al  Al15  1  0.160045  0.325738  0.923696  1
  Al  Al16  1  0.165448  0.836283  0.574801  1
  Al  Al17  1  0.326894  0.164195  0.075191  1
  Al  Al18  1  0.834828  0.163760  0.428785  1
  Al  Al19  1  0.674719  0.838263  0.922646  1
  Al  Al20  1  0.837446  0.166201  0.071922  1
  Al  Al21  1  0.162215  0.833342  0.924131  1
  Al  Al22  1  0.562282  0.126658  0.250618  1
  Al  Al23  1  0.441491  0.876231  0.749902  1
  Al  Al24  1  0.871571  0.436870  0.249444  1
  Al  Al25  1  0.125957  0.559758  0.750441  1
  Al  Al26  1  0.561745  0.437618  0.249701  1
  Al  Al27  1  0.438408  0.562262  0.750441  1
  Al  Al28  1  0.998503  0.000601  0.250113  1
  Al  Al29  1  0.998857  0.001949  0.749917  1
  Os  Os30  1  0.999043  0.498250  0.998685  1
  Os  Os31  1  0.501576  0.000776  0.501325  1
  Os  Os32  1  0.999334  0.498490  0.501280  1
  Os  Os33  1  0.999948  0.999837  0.999712  1
  Os  Os34  1  0.000157  0.999952  0.500477  1
  Rh  Rh35  1  0.501673  0.000580  0.998862  1
  Rh  Rh36  1  0.500448  0.499662  0.999599  1
  Rh  Rh37  1  0.500365  0.499713  0.500526  1
