# generated using pymatgen
data_Hf4ReTe4
_symmetry_space_group_name_H-M   'P 1'
_cell_length_a   5.35524100
_cell_length_b   11.37616200
_cell_length_c   20.39229100
_cell_angle_alpha   90.00000000
_cell_angle_beta   90.00000000
_cell_angle_gamma   90.00000000
_symmetry_Int_Tables_number   1
_chemical_formula_structural   Hf4ReTe4
_chemical_formula_sum   'Hf16 Re4 Te16'
_cell_volume   1242.34097058
_cell_formula_units_Z   4
loop_
 _symmetry_equiv_pos_site_id
 _symmetry_equiv_pos_as_xyz
  1  'x, y, z'
loop_
 _atom_site_type_symbol
 _atom_site_label
 _atom_site_symmetry_multiplicity
 _atom_site_fract_x
 _atom_site_fract_y
 _atom_site_fract_z
 _atom_site_occupancy
  Hf  Hf0  1  0.500000  0.567024  0.383843  1
  Hf  Hf1  1  0.500000  0.432976  0.616157  1
  Hf  Hf2  1  0.500000  0.067024  0.116157  1
  Hf  Hf3  1  0.500000  0.932976  0.883843  1
  Hf  Hf4  1  0.500000  0.707773  0.537721  1
  Hf  Hf5  1  0.500000  0.292227  0.462279  1
  Hf  Hf6  1  0.500000  0.207773  0.962279  1
  Hf  Hf7  1  0.500000  0.792227  0.037721  1
  Hf  Hf8  1  0.000000  0.694274  0.444582  1
  Hf  Hf9  1  0.000000  0.305726  0.555418  1
  Hf  Hf10  1  0.000000  0.194274  0.055418  1
  Hf  Hf11  1  0.000000  0.805726  0.944582  1
  Hf  Hf12  1  0.000000  0.401342  0.391355  1
  Hf  Hf13  1  0.000000  0.598658  0.608645  1
  Hf  Hf14  1  0.000000  0.901342  0.108645  1
  Hf  Hf15  1  0.000000  0.098658  0.891355  1
  Re  Re16  1  0.250449  0.500000  0.500000  1
  Re  Re17  1  0.749551  0.000000  0.000000  1
  Re  Re18  1  0.749551  0.500000  0.500000  1
  Re  Re19  1  0.250449  0.000000  0.000000  1
  Te  Te20  1  0.000000  0.840874  0.562095  1
  Te  Te21  1  0.000000  0.159126  0.437905  1
  Te  Te22  1  0.000000  0.340874  0.937905  1
  Te  Te23  1  0.000000  0.659126  0.062095  1
  Te  Te24  1  0.500000  0.336110  0.321398  1
  Te  Te25  1  0.500000  0.663890  0.678602  1
  Te  Te26  1  0.500000  0.836110  0.178602  1
  Te  Te27  1  0.500000  0.163890  0.821398  1
  Te  Te28  1  0.500000  0.819611  0.408966  1
  Te  Te29  1  0.500000  0.180389  0.591034  1
  Te  Te30  1  0.500000  0.319611  0.091034  1
  Te  Te31  1  0.500000  0.680389  0.908966  1
  Te  Te32  1  0.000000  0.611393  0.309167  1
  Te  Te33  1  0.000000  0.388607  0.690833  1
  Te  Te34  1  0.000000  0.111393  0.190833  1
  Te  Te35  1  0.000000  0.888607  0.809167  1
