# generated using pymatgen
data_Zr6Sc8Al8Ru4Rh3
_symmetry_space_group_name_H-M   'P 1'
_cell_length_a   9.11101660
_cell_length_b   9.09632853
_cell_length_c   9.09632788
_cell_angle_alpha   60.10685803
_cell_angle_beta   59.94657321
_cell_angle_gamma   59.94657899
_symmetry_Int_Tables_number   1
_chemical_formula_structural   Zr6Sc8Al8Ru4Rh3
_chemical_formula_sum   'Zr6 Sc8 Al8 Ru4 Rh3'
_cell_volume   533.06706213
_cell_formula_units_Z   1
loop_
 _symmetry_equiv_pos_site_id
 _symmetry_equiv_pos_as_xyz
  1  'x, y, z'
loop_
 _atom_site_type_symbol
 _atom_site_label
 _atom_site_symmetry_multiplicity
 _atom_site_fract_x
 _atom_site_fract_y
 _atom_site_fract_z
 _atom_site_occupancy
  Zr  Zr0  1  0.675896  0.675896  0.324104  1
  Zr  Zr1  1  0.324104  0.675896  0.324104  1
  Zr  Zr2  1  0.673930  0.326070  0.326070  1
  Zr  Zr3  1  0.324104  0.324104  0.675896  1
  Zr  Zr4  1  0.675896  0.324104  0.675896  1
  Zr  Zr5  1  0.326070  0.673930  0.673930  1
  Sc  Sc6  1  0.874417  0.879576  0.371589  1
  Sc  Sc7  1  0.874417  0.371589  0.879576  1
  Sc  Sc8  1  0.371589  0.874417  0.874417  1
  Sc  Sc9  1  0.879576  0.874417  0.874417  1
  Sc  Sc10  1  0.125583  0.120424  0.628411  1
  Sc  Sc11  1  0.125583  0.628411  0.120424  1
  Sc  Sc12  1  0.628411  0.125583  0.125583  1
  Sc  Sc13  1  0.120424  0.125583  0.125583  1
  Al  Al14  1  0.661831  0.662303  0.014034  1
  Al  Al15  1  0.661831  0.014034  0.662303  1
  Al  Al16  1  0.014034  0.661831  0.661831  1
  Al  Al17  1  0.662303  0.661831  0.661831  1
  Al  Al18  1  0.338169  0.337697  0.985966  1
  Al  Al19  1  0.338169  0.985966  0.337697  1
  Al  Al20  1  0.985966  0.338169  0.338169  1
  Al  Al21  1  0.337697  0.338169  0.338169  1
  Ru  Ru22  1  0.000000  0.000000  0.500000  1
  Ru  Ru23  1  0.500000  0.000000  0.500000  1
  Ru  Ru24  1  0.500000  0.500000  0.000000  1
  Ru  Ru25  1  0.000000  0.500000  0.000000  1
  Rh  Rh26  1  0.000000  0.000000  0.000000  1
  Rh  Rh27  1  0.000000  0.500000  0.500000  1
  Rh  Rh28  1  0.500000  0.000000  0.000000  1
