# generated using pymatgen
data_TbTh2SnRh3Pb2
_symmetry_space_group_name_H-M   'P 1'
_cell_length_a   7.70250571
_cell_length_b   7.70250321
_cell_length_c   4.06875300
_cell_angle_alpha   90.00000000
_cell_angle_beta   90.00000000
_cell_angle_gamma   120.60414680
_symmetry_Int_Tables_number   1
_chemical_formula_structural   TbTh2SnRh3Pb2
_chemical_formula_sum   'Tb1 Th2 Sn1 Rh3 Pb2'
_cell_volume   207.76847914
_cell_formula_units_Z   1
loop_
 _symmetry_equiv_pos_site_id
 _symmetry_equiv_pos_as_xyz
  1  'x, y, z'
loop_
 _atom_site_type_symbol
 _atom_site_label
 _atom_site_symmetry_multiplicity
 _atom_site_fract_x
 _atom_site_fract_y
 _atom_site_fract_z
 _atom_site_occupancy
  Tb  Tb0  1  0.589474  0.589474  0.500000  1
  Th  Th1  1  0.411515  0.003820  0.500000  1
  Th  Th2  1  0.003820  0.411515  0.500000  1
  Sn  Sn3  1  0.264916  0.264916  0.000000  1
  Rh  Rh4  1  0.318606  0.658676  0.000000  1
  Rh  Rh5  1  0.658676  0.318606  0.000000  1
  Rh  Rh6  1  0.020057  0.020057  0.500000  1
  Pb  Pb7  1  0.743429  0.989506  0.000000  1
  Pb  Pb8  1  0.989506  0.743429  0.000000  1
