# generated using pymatgen
data_Dy10CuAsPb6
_symmetry_space_group_name_H-M   'P 1'
_cell_length_a   9.20288604
_cell_length_b   9.20288912
_cell_length_c   6.70427101
_cell_angle_alpha   89.99771496
_cell_angle_beta   89.99733429
_cell_angle_gamma   119.99006645
_symmetry_Int_Tables_number   1
_chemical_formula_structural   Dy10CuAsPb6
_chemical_formula_sum   'Dy10 Cu1 As1 Pb6'
_cell_volume   491.78342590
_cell_formula_units_Z   1
loop_
 _symmetry_equiv_pos_site_id
 _symmetry_equiv_pos_as_xyz
  1  'x, y, z'
loop_
 _atom_site_type_symbol
 _atom_site_label
 _atom_site_symmetry_multiplicity
 _atom_site_fract_x
 _atom_site_fract_y
 _atom_site_fract_z
 _atom_site_occupancy
  Dy  Dy0  1  0.251879  0.000010  0.243875  1
  Dy  Dy1  1  0.748121  0.999990  0.756125  1
  Dy  Dy2  1  0.000010  0.251879  0.243876  1
  Dy  Dy3  1  0.999990  0.748121  0.756124  1
  Dy  Dy4  1  0.748113  0.748113  0.243867  1
  Dy  Dy5  1  0.251887  0.251887  0.756133  1
  Dy  Dy6  1  0.333326  0.666672  0.000000  1
  Dy  Dy7  1  0.666674  0.333328  0.000000  1
  Dy  Dy8  1  0.666667  0.333333  0.500000  1
  Dy  Dy9  1  0.333333  0.666667  0.500000  1
  Cu  Cu10  1  0.000000  0.000000  0.500000  1
  As  As11  1  0.000000  0.000000  0.000000  1
  Pb  Pb12  1  0.608504  0.999996  0.249845  1
  Pb  Pb13  1  0.391496  0.000004  0.750155  1
  Pb  Pb14  1  0.999996  0.608504  0.249845  1
  Pb  Pb15  1  0.000004  0.391496  0.750155  1
  Pb  Pb16  1  0.391499  0.391497  0.249856  1
  Pb  Pb17  1  0.608501  0.608503  0.750144  1
