# generated using pymatgen
data_Ho5TcPt2
_symmetry_space_group_name_H-M   'P 1'
_cell_length_a   10.90332900
_cell_length_b   10.90332900
_cell_length_c   6.48566800
_cell_angle_alpha   90.00000000
_cell_angle_beta   90.00000000
_cell_angle_gamma   90.00000000
_symmetry_Int_Tables_number   1
_chemical_formula_structural   Ho5TcPt2
_chemical_formula_sum   'Ho20 Tc4 Pt8'
_cell_volume   771.03296615
_cell_formula_units_Z   4
loop_
 _symmetry_equiv_pos_site_id
 _symmetry_equiv_pos_as_xyz
  1  'x, y, z'
loop_
 _atom_site_type_symbol
 _atom_site_label
 _atom_site_symmetry_multiplicity
 _atom_site_fract_x
 _atom_site_fract_y
 _atom_site_fract_z
 _atom_site_occupancy
  Ho  Ho0  1  0.297071  0.085455  0.372442  1
  Ho  Ho1  1  0.297071  0.914545  0.872442  1
  Ho  Ho2  1  0.702929  0.085455  0.872442  1
  Ho  Ho3  1  0.702929  0.914545  0.372442  1
  Ho  Ho4  1  0.585455  0.797071  0.872442  1
  Ho  Ho5  1  0.585455  0.202929  0.372442  1
  Ho  Ho6  1  0.414545  0.797071  0.372442  1
  Ho  Ho7  1  0.414545  0.202929  0.872442  1
  Ho  Ho8  1  0.202929  0.414545  0.627558  1
  Ho  Ho9  1  0.202929  0.585455  0.127558  1
  Ho  Ho10  1  0.797071  0.414545  0.127558  1
  Ho  Ho11  1  0.797071  0.585455  0.627558  1
  Ho  Ho12  1  0.914545  0.702929  0.127558  1
  Ho  Ho13  1  0.914545  0.297071  0.627558  1
  Ho  Ho14  1  0.085455  0.702929  0.627558  1
  Ho  Ho15  1  0.085455  0.297071  0.127558  1
  Ho  Ho16  1  0.000000  0.000000  0.500000  1
  Ho  Ho17  1  0.000000  0.000000  0.000000  1
  Ho  Ho18  1  0.500000  0.500000  0.000000  1
  Ho  Ho19  1  0.500000  0.500000  0.500000  1
  Tc  Tc20  1  0.500000  0.000000  0.124021  1
  Tc  Tc21  1  0.500000  0.000000  0.624021  1
  Tc  Tc22  1  0.000000  0.500000  0.875979  1
  Tc  Tc23  1  0.000000  0.500000  0.375979  1
  Pt  Pt24  1  0.848362  0.151638  0.250000  1
  Pt  Pt25  1  0.848362  0.848362  0.750000  1
  Pt  Pt26  1  0.151638  0.151638  0.750000  1
  Pt  Pt27  1  0.151638  0.848362  0.250000  1
  Pt  Pt28  1  0.651638  0.348362  0.750000  1
  Pt  Pt29  1  0.651638  0.651638  0.250000  1
  Pt  Pt30  1  0.348362  0.348362  0.250000  1
  Pt  Pt31  1  0.348362  0.651638  0.750000  1
