# generated using pymatgen
data_Ho3Nb2Bi3O14
_symmetry_space_group_name_H-M   'P 1'
_cell_length_a   6.43532881
_cell_length_b   6.71124911
_cell_length_c   7.65353744
_cell_angle_alpha   106.71200642
_cell_angle_beta   89.54441369
_cell_angle_gamma   98.23185977
_symmetry_Int_Tables_number   1
_chemical_formula_structural   Ho3Nb2Bi3O14
_chemical_formula_sum   'Ho3 Nb2 Bi3 O14'
_cell_volume   313.13332518
_cell_formula_units_Z   1
loop_
 _symmetry_equiv_pos_site_id
 _symmetry_equiv_pos_as_xyz
  1  'x, y, z'
loop_
 _atom_site_type_symbol
 _atom_site_label
 _atom_site_symmetry_multiplicity
 _atom_site_fract_x
 _atom_site_fract_y
 _atom_site_fract_z
 _atom_site_occupancy
  Ho  Ho0  1  0.548431  0.993738  0.754027  1
  Ho  Ho1  1  0.452373  0.004158  0.251128  1
  Ho  Ho2  1  0.254547  0.540986  0.883329  1
  Nb  Nb3  1  0.003686  0.008589  0.502096  1
  Nb  Nb4  1  0.005363  0.009057  0.999369  1
  Bi  Bi5  1  0.744383  0.486071  0.115155  1
  Bi  Bi6  1  0.725929  0.453380  0.612706  1
  Bi  Bi7  1  0.265633  0.541023  0.393773  1
  O  O8  1  0.444450  0.652700  0.165984  1
  O  O9  1  0.539487  0.340859  0.821964  1
  O  O10  1  0.296418  0.922413  0.949956  1
  O  O11  1  0.710893  0.041490  0.053703  1
  O  O12  1  0.292177  0.922371  0.515959  1
  O  O13  1  0.708800  0.080497  0.486963  1
  O  O14  1  0.524837  0.352189  0.348474  1
  O  O15  1  0.457258  0.645744  0.660573  1
  O  O16  1  0.935968  0.675188  0.955151  1
  O  O17  1  0.089521  0.306177  0.026658  1
  O  O18  1  0.093777  0.314036  0.625371  1
  O  O19  1  0.902222  0.702723  0.376270  1
  O  O20  1  0.904962  0.948983  0.737145  1
  O  O21  1  0.098885  0.057628  0.264245  1
