# generated using pymatgen
data_Zr2NiN2
_symmetry_space_group_name_H-M   'P 1'
_cell_length_a   3.24063300
_cell_length_b   3.24063600
_cell_length_c   11.80983400
_cell_angle_alpha   90.00000000
_cell_angle_beta   90.00000000
_cell_angle_gamma   90.00000000
_symmetry_Int_Tables_number   1
_chemical_formula_structural   Zr2NiN2
_chemical_formula_sum   'Zr4 Ni2 N4'
_cell_volume   124.02347499
_cell_formula_units_Z   2
loop_
 _symmetry_equiv_pos_site_id
 _symmetry_equiv_pos_as_xyz
  1  'x, y, z'
loop_
 _atom_site_type_symbol
 _atom_site_label
 _atom_site_symmetry_multiplicity
 _atom_site_fract_x
 _atom_site_fract_y
 _atom_site_fract_z
 _atom_site_occupancy
  Zr  Zr0  1  0.249487  0.250000  0.897809  1
  Zr  Zr1  1  0.249487  0.250000  0.602191  1
  Zr  Zr2  1  0.750513  0.750000  0.102191  1
  Zr  Zr3  1  0.750513  0.750000  0.397809  1
  Ni  Ni4  1  0.251405  0.250000  0.250000  1
  Ni  Ni5  1  0.748595  0.750000  0.750000  1
  N  N6  1  0.250551  0.250000  0.412106  1
  N  N7  1  0.250551  0.250000  0.087894  1
  N  N8  1  0.749449  0.750000  0.587894  1
  N  N9  1  0.749449  0.750000  0.912106  1
