# generated using pymatgen
data_Ho9Lu(IrPt2)2
_symmetry_space_group_name_H-M   'P 1'
_cell_length_a   11.04533600
_cell_length_b   11.04533600
_cell_length_c   6.31910200
_cell_angle_alpha   90.00000000
_cell_angle_beta   90.00000000
_cell_angle_gamma   90.00000000
_symmetry_Int_Tables_number   1
_chemical_formula_structural   Ho9Lu(IrPt2)2
_chemical_formula_sum   'Ho18 Lu2 Ir4 Pt8'
_cell_volume   770.92695177
_cell_formula_units_Z   2
loop_
 _symmetry_equiv_pos_site_id
 _symmetry_equiv_pos_as_xyz
  1  'x, y, z'
loop_
 _atom_site_type_symbol
 _atom_site_label
 _atom_site_symmetry_multiplicity
 _atom_site_fract_x
 _atom_site_fract_y
 _atom_site_fract_z
 _atom_site_occupancy
  Ho  Ho0  1  0.293611  0.087188  0.375010  1
  Ho  Ho1  1  0.293611  0.912812  0.875010  1
  Ho  Ho2  1  0.706389  0.087188  0.875010  1
  Ho  Ho3  1  0.706389  0.912812  0.375010  1
  Ho  Ho4  1  0.587486  0.795089  0.874288  1
  Ho  Ho5  1  0.587486  0.204911  0.374288  1
  Ho  Ho6  1  0.412514  0.795089  0.374288  1
  Ho  Ho7  1  0.412514  0.204911  0.874288  1
  Ho  Ho8  1  0.204911  0.412514  0.625712  1
  Ho  Ho9  1  0.204911  0.587486  0.125712  1
  Ho  Ho10  1  0.795089  0.412514  0.125712  1
  Ho  Ho11  1  0.795089  0.587486  0.625712  1
  Ho  Ho12  1  0.912812  0.706389  0.124990  1
  Ho  Ho13  1  0.912812  0.293611  0.624990  1
  Ho  Ho14  1  0.087188  0.706389  0.624990  1
  Ho  Ho15  1  0.087188  0.293611  0.124990  1
  Ho  Ho16  1  0.500000  0.500000  0.000000  1
  Ho  Ho17  1  0.500000  0.500000  0.500000  1
  Lu  Lu18  1  0.000000  0.000000  0.500000  1
  Lu  Lu19  1  0.000000  0.000000  0.000000  1
  Ir  Ir20  1  0.500000  0.000000  0.120775  1
  Ir  Ir21  1  0.500000  0.000000  0.620775  1
  Ir  Ir22  1  0.000000  0.500000  0.879225  1
  Ir  Ir23  1  0.000000  0.500000  0.379225  1
  Pt  Pt24  1  0.849208  0.150792  0.250000  1
  Pt  Pt25  1  0.849208  0.849208  0.750000  1
  Pt  Pt26  1  0.150792  0.150792  0.750000  1
  Pt  Pt27  1  0.150792  0.849208  0.250000  1
  Pt  Pt28  1  0.653759  0.346241  0.750000  1
  Pt  Pt29  1  0.653759  0.653759  0.250000  1
  Pt  Pt30  1  0.346241  0.346241  0.250000  1
  Pt  Pt31  1  0.346241  0.653759  0.750000  1
