# generated using pymatgen
data_Pr2W(SeO4)3
_symmetry_space_group_name_H-M   'P 1'
_cell_length_a   6.80958163
_cell_length_b   7.36115760
_cell_length_c   11.14844766
_cell_angle_alpha   85.67067170
_cell_angle_beta   73.54916535
_cell_angle_gamma   85.89646246
_symmetry_Int_Tables_number   1
_chemical_formula_structural   Pr2W(SeO4)3
_chemical_formula_sum   'Pr4 W2 Se6 O24'
_cell_volume   533.68922229
_cell_formula_units_Z   2
loop_
 _symmetry_equiv_pos_site_id
 _symmetry_equiv_pos_as_xyz
  1  'x, y, z'
loop_
 _atom_site_type_symbol
 _atom_site_label
 _atom_site_symmetry_multiplicity
 _atom_site_fract_x
 _atom_site_fract_y
 _atom_site_fract_z
 _atom_site_occupancy
  Pr  Pr0  1  0.731618  0.639650  0.509345  1
  Pr  Pr1  1  0.268382  0.360350  0.490655  1
  Pr  Pr2  1  0.208589  0.177627  0.161833  1
  Pr  Pr3  1  0.791411  0.822373  0.838167  1
  W  W4  1  0.722060  0.896224  0.212653  1
  W  W5  1  0.277940  0.103776  0.787347  1
  Se  Se6  1  0.195257  0.661436  0.216755  1
  Se  Se7  1  0.804743  0.338564  0.783245  1
  Se  Se8  1  0.657810  0.357562  0.141991  1
  Se  Se9  1  0.342190  0.642438  0.858009  1
  Se  Se10  1  0.791682  0.140355  0.488927  1
  Se  Se11  1  0.208318  0.859645  0.511073  1
  O  O12  1  0.691294  0.675938  0.300039  1
  O  O13  1  0.308706  0.324062  0.699961  1
  O  O14  1  0.720936  0.967658  0.410038  1
  O  O15  1  0.279064  0.032342  0.589962  1
  O  O16  1  0.453959  0.974473  0.236852  1
  O  O17  1  0.546041  0.025527  0.763148  1
  O  O18  1  0.816868  0.165659  0.179625  1
  O  O19  1  0.183132  0.834341  0.820375  1
  O  O20  1  0.781034  0.835085  0.052166  1
  O  O21  1  0.218966  0.164915  0.947834  1
  O  O22  1  0.047622  0.868498  0.198751  1
  O  O23  1  0.952378  0.131502  0.801249  1
  O  O24  1  0.098407  0.501447  0.151346  1
  O  O25  1  0.901593  0.498553  0.848654  1
  O  O26  1  0.087274  0.606542  0.379027  1
  O  O27  1  0.912726  0.393458  0.620973  1
  O  O28  1  0.560007  0.271589  0.035421  1
  O  O29  1  0.439993  0.728411  0.964579  1
  O  O30  1  0.432310  0.350372  0.264930  1
  O  O31  1  0.567690  0.649628  0.735070  1
  O  O32  1  0.036812  0.188191  0.394177  1
  O  O33  1  0.963188  0.811809  0.605823  1
  O  O34  1  0.647150  0.332886  0.457718  1
  O  O35  1  0.352850  0.667114  0.542282  1
