# generated using pymatgen
data_Ce2HoAl2InRu2
_symmetry_space_group_name_H-M   'P 1'
_cell_length_a   8.16332617
_cell_length_b   8.16332552
_cell_length_c   4.98100343
_cell_angle_alpha   82.06265840
_cell_angle_beta   82.06266178
_cell_angle_gamma   32.93059640
_symmetry_Int_Tables_number   1
_chemical_formula_structural   Ce2HoAl2InRu2
_chemical_formula_sum   'Ce2 Ho1 Al2 In1 Ru2'
_cell_volume   178.56606501
_cell_formula_units_Z   1
loop_
 _symmetry_equiv_pos_site_id
 _symmetry_equiv_pos_as_xyz
  1  'x, y, z'
loop_
 _atom_site_type_symbol
 _atom_site_label
 _atom_site_symmetry_multiplicity
 _atom_site_fract_x
 _atom_site_fract_y
 _atom_site_fract_z
 _atom_site_occupancy
  Ce  Ce0  1  0.831364  0.831364  0.575967  1
  Ce  Ce1  1  0.168636  0.168636  0.424033  1
  Ho  Ho2  1  0.000000  0.000000  0.000000  1
  Al  Al3  1  0.363456  0.363456  0.045295  1
  Al  Al4  1  0.636544  0.636544  0.954705  1
  In  In5  1  0.500000  0.500000  0.500000  1
  Ru  Ru6  1  0.794182  0.794182  0.114438  1
  Ru  Ru7  1  0.205818  0.205818  0.885562  1
