# generated using pymatgen
data_Ba8Si6Hg
_symmetry_space_group_name_H-M   'P 1'
_cell_length_a   8.82667700
_cell_length_b   8.83476500
_cell_length_c   27.43303700
_cell_angle_alpha   90.00000000
_cell_angle_beta   90.00000000
_cell_angle_gamma   90.00000000
_symmetry_Int_Tables_number   1
_chemical_formula_structural   Ba8Si6Hg
_chemical_formula_sum   'Ba32 Si24 Hg4'
_cell_volume   2139.27258519
_cell_formula_units_Z   4
loop_
 _symmetry_equiv_pos_site_id
 _symmetry_equiv_pos_as_xyz
  1  'x, y, z'
loop_
 _atom_site_type_symbol
 _atom_site_label
 _atom_site_symmetry_multiplicity
 _atom_site_fract_x
 _atom_site_fract_y
 _atom_site_fract_z
 _atom_site_occupancy
  Ba  Ba0  1  0.181507  0.555053  0.415843  1
  Ba  Ba1  1  0.318493  0.944947  0.915843  1
  Ba  Ba2  1  0.318493  0.055053  0.584157  1
  Ba  Ba3  1  0.181507  0.444947  0.084157  1
  Ba  Ba4  1  0.818493  0.444947  0.584157  1
  Ba  Ba5  1  0.681507  0.055053  0.084157  1
  Ba  Ba6  1  0.681507  0.944947  0.415843  1
  Ba  Ba7  1  0.818493  0.555053  0.915843  1
  Ba  Ba8  1  0.495022  0.681116  0.184965  1
  Ba  Ba9  1  0.004978  0.818884  0.684965  1
  Ba  Ba10  1  0.004978  0.181116  0.815035  1
  Ba  Ba11  1  0.495022  0.318884  0.315035  1
  Ba  Ba12  1  0.504978  0.318884  0.815035  1
  Ba  Ba13  1  0.995022  0.181116  0.315035  1
  Ba  Ba14  1  0.995022  0.818884  0.184965  1
  Ba  Ba15  1  0.504978  0.681116  0.684965  1
  Ba  Ba16  1  0.492793  0.713722  0.021816  1
  Ba  Ba17  1  0.007207  0.786278  0.521816  1
  Ba  Ba18  1  0.007207  0.213722  0.978184  1
  Ba  Ba19  1  0.492793  0.286278  0.478184  1
  Ba  Ba20  1  0.507207  0.286278  0.978184  1
  Ba  Ba21  1  0.992793  0.213722  0.478184  1
  Ba  Ba22  1  0.992793  0.786278  0.021816  1
  Ba  Ba23  1  0.507207  0.713722  0.521816  1
  Ba  Ba24  1  0.364834  0.833193  0.325494  1
  Ba  Ba25  1  0.135166  0.666807  0.825494  1
  Ba  Ba26  1  0.135166  0.333193  0.674506  1
  Ba  Ba27  1  0.364834  0.166807  0.174506  1
  Ba  Ba28  1  0.635166  0.166807  0.674506  1
  Ba  Ba29  1  0.864834  0.333193  0.174506  1
  Ba  Ba30  1  0.864834  0.666807  0.325494  1
  Ba  Ba31  1  0.635166  0.833193  0.825494  1
  Si  Si32  1  0.268233  0.866743  0.106688  1
  Si  Si33  1  0.231767  0.633257  0.606688  1
  Si  Si34  1  0.231767  0.366743  0.893312  1
  Si  Si35  1  0.268233  0.133257  0.393312  1
  Si  Si36  1  0.731767  0.133257  0.893312  1
  Si  Si37  1  0.768233  0.366743  0.393312  1
  Si  Si38  1  0.768233  0.633257  0.106688  1
  Si  Si39  1  0.731767  0.866743  0.606688  1
  Si  Si40  1  0.291918  0.059441  0.045752  1
  Si  Si41  1  0.208082  0.440559  0.545752  1
  Si  Si42  1  0.208082  0.559441  0.954248  1
  Si  Si43  1  0.291918  0.940559  0.454248  1
  Si  Si44  1  0.708082  0.940559  0.954248  1
  Si  Si45  1  0.791918  0.559441  0.454248  1
  Si  Si46  1  0.791918  0.440559  0.045752  1
  Si  Si47  1  0.708082  0.059441  0.545752  1
  Si  Si48  1  0.075689  0.067321  0.099884  1
  Si  Si49  1  0.424311  0.432679  0.599884  1
  Si  Si50  1  0.424311  0.567321  0.900116  1
  Si  Si51  1  0.075689  0.932679  0.400116  1
  Si  Si52  1  0.924311  0.932679  0.900116  1
  Si  Si53  1  0.575689  0.567321  0.400116  1
  Si  Si54  1  0.575689  0.432679  0.099884  1
  Si  Si55  1  0.924311  0.067321  0.599884  1
  Hg  Hg56  1  0.173230  0.500000  0.250000  1
  Hg  Hg57  1  0.326770  0.000000  0.750000  1
  Hg  Hg58  1  0.826770  0.500000  0.750000  1
  Hg  Hg59  1  0.673230  0.000000  0.250000  1
