# generated using pymatgen
data_AcHfP7Ru12
_symmetry_space_group_name_H-M   'P 1'
_cell_length_a   9.49665600
_cell_length_b   9.49665520
_cell_length_c   3.94220500
_cell_angle_alpha   90.00000000
_cell_angle_beta   90.00000000
_cell_angle_gamma   119.99999582
_symmetry_Int_Tables_number   1
_chemical_formula_structural   AcHfP7Ru12
_chemical_formula_sum   'Ac1 Hf1 P7 Ru12'
_cell_volume   307.90109347
_cell_formula_units_Z   1
loop_
 _symmetry_equiv_pos_site_id
 _symmetry_equiv_pos_as_xyz
  1  'x, y, z'
loop_
 _atom_site_type_symbol
 _atom_site_label
 _atom_site_symmetry_multiplicity
 _atom_site_fract_x
 _atom_site_fract_y
 _atom_site_fract_z
 _atom_site_occupancy
  Ac  Ac0  1  0.333333  0.666667  0.000000  1
  Hf  Hf1  1  0.666667  0.333333  0.500000  1
  P  P2  1  0.610664  0.719338  0.500000  1
  P  P3  1  0.000000  0.000000  0.000000  1
  P  P4  1  0.280662  0.891326  0.500000  1
  P  P5  1  0.108674  0.389336  0.500000  1
  P  P6  1  0.886940  0.568709  0.000000  1
  P  P7  1  0.431291  0.318231  0.000000  1
  P  P8  1  0.681769  0.113060  0.000000  1
  Ru  Ru9  1  0.563345  0.965487  0.500000  1
  Ru  Ru10  1  0.402144  0.436655  0.500000  1
  Ru  Ru11  1  0.914053  0.118076  0.500000  1
  Ru  Ru12  1  0.204022  0.085947  0.500000  1
  Ru  Ru13  1  0.881924  0.795978  0.500000  1
  Ru  Ru14  1  0.728421  0.891164  0.000000  1
  Ru  Ru15  1  0.108836  0.837257  0.000000  1
  Ru  Ru16  1  0.162743  0.271579  0.000000  1
  Ru  Ru17  1  0.425095  0.078653  0.000000  1
  Ru  Ru18  1  0.921347  0.346443  0.000000  1
  Ru  Ru19  1  0.653557  0.574905  0.000000  1
  Ru  Ru20  1  0.034513  0.597856  0.500000  1
