# generated using pymatgen
data_Sm2Tm4NiBr10
_symmetry_space_group_name_H-M   'P 1'
_cell_length_a   7.26607793
_cell_length_b   9.08100373
_cell_length_c   9.33730031
_cell_angle_alpha   106.54206929
_cell_angle_beta   95.20086174
_cell_angle_gamma   105.40661643
_symmetry_Int_Tables_number   1
_chemical_formula_structural   Sm2Tm4NiBr10
_chemical_formula_sum   'Sm2 Tm4 Ni1 Br10'
_cell_volume   560.08904930
_cell_formula_units_Z   1
loop_
 _symmetry_equiv_pos_site_id
 _symmetry_equiv_pos_as_xyz
  1  'x, y, z'
loop_
 _atom_site_type_symbol
 _atom_site_label
 _atom_site_symmetry_multiplicity
 _atom_site_fract_x
 _atom_site_fract_y
 _atom_site_fract_z
 _atom_site_occupancy
  Sm  Sm0  1  0.633986  0.051817  0.257015  1
  Sm  Sm1  1  0.366014  0.948183  0.742985  1
  Tm  Tm2  1  0.844004  0.126129  0.664371  1
  Tm  Tm3  1  0.532459  0.711433  0.413772  1
  Tm  Tm4  1  0.467541  0.288567  0.586228  1
  Tm  Tm5  1  0.155996  0.873871  0.335629  1
  Ni  Ni6  1  0.500000  0.000000  0.500000  1
  Br  Br7  1  0.413860  0.617938  0.668990  1
  Br  Br8  1  0.750952  0.078493  0.942986  1
  Br  Br9  1  0.249048  0.921507  0.057014  1
  Br  Br10  1  0.943970  0.818129  0.585060  1
  Br  Br11  1  0.259867  0.254055  0.830041  1
  Br  Br12  1  0.740133  0.745945  0.169959  1
  Br  Br13  1  0.056030  0.181871  0.414940  1
  Br  Br14  1  0.586140  0.382062  0.331010  1
  Br  Br15  1  0.837281  0.443306  0.761889  1
  Br  Br16  1  0.162719  0.556694  0.238111  1
