# generated using pymatgen
data_Tm4Sc8In2Fe2Re
_symmetry_space_group_name_H-M   'P 1'
_cell_length_a   7.97531839
_cell_length_b   7.97531769
_cell_length_c   7.97531812
_cell_angle_alpha   108.74441158
_cell_angle_beta   108.74440006
_cell_angle_gamma   110.93484005
_symmetry_Int_Tables_number   1
_chemical_formula_structural   Tm4Sc8In2Fe2Re
_chemical_formula_sum   'Tm4 Sc8 In2 Fe2 Re1'
_cell_volume   390.30932396
_cell_formula_units_Z   1
loop_
 _symmetry_equiv_pos_site_id
 _symmetry_equiv_pos_as_xyz
  1  'x, y, z'
loop_
 _atom_site_type_symbol
 _atom_site_label
 _atom_site_symmetry_multiplicity
 _atom_site_fract_x
 _atom_site_fract_y
 _atom_site_fract_z
 _atom_site_occupancy
  Tm  Tm0  1  0.303491  0.303491  0.606982  1
  Tm  Tm1  1  0.696509  0.696509  0.393018  1
  Tm  Tm2  1  0.696509  0.303491  0.000000  1
  Tm  Tm3  1  0.303491  0.696509  0.000000  1
  Sc  Sc4  1  0.192076  0.428021  0.235945  1
  Sc  Sc5  1  0.807924  0.571979  0.764055  1
  Sc  Sc6  1  0.192076  0.956133  0.764055  1
  Sc  Sc7  1  0.956133  0.192076  0.764055  1
  Sc  Sc8  1  0.807924  0.043867  0.235945  1
  Sc  Sc9  1  0.043867  0.807924  0.235945  1
  Sc  Sc10  1  0.428021  0.192076  0.235945  1
  Sc  Sc11  1  0.571979  0.807924  0.764055  1
  In  In12  1  0.000000  0.500000  0.500000  1
  In  In13  1  0.500000  0.000000  0.500000  1
  Fe  Fe14  1  0.378012  0.378012  0.000000  1
  Fe  Fe15  1  0.621988  0.621988  0.000000  1
  Re  Re16  1  0.000000  0.000000  0.000000  1
