# generated using pymatgen
data_Yb3Rh4PbO14
_symmetry_space_group_name_H-M   'P 1'
_cell_length_a   7.15264583
_cell_length_b   7.26244780
_cell_length_c   7.26244900
_cell_angle_alpha   59.99999911
_cell_angle_beta   59.49087152
_cell_angle_gamma   59.49086969
_symmetry_Int_Tables_number   1
_chemical_formula_structural   Yb3Rh4PbO14
_chemical_formula_sum   'Yb3 Rh4 Pb1 O14'
_cell_volume   264.68693828
_cell_formula_units_Z   1
loop_
 _symmetry_equiv_pos_site_id
 _symmetry_equiv_pos_as_xyz
  1  'x, y, z'
loop_
 _atom_site_type_symbol
 _atom_site_label
 _atom_site_symmetry_multiplicity
 _atom_site_fract_x
 _atom_site_fract_y
 _atom_site_fract_z
 _atom_site_occupancy
  Yb  Yb0  1  0.125000  0.625000  0.125000  1
  Yb  Yb1  1  0.125000  0.125000  0.625000  1
  Yb  Yb2  1  0.125000  0.125000  0.125000  1
  Rh  Rh3  1  0.125000  0.625000  0.625000  1
  Rh  Rh4  1  0.625000  0.125000  0.625000  1
  Rh  Rh5  1  0.625000  0.625000  0.125000  1
  Rh  Rh6  1  0.625000  0.625000  0.625000  1
  Pb  Pb7  1  0.625000  0.125000  0.125000  1
  O  O8  1  0.693630  0.713093  0.296639  1
  O  O9  1  0.293781  0.292905  0.706658  1
  O  O10  1  0.693630  0.296639  0.713093  1
  O  O11  1  0.293781  0.706658  0.292905  1
  O  O12  1  0.293781  0.706658  0.706658  1
  O  O13  1  0.693630  0.296639  0.296639  1
  O  O14  1  0.556370  0.536907  0.953361  1
  O  O15  1  0.956219  0.957095  0.543342  1
  O  O16  1  0.556370  0.953361  0.536907  1
  O  O17  1  0.956219  0.543342  0.957095  1
  O  O18  1  0.956219  0.543342  0.543342  1
  O  O19  1  0.556370  0.953361  0.953361  1
  O  O20  1  0.265566  0.244812  0.244812  1
  O  O21  1  0.984434  0.005188  0.005188  1
