# generated using pymatgen
data_Ta2MnS6
_symmetry_space_group_name_H-M   'P 1'
_cell_length_a   5.63474459
_cell_length_b   5.63474534
_cell_length_c   6.96929585
_cell_angle_alpha   82.32202559
_cell_angle_beta   82.32202349
_cell_angle_gamma   119.94905595
_symmetry_Int_Tables_number   1
_chemical_formula_structural   Ta2MnS6
_chemical_formula_sum   'Ta2 Mn1 S6'
_cell_volume   184.76957400
_cell_formula_units_Z   1
loop_
 _symmetry_equiv_pos_site_id
 _symmetry_equiv_pos_as_xyz
  1  'x, y, z'
loop_
 _atom_site_type_symbol
 _atom_site_label
 _atom_site_symmetry_multiplicity
 _atom_site_fract_x
 _atom_site_fract_y
 _atom_site_fract_z
 _atom_site_occupancy
  Ta  Ta0  1  0.832413  0.499187  0.500046  1
  Ta  Ta1  1  0.499187  0.832413  0.500046  1
  Mn  Mn2  1  0.167712  0.167712  0.500159  1
  S  S3  1  0.557912  0.241056  0.272877  1
  S  S4  1  0.241056  0.557912  0.272877  1
  S  S5  1  0.925809  0.925809  0.273954  1
  S  S6  1  0.776344  0.776344  0.726240  1
  S  S7  1  0.408196  0.091274  0.727050  1
  S  S8  1  0.091274  0.408196  0.727050  1
