# generated using pymatgen
data_Tm16MgCd(Co2Hg)2
_symmetry_space_group_name_H-M   'P 1'
_cell_length_a   9.38958447
_cell_length_b   9.36993424
_cell_length_c   9.35217700
_cell_angle_alpha   60.06266706
_cell_angle_beta   60.13169662
_cell_angle_gamma   60.31613221
_symmetry_Int_Tables_number   1
_chemical_formula_structural   Tm16MgCd(Co2Hg)2
_chemical_formula_sum   'Tm16 Mg1 Cd1 Co4 Hg2'
_cell_volume   584.04542607
_cell_formula_units_Z   1
loop_
 _symmetry_equiv_pos_site_id
 _symmetry_equiv_pos_as_xyz
  1  'x, y, z'
loop_
 _atom_site_type_symbol
 _atom_site_label
 _atom_site_symmetry_multiplicity
 _atom_site_fract_x
 _atom_site_fract_y
 _atom_site_fract_z
 _atom_site_occupancy
  Tm  Tm0  1  0.346345  0.344964  0.344380  1
  Tm  Tm1  1  0.346345  0.344964  0.964311  1
  Tm  Tm2  1  0.347857  0.961041  0.345551  1
  Tm  Tm3  1  0.956064  0.348307  0.347814  1
  Tm  Tm4  1  0.810992  0.187923  0.188907  1
  Tm  Tm5  1  0.185768  0.812861  0.813880  1
  Tm  Tm6  1  0.185768  0.812861  0.187490  1
  Tm  Tm7  1  0.810992  0.187923  0.812178  1
  Tm  Tm8  1  0.186417  0.186922  0.813331  1
  Tm  Tm9  1  0.809356  0.809764  0.190440  1
  Tm  Tm10  1  0.936249  0.561661  0.562327  1
  Tm  Tm11  1  0.561188  0.937689  0.938580  1
  Tm  Tm12  1  0.561188  0.937689  0.562543  1
  Tm  Tm13  1  0.936249  0.561661  0.939763  1
  Tm  Tm14  1  0.561547  0.562075  0.938189  1
  Tm  Tm15  1  0.937372  0.939914  0.561357  1
  Mg  Mg16  1  0.279023  0.576418  0.572279  1
  Cd  Cd17  1  0.581797  0.258059  0.580071  1
  Co  Co18  1  0.139732  0.140891  0.142821  1
  Co  Co19  1  0.139732  0.140891  0.576557  1
  Co  Co20  1  0.138454  0.576671  0.142438  1
  Co  Co21  1  0.577584  0.139122  0.141648  1
  Hg  Hg22  1  0.581990  0.584864  0.587087  1
  Hg  Hg23  1  0.581990  0.584864  0.246056  1
