# generated using pymatgen
data_YPaInPd2
_symmetry_space_group_name_H-M   'P 1'
_cell_length_a   7.81050905
_cell_length_b   7.81050905
_cell_length_c   3.68888900
_cell_angle_alpha   90.00000000
_cell_angle_beta   90.00000000
_cell_angle_gamma   93.04593337
_symmetry_Int_Tables_number   1
_chemical_formula_structural   YPaInPd2
_chemical_formula_sum   'Y2 Pa2 In2 Pd4'
_cell_volume   224.71925512
_cell_formula_units_Z   2
loop_
 _symmetry_equiv_pos_site_id
 _symmetry_equiv_pos_as_xyz
  1  'x, y, z'
loop_
 _atom_site_type_symbol
 _atom_site_label
 _atom_site_symmetry_multiplicity
 _atom_site_fract_x
 _atom_site_fract_y
 _atom_site_fract_z
 _atom_site_occupancy
  Y  Y0  1  0.173141  0.326859  0.500000  1
  Y  Y1  1  0.826859  0.673141  0.500000  1
  Pa  Pa2  1  0.673350  0.173350  0.500000  1
  Pa  Pa3  1  0.326650  0.826650  0.500000  1
  In  In4  1  0.500000  0.500000  0.000000  1
  In  In5  1  0.000000  0.000000  0.000000  1
  Pd  Pd6  1  0.133494  0.633494  0.000000  1
  Pd  Pd7  1  0.866506  0.366506  0.000000  1
  Pd  Pd8  1  0.622778  0.877222  0.000000  1
  Pd  Pd9  1  0.377222  0.122778  0.000000  1
