# generated using pymatgen
data_Hf4Zr6Sn3Ge2Sb3
_symmetry_space_group_name_H-M   'P 1'
_cell_length_a   8.68755900
_cell_length_b   8.68755893
_cell_length_c   5.85627800
_cell_angle_alpha   90.00000000
_cell_angle_beta   90.00000000
_cell_angle_gamma   119.99999645
_symmetry_Int_Tables_number   1
_chemical_formula_structural   Hf4Zr6Sn3Ge2Sb3
_chemical_formula_sum   'Hf4 Zr6 Sn3 Ge2 Sb3'
_cell_volume   382.77878760
_cell_formula_units_Z   1
loop_
 _symmetry_equiv_pos_site_id
 _symmetry_equiv_pos_as_xyz
  1  'x, y, z'
loop_
 _atom_site_type_symbol
 _atom_site_label
 _atom_site_symmetry_multiplicity
 _atom_site_fract_x
 _atom_site_fract_y
 _atom_site_fract_z
 _atom_site_occupancy
  Hf  Hf0  1  0.666667  0.333333  0.997575  1
  Hf  Hf1  1  0.333333  0.666667  0.997575  1
  Hf  Hf2  1  0.333333  0.666667  0.502425  1
  Hf  Hf3  1  0.666667  0.333333  0.502425  1
  Zr  Zr4  1  0.732207  0.732207  0.750000  1
  Zr  Zr5  1  0.267793  0.000000  0.750000  1
  Zr  Zr6  1  0.000000  0.267793  0.750000  1
  Zr  Zr7  1  0.262192  0.262192  0.250000  1
  Zr  Zr8  1  0.737808  0.000000  0.250000  1
  Zr  Zr9  1  0.000000  0.737808  0.250000  1
  Sn  Sn10  1  0.390469  0.390469  0.750000  1
  Sn  Sn11  1  0.609531  0.000000  0.750000  1
  Sn  Sn12  1  0.000000  0.609531  0.750000  1
  Ge  Ge13  1  0.000000  0.000000  0.995800  1
  Ge  Ge14  1  0.000000  0.000000  0.504200  1
  Sb  Sb15  1  0.603304  0.603304  0.250000  1
  Sb  Sb16  1  0.396696  0.000000  0.250000  1
  Sb  Sb17  1  0.000000  0.396696  0.250000  1
