# generated using pymatgen
data_ErU4Se5O4
_symmetry_space_group_name_H-M   'P 1'
_cell_length_a   3.89862895
_cell_length_b   3.89862878
_cell_length_c   18.35456663
_cell_angle_alpha   96.09648449
_cell_angle_beta   96.09648640
_cell_angle_gamma   90.00001565
_symmetry_Int_Tables_number   1
_chemical_formula_structural   ErU4Se5O4
_chemical_formula_sum   'Er1 U4 Se5 O4'
_cell_volume   275.81214039
_cell_formula_units_Z   1
loop_
 _symmetry_equiv_pos_site_id
 _symmetry_equiv_pos_as_xyz
  1  'x, y, z'
loop_
 _atom_site_type_symbol
 _atom_site_label
 _atom_site_symmetry_multiplicity
 _atom_site_fract_x
 _atom_site_fract_y
 _atom_site_fract_z
 _atom_site_occupancy
  Er  Er0  1  0.500001  0.500001  0.000000  1
  U  U1  1  0.116965  0.116965  0.233932  1
  U  U2  1  0.688556  0.688556  0.377112  1
  U  U3  1  0.311444  0.311444  0.622888  1
  U  U4  1  0.883035  0.883035  0.766068  1
  Se  Se5  1  0.000000  0.000000  0.000000  1
  Se  Se6  1  0.578456  0.578456  0.156911  1
  Se  Se7  1  0.223413  0.223413  0.446827  1
  Se  Se8  1  0.776587  0.776587  0.553174  1
  Se  Se9  1  0.421545  0.421545  0.843090  1
  O  O10  1  0.651180  0.151180  0.302359  1
  O  O11  1  0.151180  0.651180  0.302359  1
  O  O12  1  0.848821  0.348821  0.697641  1
  O  O13  1  0.348821  0.848821  0.697641  1
