# generated using pymatgen
data_Sc8V9Si16Mo2W
_symmetry_space_group_name_H-M   'P 1'
_cell_length_a   6.65049000
_cell_length_b   6.65011713
_cell_length_c   12.31953101
_cell_angle_alpha   89.94731685
_cell_angle_beta   90.05320021
_cell_angle_gamma   90.05580397
_symmetry_Int_Tables_number   1
_chemical_formula_structural   Sc8V9Si16Mo2W
_chemical_formula_sum   'Sc8 V9 Si16 Mo2 W1'
_cell_volume   544.84947647
_cell_formula_units_Z   1
loop_
 _symmetry_equiv_pos_site_id
 _symmetry_equiv_pos_as_xyz
  1  'x, y, z'
loop_
 _atom_site_type_symbol
 _atom_site_label
 _atom_site_symmetry_multiplicity
 _atom_site_fract_x
 _atom_site_fract_y
 _atom_site_fract_z
 _atom_site_occupancy
  Sc  Sc0  1  0.002560  0.663192  0.029680  1
  Sc  Sc1  1  0.837525  0.501929  0.279746  1
  Sc  Sc2  1  0.161960  0.497335  0.778872  1
  Sc  Sc3  1  0.501947  0.837568  0.720245  1
  Sc  Sc4  1  0.497435  0.162022  0.221151  1
  Sc  Sc5  1  0.997342  0.336766  0.530024  1
  Sc  Sc6  1  0.663097  0.002553  0.970234  1
  Sc  Sc7  1  0.336660  0.997314  0.470072  1
  V  V8  1  0.667338  0.667487  0.499951  1
  V  V9  1  0.004761  0.156910  0.126926  1
  V  V10  1  0.344340  0.505689  0.377281  1
  V  V11  1  0.658165  0.493921  0.875900  1
  V  V12  1  0.506133  0.343742  0.622993  1
  V  V13  1  0.494363  0.657491  0.123870  1
  V  V14  1  0.993392  0.842437  0.625904  1
  V  V15  1  0.156348  0.004997  0.872867  1
  V  V16  1  0.841940  0.993608  0.374312  1
  Si  Si17  1  0.294878  0.959804  0.063745  1
  Si  Si18  1  0.542624  0.793169  0.316052  1
  Si  Si19  1  0.458826  0.205456  0.813502  1
  Si  Si20  1  0.793300  0.542744  0.683837  1
  Si  Si21  1  0.205512  0.459039  0.186641  1
  Si  Si22  1  0.704334  0.037967  0.562916  1
  Si  Si23  1  0.960022  0.294985  0.936442  1
  Si  Si24  1  0.038163  0.704477  0.436878  1
  Si  Si25  1  0.706563  0.371833  0.071746  1
  Si  Si26  1  0.128220  0.206136  0.321897  1
  Si  Si27  1  0.871426  0.793098  0.820879  1
  Si  Si28  1  0.206210  0.128263  0.678081  1
  Si  Si29  1  0.793148  0.871428  0.179191  1
  Si  Si30  1  0.296207  0.629417  0.570252  1
  Si  Si31  1  0.371808  0.706526  0.928227  1
  Si  Si32  1  0.629335  0.296161  0.429712  1
  Mo  Mo33  1  0.333093  0.333306  0.000064  1
  Mo  Mo34  1  0.168488  0.832674  0.249934  1
  W  W35  1  0.832534  0.168553  0.749976  1
