# generated using pymatgen
data_HfZr3Hg(AsO4)6
_symmetry_space_group_name_H-M   'P 1'
_cell_length_a   9.20811822
_cell_length_b   9.20811851
_cell_length_c   9.50987930
_cell_angle_alpha   61.04421895
_cell_angle_beta   61.04422757
_cell_angle_gamma   59.99999987
_symmetry_Int_Tables_number   1
_chemical_formula_structural   HfZr3Hg(AsO4)6
_chemical_formula_sum   'Hf1 Zr3 Hg1 As6 O24'
_cell_volume   579.00069944
_cell_formula_units_Z   1
loop_
 _symmetry_equiv_pos_site_id
 _symmetry_equiv_pos_as_xyz
  1  'x, y, z'
loop_
 _atom_site_type_symbol
 _atom_site_label
 _atom_site_symmetry_multiplicity
 _atom_site_fract_x
 _atom_site_fract_y
 _atom_site_fract_z
 _atom_site_occupancy
  Hf  Hf0  1  0.141299  0.141299  0.576101  1
  Zr  Zr1  1  0.859275  0.859275  0.422176  1
  Zr  Zr2  1  0.646899  0.646899  0.059306  1
  Zr  Zr3  1  0.353468  0.353468  0.939594  1
  Hg  Hg4  1  0.499910  0.499910  0.500271  1
  As  As5  1  0.958127  0.256596  0.260834  1
  As  As6  1  0.256596  0.524443  0.260834  1
  As  As7  1  0.524443  0.958127  0.260834  1
  As  As8  1  0.042886  0.745486  0.739589  1
  As  As9  1  0.745486  0.472041  0.739589  1
  As  As10  1  0.472041  0.042886  0.739589  1
  O  O11  1  0.985473  0.265453  0.420182  1
  O  O12  1  0.265453  0.328892  0.420182  1
  O  O13  1  0.328892  0.985473  0.420182  1
  O  O14  1  0.016836  0.733371  0.581179  1
  O  O15  1  0.733371  0.668613  0.581179  1
  O  O16  1  0.668613  0.016836  0.581179  1
  O  O17  1  0.501756  0.883623  0.927582  1
  O  O18  1  0.883623  0.687041  0.927582  1
  O  O19  1  0.687041  0.501756  0.927582  1
  O  O20  1  0.495943  0.115744  0.072291  1
  O  O21  1  0.115744  0.316021  0.072291  1
  O  O22  1  0.316021  0.495943  0.072291  1
  O  O23  1  0.030406  0.946627  0.714137  1
  O  O24  1  0.946627  0.308831  0.714137  1
  O  O25  1  0.308831  0.030406  0.714137  1
  O  O26  1  0.972405  0.055496  0.284100  1
  O  O27  1  0.055496  0.687999  0.284100  1
  O  O28  1  0.687999  0.972405  0.284100  1
  O  O29  1  0.589114  0.749235  0.253564  1
  O  O30  1  0.749235  0.408087  0.253564  1
  O  O31  1  0.408087  0.589114  0.253564  1
  O  O32  1  0.407700  0.251507  0.747394  1
  O  O33  1  0.251507  0.593398  0.747394  1
  O  O34  1  0.593398  0.407700  0.747394  1
