# generated using pymatgen
data_ThVSi3
_symmetry_space_group_name_H-M   'P 1'
_cell_length_a   6.02888400
_cell_length_b   6.02888289
_cell_length_c   5.57103500
_cell_angle_alpha   90.00000000
_cell_angle_beta   90.00000000
_cell_angle_gamma   119.99999510
_symmetry_Int_Tables_number   1
_chemical_formula_structural   ThVSi3
_chemical_formula_sum   'Th2 V2 Si6'
_cell_volume   175.36394869
_cell_formula_units_Z   2
loop_
 _symmetry_equiv_pos_site_id
 _symmetry_equiv_pos_as_xyz
  1  'x, y, z'
loop_
 _atom_site_type_symbol
 _atom_site_label
 _atom_site_symmetry_multiplicity
 _atom_site_fract_x
 _atom_site_fract_y
 _atom_site_fract_z
 _atom_site_occupancy
  Th  Th0  1  0.666666  0.333334  0.250000  1
  Th  Th1  1  0.333334  0.666667  0.750000  1
  V  V2  1  0.000000  0.000000  0.000000  1
  V  V3  1  0.000000  0.000000  0.500000  1
  Si  Si4  1  0.198390  0.396781  0.250000  1
  Si  Si5  1  0.198390  0.801610  0.250000  1
  Si  Si6  1  0.603219  0.801610  0.250000  1
  Si  Si7  1  0.396780  0.198389  0.750000  1
  Si  Si8  1  0.801609  0.198389  0.750000  1
  Si  Si9  1  0.801610  0.603220  0.750000  1
