# generated using pymatgen
data_Ho20Ir8Pt3Rh
_symmetry_space_group_name_H-M   'P 1'
_cell_length_a   10.90076847
_cell_length_b   10.90441063
_cell_length_c   6.34699100
_cell_angle_alpha   89.98249770
_cell_angle_beta   89.97028714
_cell_angle_gamma   90.14747065
_symmetry_Int_Tables_number   1
_chemical_formula_structural   Ho20Ir8Pt3Rh
_chemical_formula_sum   'Ho20 Ir8 Pt3 Rh1'
_cell_volume   754.44168770
_cell_formula_units_Z   1
loop_
 _symmetry_equiv_pos_site_id
 _symmetry_equiv_pos_as_xyz
  1  'x, y, z'
loop_
 _atom_site_type_symbol
 _atom_site_label
 _atom_site_symmetry_multiplicity
 _atom_site_fract_x
 _atom_site_fract_y
 _atom_site_fract_z
 _atom_site_occupancy
  Ho  Ho0  1  0.293386  0.086436  0.373226  1
  Ho  Ho1  1  0.292779  0.908184  0.876594  1
  Ho  Ho2  1  0.705537  0.090124  0.873425  1
  Ho  Ho3  1  0.704276  0.909645  0.374725  1
  Ho  Ho4  1  0.585213  0.790294  0.877936  1
  Ho  Ho5  1  0.585243  0.209163  0.380045  1
  Ho  Ho6  1  0.410521  0.790927  0.380442  1
  Ho  Ho7  1  0.413721  0.209487  0.877371  1
  Ho  Ho8  1  0.209127  0.414863  0.621267  1
  Ho  Ho9  1  0.208805  0.589920  0.121272  1
  Ho  Ho10  1  0.791039  0.414315  0.121705  1
  Ho  Ho11  1  0.791061  0.586201  0.621946  1
  Ho  Ho12  1  0.913178  0.706354  0.127858  1
  Ho  Ho13  1  0.909716  0.294851  0.625764  1
  Ho  Ho14  1  0.092054  0.706903  0.622638  1
  Ho  Ho15  1  0.090596  0.296012  0.126365  1
  Ho  Ho16  1  0.000899  0.998040  0.499256  1
  Ho  Ho17  1  0.001969  0.999009  0.000014  1
  Ho  Ho18  1  0.499635  0.499628  0.000121  1
  Ho  Ho19  1  0.500385  0.500216  0.498720  1
  Ir  Ir20  1  0.152908  0.847877  0.249247  1
  Ir  Ir21  1  0.654150  0.345191  0.749598  1
  Ir  Ir22  1  0.654825  0.654831  0.248657  1
  Ir  Ir23  1  0.346010  0.344304  0.250120  1
  Ir  Ir24  1  0.346888  0.653593  0.749537  1
  Ir  Ir25  1  0.500085  0.000181  0.625981  1
  Ir  Ir26  1  0.999774  0.499952  0.875605  1
  Ir  Ir27  1  0.000070  0.499737  0.377131  1
  Pt  Pt28  1  0.846696  0.153024  0.249267  1
  Pt  Pt29  1  0.844941  0.846498  0.749479  1
  Pt  Pt30  1  0.154175  0.154365  0.749682  1
  Rh  Rh31  1  0.500338  0.999874  0.125011  1
