# generated using pymatgen
data_Cs3Tc2(As3Rh2)2
_symmetry_space_group_name_H-M   'P 1'
_cell_length_a   9.89813276
_cell_length_b   9.90055813
_cell_length_c   9.90055771
_cell_angle_alpha   155.93022493
_cell_angle_beta   82.08351966
_cell_angle_gamma   102.98531413
_symmetry_Int_Tables_number   1
_chemical_formula_structural   Cs3Tc2(As3Rh2)2
_chemical_formula_sum   'Cs3 Tc2 As6 Rh4'
_cell_volume   379.99492136
_cell_formula_units_Z   1
loop_
 _symmetry_equiv_pos_site_id
 _symmetry_equiv_pos_as_xyz
  1  'x, y, z'
loop_
 _atom_site_type_symbol
 _atom_site_label
 _atom_site_symmetry_multiplicity
 _atom_site_fract_x
 _atom_site_fract_y
 _atom_site_fract_z
 _atom_site_occupancy
  Cs  Cs0  1  0.333114  0.331825  0.001289  1
  Cs  Cs1  1  0.668485  0.666742  0.001744  1
  Cs  Cs2  1  0.002785  0.001495  0.001290  1
  Tc  Tc3  1  0.586322  0.834605  0.751716  1
  Tc  Tc4  1  0.250599  0.498750  0.751848  1
  As  As5  1  0.326346  0.666647  0.659698  1
  As  As6  1  0.673885  0.332896  0.340989  1
  As  As7  1  0.996987  0.337405  0.659581  1
  As  As8  1  0.341651  0.000457  0.341194  1
  As  As9  1  0.002437  0.666696  0.335742  1
  As  As10  1  0.655462  0.995889  0.659574  1
  Rh  Rh11  1  0.750551  0.502415  0.248136  1
  Rh  Rh12  1  0.079140  0.830930  0.248211  1
  Rh  Rh13  1  0.416261  0.166566  0.249695  1
  Rh  Rh14  1  0.915975  0.166682  0.749294  1
