# generated using pymatgen
data_NbSb3O10
_symmetry_space_group_name_H-M   'P 1'
_cell_length_a   4.88971118
_cell_length_b   5.53303173
_cell_length_c   6.93121413
_cell_angle_alpha   102.68126025
_cell_angle_beta   110.42439349
_cell_angle_gamma   90.48167734
_symmetry_Int_Tables_number   1
_chemical_formula_structural   NbSb3O10
_chemical_formula_sum   'Nb1 Sb3 O10'
_cell_volume   170.70492440
_cell_formula_units_Z   1
loop_
 _symmetry_equiv_pos_site_id
 _symmetry_equiv_pos_as_xyz
  1  'x, y, z'
loop_
 _atom_site_type_symbol
 _atom_site_label
 _atom_site_symmetry_multiplicity
 _atom_site_fract_x
 _atom_site_fract_y
 _atom_site_fract_z
 _atom_site_occupancy
  Nb  Nb0  1  0.132531  0.226839  0.744481  1
  Sb  Sb1  1  0.404365  0.280041  0.291996  1
  Sb  Sb2  1  0.877265  0.784452  0.275953  1
  Sb  Sb3  1  0.610887  0.721150  0.716763  1
  O  O4  1  0.097584  0.249645  0.008753  1
  O  O5  1  0.913581  0.746131  0.995401  1
  O  O6  1  0.517837  0.953322  0.199172  1
  O  O7  1  0.677350  0.453866  0.201725  1
  O  O8  1  0.124282  0.119256  0.402756  1
  O  O9  1  0.278465  0.624471  0.407001  1
  O  O10  1  0.866874  0.879235  0.590548  1
  O  O11  1  0.716247  0.379627  0.594909  1
  O  O12  1  0.317994  0.538962  0.782793  1
  O  O13  1  0.464739  0.043001  0.787749  1
