# generated using pymatgen
data_Tm3Lu2In2Bi
_symmetry_space_group_name_H-M   'P 1'
_cell_length_a   6.50799700
_cell_length_b   8.90555992
_cell_length_c   8.87643039
_cell_angle_alpha   119.78971716
_cell_angle_beta   89.99975260
_cell_angle_gamma   89.99933614
_symmetry_Int_Tables_number   1
_chemical_formula_structural   Tm3Lu2In2Bi
_chemical_formula_sum   'Tm6 Lu4 In4 Bi2'
_cell_volume   446.47167428
_cell_formula_units_Z   2
loop_
 _symmetry_equiv_pos_site_id
 _symmetry_equiv_pos_as_xyz
  1  'x, y, z'
loop_
 _atom_site_type_symbol
 _atom_site_label
 _atom_site_symmetry_multiplicity
 _atom_site_fract_x
 _atom_site_fract_y
 _atom_site_fract_z
 _atom_site_occupancy
  Tm  Tm0  1  0.750001  0.228070  0.990711  1
  Tm  Tm1  1  0.750013  0.771688  0.762225  1
  Tm  Tm2  1  0.750012  0.999925  0.239099  1
  Tm  Tm3  1  0.250006  0.765043  0.000427  1
  Tm  Tm4  1  0.249986  0.234947  0.235307  1
  Tm  Tm5  1  0.249990  0.000088  0.763231  1
  Lu  Lu6  1  0.492538  0.328662  0.667106  1
  Lu  Lu7  1  0.492619  0.671336  0.338535  1
  Lu  Lu8  1  0.007354  0.671331  0.338535  1
  Lu  Lu9  1  0.007473  0.328666  0.667120  1
  In  In10  1  0.750002  0.000074  0.595623  1
  In  In11  1  0.250019  0.398087  0.003358  1
  In  In12  1  0.249998  0.601744  0.604928  1
  In  In13  1  0.249989  0.000097  0.398051  1
  Bi  Bi14  1  0.749997  0.603752  0.999691  1
  Bi  Bi15  1  0.750002  0.396491  0.396055  1
