# generated using pymatgen
data_CaMnCo3O8
_symmetry_space_group_name_H-M   'P 1'
_cell_length_a   5.70534143
_cell_length_b   6.42484840
_cell_length_c   9.81387567
_cell_angle_alpha   104.00452103
_cell_angle_beta   89.98922244
_cell_angle_gamma   116.30954302
_symmetry_Int_Tables_number   1
_chemical_formula_structural   CaMnCo3O8
_chemical_formula_sum   'Ca2 Mn2 Co6 O16'
_cell_volume   310.50795298
_cell_formula_units_Z   2
loop_
 _symmetry_equiv_pos_site_id
 _symmetry_equiv_pos_as_xyz
  1  'x, y, z'
loop_
 _atom_site_type_symbol
 _atom_site_label
 _atom_site_symmetry_multiplicity
 _atom_site_fract_x
 _atom_site_fract_y
 _atom_site_fract_z
 _atom_site_occupancy
  Ca  Ca0  1  0.750134  0.500179  0.250082  1
  Ca  Ca1  1  0.249867  0.499832  0.749934  1
  Mn  Mn2  1  0.000246  0.000075  0.999934  1
  Mn  Mn3  1  0.499377  0.999691  0.499911  1
  Co  Co4  1  0.750171  0.000335  0.250094  1
  Co  Co5  1  0.999949  0.999782  0.499971  1
  Co  Co6  1  0.250169  0.000350  0.250079  1
  Co  Co7  1  0.249864  0.999666  0.749946  1
  Co  Co8  1  0.500071  0.000226  0.000020  1
  Co  Co9  1  0.749852  0.999627  0.749930  1
  O  O10  1  0.584448  0.169059  0.863239  1
  O  O11  1  0.084570  0.169473  0.363566  1
  O  O12  1  0.415726  0.831148  0.136695  1
  O  O13  1  0.915349  0.830280  0.636494  1
  O  O14  1  0.661845  0.817214  0.388009  1
  O  O15  1  0.161925  0.817399  0.888308  1
  O  O16  1  0.909296  0.818330  0.138587  1
  O  O17  1  0.408901  0.817485  0.638386  1
  O  O18  1  0.155690  0.817229  0.388026  1
  O  O19  1  0.655645  0.817223  0.888228  1
  O  O20  1  0.844227  0.182439  0.611871  1
  O  O21  1  0.344546  0.183173  0.111908  1
  O  O22  1  0.090837  0.181907  0.861355  1
  O  O23  1  0.591023  0.182304  0.361663  1
  O  O24  1  0.337961  0.182385  0.611826  1
  O  O25  1  0.838312  0.183191  0.111938  1
