# generated using pymatgen
data_Sm3Tl2InAg2Rh
_symmetry_space_group_name_H-M   'P 1'
_cell_length_a   7.93462157
_cell_length_b   7.98522219
_cell_length_c   3.97429000
_cell_angle_alpha   90.00000000
_cell_angle_beta   90.00000000
_cell_angle_gamma   119.68335364
_symmetry_Int_Tables_number   1
_chemical_formula_structural   Sm3Tl2InAg2Rh
_chemical_formula_sum   'Sm3 Tl2 In1 Ag2 Rh1'
_cell_volume   218.76624151
_cell_formula_units_Z   1
loop_
 _symmetry_equiv_pos_site_id
 _symmetry_equiv_pos_as_xyz
  1  'x, y, z'
loop_
 _atom_site_type_symbol
 _atom_site_label
 _atom_site_symmetry_multiplicity
 _atom_site_fract_x
 _atom_site_fract_y
 _atom_site_fract_z
 _atom_site_occupancy
  Sm  Sm0  1  0.973561  0.396478  0.500000  1
  Sm  Sm1  1  0.602050  0.575957  0.500000  1
  Sm  Sm2  1  0.423987  0.027077  0.500000  1
  Tl  Tl3  1  0.262761  0.267133  0.000000  1
  Tl  Tl4  1  0.000345  0.735385  0.000000  1
  In  In5  1  0.736439  0.998835  0.000000  1
  Ag  Ag6  1  0.339606  0.672422  0.000000  1
  Ag  Ag7  1  0.993516  0.000050  0.500000  1
  Rh  Rh8  1  0.667734  0.326665  0.000000  1
