# generated using pymatgen
data_YbTm3OsRu7
_symmetry_space_group_name_H-M   'P 1'
_cell_length_a   5.20756999
_cell_length_b   5.29300433
_cell_length_c   8.89788847
_cell_angle_alpha   90.00000054
_cell_angle_beta   90.05704853
_cell_angle_gamma   120.54420767
_symmetry_Int_Tables_number   1
_chemical_formula_structural   YbTm3OsRu7
_chemical_formula_sum   'Yb1 Tm3 Os1 Ru7'
_cell_volume   211.22575160
_cell_formula_units_Z   1
loop_
 _symmetry_equiv_pos_site_id
 _symmetry_equiv_pos_as_xyz
  1  'x, y, z'
loop_
 _atom_site_type_symbol
 _atom_site_label
 _atom_site_symmetry_multiplicity
 _atom_site_fract_x
 _atom_site_fract_y
 _atom_site_fract_z
 _atom_site_occupancy
  Yb  Yb0  1  0.328227  0.664114  0.064838  1
  Tm  Tm1  1  0.329798  0.664899  0.428150  1
  Tm  Tm2  1  0.662569  0.331285  0.567306  1
  Tm  Tm3  1  0.661427  0.330714  0.937184  1
  Os  Os4  1  0.671236  0.835618  0.750129  1
  Ru  Ru5  1  0.988417  0.994208  0.501066  1
  Ru  Ru6  1  0.987363  0.993682  0.000212  1
  Ru  Ru7  1  0.829945  0.166327  0.250880  1
  Ru  Ru8  1  0.829945  0.663619  0.250880  1
  Ru  Ru9  1  0.350605  0.175302  0.252065  1
  Ru  Ru10  1  0.180233  0.830287  0.748645  1
  Ru  Ru11  1  0.180233  0.349947  0.748645  1
