# generated using pymatgen
data_Ta(NiPt3)2
_symmetry_space_group_name_H-M   'P 1'
_cell_length_a   6.14934927
_cell_length_b   6.14934809
_cell_length_c   6.18439389
_cell_angle_alpha   95.73522435
_cell_angle_beta   95.73520552
_cell_angle_gamma   143.03454233
_symmetry_Int_Tables_number   1
_chemical_formula_structural   Ta(NiPt3)2
_chemical_formula_sum   'Ta1 Ni2 Pt6'
_cell_volume   133.45816729
_cell_formula_units_Z   1
loop_
 _symmetry_equiv_pos_site_id
 _symmetry_equiv_pos_as_xyz
  1  'x, y, z'
loop_
 _atom_site_type_symbol
 _atom_site_label
 _atom_site_symmetry_multiplicity
 _atom_site_fract_x
 _atom_site_fract_y
 _atom_site_fract_z
 _atom_site_occupancy
  Ta  Ta0  1  0.000000  0.000000  0.000000  1
  Ni  Ni1  1  0.334787  0.334787  0.669575  1
  Ni  Ni2  1  0.665213  0.665213  0.330425  1
  Pt  Pt3  1  0.658624  0.341376  0.000000  1
  Pt  Pt4  1  0.341376  0.658624  0.000000  1
  Pt  Pt5  1  0.010041  0.325450  0.335491  1
  Pt  Pt6  1  0.989959  0.674550  0.664509  1
  Pt  Pt7  1  0.674550  0.989959  0.664509  1
  Pt  Pt8  1  0.325450  0.010041  0.335491  1
