# generated using pymatgen
data_Yb7NpP6
_symmetry_space_group_name_H-M   'P 1'
_cell_length_a   7.40811513
_cell_length_b   7.48120017
_cell_length_c   7.49346711
_cell_angle_alpha   109.68795377
_cell_angle_beta   109.34979129
_cell_angle_gamma   109.23908372
_symmetry_Int_Tables_number   1
_chemical_formula_structural   Yb7NpP6
_chemical_formula_sum   'Yb7 Np1 P6'
_cell_volume   320.23272674
_cell_formula_units_Z   1
loop_
 _symmetry_equiv_pos_site_id
 _symmetry_equiv_pos_as_xyz
  1  'x, y, z'
loop_
 _atom_site_type_symbol
 _atom_site_label
 _atom_site_symmetry_multiplicity
 _atom_site_fract_x
 _atom_site_fract_y
 _atom_site_fract_z
 _atom_site_occupancy
  Yb  Yb0  1  0.499288  0.999812  0.641112  1
  Yb  Yb1  1  0.365814  0.362455  0.372720  1
  Yb  Yb2  1  0.993862  0.128801  0.490460  1
  Yb  Yb3  1  0.857863  0.858710  0.859059  1
  Yb  Yb4  1  0.999137  0.641180  0.499985  1
  Yb  Yb5  1  0.640688  0.500226  0.999563  1
  Yb  Yb6  1  0.501606  0.008873  0.136500  1
  Np  Np7  1  0.147263  0.499127  0.001466  1
  P  P8  1  0.883499  0.258117  0.121331  1
  P  P9  1  0.126691  0.862997  0.242001  1
  P  P10  1  0.368661  0.624380  0.757692  1
  P  P11  1  0.242557  0.134655  0.875722  1
  P  P12  1  0.764142  0.379489  0.637914  1
  P  P13  1  0.608927  0.741179  0.364474  1
