# generated using pymatgen
data_Nd9YIn8(IrPd)2
_symmetry_space_group_name_H-M   'P 1'
_cell_length_a   3.79042500
_cell_length_b   8.27551257
_cell_length_c   18.62964460
_cell_angle_alpha   90.23254603
_cell_angle_beta   90.00000000
_cell_angle_gamma   90.00000000
_symmetry_Int_Tables_number   1
_chemical_formula_structural   Nd9YIn8(IrPd)2
_chemical_formula_sum   'Nd9 Y1 In8 Ir2 Pd2'
_cell_volume   584.36447083
_cell_formula_units_Z   1
loop_
 _symmetry_equiv_pos_site_id
 _symmetry_equiv_pos_as_xyz
  1  'x, y, z'
loop_
 _atom_site_type_symbol
 _atom_site_label
 _atom_site_symmetry_multiplicity
 _atom_site_fract_x
 _atom_site_fract_y
 _atom_site_fract_z
 _atom_site_occupancy
  Nd  Nd0  1  0.500000  0.228383  0.779965  1
  Nd  Nd1  1  0.500000  0.770579  0.220280  1
  Nd  Nd2  1  0.500000  0.247443  0.280239  1
  Nd  Nd3  1  0.500000  0.752403  0.720159  1
  Nd  Nd4  1  0.500000  0.115234  0.587351  1
  Nd  Nd5  1  0.500000  0.884661  0.412902  1
  Nd  Nd6  1  0.500000  0.380799  0.083763  1
  Nd  Nd7  1  0.500000  0.001782  0.999419  1
  Nd  Nd8  1  0.500000  0.499796  0.500145  1
  Y  Y9  1  0.500000  0.617449  0.914342  1
  In  In10  1  0.000000  0.074564  0.149618  1
  In  In11  1  0.000000  0.919648  0.851464  1
  In  In12  1  0.000000  0.427401  0.652472  1
  In  In13  1  0.000000  0.572498  0.348256  1
  In  In14  1  0.000000  0.208301  0.430530  1
  In  In15  1  0.000000  0.790935  0.569616  1
  In  In16  1  0.000000  0.298624  0.931713  1
  In  In17  1  0.000000  0.706378  0.066166  1
  Ir  Ir18  1  0.000000  0.016660  0.696168  1
  Ir  Ir19  1  0.000000  0.983190  0.303852  1
  Pd  Pd20  1  0.000000  0.483221  0.195943  1
  Pd  Pd21  1  0.000000  0.520053  0.805637  1
