# generated using pymatgen
data_Na2Al(SiPd2)3
_symmetry_space_group_name_H-M   'P 1'
_cell_length_a   6.76205754
_cell_length_b   6.72253697
_cell_length_c   6.76205641
_cell_angle_alpha   129.42235537
_cell_angle_beta   115.67494088
_cell_angle_gamma   86.27514307
_symmetry_Int_Tables_number   1
_chemical_formula_structural   Na2Al(SiPd2)3
_chemical_formula_sum   'Na2 Al1 Si3 Pd6'
_cell_volume   204.02601377
_cell_formula_units_Z   1
loop_
 _symmetry_equiv_pos_site_id
 _symmetry_equiv_pos_as_xyz
  1  'x, y, z'
loop_
 _atom_site_type_symbol
 _atom_site_label
 _atom_site_symmetry_multiplicity
 _atom_site_fract_x
 _atom_site_fract_y
 _atom_site_fract_z
 _atom_site_occupancy
  Na  Na0  1  0.000880  0.978578  0.977698  1
  Na  Na1  1  0.500089  0.048605  0.548516  1
  Al  Al2  1  0.351086  0.408432  0.057346  1
  Si  Si3  1  0.808361  0.237739  0.429378  1
  Si  Si4  1  0.648880  0.703652  0.054772  1
  Si  Si5  1  0.194491  0.621952  0.427461  1
  Pd  Pd6  1  0.947719  0.499814  0.951470  1
  Pd  Pd7  1  0.548343  0.499814  0.552095  1
  Pd  Pd8  1  0.042340  0.997672  0.541179  1
  Pd  Pd9  1  0.792464  0.495535  0.286683  1
  Pd  Pd10  1  0.208852  0.495535  0.703070  1
  Pd  Pd11  1  0.456494  0.997672  0.955333  1
