# generated using pymatgen
data_Pu3CuO10
_symmetry_space_group_name_H-M   'P 1'
_cell_length_a   5.62595392
_cell_length_b   5.69751782
_cell_length_c   7.54357008
_cell_angle_alpha   70.74600959
_cell_angle_beta   70.60539506
_cell_angle_gamma   70.28377766
_symmetry_Int_Tables_number   1
_chemical_formula_structural   Pu3CuO10
_chemical_formula_sum   'Pu3 Cu1 O10'
_cell_volume   208.15433679
_cell_formula_units_Z   1
loop_
 _symmetry_equiv_pos_site_id
 _symmetry_equiv_pos_as_xyz
  1  'x, y, z'
loop_
 _atom_site_type_symbol
 _atom_site_label
 _atom_site_symmetry_multiplicity
 _atom_site_fract_x
 _atom_site_fract_y
 _atom_site_fract_z
 _atom_site_occupancy
  Pu  Pu0  1  0.000000  0.000000  0.000000  1
  Pu  Pu1  1  0.534298  0.459172  0.732783  1
  Pu  Pu2  1  0.465702  0.540828  0.267217  1
  Cu  Cu3  1  0.000000  0.000000  0.500000  1
  O  O4  1  0.690681  0.754096  0.152739  1
  O  O5  1  0.921358  0.066387  0.755527  1
  O  O6  1  0.078642  0.933613  0.244473  1
  O  O7  1  0.247716  0.334013  0.365601  1
  O  O8  1  0.304908  0.702586  0.527646  1
  O  O9  1  0.292283  0.693824  0.965444  1
  O  O10  1  0.309319  0.245904  0.847261  1
  O  O11  1  0.695092  0.297414  0.472354  1
  O  O12  1  0.752284  0.665987  0.634399  1
  O  O13  1  0.707717  0.306176  0.034556  1
