# generated using pymatgen
data_K3LiIr2O9
_symmetry_space_group_name_H-M   'P 1'
_cell_length_a   5.81329300
_cell_length_b   5.81329307
_cell_length_c   13.78101600
_cell_angle_alpha   90.00000000
_cell_angle_beta   90.00000000
_cell_angle_gamma   60.00040444
_symmetry_Int_Tables_number   1
_chemical_formula_structural   K3LiIr2O9
_chemical_formula_sum   'K6 Li2 Ir4 O18'
_cell_volume   403.32771836
_cell_formula_units_Z   2
loop_
 _symmetry_equiv_pos_site_id
 _symmetry_equiv_pos_as_xyz
  1  'x, y, z'
loop_
 _atom_site_type_symbol
 _atom_site_label
 _atom_site_symmetry_multiplicity
 _atom_site_fract_x
 _atom_site_fract_y
 _atom_site_fract_z
 _atom_site_occupancy
  K  K0  1  0.333336  0.333336  0.100744  1
  K  K1  1  0.000020  0.000020  0.250000  1
  K  K2  1  0.333336  0.333336  0.399256  1
  K  K3  1  0.666663  0.666663  0.600744  1
  K  K4  1  0.999980  0.999980  0.750001  1
  K  K5  1  0.666663  0.666663  0.899256  1
  Li  Li6  1  0.000000  0.000000  0.000000  1
  Li  Li7  1  0.000000  0.000000  0.500000  1
  Ir  Ir8  1  0.666671  0.666671  0.145723  1
  Ir  Ir9  1  0.666671  0.666671  0.354277  1
  Ir  Ir10  1  0.333328  0.333328  0.645723  1
  Ir  Ir11  1  0.333328  0.333328  0.854277  1
  O  O12  1  0.825960  0.348086  0.079942  1
  O  O13  1  0.348086  0.825960  0.079942  1
  O  O14  1  0.825979  0.825979  0.079943  1
  O  O15  1  0.525110  0.525110  0.250000  1
  O  O16  1  0.949806  0.525116  0.250000  1
  O  O17  1  0.525116  0.949806  0.250000  1
  O  O18  1  0.825960  0.348086  0.420058  1
  O  O19  1  0.348086  0.825960  0.420058  1
  O  O20  1  0.825979  0.825979  0.420057  1
  O  O21  1  0.174022  0.174022  0.579943  1
  O  O22  1  0.651914  0.174040  0.579942  1
  O  O23  1  0.174040  0.651914  0.579942  1
  O  O24  1  0.474885  0.050194  0.750001  1
  O  O25  1  0.050194  0.474885  0.750001  1
  O  O26  1  0.474890  0.474890  0.750001  1
  O  O27  1  0.174022  0.174022  0.920057  1
  O  O28  1  0.651914  0.174040  0.920058  1
  O  O29  1  0.174040  0.651914  0.920058  1
