# generated using pymatgen
data_DyHo5Al24Ru7Pt
_symmetry_space_group_name_H-M   'P 1'
_cell_length_a   8.80849864
_cell_length_b   8.81088460
_cell_length_c   9.54091201
_cell_angle_alpha   90.16735263
_cell_angle_beta   89.82921454
_cell_angle_gamma   119.87923413
_symmetry_Int_Tables_number   1
_chemical_formula_structural   DyHo5Al24Ru7Pt
_chemical_formula_sum   'Dy1 Ho5 Al24 Ru7 Pt1'
_cell_volume   642.04669859
_cell_formula_units_Z   1
loop_
 _symmetry_equiv_pos_site_id
 _symmetry_equiv_pos_as_xyz
  1  'x, y, z'
loop_
 _atom_site_type_symbol
 _atom_site_label
 _atom_site_symmetry_multiplicity
 _atom_site_fract_x
 _atom_site_fract_y
 _atom_site_fract_z
 _atom_site_occupancy
  Dy  Dy0  1  0.386543  0.192002  0.750208  1
  Ho  Ho1  1  0.194661  0.805373  0.249851  1
  Ho  Ho2  1  0.192118  0.386971  0.249673  1
  Ho  Ho3  1  0.613066  0.807894  0.249673  1
  Ho  Ho4  1  0.805522  0.194563  0.750212  1
  Ho  Ho5  1  0.807909  0.613162  0.750298  1
  Al  Al6  1  0.561837  0.438180  0.247836  1
  Al  Al7  1  0.560638  0.121718  0.251249  1
  Al  Al8  1  0.878249  0.439355  0.251260  1
  Al  Al9  1  0.438185  0.562117  0.752179  1
  Al  Al10  1  0.439412  0.878014  0.748734  1
  Al  Al11  1  0.121704  0.560615  0.748745  1
  Al  Al12  1  0.323592  0.157662  0.421978  1
  Al  Al13  1  0.837462  0.162553  0.422145  1
  Al  Al14  1  0.842335  0.676398  0.422118  1
  Al  Al15  1  0.676370  0.842328  0.577847  1
  Al  Al16  1  0.162441  0.837287  0.577769  1
  Al  Al17  1  0.157587  0.323655  0.577811  1
  Al  Al18  1  0.675923  0.837352  0.921612  1
  Al  Al19  1  0.162477  0.837252  0.921787  1
  Al  Al20  1  0.162525  0.324120  0.921652  1
  Al  Al21  1  0.324049  0.162656  0.078564  1
  Al  Al22  1  0.837427  0.162588  0.078304  1
  Al  Al23  1  0.837371  0.675951  0.078435  1
  Al  Al24  1  0.669427  0.330851  0.519953  1
  Al  Al25  1  0.330781  0.669219  0.479907  1
  Al  Al26  1  0.333202  0.666795  0.017061  1
  Al  Al27  1  0.666976  0.333301  0.983073  1
  Al  Al28  1  0.999648  0.000364  0.249978  1
  Al  Al29  1  0.000087  0.999503  0.750023  1
  Ru  Ru30  1  0.999995  0.999987  0.499950  1
  Ru  Ru31  1  0.999997  0.999992  0.000056  1
  Ru  Ru32  1  0.500070  0.999895  0.499853  1
  Ru  Ru33  1  0.000091  0.500048  0.499948  1
  Ru  Ru34  1  0.500070  0.500202  0.000147  1
  Ru  Ru35  1  0.500077  0.999903  0.000134  1
  Ru  Ru36  1  0.000131  0.500065  0.000074  1
  Pt  Pt37  1  0.500043  0.500107  0.499904  1
