# generated using pymatgen
data_Cs2Te(WO4)3
_symmetry_space_group_name_H-M   'P 1'
_cell_length_a   7.44581200
_cell_length_b   7.44581257
_cell_length_c   12.85823300
_cell_angle_alpha   90.00000000
_cell_angle_beta   90.00000000
_cell_angle_gamma   119.99999748
_symmetry_Int_Tables_number   1
_chemical_formula_structural   Cs2Te(WO4)3
_chemical_formula_sum   'Cs4 Te2 W6 O24'
_cell_volume   617.35660657
_cell_formula_units_Z   2
loop_
 _symmetry_equiv_pos_site_id
 _symmetry_equiv_pos_as_xyz
  1  'x, y, z'
loop_
 _atom_site_type_symbol
 _atom_site_label
 _atom_site_symmetry_multiplicity
 _atom_site_fract_x
 _atom_site_fract_y
 _atom_site_fract_z
 _atom_site_occupancy
  Cs  Cs0  1  0.333333  0.666667  0.867106  1
  Cs  Cs1  1  0.666667  0.333333  0.367106  1
  Cs  Cs2  1  0.666667  0.333333  0.001404  1
  Cs  Cs3  1  0.333333  0.666667  0.501404  1
  Te  Te4  1  0.000000  0.000000  0.437517  1
  Te  Te5  1  0.000000  0.000000  0.937517  1
  W  W6  1  0.662863  0.830636  0.170432  1
  W  W7  1  0.337137  0.167774  0.670432  1
  W  W8  1  0.169364  0.832226  0.170432  1
  W  W9  1  0.167774  0.337137  0.170432  1
  W  W10  1  0.832226  0.169364  0.670432  1
  W  W11  1  0.830636  0.662863  0.670432  1
  O  O12  1  0.192856  0.809978  0.307369  1
  O  O13  1  0.133390  0.870794  0.007166  1
  O  O14  1  0.910127  0.455591  0.635569  1
  O  O15  1  0.247642  0.124506  0.177877  1
  O  O16  1  0.129206  0.262597  0.007166  1
  O  O17  1  0.124506  0.247642  0.677877  1
  O  O18  1  0.809978  0.192856  0.807369  1
  O  O19  1  0.807144  0.617122  0.807369  1
  O  O20  1  0.875494  0.123137  0.177877  1
  O  O21  1  0.123137  0.875494  0.677877  1
  O  O22  1  0.382878  0.190022  0.807369  1
  O  O23  1  0.454536  0.544409  0.135569  1
  O  O24  1  0.190022  0.382878  0.307369  1
  O  O25  1  0.089873  0.545464  0.135569  1
  O  O26  1  0.545464  0.089873  0.635569  1
  O  O27  1  0.544409  0.454536  0.635569  1
  O  O28  1  0.617122  0.807144  0.307369  1
  O  O29  1  0.870794  0.133390  0.507166  1
  O  O30  1  0.866610  0.737403  0.507166  1
  O  O31  1  0.262597  0.129206  0.507166  1
  O  O32  1  0.737403  0.866610  0.007166  1
  O  O33  1  0.876863  0.752358  0.177877  1
  O  O34  1  0.752358  0.876863  0.677877  1
  O  O35  1  0.455591  0.910127  0.135569  1
