# generated using pymatgen
data_SmLu2Ni9
_symmetry_space_group_name_H-M   'P 1'
_cell_length_a   8.50758314
_cell_length_b   8.50758337
_cell_length_c   8.50758464
_cell_angle_alpha   33.77226848
_cell_angle_beta   33.77226325
_cell_angle_gamma   33.77226640
_symmetry_Int_Tables_number   1
_chemical_formula_structural   SmLu2Ni9
_chemical_formula_sum   'Sm1 Lu2 Ni9'
_cell_volume   169.55027353
_cell_formula_units_Z   1
loop_
 _symmetry_equiv_pos_site_id
 _symmetry_equiv_pos_as_xyz
  1  'x, y, z'
loop_
 _atom_site_type_symbol
 _atom_site_label
 _atom_site_symmetry_multiplicity
 _atom_site_fract_x
 _atom_site_fract_y
 _atom_site_fract_z
 _atom_site_occupancy
  Sm  Sm0  1  0.000000  0.000000  0.000000  1
  Lu  Lu1  1  0.140222  0.140222  0.140222  1
  Lu  Lu2  1  0.859778  0.859778  0.859778  1
  Ni  Ni3  1  0.333169  0.333169  0.333169  1
  Ni  Ni4  1  0.414996  0.918935  0.414996  1
  Ni  Ni5  1  0.585004  0.585004  0.081065  1
  Ni  Ni6  1  0.918935  0.414996  0.414996  1
  Ni  Ni7  1  0.585004  0.081065  0.585004  1
  Ni  Ni8  1  0.666831  0.666831  0.666831  1
  Ni  Ni9  1  0.500000  0.500000  0.500000  1
  Ni  Ni10  1  0.081065  0.585004  0.585004  1
  Ni  Ni11  1  0.414996  0.414996  0.918935  1
