# generated using pymatgen
data_Ac2Gd5Co4Sn13
_symmetry_space_group_name_H-M   'P 1'
_cell_length_a   11.26482800
_cell_length_b   11.26482800
_cell_length_c   4.65005800
_cell_angle_alpha   90.00000000
_cell_angle_beta   90.00000000
_cell_angle_gamma   90.00000000
_symmetry_Int_Tables_number   1
_chemical_formula_structural   Ac2Gd5Co4Sn13
_chemical_formula_sum   'Ac2 Gd5 Co4 Sn13'
_cell_volume   590.07538688
_cell_formula_units_Z   1
loop_
 _symmetry_equiv_pos_site_id
 _symmetry_equiv_pos_as_xyz
  1  'x, y, z'
loop_
 _atom_site_type_symbol
 _atom_site_label
 _atom_site_symmetry_multiplicity
 _atom_site_fract_x
 _atom_site_fract_y
 _atom_site_fract_z
 _atom_site_occupancy
  Ac  Ac0  1  0.500000  0.000000  0.500000  1
  Ac  Ac1  1  0.000000  0.500000  0.500000  1
  Gd  Gd2  1  0.000000  0.000000  0.000000  1
  Gd  Gd3  1  0.337124  0.672806  0.500000  1
  Gd  Gd4  1  0.662876  0.327194  0.500000  1
  Gd  Gd5  1  0.327194  0.337124  0.500000  1
  Gd  Gd6  1  0.672806  0.662876  0.500000  1
  Co  Co7  1  0.118193  0.724592  0.000000  1
  Co  Co8  1  0.881807  0.275408  0.000000  1
  Co  Co9  1  0.275408  0.118193  0.000000  1
  Co  Co10  1  0.724592  0.881807  0.000000  1
  Sn  Sn11  1  0.281192  0.887118  0.000000  1
  Sn  Sn12  1  0.718808  0.112882  0.000000  1
  Sn  Sn13  1  0.112882  0.281192  0.000000  1
  Sn  Sn14  1  0.887118  0.718808  0.000000  1
  Sn  Sn15  1  0.079142  0.808646  0.500000  1
  Sn  Sn16  1  0.920858  0.191354  0.500000  1
  Sn  Sn17  1  0.191354  0.079142  0.500000  1
  Sn  Sn18  1  0.808646  0.920858  0.500000  1
  Sn  Sn19  1  0.521757  0.777685  0.000000  1
  Sn  Sn20  1  0.478243  0.222315  0.000000  1
  Sn  Sn21  1  0.222315  0.521757  0.000000  1
  Sn  Sn22  1  0.777685  0.478243  0.000000  1
  Sn  Sn23  1  0.500000  0.500000  0.000000  1
