# generated using pymatgen
data_La4Zr3PtF28
_symmetry_space_group_name_H-M   'P 1'
_cell_length_a   5.88408887
_cell_length_b   9.43523302
_cell_length_c   12.68667872
_cell_angle_alpha   62.09120795
_cell_angle_beta   89.96794697
_cell_angle_gamma   89.92678853
_symmetry_Int_Tables_number   1
_chemical_formula_structural   La4Zr3PtF28
_chemical_formula_sum   'La4 Zr3 Pt1 F28'
_cell_volume   622.41672893
_cell_formula_units_Z   1
loop_
 _symmetry_equiv_pos_site_id
 _symmetry_equiv_pos_as_xyz
  1  'x, y, z'
loop_
 _atom_site_type_symbol
 _atom_site_label
 _atom_site_symmetry_multiplicity
 _atom_site_fract_x
 _atom_site_fract_y
 _atom_site_fract_z
 _atom_site_occupancy
  La  La0  1  0.758004  0.814632  0.763969  1
  La  La1  1  0.257451  0.187533  0.731987  1
  La  La2  1  0.240531  0.187084  0.239178  1
  La  La3  1  0.742527  0.810008  0.266427  1
  Zr  Zr4  1  0.754245  0.273702  0.957667  1
  Zr  Zr5  1  0.254904  0.725170  0.543234  1
  Zr  Zr6  1  0.245503  0.725547  0.043018  1
  Pt  Pt7  1  0.741962  0.273822  0.456595  1
  F  F8  1  0.452293  0.710568  0.919791  1
  F  F9  1  0.929077  0.292009  0.578920  1
  F  F10  1  0.544865  0.287950  0.080490  1
  F  F11  1  0.049873  0.711832  0.419274  1
  F  F12  1  0.460313  0.282220  0.538586  1
  F  F13  1  0.956973  0.719027  0.954351  1
  F  F14  1  0.543938  0.716745  0.455961  1
  F  F15  1  0.040805  0.280158  0.047890  1
  F  F16  1  0.770295  0.517421  0.862113  1
  F  F17  1  0.267450  0.481255  0.637711  1
  F  F18  1  0.228341  0.481943  0.139168  1
  F  F19  1  0.734423  0.509462  0.362737  1
  F  F20  1  0.760937  0.029969  0.055852  1
  F  F21  1  0.262381  0.968705  0.446314  1
  F  F22  1  0.238613  0.969085  0.943153  1
  F  F23  1  0.741619  0.037331  0.547125  1
  F  F24  1  0.978926  0.731106  0.638545  1
  F  F25  1  0.481863  0.268101  0.859899  1
  F  F26  1  0.019110  0.271284  0.370049  1
  F  F27  1  0.520519  0.731273  0.138703  1
  F  F28  1  0.048053  0.745640  0.168577  1
  F  F29  1  0.558186  0.259830  0.331418  1
  F  F30  1  0.957077  0.255456  0.832322  1
  F  F31  1  0.454352  0.743355  0.669117  1
  F  F32  1  0.412722  0.968669  0.232967  1
  F  F33  1  0.912801  0.031335  0.269400  1
  F  F34  1  0.588347  0.033692  0.767952  1
  F  F35  1  0.090721  0.967078  0.729541  1
