# generated using pymatgen
data_Li3Sm4Co4P12Rh13
_symmetry_space_group_name_H-M   'P 1'
_cell_length_a   3.86664900
_cell_length_b   10.76317536
_cell_length_c   12.55071756
_cell_angle_alpha   90.07455931
_cell_angle_beta   90.00000000
_cell_angle_gamma   90.00000000
_symmetry_Int_Tables_number   1
_chemical_formula_structural   Li3Sm4Co4P12Rh13
_chemical_formula_sum   'Li3 Sm4 Co4 P12 Rh13'
_cell_volume   522.32805746
_cell_formula_units_Z   1
loop_
 _symmetry_equiv_pos_site_id
 _symmetry_equiv_pos_as_xyz
  1  'x, y, z'
loop_
 _atom_site_type_symbol
 _atom_site_label
 _atom_site_symmetry_multiplicity
 _atom_site_fract_x
 _atom_site_fract_y
 _atom_site_fract_z
 _atom_site_occupancy
  Li  Li0  1  0.250000  0.704473  0.987710  1
  Li  Li1  1  0.250000  0.795562  0.487833  1
  Li  Li2  1  0.750000  0.295074  0.011689  1
  Sm  Sm3  1  0.250000  0.581378  0.707546  1
  Sm  Sm4  1  0.250000  0.919731  0.207076  1
  Sm  Sm5  1  0.750000  0.421324  0.295091  1
  Sm  Sm6  1  0.750000  0.080045  0.793043  1
  Co  Co7  1  0.250000  0.465500  0.934852  1
  Co  Co8  1  0.250000  0.037446  0.436115  1
  Co  Co9  1  0.750000  0.532515  0.063124  1
  Co  Co10  1  0.750000  0.964040  0.563145  1
  P  P11  1  0.250000  0.426330  0.107159  1
  P  P12  1  0.250000  0.073179  0.606106  1
  P  P13  1  0.750000  0.572993  0.891625  1
  P  P14  1  0.750000  0.925443  0.392074  1
  P  P15  1  0.250000  0.271197  0.866925  1
  P  P16  1  0.250000  0.228210  0.369028  1
  P  P17  1  0.750000  0.727345  0.134311  1
  P  P18  1  0.750000  0.771595  0.633645  1
  P  P19  1  0.250000  0.603270  0.389540  1
  P  P20  1  0.250000  0.897482  0.890079  1
  P  P21  1  0.750000  0.399270  0.609768  1
  P  P22  1  0.750000  0.102910  0.110161  1
  Rh  Rh23  1  0.750000  0.209947  0.514678  1
  Rh  Rh24  1  0.250000  0.405333  0.480693  1
  Rh  Rh25  1  0.250000  0.095334  0.981547  1
  Rh  Rh26  1  0.750000  0.594408  0.520437  1
  Rh  Rh27  1  0.750000  0.904429  0.019664  1
  Rh  Rh28  1  0.250000  0.225551  0.176152  1
  Rh  Rh29  1  0.250000  0.272316  0.674976  1
  Rh  Rh30  1  0.750000  0.775655  0.825543  1
  Rh  Rh31  1  0.750000  0.724103  0.325343  1
  Rh  Rh32  1  0.250000  0.881589  0.693503  1
  Rh  Rh33  1  0.250000  0.619948  0.192020  1
  Rh  Rh34  1  0.750000  0.116136  0.303769  1
  Rh  Rh35  1  0.750000  0.378940  0.804027  1
