# generated using pymatgen
data_Tb6Cr3FeC12
_symmetry_space_group_name_H-M   'P 1'
_cell_length_a   8.13382000
_cell_length_b   8.13382108
_cell_length_c   5.01823600
_cell_angle_alpha   90.00000000
_cell_angle_beta   90.00000000
_cell_angle_gamma   119.99999560
_symmetry_Int_Tables_number   1
_chemical_formula_structural   Tb6Cr3FeC12
_chemical_formula_sum   'Tb6 Cr3 Fe1 C12'
_cell_volume   287.52188371
_cell_formula_units_Z   1
loop_
 _symmetry_equiv_pos_site_id
 _symmetry_equiv_pos_as_xyz
  1  'x, y, z'
loop_
 _atom_site_type_symbol
 _atom_site_label
 _atom_site_symmetry_multiplicity
 _atom_site_fract_x
 _atom_site_fract_y
 _atom_site_fract_z
 _atom_site_occupancy
  Tb  Tb0  1  0.624311  0.685732  0.750000  1
  Tb  Tb1  1  0.934688  0.618880  0.250000  1
  Tb  Tb2  1  0.684191  0.065312  0.250000  1
  Tb  Tb3  1  0.314268  0.938579  0.750000  1
  Tb  Tb4  1  0.061421  0.375689  0.750000  1
  Tb  Tb5  1  0.381120  0.315809  0.250000  1
  Cr  Cr6  1  0.000000  0.000000  0.498998  1
  Cr  Cr7  1  0.000000  0.000000  0.001002  1
  Cr  Cr8  1  0.666667  0.333333  0.750000  1
  Fe  Fe9  1  0.333333  0.666667  0.250000  1
  C  C10  1  0.963491  0.775948  0.750000  1
  C  C11  1  0.192009  0.959592  0.250000  1
  C  C12  1  0.767585  0.807991  0.250000  1
  C  C13  1  0.224052  0.187544  0.750000  1
  C  C14  1  0.812456  0.036509  0.750000  1
  C  C15  1  0.040408  0.232415  0.250000  1
  C  C16  1  0.865160  0.579758  0.750000  1
  C  C17  1  0.290301  0.865323  0.250000  1
  C  C18  1  0.575021  0.709699  0.250000  1
  C  C19  1  0.420242  0.285402  0.750000  1
  C  C20  1  0.134677  0.424979  0.250000  1
  C  C21  1  0.714598  0.134840  0.750000  1
