# generated using pymatgen
data_Sc4Mn3Al4Ni
_symmetry_space_group_name_H-M   'P 1'
_cell_length_a   5.08611695
_cell_length_b   5.08611656
_cell_length_c   8.45205600
_cell_angle_alpha   90.00000000
_cell_angle_beta   90.00000000
_cell_angle_gamma   117.83113914
_symmetry_Int_Tables_number   1
_chemical_formula_structural   Sc4Mn3Al4Ni
_chemical_formula_sum   'Sc4 Mn3 Al4 Ni1'
_cell_volume   193.35174009
_cell_formula_units_Z   1
loop_
 _symmetry_equiv_pos_site_id
 _symmetry_equiv_pos_as_xyz
  1  'x, y, z'
loop_
 _atom_site_type_symbol
 _atom_site_label
 _atom_site_symmetry_multiplicity
 _atom_site_fract_x
 _atom_site_fract_y
 _atom_site_fract_z
 _atom_site_occupancy
  Sc  Sc0  1  0.335308  0.664692  0.196908  1
  Sc  Sc1  1  0.667190  0.332810  0.324648  1
  Sc  Sc2  1  0.667190  0.332810  0.675352  1
  Sc  Sc3  1  0.335308  0.664692  0.803092  1
  Mn  Mn4  1  0.163307  0.356418  0.500000  1
  Mn  Mn5  1  0.643582  0.836693  0.500000  1
  Mn  Mn6  1  0.179406  0.820594  0.500000  1
  Al  Al7  1  0.994636  0.005364  0.259750  1
  Al  Al8  1  0.994636  0.005364  0.740250  1
  Al  Al9  1  0.835791  0.653262  0.000000  1
  Al  Al10  1  0.346738  0.164209  0.000000  1
  Ni  Ni11  1  0.836857  0.163143  0.000000  1
