# generated using pymatgen
data_Cs12Nb3MoS16
_symmetry_space_group_name_H-M   'P 1'
_cell_length_a   10.12464980
_cell_length_b   10.06350688
_cell_length_c   11.84904300
_cell_angle_alpha   90.00000000
_cell_angle_beta   90.00000000
_cell_angle_gamma   89.88783679
_symmetry_Int_Tables_number   1
_chemical_formula_structural   Cs12Nb3MoS16
_chemical_formula_sum   'Cs12 Nb3 Mo1 S16'
_cell_volume   1207.29054993
_cell_formula_units_Z   1
loop_
 _symmetry_equiv_pos_site_id
 _symmetry_equiv_pos_as_xyz
  1  'x, y, z'
loop_
 _atom_site_type_symbol
 _atom_site_label
 _atom_site_symmetry_multiplicity
 _atom_site_fract_x
 _atom_site_fract_y
 _atom_site_fract_z
 _atom_site_occupancy
  Cs  Cs0  1  0.414329  0.850902  0.750000  1
  Cs  Cs1  1  0.584619  0.148637  0.250000  1
  Cs  Cs2  1  0.085391  0.351069  0.750000  1
  Cs  Cs3  1  0.709774  0.547147  0.957950  1
  Cs  Cs4  1  0.290329  0.454025  0.043295  1
  Cs  Cs5  1  0.915563  0.649229  0.250000  1
  Cs  Cs6  1  0.211159  0.952533  0.043234  1
  Cs  Cs7  1  0.290329  0.454025  0.456705  1
  Cs  Cs8  1  0.211159  0.952533  0.456766  1
  Cs  Cs9  1  0.709774  0.547147  0.542050  1
  Cs  Cs10  1  0.789425  0.046554  0.542159  1
  Cs  Cs11  1  0.789425  0.046554  0.957841  1
  Nb  Nb12  1  0.983888  0.776881  0.750000  1
  Nb  Nb13  1  0.516099  0.276514  0.750000  1
  Nb  Nb14  1  0.015856  0.223145  0.250000  1
  Mo  Mo15  1  0.483974  0.723859  0.250000  1
  S  S16  1  0.570732  0.516874  0.250000  1
  S  S17  1  0.070548  0.987981  0.750000  1
  S  S18  1  0.450638  0.166434  0.910034  1
  S  S19  1  0.049764  0.666822  0.590002  1
  S  S20  1  0.428920  0.487941  0.750000  1
  S  S21  1  0.949858  0.333214  0.090084  1
  S  S22  1  0.547649  0.830125  0.407585  1
  S  S23  1  0.757055  0.790951  0.750000  1
  S  S24  1  0.049764  0.666822  0.909998  1
  S  S25  1  0.261377  0.710757  0.250000  1
  S  S26  1  0.547649  0.830125  0.092415  1
  S  S27  1  0.242614  0.209119  0.250000  1
  S  S28  1  0.742710  0.290504  0.750000  1
  S  S29  1  0.450638  0.166434  0.589966  1
  S  S30  1  0.929134  0.011928  0.250000  1
  S  S31  1  0.949858  0.333214  0.409916  1
