# generated using pymatgen
data_Ca3Pr16ErGa12
_symmetry_space_group_name_H-M   'P 1'
_cell_length_a   7.94712400
_cell_length_b   7.94712400
_cell_length_c   14.58857000
_cell_angle_alpha   90.00000000
_cell_angle_beta   90.00000000
_cell_angle_gamma   90.00000000
_symmetry_Int_Tables_number   1
_chemical_formula_structural   Ca3Pr16ErGa12
_chemical_formula_sum   'Ca3 Pr16 Er1 Ga12'
_cell_volume   921.36710413
_cell_formula_units_Z   1
loop_
 _symmetry_equiv_pos_site_id
 _symmetry_equiv_pos_as_xyz
  1  'x, y, z'
loop_
 _atom_site_type_symbol
 _atom_site_label
 _atom_site_symmetry_multiplicity
 _atom_site_fract_x
 _atom_site_fract_y
 _atom_site_fract_z
 _atom_site_occupancy
  Ca  Ca0  1  0.000000  0.500000  0.737195  1
  Ca  Ca1  1  0.000000  0.500000  0.241246  1
  Ca  Ca2  1  0.500000  0.000000  0.255728  1
  Pr  Pr3  1  0.818898  0.833874  0.603700  1
  Pr  Pr4  1  0.176242  0.831993  0.100439  1
  Pr  Pr5  1  0.168054  0.823343  0.397743  1
  Pr  Pr6  1  0.831946  0.176657  0.397743  1
  Pr  Pr7  1  0.676657  0.668054  0.397743  1
  Pr  Pr8  1  0.666126  0.318898  0.603700  1
  Pr  Pr9  1  0.333874  0.681102  0.603700  1
  Pr  Pr10  1  0.668007  0.676242  0.100439  1
  Pr  Pr11  1  0.677926  0.335469  0.897826  1
  Pr  Pr12  1  0.835469  0.822074  0.897826  1
  Pr  Pr13  1  0.323343  0.331946  0.397743  1
  Pr  Pr14  1  0.181102  0.166126  0.603700  1
  Pr  Pr15  1  0.823758  0.168007  0.100439  1
  Pr  Pr16  1  0.322074  0.664531  0.897826  1
  Pr  Pr17  1  0.331993  0.323758  0.100439  1
  Pr  Pr18  1  0.164531  0.177926  0.897826  1
  Er  Er19  1  0.500000  0.000000  0.774979  1
  Ga  Ga20  1  0.617123  0.382562  0.249074  1
  Ga  Ga21  1  0.123665  0.885168  0.750450  1
  Ga  Ga22  1  0.385168  0.376335  0.750450  1
  Ga  Ga23  1  0.382877  0.617438  0.249074  1
  Ga  Ga24  1  0.882562  0.882877  0.249074  1
  Ga  Ga25  1  0.614832  0.623665  0.750450  1
  Ga  Ga26  1  0.000000  0.500000  0.503659  1
  Ga  Ga27  1  0.876335  0.114832  0.750450  1
  Ga  Ga28  1  0.500000  0.000000  0.493979  1
  Ga  Ga29  1  0.500000  0.000000  0.992340  1
  Ga  Ga30  1  0.117438  0.117123  0.249074  1
  Ga  Ga31  1  0.000000  0.500000  0.003948  1
