# generated using pymatgen
data_NdTmCd2(Ir2O7)2
_symmetry_space_group_name_H-M   'P 1'
_cell_length_a   7.26709007
_cell_length_b   7.26709047
_cell_length_c   7.39300000
_cell_angle_alpha   59.42439279
_cell_angle_beta   59.42438768
_cell_angle_gamma   59.23188076
_symmetry_Int_Tables_number   1
_chemical_formula_structural   NdTmCd2(Ir2O7)2
_chemical_formula_sum   'Nd1 Tm1 Cd2 Ir4 O14'
_cell_volume   272.05238535
_cell_formula_units_Z   1
loop_
 _symmetry_equiv_pos_site_id
 _symmetry_equiv_pos_as_xyz
  1  'x, y, z'
loop_
 _atom_site_type_symbol
 _atom_site_label
 _atom_site_symmetry_multiplicity
 _atom_site_fract_x
 _atom_site_fract_y
 _atom_site_fract_z
 _atom_site_occupancy
  Nd  Nd0  1  0.125000  0.125000  0.625000  1
  Tm  Tm1  1  0.125000  0.125000  0.125000  1
  Cd  Cd2  1  0.625000  0.125000  0.125000  1
  Cd  Cd3  1  0.125000  0.625000  0.125000  1
  Ir  Ir4  1  0.125000  0.625000  0.625000  1
  Ir  Ir5  1  0.625000  0.125000  0.625000  1
  Ir  Ir6  1  0.625000  0.625000  0.125000  1
  Ir  Ir7  1  0.625000  0.625000  0.625000  1
  O  O8  1  0.698933  0.698933  0.299741  1
  O  O9  1  0.289227  0.289227  0.718352  1
  O  O10  1  0.703083  0.294589  0.703693  1
  O  O11  1  0.295784  0.716149  0.298277  1
  O  O12  1  0.294589  0.703083  0.703693  1
  O  O13  1  0.716149  0.295784  0.298277  1
  O  O14  1  0.551067  0.551067  0.950259  1
  O  O15  1  0.960773  0.960773  0.531648  1
  O  O16  1  0.546917  0.955411  0.546307  1
  O  O17  1  0.954216  0.533851  0.951723  1
  O  O18  1  0.955411  0.546917  0.546307  1
  O  O19  1  0.533851  0.954216  0.951723  1
  O  O20  1  0.252036  0.252036  0.236385  1
  O  O21  1  0.997964  0.997964  0.013615  1
