# generated using pymatgen
data_PrCuAgPd3
_symmetry_space_group_name_H-M   'P 1'
_cell_length_a   5.50247267
_cell_length_b   5.50247321
_cell_length_c   5.26877800
_cell_angle_alpha   58.52158103
_cell_angle_beta   58.52156542
_cell_angle_gamma   59.99999585
_symmetry_Int_Tables_number   1
_chemical_formula_structural   PrCuAgPd3
_chemical_formula_sum   'Pr1 Cu1 Ag1 Pd3'
_cell_volume   110.21365075
_cell_formula_units_Z   1
loop_
 _symmetry_equiv_pos_site_id
 _symmetry_equiv_pos_as_xyz
  1  'x, y, z'
loop_
 _atom_site_type_symbol
 _atom_site_label
 _atom_site_symmetry_multiplicity
 _atom_site_fract_x
 _atom_site_fract_y
 _atom_site_fract_z
 _atom_site_occupancy
  Pr  Pr0  1  0.249333  0.249333  0.252002  1
  Cu  Cu1  1  0.626052  0.626052  0.121847  1
  Ag  Ag2  1  0.996553  0.996553  0.010342  1
  Pd  Pd3  1  0.626899  0.124265  0.621937  1
  Pd  Pd4  1  0.124265  0.626899  0.621937  1
  Pd  Pd5  1  0.626899  0.626899  0.621937  1
