# generated using pymatgen
data_Th10AgSn6Br
_symmetry_space_group_name_H-M   'P 1'
_cell_length_a   6.62175700
_cell_length_b   9.56509143
_cell_length_c   9.56509000
_cell_angle_alpha   120.00000198
_cell_angle_beta   90.00000000
_cell_angle_gamma   90.00000000
_symmetry_Int_Tables_number   1
_chemical_formula_structural   Th10AgSn6Br
_chemical_formula_sum   'Th10 Ag1 Sn6 Br1'
_cell_volume   524.66494555
_cell_formula_units_Z   1
loop_
 _symmetry_equiv_pos_site_id
 _symmetry_equiv_pos_as_xyz
  1  'x, y, z'
loop_
 _atom_site_type_symbol
 _atom_site_label
 _atom_site_symmetry_multiplicity
 _atom_site_fract_x
 _atom_site_fract_y
 _atom_site_fract_z
 _atom_site_occupancy
  Th  Th0  1  0.749316  0.718428  0.718428  1
  Th  Th1  1  0.250684  0.281572  0.281572  1
  Th  Th2  1  0.749316  0.000000  0.281572  1
  Th  Th3  1  0.250684  0.000000  0.718428  1
  Th  Th4  1  0.749316  0.281572  0.000000  1
  Th  Th5  1  0.250684  0.718428  0.000000  1
  Th  Th6  1  0.000000  0.666667  0.333333  1
  Th  Th7  1  0.000000  0.333333  0.666667  1
  Th  Th8  1  0.500000  0.333333  0.666667  1
  Th  Th9  1  0.500000  0.666667  0.333333  1
  Ag  Ag10  1  0.500000  0.000000  0.000000  1
  Sn  Sn11  1  0.748511  0.377509  0.377509  1
  Sn  Sn12  1  0.251489  0.622491  0.622491  1
  Sn  Sn13  1  0.748511  0.000000  0.622491  1
  Sn  Sn14  1  0.251489  0.000000  0.377509  1
  Sn  Sn15  1  0.748511  0.622491  0.000000  1
  Sn  Sn16  1  0.251489  0.377509  0.000000  1
  Br  Br17  1  0.000000  0.000000  0.000000  1
