# generated using pymatgen
data_Ac3In5
_symmetry_space_group_name_H-M   'P 1'
_cell_length_a   6.96134100
_cell_length_b   6.96035183
_cell_length_c   10.91841300
_cell_angle_alpha   90.00000000
_cell_angle_beta   90.00000000
_cell_angle_gamma   102.41841300
_symmetry_Int_Tables_number   1
_chemical_formula_structural   Ac3In5
_chemical_formula_sum   'Ac6 In10'
_cell_volume   516.65634831
_cell_formula_units_Z   2
loop_
 _symmetry_equiv_pos_site_id
 _symmetry_equiv_pos_as_xyz
  1  'x, y, z'
loop_
 _atom_site_type_symbol
 _atom_site_label
 _atom_site_symmetry_multiplicity
 _atom_site_fract_x
 _atom_site_fract_y
 _atom_site_fract_z
 _atom_site_occupancy
  Ac  Ac0  1  0.639873  0.636670  0.250000  1
  Ac  Ac1  1  0.359412  0.361800  0.750000  1
  Ac  Ac2  1  0.204895  0.793822  0.500713  1
  Ac  Ac3  1  0.204895  0.793822  0.999287  1
  Ac  Ac4  1  0.796305  0.207061  0.500697  1
  Ac  Ac5  1  0.796305  0.207061  0.999303  1
  In  In6  1  0.024636  0.028054  0.250000  1
  In  In7  1  0.971335  0.971692  0.750000  1
  In  In8  1  0.308284  0.304241  0.058038  1
  In  In9  1  0.692833  0.696200  0.944301  1
  In  In10  1  0.308284  0.304241  0.441962  1
  In  In11  1  0.692833  0.696200  0.555699  1
  In  In12  1  0.490190  0.075961  0.250000  1
  In  In13  1  0.916746  0.512587  0.750000  1
  In  In14  1  0.511319  0.921173  0.750000  1
  In  In15  1  0.081856  0.489416  0.250000  1
