# generated using pymatgen
data_ErHf8Sc3Sn10
_symmetry_space_group_name_H-M   'P 1'
_cell_length_a   11.00738830
_cell_length_b   11.02629729
_cell_length_c   11.02629749
_cell_angle_alpha   149.08335229
_cell_angle_beta   132.26520736
_cell_angle_gamma   57.97868378
_symmetry_Int_Tables_number   1
_chemical_formula_structural   ErHf8Sc3Sn10
_chemical_formula_sum   'Er1 Hf8 Sc3 Sn10'
_cell_volume   504.98031316
_cell_formula_units_Z   1
loop_
 _symmetry_equiv_pos_site_id
 _symmetry_equiv_pos_as_xyz
  1  'x, y, z'
loop_
 _atom_site_type_symbol
 _atom_site_label
 _atom_site_symmetry_multiplicity
 _atom_site_fract_x
 _atom_site_fract_y
 _atom_site_fract_z
 _atom_site_occupancy
  Er  Er0  1  0.254962  0.143499  0.111461  1
  Hf  Hf1  1  0.310974  0.561216  0.249711  1
  Hf  Hf2  1  0.687750  0.439070  0.748888  1
  Hf  Hf3  1  0.687750  0.938862  0.248680  1
  Hf  Hf4  1  0.310974  0.061262  0.749758  1
  Hf  Hf5  1  0.673165  0.434794  0.238372  1
  Hf  Hf6  1  0.327299  0.565081  0.762216  1
  Hf  Hf7  1  0.195206  0.934608  0.260598  1
  Hf  Hf8  1  0.806074  0.065391  0.740683  1
  Sc  Sc9  1  0.745335  0.856299  0.889037  1
  Sc  Sc10  1  0.031357  0.644128  0.387229  1
  Sc  Sc11  1  0.967727  0.356621  0.611106  1
  Sn  Sn12  1  0.593781  0.289991  0.303789  1
  Sn  Sn13  1  0.409080  0.711386  0.697694  1
  Sn  Sn14  1  0.985953  0.788927  0.197026  1
  Sn  Sn15  1  0.010043  0.212396  0.797647  1
  Sn  Sn16  1  0.998700  0.249996  0.250593  1
  Sn  Sn17  1  0.998700  0.748107  0.748704  1
  Sn  Sn18  1  0.467201  0.066016  0.401184  1
  Sn  Sn19  1  0.537970  0.932329  0.605643  1
  Sn  Sn20  1  0.672759  0.567738  0.105020  1
  Sn  Sn21  1  0.327241  0.432282  0.894960  1
