# generated using pymatgen
data_Dy11Th5MgZn3Ru4
_symmetry_space_group_name_H-M   'P 1'
_cell_length_a   9.58313520
_cell_length_b   9.67867786
_cell_length_c   9.67867673
_cell_angle_alpha   59.90191192
_cell_angle_beta   59.97941131
_cell_angle_gamma   59.97941692
_symmetry_Int_Tables_number   1
_chemical_formula_structural   Dy11Th5MgZn3Ru4
_chemical_formula_sum   'Dy11 Th5 Mg1 Zn3 Ru4'
_cell_volume   634.11300052
_cell_formula_units_Z   1
loop_
 _symmetry_equiv_pos_site_id
 _symmetry_equiv_pos_as_xyz
  1  'x, y, z'
loop_
 _atom_site_type_symbol
 _atom_site_label
 _atom_site_symmetry_multiplicity
 _atom_site_fract_x
 _atom_site_fract_y
 _atom_site_fract_z
 _atom_site_occupancy
  Dy  Dy0  1  0.186311  0.811986  0.811986  1
  Dy  Dy1  1  0.192336  0.807670  0.188044  1
  Dy  Dy2  1  0.808214  0.188465  0.806009  1
  Dy  Dy3  1  0.192336  0.188044  0.807670  1
  Dy  Dy4  1  0.808214  0.806009  0.188465  1
  Dy  Dy5  1  0.928325  0.568802  0.568802  1
  Dy  Dy6  1  0.562940  0.935376  0.935376  1
  Dy  Dy7  1  0.561428  0.937654  0.565476  1
  Dy  Dy8  1  0.933036  0.563871  0.939981  1
  Dy  Dy9  1  0.561428  0.565476  0.937654  1
  Dy  Dy10  1  0.933036  0.939981  0.563871  1
  Th  Th11  1  0.344036  0.349859  0.349859  1
  Th  Th12  1  0.351220  0.348585  0.952586  1
  Th  Th13  1  0.351220  0.952586  0.348585  1
  Th  Th14  1  0.945765  0.354471  0.354471  1
  Th  Th15  1  0.812779  0.187871  0.187871  1
  Mg  Mg16  1  0.284423  0.570358  0.570358  1
  Zn  Zn17  1  0.584131  0.582423  0.582423  1
  Zn  Zn18  1  0.581631  0.584695  0.249571  1
  Zn  Zn19  1  0.581631  0.249571  0.584695  1
  Ru  Ru20  1  0.129884  0.147608  0.147608  1
  Ru  Ru21  1  0.144262  0.142407  0.568562  1
  Ru  Ru22  1  0.144262  0.568562  0.142407  1
  Ru  Ru23  1  0.577156  0.147666  0.147666  1
