# generated using pymatgen
data_Ta12Zn7Ga5N2
_symmetry_space_group_name_H-M   'P 1'
_cell_length_a   8.20187466
_cell_length_b   8.19916910
_cell_length_c   8.21136639
_cell_angle_alpha   60.04300207
_cell_angle_beta   60.03823931
_cell_angle_gamma   59.98908917
_symmetry_Int_Tables_number   1
_chemical_formula_structural   Ta12Zn7Ga5N2
_chemical_formula_sum   'Ta12 Zn7 Ga5 N2'
_cell_volume   390.67346201
_cell_formula_units_Z   1
loop_
 _symmetry_equiv_pos_site_id
 _symmetry_equiv_pos_as_xyz
  1  'x, y, z'
loop_
 _atom_site_type_symbol
 _atom_site_label
 _atom_site_symmetry_multiplicity
 _atom_site_fract_x
 _atom_site_fract_y
 _atom_site_fract_z
 _atom_site_occupancy
  Ta  Ta0  1  0.190494  0.810652  0.188051  1
  Ta  Ta1  1  0.439256  0.059598  0.439633  1
  Ta  Ta2  1  0.438951  0.059832  0.062266  1
  Ta  Ta3  1  0.439339  0.439229  0.060923  1
  Ta  Ta4  1  0.189393  0.810720  0.810493  1
  Ta  Ta5  1  0.060509  0.439229  0.060923  1
  Ta  Ta6  1  0.810803  0.810652  0.188051  1
  Ta  Ta7  1  0.060358  0.439326  0.439957  1
  Ta  Ta8  1  0.190680  0.188699  0.810063  1
  Ta  Ta9  1  0.810544  0.189628  0.189284  1
  Ta  Ta10  1  0.810558  0.188699  0.810063  1
  Ta  Ta11  1  0.061512  0.059598  0.439633  1
  Zn  Zn12  1  0.414995  0.755472  0.414536  1
  Zn  Zn13  1  0.834585  0.834827  0.835377  1
  Zn  Zn14  1  0.495213  0.834827  0.835377  1
  Zn  Zn15  1  0.624632  0.122647  0.628090  1
  Zn  Zn16  1  0.623113  0.629961  0.123814  1
  Zn  Zn17  1  0.125229  0.628202  0.624924  1
  Zn  Zn18  1  0.621645  0.628202  0.624924  1
  Ga  Ga19  1  0.835632  0.491508  0.837231  1
  Ga  Ga20  1  0.412809  0.413796  0.760583  1
  Ga  Ga21  1  0.759726  0.414238  0.412582  1
  Ga  Ga22  1  0.413451  0.414238  0.412582  1
  Ga  Ga23  1  0.836156  0.836962  0.490729  1
  N  N24  1  0.000506  0.999886  0.999103  1
  N  N25  1  0.249911  0.249374  0.250804  1
