# generated using pymatgen
data_ThZr6Pa3Si8
_symmetry_space_group_name_H-M   'P 1'
_cell_length_a   7.33330097
_cell_length_b   7.11939042
_cell_length_c   7.31201400
_cell_angle_alpha   71.93958467
_cell_angle_beta   89.88814766
_cell_angle_gamma   90.24792405
_symmetry_Int_Tables_number   1
_chemical_formula_structural   ThZr6Pa3Si8
_chemical_formula_sum   'Th1 Zr6 Pa3 Si8'
_cell_volume   362.93589786
_cell_formula_units_Z   1
loop_
 _symmetry_equiv_pos_site_id
 _symmetry_equiv_pos_as_xyz
  1  'x, y, z'
loop_
 _atom_site_type_symbol
 _atom_site_label
 _atom_site_symmetry_multiplicity
 _atom_site_fract_x
 _atom_site_fract_y
 _atom_site_fract_z
 _atom_site_occupancy
  Th  Th0  1  0.829037  0.431213  0.687796  1
  Zr  Zr1  1  0.674929  0.750463  0.251178  1
  Zr  Zr2  1  0.324509  0.250424  0.748021  1
  Zr  Zr3  1  0.177766  0.752490  0.750017  1
  Zr  Zr4  1  0.823128  0.247353  0.252816  1
  Zr  Zr5  1  0.001740  0.998692  0.002355  1
  Zr  Zr6  1  0.498111  0.500952  0.001148  1
  Pa  Pa7  1  0.670574  0.928217  0.690955  1
  Pa  Pa8  1  0.329153  0.069758  0.309569  1
  Pa  Pa9  1  0.173845  0.571994  0.306965  1
  Si  Si10  1  0.967509  0.867638  0.416748  1
  Si  Si11  1  0.036211  0.128231  0.580968  1
  Si  Si12  1  0.461493  0.637894  0.578646  1
  Si  Si13  1  0.530537  0.366095  0.413753  1
  Si  Si14  1  0.876868  0.628007  0.996431  1
  Si  Si15  1  0.126496  0.371881  0.010228  1
  Si  Si16  1  0.376316  0.873459  0.007507  1
  Si  Si17  1  0.621781  0.125236  0.994899  1
