# generated using pymatgen
data_Lu8Sc4InCo4Pt
_symmetry_space_group_name_H-M   'P 1'
_cell_length_a   7.99057446
_cell_length_b   7.99057420
_cell_length_c   7.99057499
_cell_angle_alpha   110.71769425
_cell_angle_beta   111.51227979
_cell_angle_gamma   106.23249213
_symmetry_Int_Tables_number   1
_chemical_formula_structural   Lu8Sc4InCo4Pt
_chemical_formula_sum   'Lu8 Sc4 In1 Co4 Pt1'
_cell_volume   391.79191662
_cell_formula_units_Z   1
loop_
 _symmetry_equiv_pos_site_id
 _symmetry_equiv_pos_as_xyz
  1  'x, y, z'
loop_
 _atom_site_type_symbol
 _atom_site_label
 _atom_site_symmetry_multiplicity
 _atom_site_fract_x
 _atom_site_fract_y
 _atom_site_fract_z
 _atom_site_occupancy
  Lu  Lu0  1  0.187916  0.285990  0.473906  1
  Lu  Lu1  1  0.812084  0.714010  0.526094  1
  Lu  Lu2  1  0.187916  0.714010  0.901927  1
  Lu  Lu3  1  0.812084  0.285990  0.098073  1
  Lu  Lu4  1  0.313821  0.615842  0.302020  1
  Lu  Lu5  1  0.686179  0.384158  0.697980  1
  Lu  Lu6  1  0.313821  0.011800  0.697980  1
  Lu  Lu7  1  0.686179  0.988200  0.302020  1
  Sc  Sc8  1  0.418358  0.218998  0.199362  1
  Sc  Sc9  1  0.581642  0.781002  0.800638  1
  Sc  Sc10  1  0.019636  0.218998  0.800638  1
  Sc  Sc11  1  0.980364  0.781002  0.199362  1
  In  In12  1  0.500000  0.500000  0.000000  1
  Co  Co13  1  0.371221  0.000000  0.371221  1
  Co  Co14  1  0.628779  0.000000  0.628779  1
  Co  Co15  1  0.114128  0.614128  0.500000  1
  Co  Co16  1  0.885872  0.385872  0.500000  1
  Pt  Pt17  1  0.000000  0.000000  0.000000  1
