# generated using pymatgen
data_Ba12TbSm3Ga4(Co2O15)2
_symmetry_space_group_name_H-M   'P 1'
_cell_length_a   6.08266998
_cell_length_b   8.09997872
_cell_length_c   18.80583500
_cell_angle_alpha   88.86459623
_cell_angle_beta   90.03255383
_cell_angle_gamma   90.01786921
_symmetry_Int_Tables_number   1
_chemical_formula_structural   Ba12TbSm3Ga4(Co2O15)2
_chemical_formula_sum   'Ba12 Tb1 Sm3 Ga4 Co4 O30'
_cell_volume   926.37192740
_cell_formula_units_Z   1
loop_
 _symmetry_equiv_pos_site_id
 _symmetry_equiv_pos_as_xyz
  1  'x, y, z'
loop_
 _atom_site_type_symbol
 _atom_site_label
 _atom_site_symmetry_multiplicity
 _atom_site_fract_x
 _atom_site_fract_y
 _atom_site_fract_z
 _atom_site_occupancy
  Ba  Ba0  1  0.752163  0.500492  0.077190  1
  Ba  Ba1  1  0.246619  0.501316  0.921571  1
  Ba  Ba2  1  0.752709  0.500014  0.421853  1
  Ba  Ba3  1  0.247436  0.499918  0.578342  1
  Ba  Ba4  1  0.749160  0.972207  0.087494  1
  Ba  Ba5  1  0.249978  0.026020  0.911386  1
  Ba  Ba6  1  0.750510  0.028077  0.410845  1
  Ba  Ba7  1  0.249687  0.971784  0.589375  1
  Ba  Ba8  1  0.725748  0.999731  0.751158  1
  Ba  Ba9  1  0.274631  0.999667  0.249536  1
  Ba  Ba10  1  0.664474  0.500737  0.750810  1
  Ba  Ba11  1  0.337106  0.499950  0.249917  1
  Tb  Tb12  1  0.747980  0.754304  0.910627  1
  Sm  Sm13  1  0.250936  0.245333  0.089314  1
  Sm  Sm14  1  0.748844  0.244737  0.589922  1
  Sm  Sm15  1  0.251202  0.755198  0.410343  1
  Ga  Ga16  1  0.776844  0.770879  0.265010  1
  Ga  Ga17  1  0.223625  0.229181  0.734901  1
  Ga  Ga18  1  0.777006  0.229182  0.234352  1
  Ga  Ga19  1  0.224589  0.770858  0.766703  1
  Co  Co20  1  0.746504  0.753614  0.562305  1
  Co  Co21  1  0.253778  0.246281  0.437912  1
  Co  Co22  1  0.745370  0.246805  0.937566  1
  Co  Co23  1  0.252838  0.753745  0.060542  1
  O  O24  1  0.193503  0.999632  0.750464  1
  O  O25  1  0.807676  0.000142  0.249928  1
  O  O26  1  0.514536  0.764989  0.002899  1
  O  O27  1  0.485336  0.235139  0.994899  1
  O  O28  1  0.515185  0.235069  0.494888  1
  O  O29  1  0.484807  0.765057  0.505289  1
  O  O30  1  0.768146  0.951500  0.609162  1
  O  O31  1  0.231016  0.048377  0.391066  1
  O  O32  1  0.765715  0.044897  0.892984  1
  O  O33  1  0.231420  0.951749  0.107293  1
  O  O34  1  0.017366  0.767490  0.990904  1
  O  O35  1  0.977873  0.232444  0.007328  1
  O  O36  1  0.021991  0.231344  0.507973  1
  O  O37  1  0.978229  0.768577  0.492226  1
  O  O38  1  0.330533  0.688380  0.683665  1
  O  O39  1  0.667057  0.310149  0.317222  1
  O  O40  1  0.335062  0.310340  0.817516  1
  O  O41  1  0.666304  0.690196  0.182080  1
  O  O42  1  0.447405  0.751997  0.837286  1
  O  O43  1  0.559152  0.248567  0.162623  1
  O  O44  1  0.440405  0.248606  0.662927  1
  O  O45  1  0.559483  0.751413  0.336929  1
  O  O46  1  0.953811  0.723180  0.808704  1
  O  O47  1  0.049826  0.278118  0.194688  1
  O  O48  1  0.950560  0.277884  0.695482  1
  O  O49  1  0.049382  0.721732  0.304881  1
  O  O50  1  0.757808  0.534064  0.588796  1
  O  O51  1  0.242693  0.466082  0.411364  1
  O  O52  1  0.755301  0.468245  0.911952  1
  O  O53  1  0.242680  0.534613  0.087604  1
