# generated using pymatgen
data_Pr2CdPdAu
_symmetry_space_group_name_H-M   'P 1'
_cell_length_a   8.02967800
_cell_length_b   8.07877800
_cell_length_c   3.94893300
_cell_angle_alpha   90.00000000
_cell_angle_beta   90.00000000
_cell_angle_gamma   90.00000000
_symmetry_Int_Tables_number   1
_chemical_formula_structural   Pr2CdPdAu
_chemical_formula_sum   'Pr4 Cd2 Pd2 Au2'
_cell_volume   256.16722832
_cell_formula_units_Z   2
loop_
 _symmetry_equiv_pos_site_id
 _symmetry_equiv_pos_as_xyz
  1  'x, y, z'
loop_
 _atom_site_type_symbol
 _atom_site_label
 _atom_site_symmetry_multiplicity
 _atom_site_fract_x
 _atom_site_fract_y
 _atom_site_fract_z
 _atom_site_occupancy
  Pr  Pr0  1  0.328453  0.817130  0.500000  1
  Pr  Pr1  1  0.828453  0.682870  0.500000  1
  Pr  Pr2  1  0.175800  0.338082  0.500000  1
  Pr  Pr3  1  0.675800  0.161918  0.500000  1
  Cd  Cd4  1  0.999012  0.995283  0.000000  1
  Cd  Cd5  1  0.499012  0.504717  0.000000  1
  Pd  Pd6  1  0.124555  0.628277  0.000000  1
  Pd  Pd7  1  0.624555  0.871723  0.000000  1
  Au  Au8  1  0.372181  0.122135  0.000000  1
  Au  Au9  1  0.872181  0.377865  0.000000  1
