# generated using pymatgen
data_Sr4Lu(TcO4)3
_symmetry_space_group_name_H-M   'P 1'
_cell_length_a   5.68620474
_cell_length_b   5.69980354
_cell_length_c   8.12250009
_cell_angle_alpha   90.04376044
_cell_angle_beta   90.21037615
_cell_angle_gamma   90.01782921
_symmetry_Int_Tables_number   1
_chemical_formula_structural   Sr4Lu(TcO4)3
_chemical_formula_sum   'Sr4 Lu1 Tc3 O12'
_cell_volume   263.25039327
_cell_formula_units_Z   1
loop_
 _symmetry_equiv_pos_site_id
 _symmetry_equiv_pos_as_xyz
  1  'x, y, z'
loop_
 _atom_site_type_symbol
 _atom_site_label
 _atom_site_symmetry_multiplicity
 _atom_site_fract_x
 _atom_site_fract_y
 _atom_site_fract_z
 _atom_site_occupancy
  Sr  Sr0  1  0.478581  0.001518  0.755174  1
  Sr  Sr1  1  0.980429  0.498608  0.756008  1
  Sr  Sr2  1  0.521419  0.998482  0.244826  1
  Sr  Sr3  1  0.019571  0.501392  0.243992  1
  Lu  Lu4  1  0.500000  0.500000  0.500000  1
  Tc  Tc5  1  0.000000  0.000000  0.000000  1
  Tc  Tc6  1  0.500000  0.500000  0.000000  1
  Tc  Tc7  1  0.000000  0.000000  0.500000  1
  O  O8  1  0.008016  0.948299  0.750067  1
  O  O9  1  0.510653  0.555666  0.759394  1
  O  O10  1  0.991984  0.051701  0.249933  1
  O  O11  1  0.489347  0.444334  0.240606  1
  O  O12  1  0.716164  0.192006  0.526834  1
  O  O13  1  0.233902  0.266310  0.972400  1
  O  O14  1  0.265553  0.765432  0.025935  1
  O  O15  1  0.806429  0.717581  0.471715  1
  O  O16  1  0.283836  0.807994  0.473166  1
  O  O17  1  0.766098  0.733690  0.027600  1
  O  O18  1  0.734447  0.234568  0.974065  1
  O  O19  1  0.193571  0.282419  0.528285  1
