# generated using pymatgen
data_Ta6In5CuRh12
_symmetry_space_group_name_H-M   'P 1'
_cell_length_a   4.22070003
_cell_length_b   7.33921600
_cell_length_c   12.51279500
_cell_angle_alpha   90.00000000
_cell_angle_beta   90.00639842
_cell_angle_gamma   90.00000000
_symmetry_Int_Tables_number   1
_chemical_formula_structural   Ta6In5CuRh12
_chemical_formula_sum   'Ta6 In5 Cu1 Rh12'
_cell_volume   387.60420841
_cell_formula_units_Z   1
loop_
 _symmetry_equiv_pos_site_id
 _symmetry_equiv_pos_as_xyz
  1  'x, y, z'
loop_
 _atom_site_type_symbol
 _atom_site_label
 _atom_site_symmetry_multiplicity
 _atom_site_fract_x
 _atom_site_fract_y
 _atom_site_fract_z
 _atom_site_occupancy
  Ta  Ta0  1  0.000024  0.499999  0.985357  1
  Ta  Ta1  1  0.500027  0.000000  0.165047  1
  Ta  Ta2  1  0.000001  0.499999  0.333301  1
  Ta  Ta3  1  0.499983  0.000000  0.501547  1
  Ta  Ta4  1  0.999989  0.499999  0.681450  1
  Ta  Ta5  1  0.500002  0.000000  0.833428  1
  In  In6  1  0.000015  0.000000  0.000618  1
  In  In7  1  0.500009  0.499999  0.162680  1
  In  In8  1  0.000003  0.000000  0.333085  1
  In  In9  1  0.500009  0.499999  0.503767  1
  In  In10  1  0.999936  0.000000  0.666138  1
  Cu  Cu11  1  0.499998  0.499999  0.833444  1
  Rh  Rh12  1  0.500016  0.252916  0.995958  1
  Rh  Rh13  1  0.500016  0.747084  0.995958  1
  Rh  Rh14  1  0.000000  0.252142  0.165935  1
  Rh  Rh15  1  0.000000  0.747858  0.165935  1
  Rh  Rh16  1  0.499997  0.250460  0.333275  1
  Rh  Rh17  1  0.499997  0.749540  0.333275  1
  Rh  Rh18  1  0.999990  0.251972  0.500620  1
  Rh  Rh19  1  0.999990  0.748028  0.500620  1
  Rh  Rh20  1  0.499980  0.252956  0.670837  1
  Rh  Rh21  1  0.499980  0.747044  0.670837  1
  Rh  Rh22  1  0.000016  0.251998  0.833444  1
  Rh  Rh23  1  0.000016  0.748002  0.833444  1
