# generated using pymatgen
data_SmTh3Fe2(NiB8)2
_symmetry_space_group_name_H-M   'P 1'
_cell_length_a   6.93679395
_cell_length_b   6.93679455
_cell_length_c   6.93679360
_cell_angle_alpha   112.71117047
_cell_angle_beta   112.23862590
_cell_angle_gamma   103.61810530
_symmetry_Int_Tables_number   1
_chemical_formula_structural   SmTh3Fe2(NiB8)2
_chemical_formula_sum   'Sm1 Th3 Fe2 Ni2 B16'
_cell_volume   254.96537371
_cell_formula_units_Z   1
loop_
 _symmetry_equiv_pos_site_id
 _symmetry_equiv_pos_as_xyz
  1  'x, y, z'
loop_
 _atom_site_type_symbol
 _atom_site_label
 _atom_site_symmetry_multiplicity
 _atom_site_fract_x
 _atom_site_fract_y
 _atom_site_fract_z
 _atom_site_occupancy
  Sm  Sm0  1  0.790624  0.790624  0.000000  1
  Th  Th1  1  0.743801  0.243801  0.500000  1
  Th  Th2  1  0.256396  0.756396  0.500000  1
  Th  Th3  1  0.210258  0.210258  0.000000  1
  Fe  Fe4  1  0.498476  0.273387  0.774911  1
  Fe  Fe5  1  0.498476  0.723566  0.225089  1
  Ni  Ni6  1  0.731724  0.499808  0.231915  1
  Ni  Ni7  1  0.267893  0.499808  0.768085  1
  B  B8  1  0.419372  0.417506  0.535209  1
  B  B9  1  0.882297  0.884163  0.464791  1
  B  B10  1  0.580988  0.116334  0.998546  1
  B  B11  1  0.117788  0.582442  0.001454  1
  B  B12  1  0.580988  0.582442  0.464653  1
  B  B13  1  0.117788  0.116334  0.535347  1
  B  B14  1  0.882297  0.417506  0.998134  1
  B  B15  1  0.419372  0.884163  0.001866  1
  B  B16  1  0.111508  0.275651  0.386333  1
  B  B17  1  0.889319  0.725176  0.613667  1
  B  B18  1  0.889319  0.275651  0.164143  1
  B  B19  1  0.111508  0.725176  0.835857  1
  B  B20  1  0.722817  0.886874  0.609786  1
  B  B21  1  0.277088  0.113031  0.390214  1
  B  B22  1  0.722817  0.113031  0.835943  1
  B  B23  1  0.277088  0.886874  0.164057  1
