# generated using pymatgen
data_Ho10GaSn3Bi2
_symmetry_space_group_name_H-M   'P 1'
_cell_length_a   8.94680336
_cell_length_b   8.91779700
_cell_length_c   6.46982300
_cell_angle_alpha   90.00000000
_cell_angle_beta   90.00000000
_cell_angle_gamma   119.89667951
_symmetry_Int_Tables_number   1
_chemical_formula_structural   Ho10GaSn3Bi2
_chemical_formula_sum   'Ho10 Ga1 Sn3 Bi2'
_cell_volume   447.50688364
_cell_formula_units_Z   1
loop_
 _symmetry_equiv_pos_site_id
 _symmetry_equiv_pos_as_xyz
  1  'x, y, z'
loop_
 _atom_site_type_symbol
 _atom_site_label
 _atom_site_symmetry_multiplicity
 _atom_site_fract_x
 _atom_site_fract_y
 _atom_site_fract_z
 _atom_site_occupancy
  Ho  Ho0  1  0.994990  0.756663  0.750000  1
  Ho  Ho1  1  0.994456  0.242124  0.250000  1
  Ho  Ho2  1  0.770580  0.760481  0.250000  1
  Ho  Ho3  1  0.764481  0.000632  0.750000  1
  Ho  Ho4  1  0.236124  0.242175  0.750000  1
  Ho  Ho5  1  0.229475  0.983522  0.250000  1
  Ho  Ho6  1  0.325160  0.665057  0.499056  1
  Ho  Ho7  1  0.680963  0.343235  0.001127  1
  Ho  Ho8  1  0.680963  0.343235  0.498873  1
  Ho  Ho9  1  0.325160  0.665057  0.000944  1
  Ga  Ga10  1  0.001061  0.604348  0.250000  1
  Sn  Sn11  1  0.001434  0.396248  0.750000  1
  Sn  Sn12  1  0.602200  0.605410  0.750000  1
  Sn  Sn13  1  0.604781  0.998037  0.250000  1
  Bi  Bi14  1  0.395729  0.004563  0.750000  1
  Bi  Bi15  1  0.392444  0.389214  0.250000  1
