# generated using pymatgen
data_Zr3In3PdRh2
_symmetry_space_group_name_H-M   'P 1'
_cell_length_a   7.69885500
_cell_length_b   7.69885561
_cell_length_c   3.40774300
_cell_angle_alpha   90.00000000
_cell_angle_beta   90.00000000
_cell_angle_gamma   119.99999309
_symmetry_Int_Tables_number   1
_chemical_formula_structural   Zr3In3PdRh2
_chemical_formula_sum   'Zr3 In3 Pd1 Rh2'
_cell_volume   174.92416560
_cell_formula_units_Z   1
loop_
 _symmetry_equiv_pos_site_id
 _symmetry_equiv_pos_as_xyz
  1  'x, y, z'
loop_
 _atom_site_type_symbol
 _atom_site_label
 _atom_site_symmetry_multiplicity
 _atom_site_fract_x
 _atom_site_fract_y
 _atom_site_fract_z
 _atom_site_occupancy
  Zr  Zr0  1  0.000000  0.398109  0.500000  1
  Zr  Zr1  1  0.601891  0.601891  0.500000  1
  Zr  Zr2  1  0.398109  0.000000  0.500000  1
  In  In3  1  0.000000  0.725520  0.000000  1
  In  In4  1  0.274480  0.274480  0.000000  1
  In  In5  1  0.725520  0.000000  0.000000  1
  Pd  Pd6  1  0.000000  0.000000  0.500000  1
  Rh  Rh7  1  0.333333  0.666667  0.000000  1
  Rh  Rh8  1  0.666667  0.333333  0.000000  1
