# generated using pymatgen
data_Er3Tm5B24(RuW)2
_symmetry_space_group_name_H-M   'P 1'
_cell_length_a   3.59785100
_cell_length_b   9.16908061
_cell_length_c   11.56079234
_cell_angle_alpha   89.77971315
_cell_angle_beta   90.00000000
_cell_angle_gamma   90.00000000
_symmetry_Int_Tables_number   1
_chemical_formula_structural   Er3Tm5B24(RuW)2
_chemical_formula_sum   'Er3 Tm5 B24 Ru2 W2'
_cell_volume   381.37599617
_cell_formula_units_Z   1
loop_
 _symmetry_equiv_pos_site_id
 _symmetry_equiv_pos_as_xyz
  1  'x, y, z'
loop_
 _atom_site_type_symbol
 _atom_site_label
 _atom_site_symmetry_multiplicity
 _atom_site_fract_x
 _atom_site_fract_y
 _atom_site_fract_z
 _atom_site_occupancy
  Er  Er0  1  0.000000  0.321335  0.414015  1
  Er  Er1  1  0.000000  0.678713  0.585977  1
  Er  Er2  1  0.000000  0.821533  0.086263  1
  Tm  Tm3  1  0.000000  0.178528  0.913700  1
  Tm  Tm4  1  0.000000  0.945374  0.371323  1
  Tm  Tm5  1  0.000000  0.054667  0.628723  1
  Tm  Tm6  1  0.000000  0.441539  0.127499  1
  Tm  Tm7  1  0.000000  0.558329  0.872454  1
  B  B8  1  0.500000  0.550928  0.434870  1
  B  B9  1  0.500000  0.449012  0.565186  1
  B  B10  1  0.500000  0.053837  0.066341  1
  B  B11  1  0.500000  0.946478  0.933468  1
  B  B12  1  0.500000  0.752310  0.421692  1
  B  B13  1  0.500000  0.247698  0.578364  1
  B  B14  1  0.500000  0.248555  0.080745  1
  B  B15  1  0.500000  0.751445  0.918975  1
  B  B16  1  0.500000  0.796441  0.262838  1
  B  B17  1  0.500000  0.203464  0.737413  1
  B  B18  1  0.500000  0.290203  0.233469  1
  B  B19  1  0.500000  0.709798  0.766485  1
  B  B20  1  0.500000  0.631859  0.180914  1
  B  B21  1  0.500000  0.367901  0.819242  1
  B  B22  1  0.500000  0.130617  0.313616  1
  B  B23  1  0.500000  0.869449  0.686397  1
  B  B24  1  0.500000  0.983683  0.211410  1
  B  B25  1  0.500000  0.016573  0.788673  1
  B  B26  1  0.500000  0.476764  0.286034  1
  B  B27  1  0.500000  0.523170  0.713970  1
  B  B28  1  0.500000  0.603363  0.027793  1
  B  B29  1  0.500000  0.396318  0.972118  1
  B  B30  1  0.500000  0.102994  0.470555  1
  B  B31  1  0.500000  0.897034  0.529487  1
  Ru  Ru32  1  0.000000  0.138198  0.177929  1
  Ru  Ru33  1  0.000000  0.861987  0.821954  1
  W  W34  1  0.000000  0.639035  0.319233  1
  W  W35  1  0.000000  0.360867  0.680876  1
