# generated using pymatgen
data_Pa2Tl3Cl10O
_symmetry_space_group_name_H-M   'P 1'
_cell_length_a   7.49652100
_cell_length_b   7.49652100
_cell_length_c   19.27186500
_cell_angle_alpha   90.00000000
_cell_angle_beta   90.00000000
_cell_angle_gamma   90.00000000
_symmetry_Int_Tables_number   1
_chemical_formula_structural   Pa2Tl3Cl10O
_chemical_formula_sum   'Pa4 Tl6 Cl20 O2'
_cell_volume   1083.03693723
_cell_formula_units_Z   2
loop_
 _symmetry_equiv_pos_site_id
 _symmetry_equiv_pos_as_xyz
  1  'x, y, z'
loop_
 _atom_site_type_symbol
 _atom_site_label
 _atom_site_symmetry_multiplicity
 _atom_site_fract_x
 _atom_site_fract_y
 _atom_site_fract_z
 _atom_site_occupancy
  Pa  Pa0  1  0.500000  0.500000  0.391801  1
  Pa  Pa1  1  0.000000  0.000000  0.891801  1
  Pa  Pa2  1  0.500000  0.500000  0.608199  1
  Pa  Pa3  1  0.000000  0.000000  0.108199  1
  Tl  Tl4  1  0.500000  0.500000  0.000000  1
  Tl  Tl5  1  0.000000  0.000000  0.500000  1
  Tl  Tl6  1  0.000000  0.500000  0.250000  1
  Tl  Tl7  1  0.500000  0.000000  0.750000  1
  Tl  Tl8  1  0.500000  0.000000  0.250000  1
  Tl  Tl9  1  0.000000  0.500000  0.750000  1
  Cl  Cl10  1  0.797648  0.688279  0.386231  1
  Cl  Cl11  1  0.202352  0.311721  0.386231  1
  Cl  Cl12  1  0.702352  0.188279  0.886231  1
  Cl  Cl13  1  0.297648  0.811721  0.886231  1
  Cl  Cl14  1  0.688279  0.202352  0.386231  1
  Cl  Cl15  1  0.311721  0.797648  0.386231  1
  Cl  Cl16  1  0.188279  0.297648  0.886231  1
  Cl  Cl17  1  0.811721  0.702352  0.886231  1
  Cl  Cl18  1  0.202352  0.311721  0.613769  1
  Cl  Cl19  1  0.797648  0.688279  0.613769  1
  Cl  Cl20  1  0.297648  0.811721  0.113769  1
  Cl  Cl21  1  0.702352  0.188279  0.113769  1
  Cl  Cl22  1  0.311721  0.797648  0.613769  1
  Cl  Cl23  1  0.688279  0.202352  0.613769  1
  Cl  Cl24  1  0.811721  0.702352  0.113769  1
  Cl  Cl25  1  0.188279  0.297648  0.113769  1
  Cl  Cl26  1  0.500000  0.500000  0.254315  1
  Cl  Cl27  1  0.000000  0.000000  0.754315  1
  Cl  Cl28  1  0.500000  0.500000  0.745685  1
  Cl  Cl29  1  0.000000  0.000000  0.245685  1
  O  O30  1  0.500000  0.500000  0.500000  1
  O  O31  1  0.000000  0.000000  0.000000  1
