# generated using pymatgen
data_Ca4Ni8As7
_symmetry_space_group_name_H-M   'P 1'
_cell_length_a   3.98266400
_cell_length_b   12.81707308
_cell_length_c   12.90308565
_cell_angle_alpha   80.76929514
_cell_angle_beta   90.00000000
_cell_angle_gamma   90.00000000
_symmetry_Int_Tables_number   1
_chemical_formula_structural   Ca4Ni8As7
_chemical_formula_sum   'Ca8 Ni16 As14'
_cell_volume   650.12288902
_cell_formula_units_Z   2
loop_
 _symmetry_equiv_pos_site_id
 _symmetry_equiv_pos_as_xyz
  1  'x, y, z'
loop_
 _atom_site_type_symbol
 _atom_site_label
 _atom_site_symmetry_multiplicity
 _atom_site_fract_x
 _atom_site_fract_y
 _atom_site_fract_z
 _atom_site_occupancy
  Ca  Ca0  1  0.250000  0.100489  0.794118  1
  Ca  Ca1  1  0.750000  0.899511  0.205882  1
  Ca  Ca2  1  0.250000  0.285806  0.105724  1
  Ca  Ca3  1  0.750000  0.714194  0.894276  1
  Ca  Ca4  1  0.250000  0.520312  0.292170  1
  Ca  Ca5  1  0.750000  0.479688  0.707830  1
  Ca  Ca6  1  0.250000  0.210371  0.442294  1
  Ca  Ca7  1  0.750000  0.789629  0.557706  1
  Ni  Ni8  1  0.250000  0.984387  0.576043  1
  Ni  Ni9  1  0.750000  0.015613  0.423957  1
  Ni  Ni10  1  0.250000  0.661199  0.726756  1
  Ni  Ni11  1  0.750000  0.338801  0.273244  1
  Ni  Ni12  1  0.250000  0.559867  0.050108  1
  Ni  Ni13  1  0.750000  0.440133  0.949892  1
  Ni  Ni14  1  0.250000  0.061410  0.276857  1
  Ni  Ni15  1  0.750000  0.938590  0.723143  1
  Ni  Ni16  1  0.250000  0.427246  0.527748  1
  Ni  Ni17  1  0.750000  0.572754  0.472252  1
  Ni  Ni18  1  0.250000  0.916113  0.002808  1
  Ni  Ni19  1  0.750000  0.083887  0.997192  1
  Ni  Ni20  1  0.250000  0.729448  0.398210  1
  Ni  Ni21  1  0.750000  0.270552  0.601790  1
  Ni  Ni22  1  0.250000  0.346380  0.859465  1
  Ni  Ni23  1  0.750000  0.653620  0.140535  1
  As  As24  1  0.250000  0.058228  0.094533  1
  As  As25  1  0.750000  0.941772  0.905467  1
  As  As26  1  0.250000  0.311096  0.685812  1
  As  As27  1  0.750000  0.688904  0.314188  1
  As  As28  1  0.250000  0.606250  0.561820  1
  As  As29  1  0.750000  0.393750  0.438180  1
  As  As30  1  0.250000  0.839570  0.719932  1
  As  As31  1  0.750000  0.160430  0.280068  1
  As  As32  1  0.750000  0.259922  0.918681  1
  As  As33  1  0.250000  0.740078  0.081319  1
  As  As34  1  0.750000  0.088324  0.590196  1
  As  As35  1  0.250000  0.911676  0.409804  1
  As  As36  1  0.750000  0.471744  0.127721  1
  As  As37  1  0.250000  0.528256  0.872279  1
