# generated using pymatgen
data_Sc4ReOs4Ru3
_symmetry_space_group_name_H-M   'P 1'
_cell_length_a   5.24454688
_cell_length_b   5.14426427
_cell_length_c   8.74615600
_cell_angle_alpha   90.00000000
_cell_angle_beta   90.00000000
_cell_angle_gamma   121.07563822
_symmetry_Int_Tables_number   1
_chemical_formula_structural   Sc4ReOs4Ru3
_chemical_formula_sum   'Sc4 Re1 Os4 Ru3'
_cell_volume   202.10127427
_cell_formula_units_Z   1
loop_
 _symmetry_equiv_pos_site_id
 _symmetry_equiv_pos_as_xyz
  1  'x, y, z'
loop_
 _atom_site_type_symbol
 _atom_site_label
 _atom_site_symmetry_multiplicity
 _atom_site_fract_x
 _atom_site_fract_y
 _atom_site_fract_z
 _atom_site_occupancy
  Sc  Sc0  1  0.334703  0.667460  0.432511  1
  Sc  Sc1  1  0.669001  0.338936  0.566694  1
  Sc  Sc2  1  0.669001  0.338936  0.933306  1
  Sc  Sc3  1  0.334703  0.667460  0.067489  1
  Re  Re4  1  0.167759  0.330161  0.750000  1
  Os  Os5  1  0.338149  0.164858  0.250000  1
  Os  Os6  1  0.826739  0.651037  0.250000  1
  Os  Os7  1  0.654099  0.819530  0.750000  1
  Os  Os8  1  0.829561  0.166099  0.250000  1
  Ru  Ru9  1  0.170350  0.819995  0.750000  1
  Ru  Ru10  1  0.002968  0.017764  0.000268  1
  Ru  Ru11  1  0.002968  0.017764  0.499732  1
