# generated using pymatgen
data_Dy2Ho5CoI12
_symmetry_space_group_name_H-M   'P 1'
_cell_length_a   9.74402732
_cell_length_b   9.74116533
_cell_length_c   9.74957445
_cell_angle_alpha   106.80539716
_cell_angle_beta   106.79490468
_cell_angle_gamma   106.77460908
_symmetry_Int_Tables_number   1
_chemical_formula_structural   Dy2Ho5CoI12
_chemical_formula_sum   'Dy2 Ho5 Co1 I12'
_cell_volume   775.03063768
_cell_formula_units_Z   1
loop_
 _symmetry_equiv_pos_site_id
 _symmetry_equiv_pos_as_xyz
  1  'x, y, z'
loop_
 _atom_site_type_symbol
 _atom_site_label
 _atom_site_symmetry_multiplicity
 _atom_site_fract_x
 _atom_site_fract_y
 _atom_site_fract_z
 _atom_site_occupancy
  Dy  Dy0  1  0.499967  0.499936  0.500081  1
  Dy  Dy1  1  0.908263  0.978815  0.712846  1
  Ho  Ho2  1  0.285160  0.090769  0.021402  1
  Ho  Ho3  1  0.021146  0.285149  0.091310  1
  Ho  Ho4  1  0.090734  0.020927  0.284815  1
  Ho  Ho5  1  0.715091  0.909270  0.979501  1
  Ho  Ho6  1  0.979190  0.714983  0.909683  1
  Co  Co7  1  0.999928  0.999991  0.999955  1
  I  I8  1  0.461560  0.160119  0.385000  1
  I  I9  1  0.384965  0.461488  0.160096  1
  I  I10  1  0.160141  0.385027  0.461551  1
  I  I11  1  0.537736  0.839775  0.615159  1
  I  I12  1  0.615068  0.538494  0.839977  1
  I  I13  1  0.840020  0.614434  0.538452  1
  I  I14  1  0.323000  0.776734  0.929881  1
  I  I15  1  0.929963  0.323819  0.777192  1
  I  I16  1  0.776518  0.929726  0.322437  1
  I  I17  1  0.677022  0.223264  0.070196  1
  I  I18  1  0.070148  0.676818  0.223235  1
  I  I19  1  0.224378  0.070460  0.677234  1
