# generated using pymatgen
data_Tb3Co(P3Rh4)2
_symmetry_space_group_name_H-M   'P 1'
_cell_length_a   3.86940400
_cell_length_b   11.15315200
_cell_length_c   12.80731400
_cell_angle_alpha   90.00000000
_cell_angle_beta   90.00000000
_cell_angle_gamma   90.00000000
_symmetry_Int_Tables_number   1
_chemical_formula_structural   Tb3Co(P3Rh4)2
_chemical_formula_sum   'Tb6 Co2 P12 Rh16'
_cell_volume   552.71309566
_cell_formula_units_Z   2
loop_
 _symmetry_equiv_pos_site_id
 _symmetry_equiv_pos_as_xyz
  1  'x, y, z'
loop_
 _atom_site_type_symbol
 _atom_site_label
 _atom_site_symmetry_multiplicity
 _atom_site_fract_x
 _atom_site_fract_y
 _atom_site_fract_z
 _atom_site_occupancy
  Tb  Tb0  1  0.000000  0.500000  0.521389  1
  Tb  Tb1  1  0.500000  0.000000  0.478611  1
  Tb  Tb2  1  0.500000  0.815694  0.202087  1
  Tb  Tb3  1  0.500000  0.184306  0.202087  1
  Tb  Tb4  1  0.000000  0.684306  0.797913  1
  Tb  Tb5  1  0.000000  0.315694  0.797913  1
  Co  Co6  1  0.000000  0.500000  0.980820  1
  Co  Co7  1  0.500000  0.000000  0.019180  1
  P  P8  1  0.500000  0.500000  0.882046  1
  P  P9  1  0.000000  0.000000  0.117954  1
  P  P10  1  0.500000  0.500000  0.350433  1
  P  P11  1  0.000000  0.000000  0.649567  1
  P  P12  1  0.500000  0.315401  0.619005  1
  P  P13  1  0.500000  0.684599  0.619005  1
  P  P14  1  0.000000  0.184599  0.380995  1
  P  P15  1  0.000000  0.815401  0.380995  1
  P  P16  1  0.500000  0.852774  0.895804  1
  P  P17  1  0.500000  0.147226  0.895804  1
  P  P18  1  0.000000  0.647226  0.104196  1
  P  P19  1  0.000000  0.352774  0.104196  1
  Rh  Rh20  1  0.500000  0.500000  0.167490  1
  Rh  Rh21  1  0.000000  0.000000  0.832510  1
  Rh  Rh22  1  0.500000  0.500000  0.703440  1
  Rh  Rh23  1  0.000000  0.000000  0.296560  1
  Rh  Rh24  1  0.500000  0.336628  0.994163  1
  Rh  Rh25  1  0.500000  0.663372  0.994163  1
  Rh  Rh26  1  0.000000  0.163372  0.005837  1
  Rh  Rh27  1  0.000000  0.836628  0.005837  1
  Rh  Rh28  1  0.500000  0.294126  0.430015  1
  Rh  Rh29  1  0.500000  0.705874  0.430015  1
  Rh  Rh30  1  0.000000  0.205874  0.569985  1
  Rh  Rh31  1  0.000000  0.794126  0.569985  1
  Rh  Rh32  1  0.500000  0.873897  0.712125  1
  Rh  Rh33  1  0.500000  0.126103  0.712125  1
  Rh  Rh34  1  0.000000  0.626103  0.287875  1
  Rh  Rh35  1  0.000000  0.373897  0.287875  1
