# generated using pymatgen
data_Tb3Dy5In3Co
_symmetry_space_group_name_H-M   'P 1'
_cell_length_a   10.42404500
_cell_length_b   10.42404544
_cell_length_c   7.02119600
_cell_angle_alpha   90.00000000
_cell_angle_beta   90.00000000
_cell_angle_gamma   120.00000178
_symmetry_Int_Tables_number   1
_chemical_formula_structural   Tb3Dy5In3Co
_chemical_formula_sum   'Tb6 Dy10 In6 Co2'
_cell_volume   660.71519398
_cell_formula_units_Z   2
loop_
 _symmetry_equiv_pos_site_id
 _symmetry_equiv_pos_as_xyz
  1  'x, y, z'
loop_
 _atom_site_type_symbol
 _atom_site_label
 _atom_site_symmetry_multiplicity
 _atom_site_fract_x
 _atom_site_fract_y
 _atom_site_fract_z
 _atom_site_occupancy
  Tb  Tb0  1  0.534595  0.069191  0.511365  1
  Tb  Tb1  1  0.930809  0.465405  0.511365  1
  Tb  Tb2  1  0.534595  0.465405  0.511365  1
  Tb  Tb3  1  0.465405  0.930809  0.011365  1
  Tb  Tb4  1  0.069191  0.534595  0.011365  1
  Tb  Tb5  1  0.465405  0.534595  0.011365  1
  Dy  Dy6  1  0.177631  0.355262  0.721680  1
  Dy  Dy7  1  0.644738  0.822369  0.721680  1
  Dy  Dy8  1  0.177631  0.822369  0.721680  1
  Dy  Dy9  1  0.822369  0.644738  0.221680  1
  Dy  Dy10  1  0.355262  0.177631  0.221680  1
  Dy  Dy11  1  0.822369  0.177631  0.221680  1
  Dy  Dy12  1  0.666667  0.333333  0.903145  1
  Dy  Dy13  1  0.333333  0.666667  0.403145  1
  Dy  Dy14  1  0.000000  0.000000  0.501510  1
  Dy  Dy15  1  0.000000  0.000000  0.001510  1
  In  In16  1  0.836679  0.673358  0.759838  1
  In  In17  1  0.326642  0.163320  0.759838  1
  In  In18  1  0.836679  0.163320  0.759838  1
  In  In19  1  0.163321  0.326642  0.259838  1
  In  In20  1  0.673358  0.836680  0.259838  1
  In  In21  1  0.163321  0.836680  0.259838  1
  Co  Co22  1  0.666667  0.333333  0.288795  1
  Co  Co23  1  0.333333  0.666667  0.788795  1
