# generated using pymatgen
data_PrSiTc2C
_symmetry_space_group_name_H-M   'P 1'
_cell_length_a   5.88293038
_cell_length_b   5.88293093
_cell_length_c   7.39725300
_cell_angle_alpha   90.00000000
_cell_angle_beta   90.00000000
_cell_angle_gamma   140.44354269
_symmetry_Int_Tables_number   1
_chemical_formula_structural   PrSiTc2C
_chemical_formula_sum   'Pr2 Si2 Tc4 C2'
_cell_volume   163.03733477
_cell_formula_units_Z   2
loop_
 _symmetry_equiv_pos_site_id
 _symmetry_equiv_pos_as_xyz
  1  'x, y, z'
loop_
 _atom_site_type_symbol
 _atom_site_label
 _atom_site_symmetry_multiplicity
 _atom_site_fract_x
 _atom_site_fract_y
 _atom_site_fract_z
 _atom_site_occupancy
  Pr  Pr0  1  0.545295  0.454705  0.250000  1
  Pr  Pr1  1  0.454705  0.545295  0.750000  1
  Si  Si2  1  0.267233  0.732767  0.250000  1
  Si  Si3  1  0.732767  0.267233  0.750000  1
  Tc  Tc4  1  0.828353  0.171647  0.060447  1
  Tc  Tc5  1  0.171647  0.828353  0.939553  1
  Tc  Tc6  1  0.171647  0.828353  0.560447  1
  Tc  Tc7  1  0.828353  0.171647  0.439553  1
  C  C8  1  0.000000  0.000000  0.000000  1
  C  C9  1  0.000000  0.000000  0.500000  1
