# generated using pymatgen
data_YbDy5Y2(B6Os)4
_symmetry_space_group_name_H-M   'P 1'
_cell_length_a   3.65797500
_cell_length_b   9.16330200
_cell_length_c   11.54711894
_cell_angle_alpha   90.08547775
_cell_angle_beta   90.00000000
_cell_angle_gamma   90.00000000
_symmetry_Int_Tables_number   1
_chemical_formula_structural   YbDy5Y2(B6Os)4
_chemical_formula_sum   'Yb1 Dy5 Y2 B24 Os4'
_cell_volume   387.04894588
_cell_formula_units_Z   1
loop_
 _symmetry_equiv_pos_site_id
 _symmetry_equiv_pos_as_xyz
  1  'x, y, z'
loop_
 _atom_site_type_symbol
 _atom_site_label
 _atom_site_symmetry_multiplicity
 _atom_site_fract_x
 _atom_site_fract_y
 _atom_site_fract_z
 _atom_site_occupancy
  Yb  Yb0  1  0.000000  0.822961  0.086281  1
  Dy  Dy1  1  0.000000  0.176309  0.914959  1
  Dy  Dy2  1  0.000000  0.942757  0.370774  1
  Dy  Dy3  1  0.000000  0.056346  0.627501  1
  Dy  Dy4  1  0.000000  0.443785  0.128376  1
  Dy  Dy5  1  0.000000  0.558223  0.872526  1
  Y  Y6  1  0.000000  0.321841  0.413624  1
  Y  Y7  1  0.000000  0.678712  0.585434  1
  B  B8  1  0.500000  0.553247  0.433186  1
  B  B9  1  0.500000  0.446007  0.567668  1
  B  B10  1  0.500000  0.053459  0.067348  1
  B  B11  1  0.500000  0.946103  0.932865  1
  B  B12  1  0.500000  0.747267  0.418793  1
  B  B13  1  0.500000  0.252045  0.580980  1
  B  B14  1  0.500000  0.247756  0.080965  1
  B  B15  1  0.500000  0.752810  0.919123  1
  B  B16  1  0.500000  0.789476  0.265992  1
  B  B17  1  0.500000  0.209836  0.733857  1
  B  B18  1  0.500000  0.290564  0.233594  1
  B  B19  1  0.500000  0.710478  0.766241  1
  B  B20  1  0.500000  0.631129  0.186056  1
  B  B21  1  0.500000  0.368863  0.814733  1
  B  B22  1  0.500000  0.131260  0.313584  1
  B  B23  1  0.500000  0.869007  0.685319  1
  B  B24  1  0.500000  0.983344  0.211862  1
  B  B25  1  0.500000  0.016547  0.787551  1
  B  B26  1  0.500000  0.483318  0.288023  1
  B  B27  1  0.500000  0.516715  0.712899  1
  B  B28  1  0.500000  0.604534  0.029154  1
  B  B29  1  0.500000  0.394700  0.970849  1
  B  B30  1  0.500000  0.107523  0.469851  1
  B  B31  1  0.500000  0.892583  0.529378  1
  Os  Os32  1  0.000000  0.636270  0.322450  1
  Os  Os33  1  0.000000  0.362779  0.678874  1
  Os  Os34  1  0.000000  0.138515  0.178738  1
  Os  Os35  1  0.000000  0.862932  0.820599  1
