# generated using pymatgen
data_Tm3Sn3IrPtRh
_symmetry_space_group_name_H-M   'P 1'
_cell_length_a   7.66035500
_cell_length_b   7.66035522
_cell_length_c   3.69712100
_cell_angle_alpha   90.00000000
_cell_angle_beta   90.00000000
_cell_angle_gamma   120.00000336
_symmetry_Int_Tables_number   1
_chemical_formula_structural   Tm3Sn3IrPtRh
_chemical_formula_sum   'Tm3 Sn3 Ir1 Pt1 Rh1'
_cell_volume   187.88499037
_cell_formula_units_Z   1
loop_
 _symmetry_equiv_pos_site_id
 _symmetry_equiv_pos_as_xyz
  1  'x, y, z'
loop_
 _atom_site_type_symbol
 _atom_site_label
 _atom_site_symmetry_multiplicity
 _atom_site_fract_x
 _atom_site_fract_y
 _atom_site_fract_z
 _atom_site_occupancy
  Tm  Tm0  1  0.994832  0.399771  0.000000  1
  Tm  Tm1  1  0.600229  0.595061  0.000000  1
  Tm  Tm2  1  0.404939  0.005168  0.000000  1
  Sn  Sn3  1  0.265592  0.264146  0.500000  1
  Sn  Sn4  1  0.998554  0.734408  0.500000  1
  Sn  Sn5  1  0.735854  0.001446  0.500000  1
  Ir  Ir6  1  0.666667  0.333333  0.500000  1
  Pt  Pt7  1  0.333333  0.666667  0.500000  1
  Rh  Rh8  1  0.000000  0.000000  0.000000  1
