# generated using pymatgen
data_GdYTm2(B6Os)2
_symmetry_space_group_name_H-M   'P 1'
_cell_length_a   3.64429500
_cell_length_b   9.13170715
_cell_length_c   11.52763623
_cell_angle_alpha   90.02192611
_cell_angle_beta   90.00000000
_cell_angle_gamma   90.00000000
_symmetry_Int_Tables_number   1
_chemical_formula_structural   GdYTm2(B6Os)2
_chemical_formula_sum   'Gd2 Y2 Tm4 B24 Os4'
_cell_volume   383.62396717
_cell_formula_units_Z   2
loop_
 _symmetry_equiv_pos_site_id
 _symmetry_equiv_pos_as_xyz
  1  'x, y, z'
loop_
 _atom_site_type_symbol
 _atom_site_label
 _atom_site_symmetry_multiplicity
 _atom_site_fract_x
 _atom_site_fract_y
 _atom_site_fract_z
 _atom_site_occupancy
  Gd  Gd0  1  0.000000  0.321833  0.413946  1
  Gd  Gd1  1  0.000000  0.678167  0.586054  1
  Y  Y2  1  0.000000  0.821495  0.085897  1
  Y  Y3  1  0.000000  0.178505  0.914103  1
  Tm  Tm4  1  0.000000  0.944097  0.372959  1
  Tm  Tm5  1  0.000000  0.055903  0.627042  1
  Tm  Tm6  1  0.000000  0.444043  0.126888  1
  Tm  Tm7  1  0.000000  0.555957  0.873111  1
  B  B8  1  0.500000  0.554479  0.432458  1
  B  B9  1  0.500000  0.445521  0.567542  1
  B  B10  1  0.500000  0.054210  0.067157  1
  B  B11  1  0.500000  0.945790  0.932843  1
  B  B12  1  0.500000  0.749190  0.419257  1
  B  B13  1  0.500000  0.250810  0.580743  1
  B  B14  1  0.500000  0.249147  0.080552  1
  B  B15  1  0.500000  0.750853  0.919448  1
  B  B16  1  0.500000  0.791572  0.266171  1
  B  B17  1  0.500000  0.208428  0.733829  1
  B  B18  1  0.500000  0.291364  0.233527  1
  B  B19  1  0.500000  0.708635  0.766473  1
  B  B20  1  0.500000  0.631016  0.184698  1
  B  B21  1  0.500000  0.368984  0.815302  1
  B  B22  1  0.500000  0.130894  0.315110  1
  B  B23  1  0.500000  0.869106  0.684890  1
  B  B24  1  0.500000  0.982879  0.213481  1
  B  B25  1  0.500000  0.017121  0.786519  1
  B  B26  1  0.500000  0.483207  0.286364  1
  B  B27  1  0.500000  0.516793  0.713636  1
  B  B28  1  0.500000  0.605021  0.028960  1
  B  B29  1  0.500000  0.394979  0.971040  1
  B  B30  1  0.500000  0.104599  0.471167  1
  B  B31  1  0.500000  0.895401  0.528833  1
  Os  Os32  1  0.000000  0.638358  0.320224  1
  Os  Os33  1  0.000000  0.361642  0.679776  1
  Os  Os34  1  0.000000  0.137877  0.179296  1
  Os  Os35  1  0.000000  0.862123  0.820704  1
