# generated using pymatgen
data_Y7Th3(In2Pd)4
_symmetry_space_group_name_H-M   'P 1'
_cell_length_a   3.74358500
_cell_length_b   8.17271210
_cell_length_c   18.37440676
_cell_angle_alpha   90.08231471
_cell_angle_beta   90.00000000
_cell_angle_gamma   90.00000000
_symmetry_Int_Tables_number   1
_chemical_formula_structural   Y7Th3(In2Pd)4
_chemical_formula_sum   'Y7 Th3 In8 Pd4'
_cell_volume   562.16884911
_cell_formula_units_Z   1
loop_
 _symmetry_equiv_pos_site_id
 _symmetry_equiv_pos_as_xyz
  1  'x, y, z'
loop_
 _atom_site_type_symbol
 _atom_site_label
 _atom_site_symmetry_multiplicity
 _atom_site_fract_x
 _atom_site_fract_y
 _atom_site_fract_z
 _atom_site_occupancy
  Y  Y0  1  0.500000  0.739423  0.718342  1
  Y  Y1  1  0.500000  0.114923  0.583208  1
  Y  Y2  1  0.500000  0.882127  0.419372  1
  Y  Y3  1  0.500000  0.382241  0.081318  1
  Y  Y4  1  0.500000  0.617689  0.916733  1
  Y  Y5  1  0.500000  0.999535  0.998445  1
  Y  Y6  1  0.500000  0.499016  0.500204  1
  Th  Th7  1  0.500000  0.241369  0.780915  1
  Th  Th8  1  0.500000  0.761579  0.217878  1
  Th  Th9  1  0.500000  0.261751  0.282215  1
  In  In10  1  0.000000  0.082531  0.145386  1
  In  In11  1  0.000000  0.913877  0.850380  1
  In  In12  1  0.000000  0.425922  0.646201  1
  In  In13  1  0.000000  0.583259  0.354537  1
  In  In14  1  0.000000  0.205686  0.436016  1
  In  In15  1  0.000000  0.791446  0.567999  1
  In  In16  1  0.000000  0.294747  0.935555  1
  In  In17  1  0.000000  0.706007  0.064160  1
  Pd  Pd18  1  0.000000  0.028070  0.697869  1
  Pd  Pd19  1  0.000000  0.973360  0.303287  1
  Pd  Pd20  1  0.000000  0.473591  0.197202  1
  Pd  Pd21  1  0.000000  0.521852  0.802778  1
