# generated using pymatgen
data_Zn11Fe(Mo3N)4
_symmetry_space_group_name_H-M   'P 1'
_cell_length_a   8.02084582
_cell_length_b   8.02084636
_cell_length_c   8.02084531
_cell_angle_alpha   60.01865705
_cell_angle_beta   60.01865961
_cell_angle_gamma   60.01866212
_symmetry_Int_Tables_number   1
_chemical_formula_structural   Zn11Fe(Mo3N)4
_chemical_formula_sum   'Zn11 Fe1 Mo12 N4'
_cell_volume   365.03052314
_cell_formula_units_Z   1
loop_
 _symmetry_equiv_pos_site_id
 _symmetry_equiv_pos_as_xyz
  1  'x, y, z'
loop_
 _atom_site_type_symbol
 _atom_site_label
 _atom_site_symmetry_multiplicity
 _atom_site_fract_x
 _atom_site_fract_y
 _atom_site_fract_z
 _atom_site_occupancy
  Zn  Zn0  1  0.123339  0.626328  0.626328  1
  Zn  Zn1  1  0.626328  0.123339  0.626328  1
  Zn  Zn2  1  0.626328  0.626328  0.123339  1
  Zn  Zn3  1  0.625276  0.625276  0.625276  1
  Zn  Zn4  1  0.754775  0.414836  0.414836  1
  Zn  Zn5  1  0.414836  0.754775  0.414836  1
  Zn  Zn6  1  0.414836  0.414836  0.754775  1
  Zn  Zn7  1  0.415368  0.415368  0.415368  1
  Zn  Zn8  1  0.499254  0.834615  0.834615  1
  Zn  Zn9  1  0.834615  0.499254  0.834615  1
  Zn  Zn10  1  0.834615  0.834615  0.499254  1
  Fe  Fe11  1  0.838771  0.838771  0.838771  1
  Mo  Mo12  1  0.810943  0.810943  0.185813  1
  Mo  Mo13  1  0.188971  0.188971  0.810781  1
  Mo  Mo14  1  0.810943  0.185813  0.810943  1
  Mo  Mo15  1  0.188971  0.810781  0.188971  1
  Mo  Mo16  1  0.185813  0.810943  0.810943  1
  Mo  Mo17  1  0.810781  0.188971  0.188971  1
  Mo  Mo18  1  0.438318  0.438318  0.061080  1
  Mo  Mo19  1  0.055773  0.055773  0.445173  1
  Mo  Mo20  1  0.438318  0.061080  0.438318  1
  Mo  Mo21  1  0.055773  0.445173  0.055773  1
  Mo  Mo22  1  0.061080  0.438318  0.438318  1
  Mo  Mo23  1  0.445173  0.055773  0.055773  1
  N  N24  1  0.624197  0.125067  0.125067  1
  N  N25  1  0.125067  0.624197  0.125067  1
  N  N26  1  0.125067  0.125067  0.624197  1
  N  N27  1  0.126473  0.126473  0.126473  1
