# generated using pymatgen
data_LiSc6Al13(Si5Tc3)2
_symmetry_space_group_name_H-M   'P 1'
_cell_length_a   8.49563300
_cell_length_b   8.49563275
_cell_length_c   9.20051600
_cell_angle_alpha   90.00000000
_cell_angle_beta   90.00000000
_cell_angle_gamma   119.99999708
_symmetry_Int_Tables_number   1
_chemical_formula_structural   LiSc6Al13(Si5Tc3)2
_chemical_formula_sum   'Li1 Sc6 Al13 Si10 Tc6'
_cell_volume   575.08799672
_cell_formula_units_Z   1
loop_
 _symmetry_equiv_pos_site_id
 _symmetry_equiv_pos_as_xyz
  1  'x, y, z'
loop_
 _atom_site_type_symbol
 _atom_site_label
 _atom_site_symmetry_multiplicity
 _atom_site_fract_x
 _atom_site_fract_y
 _atom_site_fract_z
 _atom_site_occupancy
  Li  Li0  1  0.000000  0.000000  0.250000  1
  Sc  Sc1  1  0.199201  0.800799  0.250000  1
  Sc  Sc2  1  0.199201  0.398402  0.250000  1
  Sc  Sc3  1  0.601598  0.800799  0.250000  1
  Sc  Sc4  1  0.799359  0.200641  0.750000  1
  Sc  Sc5  1  0.799359  0.598718  0.750000  1
  Sc  Sc6  1  0.401282  0.200641  0.750000  1
  Al  Al7  1  0.162108  0.837892  0.919087  1
  Al  Al8  1  0.162108  0.324216  0.919087  1
  Al  Al9  1  0.675784  0.837892  0.919087  1
  Al  Al10  1  0.839083  0.160917  0.089528  1
  Al  Al11  1  0.839083  0.678166  0.089528  1
  Al  Al12  1  0.321834  0.160917  0.089528  1
  Al  Al13  1  0.839083  0.160917  0.410472  1
  Al  Al14  1  0.839083  0.678166  0.410472  1
  Al  Al15  1  0.321834  0.160917  0.410472  1
  Al  Al16  1  0.162108  0.837892  0.580913  1
  Al  Al17  1  0.162108  0.324216  0.580913  1
  Al  Al18  1  0.675784  0.837892  0.580913  1
  Al  Al19  1  0.000000  0.000000  0.750000  1
  Si  Si20  1  0.563759  0.436241  0.250000  1
  Si  Si21  1  0.563759  0.127520  0.250000  1
  Si  Si22  1  0.872480  0.436241  0.250000  1
  Si  Si23  1  0.436128  0.563872  0.750000  1
  Si  Si24  1  0.436128  0.872254  0.750000  1
  Si  Si25  1  0.127746  0.563872  0.750000  1
  Si  Si26  1  0.333333  0.666667  0.450841  1
  Si  Si27  1  0.666667  0.333333  0.546883  1
  Si  Si28  1  0.666667  0.333333  0.953117  1
  Si  Si29  1  0.333333  0.666667  0.049159  1
  Tc  Tc30  1  0.500296  0.499704  0.500901  1
  Tc  Tc31  1  0.500296  0.000593  0.500901  1
  Tc  Tc32  1  0.999407  0.499704  0.500901  1
  Tc  Tc33  1  0.500296  0.499704  0.999099  1
  Tc  Tc34  1  0.500296  0.000593  0.999099  1
  Tc  Tc35  1  0.999407  0.499704  0.999099  1
