# generated using pymatgen
data_HoLu19Si15Pt
_symmetry_space_group_name_H-M   'P 1'
_cell_length_a   7.22582900
_cell_length_b   7.54314732
_cell_length_c   14.30214000
_cell_angle_alpha   90.00000000
_cell_angle_beta   90.00000000
_cell_angle_gamma   90.09925357
_symmetry_Int_Tables_number   1
_chemical_formula_structural   HoLu19Si15Pt
_chemical_formula_sum   'Ho1 Lu19 Si15 Pt1'
_cell_volume   779.54401687
_cell_formula_units_Z   1
loop_
 _symmetry_equiv_pos_site_id
 _symmetry_equiv_pos_as_xyz
  1  'x, y, z'
loop_
 _atom_site_type_symbol
 _atom_site_label
 _atom_site_symmetry_multiplicity
 _atom_site_fract_x
 _atom_site_fract_y
 _atom_site_fract_z
 _atom_site_occupancy
  Ho  Ho0  1  0.844825  0.509045  0.750000  1
  Lu  Lu1  1  0.678281  0.178846  0.622946  1
  Lu  Lu2  1  0.187139  0.323721  0.877123  1
  Lu  Lu3  1  0.318500  0.820463  0.124011  1
  Lu  Lu4  1  0.817782  0.677116  0.375647  1
  Lu  Lu5  1  0.318500  0.820463  0.375989  1
  Lu  Lu6  1  0.817782  0.677116  0.124353  1
  Lu  Lu7  1  0.678281  0.178846  0.877054  1
  Lu  Lu8  1  0.187139  0.323721  0.622877  1
  Lu  Lu9  1  0.523782  0.681316  0.593439  1
  Lu  Lu10  1  0.026206  0.818730  0.905398  1
  Lu  Lu11  1  0.474237  0.317626  0.097055  1
  Lu  Lu12  1  0.974003  0.182127  0.402588  1
  Lu  Lu13  1  0.474237  0.317626  0.402945  1
  Lu  Lu14  1  0.974003  0.182127  0.097412  1
  Lu  Lu15  1  0.523782  0.681316  0.906561  1
  Lu  Lu16  1  0.026206  0.818730  0.594602  1
  Lu  Lu17  1  0.356407  0.987225  0.750000  1
  Lu  Lu18  1  0.147635  0.487046  0.250000  1
  Lu  Lu19  1  0.648616  0.011496  0.250000  1
  Si  Si20  1  0.650778  0.970820  0.458697  1
  Si  Si21  1  0.150037  0.528251  0.041117  1
  Si  Si22  1  0.347726  0.026483  0.960872  1
  Si  Si23  1  0.849933  0.471185  0.538966  1
  Si  Si24  1  0.347726  0.026483  0.539128  1
  Si  Si25  1  0.849933  0.471185  0.961034  1
  Si  Si26  1  0.650778  0.970820  0.041303  1
  Si  Si27  1  0.150037  0.528251  0.458883  1
  Si  Si28  1  0.981032  0.103375  0.750000  1
  Si  Si29  1  0.518629  0.605160  0.250000  1
  Si  Si30  1  0.019010  0.893664  0.250000  1
  Si  Si31  1  0.737806  0.875883  0.750000  1
  Si  Si32  1  0.228153  0.634903  0.750000  1
  Si  Si33  1  0.271217  0.131015  0.250000  1
  Si  Si34  1  0.770587  0.367868  0.250000  1
  Pt  Pt35  1  0.479270  0.399954  0.750000  1
