# generated using pymatgen
data_TbHo3(Al8Pt3)3
_symmetry_space_group_name_H-M   'P 1'
_cell_length_a   7.52616303
_cell_length_b   7.54451339
_cell_length_c   13.14936228
_cell_angle_alpha   84.56672745
_cell_angle_beta   79.09846769
_cell_angle_gamma   59.98686346
_symmetry_Int_Tables_number   1
_chemical_formula_structural   TbHo3(Al8Pt3)3
_chemical_formula_sum   'Tb1 Ho3 Al24 Pt9'
_cell_volume   634.85371143
_cell_formula_units_Z   1
loop_
 _symmetry_equiv_pos_site_id
 _symmetry_equiv_pos_as_xyz
  1  'x, y, z'
loop_
 _atom_site_type_symbol
 _atom_site_label
 _atom_site_symmetry_multiplicity
 _atom_site_fract_x
 _atom_site_fract_y
 _atom_site_fract_z
 _atom_site_occupancy
  Tb  Tb0  1  0.393343  0.168683  0.808033  1
  Ho  Ho1  1  0.606689  0.831217  0.192201  1
  Ho  Ho2  1  0.734178  0.498534  0.807500  1
  Ho  Ho3  1  0.265742  0.501540  0.192525  1
  Al  Al4  1  0.684661  0.833548  0.944514  1
  Al  Al5  1  0.315529  0.166153  0.055793  1
  Al  Al6  1  0.146582  0.832437  0.561279  1
  Al  Al7  1  0.853440  0.167559  0.438698  1
  Al  Al8  1  0.479431  0.166667  0.558460  1
  Al  Al9  1  0.520585  0.833317  0.441434  1
  Al  Al10  1  0.217463  0.165137  0.329598  1
  Al  Al11  1  0.782846  0.834597  0.670259  1
  Al  Al12  1  0.437749  0.506471  0.670321  1
  Al  Al13  1  0.562303  0.493805  0.329527  1
  Al  Al14  1  0.109260  0.160235  0.669298  1
  Al  Al15  1  0.890528  0.839754  0.330519  1
  Al  Al16  1  0.353120  0.499758  0.944658  1
  Al  Al17  1  0.646854  0.500547  0.055488  1
  Al  Al18  1  0.015220  0.167672  0.952867  1
  Al  Al19  1  0.984431  0.832354  0.047306  1
  Al  Al20  1  0.186851  0.499187  0.441353  1
  Al  Al21  1  0.813143  0.500822  0.558628  1
  Al  Al22  1  0.733971  0.163847  0.183438  1
  Al  Al23  1  0.265978  0.835795  0.816571  1
  Al  Al24  1  0.061468  0.631584  0.815397  1
  Al  Al25  1  0.938196  0.368792  0.184603  1
  Al  Al26  1  0.855419  0.041762  0.815881  1
  Al  Al27  1  0.144940  0.958171  0.184132  1
  Pt  Pt28  1  0.119568  0.492139  0.638821  1
  Pt  Pt29  1  0.880226  0.508168  0.360993  1
  Pt  Pt30  1  0.657171  0.171342  0.999886  1
  Pt  Pt31  1  0.342870  0.828606  0.000255  1
  Pt  Pt32  1  0.537973  0.166738  0.361048  1
  Pt  Pt33  1  0.462047  0.833001  0.638803  1
  Pt  Pt34  1  0.778771  0.175080  0.637255  1
  Pt  Pt35  1  0.221526  0.824896  0.362585  1
  Pt  Pt36  1  0.999928  0.500084  0.000073  1
