# generated using pymatgen
data_Dy3In3AgHgIr
_symmetry_space_group_name_H-M   'P 1'
_cell_length_a   8.05040100
_cell_length_b   8.05040131
_cell_length_c   3.73928400
_cell_angle_alpha   90.00000000
_cell_angle_beta   90.00000000
_cell_angle_gamma   119.99999352
_symmetry_Int_Tables_number   1
_chemical_formula_structural   Dy3In3AgHgIr
_chemical_formula_sum   'Dy3 In3 Ag1 Hg1 Ir1'
_cell_volume   209.87183282
_cell_formula_units_Z   1
loop_
 _symmetry_equiv_pos_site_id
 _symmetry_equiv_pos_as_xyz
  1  'x, y, z'
loop_
 _atom_site_type_symbol
 _atom_site_label
 _atom_site_symmetry_multiplicity
 _atom_site_fract_x
 _atom_site_fract_y
 _atom_site_fract_z
 _atom_site_occupancy
  Dy  Dy0  1  0.033396  0.611339  0.500000  1
  Dy  Dy1  1  0.577944  0.966604  0.500000  1
  Dy  Dy2  1  0.388661  0.422056  0.500000  1
  In  In3  1  0.999730  0.268736  0.000000  1
  In  In4  1  0.269006  0.000270  0.000000  1
  In  In5  1  0.731264  0.730994  0.000000  1
  Ag  Ag6  1  0.000000  0.000000  0.500000  1
  Hg  Hg7  1  0.666667  0.333333  0.000000  1
  Ir  Ir8  1  0.333333  0.666667  0.000000  1
