# generated using pymatgen
data_Hf2ZnInCo
_symmetry_space_group_name_H-M   'P 1'
_cell_length_a   7.29859269
_cell_length_b   7.29859318
_cell_length_c   3.36595200
_cell_angle_alpha   90.00000000
_cell_angle_beta   90.00000000
_cell_angle_gamma   89.00087748
_symmetry_Int_Tables_number   1
_chemical_formula_structural   Hf2ZnInCo
_chemical_formula_sum   'Hf4 Zn2 In2 Co2'
_cell_volume   179.27518069
_cell_formula_units_Z   2
loop_
 _symmetry_equiv_pos_site_id
 _symmetry_equiv_pos_as_xyz
  1  'x, y, z'
loop_
 _atom_site_type_symbol
 _atom_site_label
 _atom_site_symmetry_multiplicity
 _atom_site_fract_x
 _atom_site_fract_y
 _atom_site_fract_z
 _atom_site_occupancy
  Hf  Hf0  1  0.192292  0.307708  0.000000  1
  Hf  Hf1  1  0.807708  0.692292  0.000000  1
  Hf  Hf2  1  0.653632  0.153632  0.000000  1
  Hf  Hf3  1  0.346368  0.846368  0.000000  1
  Zn  Zn4  1  0.877418  0.377418  0.500000  1
  Zn  Zn5  1  0.122582  0.622582  0.500000  1
  In  In6  1  0.000000  0.000000  0.500000  1
  In  In7  1  0.500000  0.500000  0.500000  1
  Co  Co8  1  0.373710  0.126290  0.500000  1
  Co  Co9  1  0.626290  0.873710  0.500000  1
