# generated using pymatgen
data_Mn7TlCoO16
_symmetry_space_group_name_H-M   'P 1'
_cell_length_a   5.84422238
_cell_length_b   7.07894128
_cell_length_c   7.15749700
_cell_angle_alpha   89.38535860
_cell_angle_beta   78.35520035
_cell_angle_gamma   78.52155540
_symmetry_Int_Tables_number   1
_chemical_formula_structural   Mn7TlCoO16
_chemical_formula_sum   'Mn7 Tl1 Co1 O16'
_cell_volume   284.08330902
_cell_formula_units_Z   1
loop_
 _symmetry_equiv_pos_site_id
 _symmetry_equiv_pos_as_xyz
  1  'x, y, z'
loop_
 _atom_site_type_symbol
 _atom_site_label
 _atom_site_symmetry_multiplicity
 _atom_site_fract_x
 _atom_site_fract_y
 _atom_site_fract_z
 _atom_site_occupancy
  Mn  Mn0  1  0.081900  0.507975  0.184158  1
  Mn  Mn1  1  0.172377  0.816340  0.516598  1
  Mn  Mn2  1  0.667446  0.816772  0.520103  1
  Mn  Mn3  1  0.339121  0.185705  0.475586  1
  Mn  Mn4  1  0.837631  0.185010  0.479943  1
  Mn  Mn5  1  0.428513  0.488200  0.822064  1
  Mn  Mn6  1  0.925359  0.491716  0.821525  1
  Tl  Tl7  1  0.001615  0.997492  0.997901  1
  Co  Co8  1  0.582161  0.511368  0.181351  1
  O  O9  1  0.832559  0.640899  0.056767  1
  O  O10  1  0.331515  0.639662  0.056571  1
  O  O11  1  0.981372  0.699379  0.385799  1
  O  O12  1  0.482456  0.698051  0.387010  1
  O  O13  1  0.855501  0.959739  0.642022  1
  O  O14  1  0.352899  0.960238  0.640876  1
  O  O15  1  0.343261  0.367602  0.281405  1
  O  O16  1  0.841441  0.365770  0.281444  1
  O  O17  1  0.167051  0.635438  0.720476  1
  O  O18  1  0.666478  0.632759  0.719431  1
  O  O19  1  0.153012  0.041170  0.354906  1
  O  O20  1  0.654676  0.040242  0.356294  1
  O  O21  1  0.026583  0.302967  0.612527  1
  O  O22  1  0.525779  0.300534  0.613542  1
  O  O23  1  0.176987  0.356586  0.944967  1
  O  O24  1  0.679402  0.358384  0.946729  1
