# generated using pymatgen
data_Cs2PrSm3(CuSe4)2
_symmetry_space_group_name_H-M   'P 1'
_cell_length_a   4.25166900
_cell_length_b   7.75409527
_cell_length_c   14.76603056
_cell_angle_alpha   90.03011281
_cell_angle_beta   90.00000000
_cell_angle_gamma   74.08825906
_symmetry_Int_Tables_number   1
_chemical_formula_structural   Cs2PrSm3(CuSe4)2
_chemical_formula_sum   'Cs2 Pr1 Sm3 Cu2 Se8'
_cell_volume   468.15232782
_cell_formula_units_Z   1
loop_
 _symmetry_equiv_pos_site_id
 _symmetry_equiv_pos_as_xyz
  1  'x, y, z'
loop_
 _atom_site_type_symbol
 _atom_site_label
 _atom_site_symmetry_multiplicity
 _atom_site_fract_x
 _atom_site_fract_y
 _atom_site_fract_z
 _atom_site_occupancy
  Cs  Cs0  1  0.893150  0.213701  0.250909  1
  Cs  Cs1  1  0.106996  0.786010  0.749436  1
  Pr  Pr2  1  0.632928  0.734145  0.061373  1
  Sm  Sm3  1  0.633989  0.732024  0.439595  1
  Sm  Sm4  1  0.366467  0.267067  0.561775  1
  Sm  Sm5  1  0.365322  0.269357  0.937261  1
  Cu  Cu6  1  0.165917  0.668167  0.249893  1
  Cu  Cu7  1  0.834554  0.330893  0.749460  1
  Se  Se8  1  0.996910  0.006180  0.998283  1
  Se  Se9  1  0.260652  0.478697  0.109341  1
  Se  Se10  1  0.579292  0.841419  0.252951  1
  Se  Se11  1  0.257231  0.485539  0.392430  1
  Se  Se12  1  0.999903  0.000194  0.500311  1
  Se  Se13  1  0.742856  0.514289  0.608047  1
  Se  Se14  1  0.421171  0.157659  0.748990  1
  Se  Se15  1  0.742671  0.514658  0.889945  1
