# generated using pymatgen
data_Pa2TcSnPd
_symmetry_space_group_name_H-M   'P 1'
_cell_length_a   7.74465896
_cell_length_b   7.74465896
_cell_length_c   3.64668700
_cell_angle_alpha   90.00000000
_cell_angle_beta   90.00000000
_cell_angle_gamma   90.59658567
_symmetry_Int_Tables_number   1
_chemical_formula_structural   Pa2TcSnPd
_chemical_formula_sum   'Pa4 Tc2 Sn2 Pd2'
_cell_volume   218.71548988
_cell_formula_units_Z   2
loop_
 _symmetry_equiv_pos_site_id
 _symmetry_equiv_pos_as_xyz
  1  'x, y, z'
loop_
 _atom_site_type_symbol
 _atom_site_label
 _atom_site_symmetry_multiplicity
 _atom_site_fract_x
 _atom_site_fract_y
 _atom_site_fract_z
 _atom_site_occupancy
  Pa  Pa0  1  0.680911  0.180911  0.500000  1
  Pa  Pa1  1  0.319089  0.819089  0.500000  1
  Pa  Pa2  1  0.160951  0.339049  0.500000  1
  Pa  Pa3  1  0.839049  0.660951  0.500000  1
  Tc  Tc4  1  0.139038  0.639038  0.000000  1
  Tc  Tc5  1  0.860962  0.360962  0.000000  1
  Sn  Sn6  1  0.000000  0.000000  0.000000  1
  Sn  Sn7  1  0.500000  0.500000  0.000000  1
  Pd  Pd8  1  0.627372  0.872628  0.000000  1
  Pd  Pd9  1  0.372628  0.127372  0.000000  1
