# generated using pymatgen
data_PrTmTh2(B2Ir5)2
_symmetry_space_group_name_H-M   'P 1'
_cell_length_a   11.12980039
_cell_length_b   11.12980114
_cell_length_c   11.12980183
_cell_angle_alpha   28.76786158
_cell_angle_beta   28.76785392
_cell_angle_gamma   28.76786556
_symmetry_Int_Tables_number   1
_chemical_formula_structural   PrTmTh2(B2Ir5)2
_chemical_formula_sum   'Pr1 Tm1 Th2 B4 Ir10'
_cell_volume   282.34123337
_cell_formula_units_Z   1
loop_
 _symmetry_equiv_pos_site_id
 _symmetry_equiv_pos_as_xyz
  1  'x, y, z'
loop_
 _atom_site_type_symbol
 _atom_site_label
 _atom_site_symmetry_multiplicity
 _atom_site_fract_x
 _atom_site_fract_y
 _atom_site_fract_z
 _atom_site_occupancy
  Pr  Pr0  1  0.847106  0.847106  0.847106  1
  Tm  Tm1  1  0.050556  0.050556  0.050556  1
  Th  Th2  1  0.151238  0.151238  0.151238  1
  Th  Th3  1  0.949966  0.949966  0.949966  1
  B  B4  1  0.618259  0.618259  0.618259  1
  B  B5  1  0.716970  0.716970  0.716970  1
  B  B6  1  0.382511  0.382511  0.382511  1
  B  B7  1  0.283714  0.283714  0.283714  1
  Ir  Ir8  1  0.407957  0.899164  0.407957  1
  Ir  Ir9  1  0.899164  0.407957  0.407957  1
  Ir  Ir10  1  0.500604  0.500604  0.000537  1
  Ir  Ir11  1  0.500604  0.000537  0.500604  1
  Ir  Ir12  1  0.000537  0.500604  0.500604  1
  Ir  Ir13  1  0.499812  0.499812  0.499812  1
  Ir  Ir14  1  0.591619  0.099805  0.591619  1
  Ir  Ir15  1  0.591619  0.591619  0.099805  1
  Ir  Ir16  1  0.099805  0.591619  0.591619  1
  Ir  Ir17  1  0.407957  0.407957  0.899164  1
