# generated using pymatgen
data_Al3Zn(GaNi5)2
_symmetry_space_group_name_H-M   'P 1'
_cell_length_a   3.71776900
_cell_length_b   5.05285217
_cell_length_c   10.10959273
_cell_angle_alpha   95.55382055
_cell_angle_beta   90.00000000
_cell_angle_gamma   90.00000000
_symmetry_Int_Tables_number   1
_chemical_formula_structural   Al3Zn(GaNi5)2
_chemical_formula_sum   'Al3 Zn1 Ga2 Ni10'
_cell_volume   189.02060886
_cell_formula_units_Z   1
loop_
 _symmetry_equiv_pos_site_id
 _symmetry_equiv_pos_as_xyz
  1  'x, y, z'
loop_
 _atom_site_type_symbol
 _atom_site_label
 _atom_site_symmetry_multiplicity
 _atom_site_fract_x
 _atom_site_fract_y
 _atom_site_fract_z
 _atom_site_occupancy
  Al  Al0  1  0.500000  0.279333  0.359832  1
  Al  Al1  1  0.500000  0.271844  0.864856  1
  Al  Al2  1  0.500000  0.727617  0.136289  1
  Zn  Zn3  1  0.000000  0.000318  0.999931  1
  Ga  Ga4  1  0.500000  0.719690  0.640061  1
  Ga  Ga5  1  0.000000  0.002916  0.498359  1
  Ni  Ni6  1  0.500000  0.771395  0.384341  1
  Ni  Ni7  1  0.500000  0.764887  0.883743  1
  Ni  Ni8  1  0.500000  0.234728  0.117325  1
  Ni  Ni9  1  0.500000  0.228579  0.614656  1
  Ni  Ni10  1  0.000000  0.000566  0.250430  1
  Ni  Ni11  1  0.000000  0.999775  0.748966  1
  Ni  Ni12  1  0.000000  0.500513  0.000535  1
  Ni  Ni13  1  0.000000  0.500525  0.499339  1
  Ni  Ni14  1  0.000000  0.501703  0.249488  1
  Ni  Ni15  1  0.000000  0.495608  0.751845  1
