# generated using pymatgen
data_NdEuCuSi4Pt3
_symmetry_space_group_name_H-M   'P 1'
_cell_length_a   4.25638400
_cell_length_b   4.25423500
_cell_length_c   9.82077500
_cell_angle_alpha   90.00000000
_cell_angle_beta   90.00000000
_cell_angle_gamma   90.00000000
_symmetry_Int_Tables_number   1
_chemical_formula_structural   NdEuCuSi4Pt3
_chemical_formula_sum   'Nd1 Eu1 Cu1 Si4 Pt3'
_cell_volume   177.83123290
_cell_formula_units_Z   1
loop_
 _symmetry_equiv_pos_site_id
 _symmetry_equiv_pos_as_xyz
  1  'x, y, z'
loop_
 _atom_site_type_symbol
 _atom_site_label
 _atom_site_symmetry_multiplicity
 _atom_site_fract_x
 _atom_site_fract_y
 _atom_site_fract_z
 _atom_site_occupancy
  Nd  Nd0  1  0.500000  0.000000  0.750851  1
  Eu  Eu1  1  0.000000  0.500000  0.249929  1
  Cu  Cu2  1  0.000000  0.000000  0.998378  1
  Si  Si3  1  0.000000  0.000000  0.500012  1
  Si  Si4  1  0.500000  0.500000  0.500283  1
  Si  Si5  1  0.000000  0.500000  0.870695  1
  Si  Si6  1  0.500000  0.000000  0.129132  1
  Pt  Pt7  1  0.500000  0.500000  0.999976  1
  Pt  Pt8  1  0.000000  0.500000  0.622101  1
  Pt  Pt9  1  0.500000  0.000000  0.378643  1
