# generated using pymatgen
data_BaZn2SbP
_symmetry_space_group_name_H-M   'P 1'
_cell_length_a   4.36716100
_cell_length_b   10.21460100
_cell_length_c   11.23048700
_cell_angle_alpha   90.00000000
_cell_angle_beta   90.00000000
_cell_angle_gamma   90.00000000
_symmetry_Int_Tables_number   1
_chemical_formula_structural   BaZn2SbP
_chemical_formula_sum   'Ba4 Zn8 Sb4 P4'
_cell_volume   500.97862842
_cell_formula_units_Z   4
loop_
 _symmetry_equiv_pos_site_id
 _symmetry_equiv_pos_as_xyz
  1  'x, y, z'
loop_
 _atom_site_type_symbol
 _atom_site_label
 _atom_site_symmetry_multiplicity
 _atom_site_fract_x
 _atom_site_fract_y
 _atom_site_fract_z
 _atom_site_occupancy
  Ba  Ba0  1  0.250000  0.743420  0.328575  1
  Ba  Ba1  1  0.750000  0.256580  0.671425  1
  Ba  Ba2  1  0.250000  0.243420  0.171425  1
  Ba  Ba3  1  0.750000  0.756580  0.828575  1
  Zn  Zn4  1  0.750000  0.382196  0.953341  1
  Zn  Zn5  1  0.250000  0.617804  0.046659  1
  Zn  Zn6  1  0.250000  0.117804  0.453341  1
  Zn  Zn7  1  0.750000  0.882196  0.546659  1
  Zn  Zn8  1  0.750000  0.950040  0.100500  1
  Zn  Zn9  1  0.250000  0.049960  0.899500  1
  Zn  Zn10  1  0.750000  0.450040  0.399500  1
  Zn  Zn11  1  0.250000  0.549960  0.600500  1
  Sb  Sb12  1  0.750000  0.524612  0.163312  1
  Sb  Sb13  1  0.250000  0.475388  0.836688  1
  Sb  Sb14  1  0.750000  0.024612  0.336688  1
  Sb  Sb15  1  0.250000  0.975388  0.663312  1
  P  P16  1  0.750000  0.645588  0.539216  1
  P  P17  1  0.250000  0.354412  0.460784  1
  P  P18  1  0.250000  0.854412  0.039216  1
  P  P19  1  0.750000  0.145588  0.960784  1
