# generated using pymatgen
data_Nd16MgHg3Ir3Pt
_symmetry_space_group_name_H-M   'P 1'
_cell_length_a   9.94700774
_cell_length_b   9.94735876
_cell_length_c   9.94699404
_cell_angle_alpha   60.40919608
_cell_angle_beta   60.40800975
_cell_angle_gamma   60.40927618
_symmetry_Int_Tables_number   1
_chemical_formula_structural   Nd16MgHg3Ir3Pt
_chemical_formula_sum   'Nd16 Mg1 Hg3 Ir3 Pt1'
_cell_volume   702.38249162
_cell_formula_units_Z   1
loop_
 _symmetry_equiv_pos_site_id
 _symmetry_equiv_pos_as_xyz
  1  'x, y, z'
loop_
 _atom_site_type_symbol
 _atom_site_label
 _atom_site_symmetry_multiplicity
 _atom_site_fract_x
 _atom_site_fract_y
 _atom_site_fract_z
 _atom_site_occupancy
  Nd  Nd0  1  0.648863  0.047007  0.648861  1
  Nd  Nd1  1  0.807717  0.195641  0.807717  1
  Nd  Nd2  1  0.195653  0.807723  0.807718  1
  Nd  Nd3  1  0.060263  0.438063  0.438069  1
  Nd  Nd4  1  0.061021  0.061016  0.437795  1
  Nd  Nd5  1  0.438061  0.060273  0.438062  1
  Nd  Nd6  1  0.812690  0.189106  0.189132  1
  Nd  Nd7  1  0.437796  0.061016  0.061021  1
  Nd  Nd8  1  0.189117  0.812695  0.189120  1
  Nd  Nd9  1  0.438068  0.438064  0.060263  1
  Nd  Nd10  1  0.807718  0.807722  0.195654  1
  Nd  Nd11  1  0.189130  0.189107  0.812689  1
  Nd  Nd12  1  0.047016  0.648873  0.648854  1
  Nd  Nd13  1  0.650197  0.650221  0.650195  1
  Nd  Nd14  1  0.061014  0.437803  0.061015  1
  Nd  Nd15  1  0.648855  0.648873  0.047017  1
  Mg  Mg16  1  0.429742  0.429734  0.429743  1
  Hg  Hg17  1  0.413044  0.413044  0.754924  1
  Hg  Hg18  1  0.754924  0.413044  0.413044  1
  Hg  Hg19  1  0.413045  0.754924  0.413045  1
  Ir  Ir20  1  0.856729  0.425560  0.856728  1
  Ir  Ir21  1  0.856725  0.856729  0.425573  1
  Ir  Ir22  1  0.425573  0.856729  0.856724  1
  Pt  Pt23  1  0.857038  0.857033  0.857037  1
