# generated using pymatgen
data_La2Pr2Hg2RhAu3
_symmetry_space_group_name_H-M   'P 1'
_cell_length_a   8.13167682
_cell_length_b   8.13167663
_cell_length_c   3.91631400
_cell_angle_alpha   90.00000000
_cell_angle_beta   90.00000000
_cell_angle_gamma   90.58059734
_symmetry_Int_Tables_number   1
_chemical_formula_structural   La2Pr2Hg2RhAu3
_chemical_formula_sum   'La2 Pr2 Hg2 Rh1 Au3'
_cell_volume   258.94970276
_cell_formula_units_Z   1
loop_
 _symmetry_equiv_pos_site_id
 _symmetry_equiv_pos_as_xyz
  1  'x, y, z'
loop_
 _atom_site_type_symbol
 _atom_site_label
 _atom_site_symmetry_multiplicity
 _atom_site_fract_x
 _atom_site_fract_y
 _atom_site_fract_z
 _atom_site_occupancy
  La  La0  1  0.690903  0.190903  0.500000  1
  La  La1  1  0.327496  0.827496  0.500000  1
  Pr  Pr2  1  0.155925  0.320398  0.500000  1
  Pr  Pr3  1  0.820398  0.655925  0.500000  1
  Hg  Hg4  1  0.998712  0.004337  0.000000  1
  Hg  Hg5  1  0.504337  0.498712  0.000000  1
  Rh  Rh6  1  0.871155  0.371155  0.000000  1
  Au  Au7  1  0.122792  0.622792  0.000000  1
  Au  Au8  1  0.630098  0.878183  0.000000  1
  Au  Au9  1  0.378183  0.130098  0.000000  1
