# generated using pymatgen
data_RbLi6BiO6
_symmetry_space_group_name_H-M   'P 1'
_cell_length_a   5.53523515
_cell_length_b   5.53523521
_cell_length_c   5.53523536
_cell_angle_alpha   101.51262989
_cell_angle_beta   101.51262551
_cell_angle_gamma   101.51262229
_symmetry_Int_Tables_number   1
_chemical_formula_structural   RbLi6BiO6
_chemical_formula_sum   'Rb1 Li6 Bi1 O6'
_cell_volume   157.69411545
_cell_formula_units_Z   1
loop_
 _symmetry_equiv_pos_site_id
 _symmetry_equiv_pos_as_xyz
  1  'x, y, z'
loop_
 _atom_site_type_symbol
 _atom_site_label
 _atom_site_symmetry_multiplicity
 _atom_site_fract_x
 _atom_site_fract_y
 _atom_site_fract_z
 _atom_site_occupancy
  Rb  Rb0  1  0.500000  0.500000  0.500000  1
  Li  Li1  1  0.656668  0.343331  0.000000  1
  Li  Li2  1  0.343331  0.656668  0.000000  1
  Li  Li3  1  0.656668  0.000000  0.343332  1
  Li  Li4  1  0.000000  0.656668  0.343332  1
  Li  Li5  1  0.343332  0.000000  0.656668  1
  Li  Li6  1  0.000000  0.343332  0.656668  1
  Bi  Bi7  1  0.000000  0.000000  0.000000  1
  O  O8  1  0.720934  0.720934  0.093720  1
  O  O9  1  0.906281  0.279067  0.279067  1
  O  O10  1  0.279067  0.906281  0.279067  1
  O  O11  1  0.720934  0.093720  0.720934  1
  O  O12  1  0.093720  0.720934  0.720934  1
  O  O13  1  0.279067  0.279067  0.906281  1
