# generated using pymatgen
data_Hf18Cr2CoRe6S
_symmetry_space_group_name_H-M   'P 1'
_cell_length_a   8.53397000
_cell_length_b   8.53396966
_cell_length_c   8.43979700
_cell_angle_alpha   90.00000000
_cell_angle_beta   90.00000000
_cell_angle_gamma   119.99999357
_symmetry_Int_Tables_number   1
_chemical_formula_structural   Hf18Cr2CoRe6S
_chemical_formula_sum   'Hf18 Cr2 Co1 Re6 S1'
_cell_volume   532.31029670
_cell_formula_units_Z   1
loop_
 _symmetry_equiv_pos_site_id
 _symmetry_equiv_pos_as_xyz
  1  'x, y, z'
loop_
 _atom_site_type_symbol
 _atom_site_label
 _atom_site_symmetry_multiplicity
 _atom_site_fract_x
 _atom_site_fract_y
 _atom_site_fract_z
 _atom_site_occupancy
  Hf  Hf0  1  0.192697  0.807303  0.449019  1
  Hf  Hf1  1  0.192697  0.385396  0.449019  1
  Hf  Hf2  1  0.614604  0.807303  0.449019  1
  Hf  Hf3  1  0.801584  0.198416  0.557766  1
  Hf  Hf4  1  0.801584  0.603169  0.557766  1
  Hf  Hf5  1  0.396831  0.198416  0.557766  1
  Hf  Hf6  1  0.801584  0.198416  0.942234  1
  Hf  Hf7  1  0.801584  0.603169  0.942234  1
  Hf  Hf8  1  0.396831  0.198416  0.942234  1
  Hf  Hf9  1  0.192697  0.807303  0.050981  1
  Hf  Hf10  1  0.192697  0.385396  0.050981  1
  Hf  Hf11  1  0.614604  0.807303  0.050981  1
  Hf  Hf12  1  0.544249  0.455751  0.250000  1
  Hf  Hf13  1  0.544249  0.088500  0.250000  1
  Hf  Hf14  1  0.911500  0.455751  0.250000  1
  Hf  Hf15  1  0.458574  0.541426  0.750000  1
  Hf  Hf16  1  0.458574  0.917147  0.750000  1
  Hf  Hf17  1  0.082853  0.541426  0.750000  1
  Cr  Cr18  1  0.000000  0.000000  0.501298  1
  Cr  Cr19  1  0.000000  0.000000  0.998702  1
  Co  Co20  1  0.666667  0.333333  0.750000  1
  Re  Re21  1  0.891574  0.108426  0.250000  1
  Re  Re22  1  0.891574  0.783150  0.250000  1
  Re  Re23  1  0.216850  0.108426  0.250000  1
  Re  Re24  1  0.108385  0.891615  0.750000  1
  Re  Re25  1  0.108385  0.216769  0.750000  1
  Re  Re26  1  0.783231  0.891615  0.750000  1
  S  S27  1  0.333333  0.666667  0.250000  1
