# generated using pymatgen
data_SmHo4In2(HgPt)2
_symmetry_space_group_name_H-M   'P 1'
_cell_length_a   3.62763200
_cell_length_b   8.02236300
_cell_length_c   18.40510700
_cell_angle_alpha   90.00000000
_cell_angle_beta   90.00000000
_cell_angle_gamma   90.00000000
_symmetry_Int_Tables_number   1
_chemical_formula_structural   SmHo4In2(HgPt)2
_chemical_formula_sum   'Sm2 Ho8 In4 Hg4 Pt4'
_cell_volume   535.62875035
_cell_formula_units_Z   2
loop_
 _symmetry_equiv_pos_site_id
 _symmetry_equiv_pos_as_xyz
  1  'x, y, z'
loop_
 _atom_site_type_symbol
 _atom_site_label
 _atom_site_symmetry_multiplicity
 _atom_site_fract_x
 _atom_site_fract_y
 _atom_site_fract_z
 _atom_site_occupancy
  Sm  Sm0  1  0.000000  0.500000  0.500000  1
  Sm  Sm1  1  0.000000  0.000000  0.000000  1
  Ho  Ho2  1  0.000000  0.744218  0.283156  1
  Ho  Ho3  1  0.000000  0.255782  0.716844  1
  Ho  Ho4  1  0.000000  0.755782  0.783156  1
  Ho  Ho5  1  0.000000  0.244218  0.216844  1
  Ho  Ho6  1  0.000000  0.609009  0.085567  1
  Ho  Ho7  1  0.000000  0.390991  0.914433  1
  Ho  Ho8  1  0.000000  0.890991  0.585567  1
  Ho  Ho9  1  0.000000  0.109009  0.414433  1
  In  In10  1  0.500000  0.580373  0.650233  1
  In  In11  1  0.500000  0.419627  0.349767  1
  In  In12  1  0.500000  0.919627  0.150233  1
  In  In13  1  0.500000  0.080373  0.849767  1
  Hg  Hg14  1  0.500000  0.710646  0.933124  1
  Hg  Hg15  1  0.500000  0.289354  0.066876  1
  Hg  Hg16  1  0.500000  0.789354  0.433124  1
  Hg  Hg17  1  0.500000  0.210646  0.566876  1
  Pt  Pt18  1  0.500000  0.531550  0.198020  1
  Pt  Pt19  1  0.500000  0.468450  0.801980  1
  Pt  Pt20  1  0.500000  0.968450  0.698020  1
  Pt  Pt21  1  0.500000  0.031550  0.301980  1
