# generated using pymatgen
data_Y14Lu6Si15Pt
_symmetry_space_group_name_H-M   'P 1'
_cell_length_a   7.37155090
_cell_length_b   7.73083438
_cell_length_c   14.56804800
_cell_angle_alpha   90.08908425
_cell_angle_beta   89.97173899
_cell_angle_gamma   90.00544680
_symmetry_Int_Tables_number   1
_chemical_formula_structural   Y14Lu6Si15Pt
_chemical_formula_sum   'Y14 Lu6 Si15 Pt1'
_cell_volume   830.20629443
_cell_formula_units_Z   1
loop_
 _symmetry_equiv_pos_site_id
 _symmetry_equiv_pos_as_xyz
  1  'x, y, z'
loop_
 _atom_site_type_symbol
 _atom_site_label
 _atom_site_symmetry_multiplicity
 _atom_site_fract_x
 _atom_site_fract_y
 _atom_site_fract_z
 _atom_site_occupancy
  Y  Y0  1  0.318440  0.819533  0.123815  1
  Y  Y1  1  0.816966  0.677106  0.375954  1
  Y  Y2  1  0.318608  0.820778  0.376831  1
  Y  Y3  1  0.816833  0.676382  0.123359  1
  Y  Y4  1  0.679554  0.178990  0.875817  1
  Y  Y5  1  0.187320  0.324150  0.624333  1
  Y  Y6  1  0.524108  0.681475  0.595798  1
  Y  Y7  1  0.025573  0.818554  0.903683  1
  Y  Y8  1  0.473305  0.316088  0.097244  1
  Y  Y9  1  0.972788  0.182825  0.402674  1
  Y  Y10  1  0.474309  0.316587  0.403338  1
  Y  Y11  1  0.973764  0.182184  0.096833  1
  Y  Y12  1  0.523309  0.681664  0.904551  1
  Y  Y13  1  0.025675  0.817996  0.595887  1
  Lu  Lu14  1  0.677548  0.180993  0.625840  1
  Lu  Lu15  1  0.189354  0.325944  0.873972  1
  Lu  Lu16  1  0.843594  0.511065  0.749746  1
  Lu  Lu17  1  0.353106  0.985148  0.750241  1
  Lu  Lu18  1  0.149148  0.485551  0.249817  1
  Lu  Lu19  1  0.649044  0.012518  0.250242  1
  Si  Si20  1  0.650123  0.972457  0.461724  1
  Si  Si21  1  0.148838  0.526552  0.038610  1
  Si  Si22  1  0.347760  0.029144  0.960014  1
  Si  Si23  1  0.849794  0.469357  0.540604  1
  Si  Si24  1  0.354854  0.026271  0.541634  1
  Si  Si25  1  0.856659  0.471550  0.957761  1
  Si  Si26  1  0.646670  0.971689  0.040452  1
  Si  Si27  1  0.145669  0.527204  0.459456  1
  Si  Si28  1  0.981909  0.102435  0.749457  1
  Si  Si29  1  0.517745  0.601003  0.250132  1
  Si  Si30  1  0.017977  0.897065  0.249946  1
  Si  Si31  1  0.737438  0.875071  0.749140  1
  Si  Si32  1  0.226981  0.632620  0.750633  1
  Si  Si33  1  0.270334  0.130844  0.250171  1
  Si  Si34  1  0.770408  0.367702  0.249891  1
  Pt  Pt35  1  0.484499  0.403506  0.750401  1
