# generated using pymatgen
data_Li3Tb2TmSi2Sb
_symmetry_space_group_name_H-M   'P 1'
_cell_length_a   7.07454601
_cell_length_b   7.07454548
_cell_length_c   4.29430900
_cell_angle_alpha   90.00000000
_cell_angle_beta   90.00000000
_cell_angle_gamma   119.21973321
_symmetry_Int_Tables_number   1
_chemical_formula_structural   Li3Tb2TmSi2Sb
_chemical_formula_sum   'Li3 Tb2 Tm1 Si2 Sb1'
_cell_volume   187.57815428
_cell_formula_units_Z   1
loop_
 _symmetry_equiv_pos_site_id
 _symmetry_equiv_pos_as_xyz
  1  'x, y, z'
loop_
 _atom_site_type_symbol
 _atom_site_label
 _atom_site_symmetry_multiplicity
 _atom_site_fract_x
 _atom_site_fract_y
 _atom_site_fract_z
 _atom_site_occupancy
  Li  Li0  1  0.241113  0.000700  0.500000  1
  Li  Li1  1  0.758271  0.758271  0.500000  1
  Li  Li2  1  0.000700  0.241113  0.500000  1
  Tb  Tb3  1  0.998300  0.550541  0.000000  1
  Tb  Tb4  1  0.550541  0.998300  0.000000  1
  Tm  Tm5  1  0.446321  0.446321  0.000000  1
  Si  Si6  1  0.334349  0.663791  0.500000  1
  Si  Si7  1  0.663791  0.334349  0.500000  1
  Sb  Sb8  1  0.006614  0.006614  0.000000  1
