# generated using pymatgen
data_Be2Nb5Si2Mo
_symmetry_space_group_name_H-M   'P 1'
_cell_length_a   6.60765406
_cell_length_b   6.61085706
_cell_length_c   3.41915700
_cell_angle_alpha   90.00000000
_cell_angle_beta   90.00000000
_cell_angle_gamma   89.98461249
_symmetry_Int_Tables_number   1
_chemical_formula_structural   Be2Nb5Si2Mo
_chemical_formula_sum   'Be2 Nb5 Si2 Mo1'
_cell_volume   149.35648766
_cell_formula_units_Z   1
loop_
 _symmetry_equiv_pos_site_id
 _symmetry_equiv_pos_as_xyz
  1  'x, y, z'
loop_
 _atom_site_type_symbol
 _atom_site_label
 _atom_site_symmetry_multiplicity
 _atom_site_fract_x
 _atom_site_fract_y
 _atom_site_fract_z
 _atom_site_occupancy
  Be  Be0  1  0.622537  0.878317  0.000000  1
  Be  Be1  1  0.119222  0.624628  0.000000  1
  Nb  Nb2  1  0.496772  0.505208  0.000000  1
  Nb  Nb3  1  0.680665  0.168868  0.500000  1
  Nb  Nb4  1  0.176830  0.326922  0.500000  1
  Nb  Nb5  1  0.825781  0.687300  0.500000  1
  Nb  Nb6  1  0.319700  0.817318  0.500000  1
  Si  Si7  1  0.881838  0.384551  0.000000  1
  Si  Si8  1  0.379893  0.112952  0.000000  1
  Mo  Mo9  1  0.996762  0.993936  0.000000  1
