# generated using pymatgen
data_NdMgCuPt3
_symmetry_space_group_name_H-M   'P 1'
_cell_length_a   5.21246430
_cell_length_b   5.21246341
_cell_length_c   5.21246299
_cell_angle_alpha   63.59325148
_cell_angle_beta   63.59325875
_cell_angle_gamma   63.59325009
_symmetry_Int_Tables_number   1
_chemical_formula_structural   NdMgCuPt3
_chemical_formula_sum   'Nd1 Mg1 Cu1 Pt3'
_cell_volume   108.09267874
_cell_formula_units_Z   1
loop_
 _symmetry_equiv_pos_site_id
 _symmetry_equiv_pos_as_xyz
  1  'x, y, z'
loop_
 _atom_site_type_symbol
 _atom_site_label
 _atom_site_symmetry_multiplicity
 _atom_site_fract_x
 _atom_site_fract_y
 _atom_site_fract_z
 _atom_site_occupancy
  Nd  Nd0  1  0.001539  0.001539  0.001539  1
  Mg  Mg1  1  0.258438  0.258438  0.258438  1
  Cu  Cu2  1  0.622334  0.622334  0.622334  1
  Pt  Pt3  1  0.621353  0.621353  0.124981  1
  Pt  Pt4  1  0.621353  0.124981  0.621353  1
  Pt  Pt5  1  0.124981  0.621353  0.621353  1
