# generated using pymatgen
data_Cs2V2CoO7
_symmetry_space_group_name_H-M   'P 1'
_cell_length_a   6.42475100
_cell_length_b   8.67117600
_cell_length_c   8.67117600
_cell_angle_alpha   90.00000000
_cell_angle_beta   90.00000000
_cell_angle_gamma   90.00000000
_symmetry_Int_Tables_number   1
_chemical_formula_structural   Cs2V2CoO7
_chemical_formula_sum   'Cs4 V4 Co2 O14'
_cell_volume   483.07248682
_cell_formula_units_Z   2
loop_
 _symmetry_equiv_pos_site_id
 _symmetry_equiv_pos_as_xyz
  1  'x, y, z'
loop_
 _atom_site_type_symbol
 _atom_site_label
 _atom_site_symmetry_multiplicity
 _atom_site_fract_x
 _atom_site_fract_y
 _atom_site_fract_z
 _atom_site_occupancy
  Cs  Cs0  1  0.492605  0.663906  0.163906  1
  Cs  Cs1  1  0.507395  0.163906  0.336094  1
  Cs  Cs2  1  0.507395  0.836094  0.663906  1
  Cs  Cs3  1  0.492605  0.336094  0.836094  1
  V  V4  1  0.954944  0.358684  0.141317  1
  V  V5  1  0.045056  0.858683  0.358684  1
  V  V6  1  0.045056  0.141317  0.641317  1
  V  V7  1  0.954944  0.641317  0.858683  1
  Co  Co8  1  0.000000  0.000000  0.000000  1
  Co  Co9  1  0.000000  0.499999  0.499999  1
  O  O10  1  0.861133  0.499999  0.000000  1
  O  O11  1  0.850156  0.180754  0.085960  1
  O  O12  1  0.215860  0.355585  0.144414  1
  O  O13  1  0.149844  0.914039  0.180754  1
  O  O14  1  0.850156  0.414039  0.319245  1
  O  O15  1  0.784138  0.855585  0.355585  1
  O  O16  1  0.149844  0.680754  0.414039  1
  O  O17  1  0.138867  0.000000  0.499999  1
  O  O18  1  0.149844  0.319245  0.585961  1
  O  O19  1  0.784138  0.144414  0.644416  1
  O  O20  1  0.850156  0.585961  0.680754  1
  O  O21  1  0.149844  0.085960  0.819245  1
  O  O22  1  0.215860  0.644416  0.855585  1
  O  O23  1  0.850156  0.819245  0.914039  1
