# generated using pymatgen
data_CeSmZnPt2Au
_symmetry_space_group_name_H-M   'P 1'
_cell_length_a   4.09484200
_cell_length_b   7.26276700
_cell_length_c   8.55306600
_cell_angle_alpha   90.00000000
_cell_angle_beta   90.00000000
_cell_angle_gamma   90.00000000
_symmetry_Int_Tables_number   1
_chemical_formula_structural   CeSmZnPt2Au
_chemical_formula_sum   'Ce2 Sm2 Zn2 Pt4 Au2'
_cell_volume   254.36718511
_cell_formula_units_Z   2
loop_
 _symmetry_equiv_pos_site_id
 _symmetry_equiv_pos_as_xyz
  1  'x, y, z'
loop_
 _atom_site_type_symbol
 _atom_site_label
 _atom_site_symmetry_multiplicity
 _atom_site_fract_x
 _atom_site_fract_y
 _atom_site_fract_z
 _atom_site_occupancy
  Ce  Ce0  1  0.250000  0.044238  0.310877  1
  Ce  Ce1  1  0.250000  0.544238  0.189123  1
  Sm  Sm2  1  0.750000  0.444225  0.805136  1
  Sm  Sm3  1  0.750000  0.944225  0.694864  1
  Zn  Zn4  1  0.750000  0.369434  0.441375  1
  Zn  Zn5  1  0.750000  0.869434  0.058625  1
  Pt  Pt6  1  0.250000  0.739108  0.896197  1
  Pt  Pt7  1  0.250000  0.239108  0.603803  1
  Pt  Pt8  1  0.750000  0.760637  0.354129  1
  Pt  Pt9  1  0.750000  0.260637  0.145871  1
  Au  Au10  1  0.250000  0.642358  0.568772  1
  Au  Au11  1  0.250000  0.142358  0.931228  1
