# generated using pymatgen
data_La2TmCu7(Ni3B)2
_symmetry_space_group_name_H-M   'P 1'
_cell_length_a   5.11446644
_cell_length_b   5.11997064
_cell_length_c   11.07430601
_cell_angle_alpha   89.98692343
_cell_angle_beta   90.02615888
_cell_angle_gamma   119.96443129
_symmetry_Int_Tables_number   1
_chemical_formula_structural   La2TmCu7(Ni3B)2
_chemical_formula_sum   'La2 Tm1 Cu7 Ni6 B2'
_cell_volume   251.22939691
_cell_formula_units_Z   1
loop_
 _symmetry_equiv_pos_site_id
 _symmetry_equiv_pos_as_xyz
  1  'x, y, z'
loop_
 _atom_site_type_symbol
 _atom_site_label
 _atom_site_symmetry_multiplicity
 _atom_site_fract_x
 _atom_site_fract_y
 _atom_site_fract_z
 _atom_site_occupancy
  La  La0  1  0.000068  0.000000  0.312518  1
  La  La1  1  0.999735  0.000000  0.687522  1
  Tm  Tm2  1  0.000096  0.000000  0.000059  1
  Cu  Cu3  1  0.499945  0.000000  0.499946  1
  Cu  Cu4  1  0.499898  0.500002  0.499948  1
  Cu  Cu5  1  0.999896  0.499998  0.499948  1
  Cu  Cu6  1  0.333392  0.666587  0.312823  1
  Cu  Cu7  1  0.666804  0.333413  0.312823  1
  Cu  Cu8  1  0.666431  0.333417  0.687138  1
  Cu  Cu9  1  0.333012  0.666583  0.687138  1
  Ni  Ni10  1  0.500344  0.000000  0.124906  1
  Ni  Ni11  1  0.500266  0.499985  0.124948  1
  Ni  Ni12  1  0.000281  0.500015  0.124948  1
  Ni  Ni13  1  0.499857  0.000000  0.875123  1
  Ni  Ni14  1  0.499860  0.500008  0.875079  1
  Ni  Ni15  1  0.999852  0.499992  0.875079  1
  B  B16  1  0.333412  0.666661  0.000025  1
  B  B17  1  0.666750  0.333339  0.000025  1
