# generated using pymatgen
data_La2Pr6ZnPd24
_symmetry_space_group_name_H-M   'P 1'
_cell_length_a   8.54907638
_cell_length_b   8.54907638
_cell_length_c   8.54907638
_cell_angle_alpha   89.97589713
_cell_angle_beta   90.02410287
_cell_angle_gamma   90.02410287
_symmetry_Int_Tables_number   1
_chemical_formula_structural   La2Pr6ZnPd24
_chemical_formula_sum   'La2 Pr6 Zn1 Pd24'
_cell_volume   624.82367387
_cell_formula_units_Z   1
loop_
 _symmetry_equiv_pos_site_id
 _symmetry_equiv_pos_as_xyz
  1  'x, y, z'
loop_
 _atom_site_type_symbol
 _atom_site_label
 _atom_site_symmetry_multiplicity
 _atom_site_fract_x
 _atom_site_fract_y
 _atom_site_fract_z
 _atom_site_occupancy
  La  La0  1  0.251194  0.748806  0.748806  1
  La  La1  1  0.748806  0.251194  0.251194  1
  Pr  Pr2  1  0.250649  0.250219  0.250219  1
  Pr  Pr3  1  0.749351  0.749781  0.749781  1
  Pr  Pr4  1  0.749781  0.749351  0.250219  1
  Pr  Pr5  1  0.749781  0.250219  0.749351  1
  Pr  Pr6  1  0.250219  0.250649  0.749781  1
  Pr  Pr7  1  0.250219  0.749781  0.250649  1
  Zn  Zn8  1  0.000000  0.000000  0.000000  1
  Pd  Pd9  1  0.262134  0.499737  0.000309  1
  Pd  Pd10  1  0.737866  0.500263  0.999691  1
  Pd  Pd11  1  0.000309  0.262134  0.500263  1
  Pd  Pd12  1  0.499737  0.262134  0.999691  1
  Pd  Pd13  1  0.999691  0.737866  0.499737  1
  Pd  Pd14  1  0.500263  0.737866  0.000309  1
  Pd  Pd15  1  0.499737  0.999691  0.262134  1
  Pd  Pd16  1  0.262134  0.000309  0.499737  1
  Pd  Pd17  1  0.500263  0.000309  0.737866  1
  Pd  Pd18  1  0.737866  0.999691  0.500263  1
  Pd  Pd19  1  0.000309  0.500263  0.262134  1
  Pd  Pd20  1  0.999691  0.499737  0.737866  1
  Pd  Pd21  1  0.253567  0.499638  0.499638  1
  Pd  Pd22  1  0.746433  0.500362  0.500362  1
  Pd  Pd23  1  0.499638  0.253567  0.500362  1
  Pd  Pd24  1  0.500362  0.746433  0.499638  1
  Pd  Pd25  1  0.499638  0.500362  0.253567  1
  Pd  Pd26  1  0.500362  0.499638  0.746433  1
  Pd  Pd27  1  0.297627  0.000258  0.000258  1
  Pd  Pd28  1  0.702373  0.999742  0.999742  1
  Pd  Pd29  1  0.000258  0.297627  0.999742  1
  Pd  Pd30  1  0.999742  0.702373  0.000258  1
  Pd  Pd31  1  0.000258  0.999742  0.297627  1
  Pd  Pd32  1  0.999742  0.000258  0.702373  1
