# generated using pymatgen
data_Ac9La3(Si7Cl3)2
_symmetry_space_group_name_H-M   'P 1'
_cell_length_a   4.20667400
_cell_length_b   12.25342121
_cell_length_c   17.17266100
_cell_angle_alpha   89.46900648
_cell_angle_beta   90.00000000
_cell_angle_gamma   90.00000000
_symmetry_Int_Tables_number   1
_chemical_formula_structural   Ac9La3(Si7Cl3)2
_chemical_formula_sum   'Ac9 La3 Si14 Cl6'
_cell_volume   885.14651929
_cell_formula_units_Z   1
loop_
 _symmetry_equiv_pos_site_id
 _symmetry_equiv_pos_as_xyz
  1  'x, y, z'
loop_
 _atom_site_type_symbol
 _atom_site_label
 _atom_site_symmetry_multiplicity
 _atom_site_fract_x
 _atom_site_fract_y
 _atom_site_fract_z
 _atom_site_occupancy
  Ac  Ac0  1  0.500000  0.338012  0.504633  1
  Ac  Ac1  1  0.000000  0.660691  0.998470  1
  Ac  Ac2  1  0.000000  0.644464  0.746284  1
  Ac  Ac3  1  0.500000  0.354948  0.245765  1
  Ac  Ac4  1  0.000000  0.642664  0.254289  1
  Ac  Ac5  1  0.500000  0.063251  0.875534  1
  Ac  Ac6  1  0.000000  0.941023  0.622081  1
  Ac  Ac7  1  0.500000  0.060306  0.119821  1
  Ac  Ac8  1  0.000000  0.938415  0.377791  1
  La  La9  1  0.500000  0.362291  0.757593  1
  La  La10  1  0.500000  0.356291  0.998775  1
  La  La11  1  0.000000  0.642255  0.501823  1
  Si  Si12  1  0.000000  0.155889  0.997775  1
  Si  Si13  1  0.500000  0.844750  0.500334  1
  Si  Si14  1  0.500000  0.557285  0.878264  1
  Si  Si15  1  0.000000  0.438988  0.625796  1
  Si  Si16  1  0.500000  0.558377  0.119919  1
  Si  Si17  1  0.000000  0.439503  0.381442  1
  Si  Si18  1  0.000000  0.259083  0.875308  1
  Si  Si19  1  0.500000  0.743388  0.621809  1
  Si  Si20  1  0.000000  0.256043  0.120260  1
  Si  Si21  1  0.500000  0.741906  0.379500  1
  Si  Si22  1  0.000000  0.455775  0.876566  1
  Si  Si23  1  0.500000  0.542346  0.624798  1
  Si  Si24  1  0.500000  0.542592  0.379040  1
  Si  Si25  1  0.000000  0.455156  0.121256  1
  Cl  Cl26  1  0.500000  0.109907  0.693627  1
  Cl  Cl27  1  0.000000  0.896429  0.804971  1
  Cl  Cl28  1  0.000000  0.132618  0.499246  1
  Cl  Cl29  1  0.500000  0.866524  0.998747  1
  Cl  Cl30  1  0.500000  0.103246  0.303799  1
  Cl  Cl31  1  0.000000  0.895582  0.194686  1
