# generated using pymatgen
data_Y7Tm11(LuPt8)2
_symmetry_space_group_name_H-M   'P 1'
_cell_length_a   7.43113739
_cell_length_b   7.50665200
_cell_length_c   14.60148940
_cell_angle_alpha   89.99155257
_cell_angle_beta   90.02685558
_cell_angle_gamma   89.98208789
_symmetry_Int_Tables_number   1
_chemical_formula_structural   Y7Tm11(LuPt8)2
_chemical_formula_sum   'Y7 Tm11 Lu2 Pt16'
_cell_volume   814.51419514
_cell_formula_units_Z   1
loop_
 _symmetry_equiv_pos_site_id
 _symmetry_equiv_pos_as_xyz
  1  'x, y, z'
loop_
 _atom_site_type_symbol
 _atom_site_label
 _atom_site_symmetry_multiplicity
 _atom_site_fract_x
 _atom_site_fract_y
 _atom_site_fract_z
 _atom_site_occupancy
  Y  Y0  1  0.499434  0.678713  0.093955  1
  Y  Y1  1  0.501257  0.321126  0.592841  1
  Y  Y2  1  0.000880  0.178729  0.907115  1
  Y  Y3  1  0.000604  0.177443  0.592439  1
  Y  Y4  1  0.500980  0.321559  0.907106  1
  Y  Y5  1  0.499392  0.678886  0.406330  1
  Y  Y6  1  0.999285  0.821081  0.093474  1
  Tm  Tm7  1  0.818663  0.489785  0.749767  1
  Tm  Tm8  1  0.318548  0.010142  0.749999  1
  Tm  Tm9  1  0.655806  0.833205  0.622077  1
  Tm  Tm10  1  0.155923  0.667101  0.877772  1
  Tm  Tm11  1  0.843967  0.332609  0.377384  1
  Tm  Tm12  1  0.343811  0.167287  0.122990  1
  Tm  Tm13  1  0.343298  0.167009  0.377693  1
  Tm  Tm14  1  0.844212  0.332686  0.123085  1
  Tm  Tm15  1  0.155136  0.667671  0.621757  1
  Tm  Tm16  1  0.655835  0.832598  0.878013  1
  Tm  Tm17  1  0.998374  0.819895  0.405890  1
  Lu  Lu18  1  0.681278  0.990021  0.250356  1
  Lu  Lu19  1  0.181625  0.510164  0.250433  1
  Pt  Pt20  1  0.818785  0.643050  0.251447  1
  Pt  Pt21  1  0.315956  0.858309  0.250591  1
  Pt  Pt22  1  0.683514  0.141162  0.749875  1
  Pt  Pt23  1  0.183557  0.358977  0.749721  1
  Pt  Pt24  1  0.546499  0.383689  0.250217  1
  Pt  Pt25  1  0.045541  0.115399  0.250768  1
  Pt  Pt26  1  0.953204  0.882948  0.749968  1
  Pt  Pt27  1  0.453161  0.617163  0.749850  1
  Pt  Pt28  1  0.818205  0.535888  0.541068  1
  Pt  Pt29  1  0.318052  0.965565  0.958292  1
  Pt  Pt30  1  0.685243  0.031891  0.456852  1
  Pt  Pt31  1  0.181716  0.466053  0.042657  1
  Pt  Pt32  1  0.180780  0.468655  0.456376  1
  Pt  Pt33  1  0.681830  0.034496  0.042559  1
  Pt  Pt34  1  0.317607  0.964715  0.541014  1
  Pt  Pt35  1  0.818046  0.534328  0.958268  1
