# generated using pymatgen
data_Nd3Dy(Sn5Pt3)2
_symmetry_space_group_name_H-M   'P 1'
_cell_length_a   13.69166863
_cell_length_b   13.69166763
_cell_length_c   7.52685624
_cell_angle_alpha   89.84575806
_cell_angle_beta   90.15424096
_cell_angle_gamma   160.98721641
_symmetry_Int_Tables_number   1
_chemical_formula_structural   Nd3Dy(Sn5Pt3)2
_chemical_formula_sum   'Nd3 Dy1 Sn10 Pt6'
_cell_volume   459.67190282
_cell_formula_units_Z   1
loop_
 _symmetry_equiv_pos_site_id
 _symmetry_equiv_pos_as_xyz
  1  'x, y, z'
loop_
 _atom_site_type_symbol
 _atom_site_label
 _atom_site_symmetry_multiplicity
 _atom_site_fract_x
 _atom_site_fract_y
 _atom_site_fract_z
 _atom_site_occupancy
  Nd  Nd0  1  0.173131  0.826869  0.753707  1
  Nd  Nd1  1  0.826748  0.173252  0.253744  1
  Nd  Nd2  1  0.476954  0.523046  0.736784  1
  Dy  Dy3  1  0.523792  0.476208  0.238967  1
  Sn  Sn4  1  0.879589  0.120411  0.734195  1
  Sn  Sn5  1  0.120423  0.879577  0.233871  1
  Sn  Sn6  1  0.702184  0.297816  0.048489  1
  Sn  Sn7  1  0.297051  0.702949  0.549252  1
  Sn  Sn8  1  0.598516  0.401484  0.609795  1
  Sn  Sn9  1  0.401909  0.598091  0.109134  1
  Sn  Sn10  1  0.953124  0.046876  0.396365  1
  Sn  Sn11  1  0.047568  0.952432  0.896380  1
  Sn  Sn12  1  0.289790  0.710210  0.977867  1
  Sn  Sn13  1  0.709981  0.290019  0.478357  1
  Pt  Pt14  1  0.051031  0.948969  0.511648  1
  Pt  Pt15  1  0.950487  0.049513  0.023888  1
  Pt  Pt16  1  0.776196  0.223804  0.770233  1
  Pt  Pt17  1  0.223616  0.776384  0.270262  1
  Pt  Pt18  1  0.396405  0.603595  0.477711  1
  Pt  Pt19  1  0.601503  0.398497  0.985349  1
