# generated using pymatgen
data_Tb5Y7AlCo4Sn
_symmetry_space_group_name_H-M   'P 1'
_cell_length_a   8.38363678
_cell_length_b   8.38363690
_cell_length_c   8.37074661
_cell_angle_alpha   111.96602806
_cell_angle_beta   109.39876120
_cell_angle_gamma   107.15084394
_symmetry_Int_Tables_number   1
_chemical_formula_structural   Tb5Y7AlCo4Sn
_chemical_formula_sum   'Tb5 Y7 Al1 Co4 Sn1'
_cell_volume   451.73376939
_cell_formula_units_Z   1
loop_
 _symmetry_equiv_pos_site_id
 _symmetry_equiv_pos_as_xyz
  1  'x, y, z'
loop_
 _atom_site_type_symbol
 _atom_site_label
 _atom_site_symmetry_multiplicity
 _atom_site_fract_x
 _atom_site_fract_y
 _atom_site_fract_z
 _atom_site_occupancy
  Tb  Tb0  1  0.818964  0.282369  0.101333  1
  Tb  Tb1  1  0.323677  0.637042  0.313351  1
  Tb  Tb2  1  0.676365  0.363131  0.686686  1
  Tb  Tb3  1  0.323556  0.010321  0.686686  1
  Tb  Tb4  1  0.676308  0.989674  0.313351  1
  Y  Y5  1  0.435000  0.233756  0.201205  1
  Y  Y6  1  0.564990  0.766210  0.798930  1
  Y  Y7  1  0.032719  0.233939  0.798930  1
  Y  Y8  1  0.967449  0.766204  0.201205  1
  Y  Y9  1  0.181372  0.281933  0.463305  1
  Y  Y10  1  0.818720  0.717967  0.536686  1
  Y  Y11  1  0.181280  0.717835  0.899115  1
  Al  Al12  1  0.000116  0.999723  0.999840  1
  Co  Co13  1  0.336976  0.000021  0.336997  1
  Co  Co14  1  0.663071  0.000035  0.663106  1
  Co  Co15  1  0.113365  0.613506  0.499647  1
  Co  Co16  1  0.886141  0.386282  0.499647  1
  Sn  Sn17  1  0.499930  0.500052  0.999982  1
