# generated using pymatgen
data_Ti6GeAsP
_symmetry_space_group_name_H-M   'P 1'
_cell_length_a   6.77320300
_cell_length_b   6.77320373
_cell_length_c   3.56944100
_cell_angle_alpha   90.00000000
_cell_angle_beta   90.00000000
_cell_angle_gamma   119.99999153
_symmetry_Int_Tables_number   1
_chemical_formula_structural   Ti6GeAsP
_chemical_formula_sum   'Ti6 Ge1 As1 P1'
_cell_volume   141.81400030
_cell_formula_units_Z   1
loop_
 _symmetry_equiv_pos_site_id
 _symmetry_equiv_pos_as_xyz
  1  'x, y, z'
loop_
 _atom_site_type_symbol
 _atom_site_label
 _atom_site_symmetry_multiplicity
 _atom_site_fract_x
 _atom_site_fract_y
 _atom_site_fract_z
 _atom_site_occupancy
  Ti  Ti0  1  0.753297  0.000224  0.000000  1
  Ti  Ti1  1  0.246927  0.246703  0.000000  1
  Ti  Ti2  1  0.999776  0.753073  0.000000  1
  Ti  Ti3  1  0.397979  0.999290  0.500000  1
  Ti  Ti4  1  0.000710  0.398688  0.500000  1
  Ti  Ti5  1  0.601312  0.602021  0.500000  1
  Ge  Ge6  1  0.666667  0.333333  0.000000  1
  As  As7  1  0.333333  0.666666  0.000000  1
  P  P8  1  0.000000  0.000000  0.500000  1
