# generated using pymatgen
data_NaGd5(Tm7Pb8)2
_symmetry_space_group_name_H-M   'P 1'
_cell_length_a   8.15481935
_cell_length_b   8.21525298
_cell_length_c   15.50008400
_cell_angle_alpha   90.01548996
_cell_angle_beta   89.91322884
_cell_angle_gamma   89.92698150
_symmetry_Int_Tables_number   1
_chemical_formula_structural   NaGd5(Tm7Pb8)2
_chemical_formula_sum   'Na1 Gd5 Tm14 Pb16'
_cell_volume   1038.40906609
_cell_formula_units_Z   1
loop_
 _symmetry_equiv_pos_site_id
 _symmetry_equiv_pos_as_xyz
  1  'x, y, z'
loop_
 _atom_site_type_symbol
 _atom_site_label
 _atom_site_symmetry_multiplicity
 _atom_site_fract_x
 _atom_site_fract_y
 _atom_site_fract_z
 _atom_site_occupancy
  Na  Na0  1  0.295331  0.001393  0.251393  1
  Gd  Gd1  1  0.973267  0.821155  0.095471  1
  Gd  Gd2  1  0.469792  0.681855  0.096001  1
  Gd  Gd3  1  0.974797  0.822939  0.405490  1
  Gd  Gd4  1  0.529487  0.322520  0.596396  1
  Gd  Gd5  1  0.030122  0.177914  0.902122  1
  Tm  Tm6  1  0.370526  0.841918  0.876427  1
  Tm  Tm7  1  0.871275  0.655326  0.620527  1
  Tm  Tm8  1  0.621992  0.156697  0.379020  1
  Tm  Tm9  1  0.127280  0.340139  0.120356  1
  Tm  Tm10  1  0.619784  0.158067  0.121562  1
  Tm  Tm11  1  0.123247  0.338974  0.380620  1
  Tm  Tm12  1  0.374542  0.841890  0.623301  1
  Tm  Tm13  1  0.872044  0.655243  0.878243  1
  Tm  Tm14  1  0.534597  0.322735  0.900364  1
  Tm  Tm15  1  0.037641  0.175722  0.600757  1
  Tm  Tm16  1  0.465821  0.681790  0.403168  1
  Tm  Tm17  1  0.205330  0.504212  0.749538  1
  Tm  Tm18  1  0.706168  0.995104  0.750151  1
  Tm  Tm19  1  0.794742  0.493504  0.249771  1
  Pb  Pb20  1  0.288661  0.039587  0.040188  1
  Pb  Pb21  1  0.781773  0.468136  0.454969  1
  Pb  Pb22  1  0.715235  0.967206  0.544540  1
  Pb  Pb23  1  0.215965  0.534722  0.955437  1
  Pb  Pb24  1  0.708589  0.963647  0.956408  1
  Pb  Pb25  1  0.212264  0.539723  0.542009  1
  Pb  Pb26  1  0.288332  0.041322  0.461955  1
  Pb  Pb27  1  0.784818  0.461436  0.042009  1
  Pb  Pb28  1  0.567640  0.624071  0.750231  1
  Pb  Pb29  1  0.065590  0.873402  0.749085  1
  Pb  Pb30  1  0.428948  0.380728  0.251265  1
  Pb  Pb31  1  0.932475  0.121775  0.249390  1
  Pb  Pb32  1  0.345225  0.153687  0.750973  1
  Pb  Pb33  1  0.844076  0.346044  0.748382  1
  Pb  Pb34  1  0.663610  0.848721  0.251835  1
  Pb  Pb35  1  0.159013  0.646696  0.250647  1
