# generated using pymatgen
data_Ta6MnH16
_symmetry_space_group_name_H-M   'P 1'
_cell_length_a   6.24307651
_cell_length_b   6.24307752
_cell_length_c   6.24307700
_cell_angle_alpha   60.00000805
_cell_angle_beta   60.00000269
_cell_angle_gamma   60.00000715
_symmetry_Int_Tables_number   1
_chemical_formula_structural   Ta6MnH16
_chemical_formula_sum   'Ta6 Mn1 H16'
_cell_volume   172.06048272
_cell_formula_units_Z   1
loop_
 _symmetry_equiv_pos_site_id
 _symmetry_equiv_pos_as_xyz
  1  'x, y, z'
loop_
 _atom_site_type_symbol
 _atom_site_label
 _atom_site_symmetry_multiplicity
 _atom_site_fract_x
 _atom_site_fract_y
 _atom_site_fract_z
 _atom_site_occupancy
  Ta  Ta0  1  0.000000  0.000000  0.500000  1
  Ta  Ta1  1  0.500000  0.000000  0.500000  1
  Ta  Ta2  1  0.000000  0.500000  0.500000  1
  Ta  Ta3  1  0.500000  0.500000  0.000000  1
  Ta  Ta4  1  0.000000  0.500000  0.000000  1
  Ta  Ta5  1  0.500000  0.000000  0.000000  1
  Mn  Mn6  1  0.000000  0.000000  0.000000  1
  H  H7  1  0.884437  0.884437  0.346687  1
  H  H8  1  0.884437  0.346687  0.884437  1
  H  H9  1  0.346687  0.884437  0.884437  1
  H  H10  1  0.884437  0.884437  0.884437  1
  H  H11  1  0.115563  0.115563  0.653313  1
  H  H12  1  0.115563  0.653313  0.115563  1
  H  H13  1  0.653313  0.115563  0.115563  1
  H  H14  1  0.115563  0.115563  0.115563  1
  H  H15  1  0.617306  0.617306  0.148084  1
  H  H16  1  0.617306  0.148084  0.617306  1
  H  H17  1  0.148084  0.617306  0.617306  1
  H  H18  1  0.617306  0.617306  0.617306  1
  H  H19  1  0.382694  0.382694  0.851916  1
  H  H20  1  0.382694  0.851916  0.382694  1
  H  H21  1  0.851916  0.382694  0.382694  1
  H  H22  1  0.382694  0.382694  0.382694  1
