# generated using pymatgen
data_Dy2Y10Ru3Rh
_symmetry_space_group_name_H-M   'P 1'
_cell_length_a   6.39274805
_cell_length_b   7.30850606
_cell_length_c   9.24770800
_cell_angle_alpha   90.00000000
_cell_angle_beta   90.00000000
_cell_angle_gamma   90.01428621
_symmetry_Int_Tables_number   1
_chemical_formula_structural   Dy2Y10Ru3Rh
_chemical_formula_sum   'Dy2 Y10 Ru3 Rh1'
_cell_volume   432.06620106
_cell_formula_units_Z   1
loop_
 _symmetry_equiv_pos_site_id
 _symmetry_equiv_pos_as_xyz
  1  'x, y, z'
loop_
 _atom_site_type_symbol
 _atom_site_label
 _atom_site_symmetry_multiplicity
 _atom_site_fract_x
 _atom_site_fract_y
 _atom_site_fract_z
 _atom_site_occupancy
  Dy  Dy0  1  0.135795  0.458063  0.750000  1
  Dy  Dy1  1  0.363491  0.957940  0.750000  1
  Y  Y2  1  0.330949  0.674455  0.063817  1
  Y  Y3  1  0.172270  0.178275  0.436561  1
  Y  Y4  1  0.671359  0.323753  0.565829  1
  Y  Y5  1  0.826078  0.823475  0.931929  1
  Y  Y6  1  0.671359  0.323753  0.934171  1
  Y  Y7  1  0.826078  0.823475  0.568071  1
  Y  Y8  1  0.330949  0.674455  0.436183  1
  Y  Y9  1  0.172270  0.178275  0.063439  1
  Y  Y10  1  0.865525  0.539274  0.250000  1
  Y  Y11  1  0.632681  0.042081  0.250000  1
  Ru  Ru12  1  0.460245  0.385474  0.250000  1
  Ru  Ru13  1  0.966968  0.115107  0.750000  1
  Ru  Ru14  1  0.533083  0.616370  0.750000  1
  Rh  Rh15  1  0.040900  0.885776  0.250000  1
