# generated using pymatgen
data_La8Pr8MgHg3Rh4
_symmetry_space_group_name_H-M   'P 1'
_cell_length_a   10.02425255
_cell_length_b   10.08958977
_cell_length_c   10.13267497
_cell_angle_alpha   59.71519311
_cell_angle_beta   59.61592602
_cell_angle_gamma   60.09480514
_symmetry_Int_Tables_number   1
_chemical_formula_structural   La8Pr8MgHg3Rh4
_chemical_formula_sum   'La8 Pr8 Mg1 Hg3 Rh4'
_cell_volume   721.48448390
_cell_formula_units_Z   1
loop_
 _symmetry_equiv_pos_site_id
 _symmetry_equiv_pos_as_xyz
  1  'x, y, z'
loop_
 _atom_site_type_symbol
 _atom_site_label
 _atom_site_symmetry_multiplicity
 _atom_site_fract_x
 _atom_site_fract_y
 _atom_site_fract_z
 _atom_site_occupancy
  La  La0  1  0.347149  0.346610  0.347827  1
  La  La1  1  0.348813  0.347734  0.955512  1
  La  La2  1  0.350018  0.956006  0.347204  1
  La  La3  1  0.947342  0.352514  0.350517  1
  La  La4  1  0.808347  0.191478  0.191383  1
  La  La5  1  0.185530  0.810859  0.811717  1
  La  La6  1  0.187316  0.811920  0.188257  1
  La  La7  1  0.806694  0.191643  0.808021  1
  Pr  Pr8  1  0.190405  0.190959  0.809355  1
  Pr  Pr9  1  0.802355  0.804281  0.195563  1
  Pr  Pr10  1  0.937658  0.564119  0.564536  1
  Pr  Pr11  1  0.561700  0.936892  0.937019  1
  Pr  Pr12  1  0.561926  0.937243  0.564624  1
  Pr  Pr13  1  0.937591  0.562945  0.934071  1
  Pr  Pr14  1  0.561470  0.563473  0.938290  1
  Pr  Pr15  1  0.938020  0.935908  0.562617  1
  Mg  Mg16  1  0.286138  0.569749  0.571328  1
  Hg  Hg17  1  0.581272  0.587709  0.586130  1
  Hg  Hg18  1  0.581422  0.587922  0.244808  1
  Hg  Hg19  1  0.580448  0.244772  0.587810  1
  Rh  Rh20  1  0.138252  0.140479  0.146793  1
  Rh  Rh21  1  0.139280  0.141053  0.575594  1
  Rh  Rh22  1  0.146151  0.576484  0.140564  1
  Rh  Rh23  1  0.574704  0.147249  0.140459  1
