# generated using pymatgen
data_Nd4ErTm3(B6Os)4
_symmetry_space_group_name_H-M   'P 1'
_cell_length_a   3.68689800
_cell_length_b   9.19615502
_cell_length_c   11.62962903
_cell_angle_alpha   90.00729549
_cell_angle_beta   90.00000000
_cell_angle_gamma   90.00000000
_symmetry_Int_Tables_number   1
_chemical_formula_structural   Nd4ErTm3(B6Os)4
_chemical_formula_sum   'Nd4 Er1 Tm3 B24 Os4'
_cell_volume   394.30588965
_cell_formula_units_Z   1
loop_
 _symmetry_equiv_pos_site_id
 _symmetry_equiv_pos_as_xyz
  1  'x, y, z'
loop_
 _atom_site_type_symbol
 _atom_site_label
 _atom_site_symmetry_multiplicity
 _atom_site_fract_x
 _atom_site_fract_y
 _atom_site_fract_z
 _atom_site_occupancy
  Nd  Nd0  1  0.000000  0.322156  0.414648  1
  Nd  Nd1  1  0.000000  0.677796  0.585470  1
  Nd  Nd2  1  0.000000  0.822091  0.085377  1
  Nd  Nd3  1  0.000000  0.177962  0.914548  1
  Er  Er4  1  0.000000  0.944373  0.372536  1
  Tm  Tm5  1  0.000000  0.055730  0.627843  1
  Tm  Tm6  1  0.000000  0.444359  0.127436  1
  Tm  Tm7  1  0.000000  0.555682  0.872423  1
  B  B8  1  0.500000  0.556099  0.430224  1
  B  B9  1  0.500000  0.443591  0.569821  1
  B  B10  1  0.500000  0.056443  0.069606  1
  B  B11  1  0.500000  0.943661  0.930231  1
  B  B12  1  0.500000  0.749893  0.417034  1
  B  B13  1  0.500000  0.249646  0.583036  1
  B  B14  1  0.500000  0.250504  0.082823  1
  B  B15  1  0.500000  0.749616  0.917048  1
  B  B16  1  0.500000  0.790767  0.266414  1
  B  B17  1  0.500000  0.208943  0.733546  1
  B  B18  1  0.500000  0.291289  0.233358  1
  B  B19  1  0.500000  0.708882  0.766538  1
  B  B20  1  0.500000  0.630071  0.184696  1
  B  B21  1  0.500000  0.369841  0.815225  1
  B  B22  1  0.500000  0.130560  0.315008  1
  B  B23  1  0.500000  0.869738  0.684867  1
  B  B24  1  0.500000  0.985283  0.214220  1
  B  B25  1  0.500000  0.014926  0.785571  1
  B  B26  1  0.500000  0.484886  0.285436  1
  B  B27  1  0.500000  0.514996  0.714503  1
  B  B28  1  0.500000  0.601260  0.027511  1
  B  B29  1  0.500000  0.398771  0.972358  1
  B  B30  1  0.500000  0.101841  0.472721  1
  B  B31  1  0.500000  0.898479  0.528056  1
  Os  Os32  1  0.000000  0.639019  0.318931  1
  Os  Os33  1  0.000000  0.360613  0.681103  1
  Os  Os34  1  0.000000  0.139689  0.180785  1
  Os  Os35  1  0.000000  0.860542  0.819048  1
