# generated using pymatgen
data_ErTm7Ga3Fe
_symmetry_space_group_name_H-M   'P 1'
_cell_length_a   9.83611800
_cell_length_b   9.83611795
_cell_length_c   6.86631300
_cell_angle_alpha   90.00000000
_cell_angle_beta   90.00000000
_cell_angle_gamma   120.00000018
_symmetry_Int_Tables_number   1
_chemical_formula_structural   ErTm7Ga3Fe
_chemical_formula_sum   'Er2 Tm14 Ga6 Fe2'
_cell_volume   575.30968558
_cell_formula_units_Z   2
loop_
 _symmetry_equiv_pos_site_id
 _symmetry_equiv_pos_as_xyz
  1  'x, y, z'
loop_
 _atom_site_type_symbol
 _atom_site_label
 _atom_site_symmetry_multiplicity
 _atom_site_fract_x
 _atom_site_fract_y
 _atom_site_fract_z
 _atom_site_occupancy
  Er  Er0  1  0.000000  0.000000  0.768555  1
  Er  Er1  1  0.000000  0.000000  0.268555  1
  Tm  Tm2  1  0.826075  0.652150  0.488809  1
  Tm  Tm3  1  0.347850  0.173925  0.488809  1
  Tm  Tm4  1  0.826075  0.173925  0.488809  1
  Tm  Tm5  1  0.173925  0.347850  0.988809  1
  Tm  Tm6  1  0.652150  0.826075  0.988809  1
  Tm  Tm7  1  0.173925  0.826075  0.988809  1
  Tm  Tm8  1  0.666667  0.333333  0.171485  1
  Tm  Tm9  1  0.333333  0.666667  0.671485  1
  Tm  Tm10  1  0.536646  0.073292  0.792843  1
  Tm  Tm11  1  0.926708  0.463354  0.792843  1
  Tm  Tm12  1  0.536646  0.463354  0.792843  1
  Tm  Tm13  1  0.463354  0.926708  0.292843  1
  Tm  Tm14  1  0.073292  0.536646  0.292843  1
  Tm  Tm15  1  0.463354  0.536646  0.292843  1
  Ga  Ga16  1  0.836005  0.672011  0.040789  1
  Ga  Ga17  1  0.327989  0.163995  0.040789  1
  Ga  Ga18  1  0.836005  0.163995  0.040789  1
  Ga  Ga19  1  0.163995  0.327989  0.540789  1
  Ga  Ga20  1  0.672011  0.836005  0.540789  1
  Ga  Ga21  1  0.163995  0.836005  0.540789  1
  Fe  Fe22  1  0.666667  0.333333  0.555673  1
  Fe  Fe23  1  0.333333  0.666667  0.055673  1
