# generated using pymatgen
data_Ce2MnAl20Ru2Rh
_symmetry_space_group_name_H-M   'P 1'
_cell_length_a   6.86877861
_cell_length_b   6.85349909
_cell_length_c   9.13714490
_cell_angle_alpha   90.00791029
_cell_angle_beta   90.02192667
_cell_angle_gamma   97.40216955
_symmetry_Int_Tables_number   1
_chemical_formula_structural   Ce2MnAl20Ru2Rh
_chemical_formula_sum   'Ce2 Mn1 Al20 Ru2 Rh1'
_cell_volume   426.54798902
_cell_formula_units_Z   1
loop_
 _symmetry_equiv_pos_site_id
 _symmetry_equiv_pos_as_xyz
  1  'x, y, z'
loop_
 _atom_site_type_symbol
 _atom_site_label
 _atom_site_symmetry_multiplicity
 _atom_site_fract_x
 _atom_site_fract_y
 _atom_site_fract_z
 _atom_site_occupancy
  Ce  Ce0  1  0.880626  0.128184  0.747038  1
  Ce  Ce1  1  0.119374  0.871816  0.252962  1
  Mn  Mn2  1  0.000000  0.500000  0.500000  1
  Al  Al3  1  0.589967  0.860137  0.251245  1
  Al  Al4  1  0.779662  0.518607  0.252556  1
  Al  Al5  1  0.158181  0.840662  0.897429  1
  Al  Al6  1  0.410033  0.139863  0.748755  1
  Al  Al7  1  0.624016  0.379314  0.948077  1
  Al  Al8  1  0.842508  0.163055  0.400255  1
  Al  Al9  1  0.775886  0.773954  0.000050  1
  Al  Al10  1  0.863220  0.588584  0.746441  1
  Al  Al11  1  0.841819  0.159338  0.102571  1
  Al  Al12  1  0.220338  0.481393  0.747444  1
  Al  Al13  1  0.157492  0.836945  0.599745  1
  Al  Al14  1  0.777265  0.770863  0.498439  1
  Al  Al15  1  0.479281  0.222642  0.252150  1
  Al  Al16  1  0.627323  0.379023  0.549104  1
  Al  Al17  1  0.222735  0.229137  0.501561  1
  Al  Al18  1  0.372677  0.620977  0.450896  1
  Al  Al19  1  0.136780  0.411416  0.253559  1
  Al  Al20  1  0.520719  0.777358  0.747850  1
  Al  Al21  1  0.375984  0.620686  0.051923  1
  Al  Al22  1  0.224114  0.226046  0.999950  1
  Ru  Ru23  1  0.500000  0.000000  0.500000  1
  Ru  Ru24  1  0.000000  0.500000  0.000000  1
  Rh  Rh25  1  0.500000  0.000000  0.000000  1
