# generated using pymatgen
data_Zr2SiB2IrRu4
_symmetry_space_group_name_H-M   'P 1'
_cell_length_a   9.34795548
_cell_length_b   9.38677544
_cell_length_c   3.06007700
_cell_angle_alpha   90.00000000
_cell_angle_beta   90.00000000
_cell_angle_gamma   90.09854421
_symmetry_Int_Tables_number   1
_chemical_formula_structural   Zr2SiB2IrRu4
_chemical_formula_sum   'Zr4 Si2 B4 Ir2 Ru8'
_cell_volume   268.51266587
_cell_formula_units_Z   2
loop_
 _symmetry_equiv_pos_site_id
 _symmetry_equiv_pos_as_xyz
  1  'x, y, z'
loop_
 _atom_site_type_symbol
 _atom_site_label
 _atom_site_symmetry_multiplicity
 _atom_site_fract_x
 _atom_site_fract_y
 _atom_site_fract_z
 _atom_site_occupancy
  Zr  Zr0  1  0.674822  0.180897  0.000000  1
  Zr  Zr1  1  0.325178  0.819103  0.000000  1
  Zr  Zr2  1  0.176163  0.327888  0.000000  1
  Zr  Zr3  1  0.823837  0.672112  0.000000  1
  Si  Si4  1  0.000000  0.000000  0.000000  1
  Si  Si5  1  0.500000  0.500000  0.000000  1
  B  B6  1  0.123786  0.623841  0.000000  1
  B  B7  1  0.876214  0.376159  0.000000  1
  B  B8  1  0.619883  0.873656  0.000000  1
  B  B9  1  0.380117  0.126344  0.000000  1
  Ir  Ir10  1  0.213167  0.068036  0.500000  1
  Ir  Ir11  1  0.786833  0.931964  0.500000  1
  Ru  Ru12  1  0.067062  0.789506  0.500000  1
  Ru  Ru13  1  0.711832  0.431467  0.500000  1
  Ru  Ru14  1  0.932938  0.210494  0.500000  1
  Ru  Ru15  1  0.288168  0.568533  0.500000  1
  Ru  Ru16  1  0.569759  0.712396  0.500000  1
  Ru  Ru17  1  0.430241  0.287604  0.500000  1
  Ru  Ru18  1  0.500000  0.000000  0.500000  1
  Ru  Ru19  1  0.000000  0.500000  0.500000  1
