# generated using pymatgen
data_Tb3DySbRh3O14
_symmetry_space_group_name_H-M   'P 1'
_cell_length_a   7.33215259
_cell_length_b   7.33484871
_cell_length_c   7.33484888
_cell_angle_alpha   59.15487632
_cell_angle_beta   59.14162361
_cell_angle_gamma   59.14162762
_symmetry_Int_Tables_number   1
_chemical_formula_structural   Tb3DySbRh3O14
_chemical_formula_sum   'Tb3 Dy1 Sb1 Rh3 O14'
_cell_volume   273.50358953
_cell_formula_units_Z   1
loop_
 _symmetry_equiv_pos_site_id
 _symmetry_equiv_pos_as_xyz
  1  'x, y, z'
loop_
 _atom_site_type_symbol
 _atom_site_label
 _atom_site_symmetry_multiplicity
 _atom_site_fract_x
 _atom_site_fract_y
 _atom_site_fract_z
 _atom_site_occupancy
  Tb  Tb0  1  0.125000  0.625000  0.125000  1
  Tb  Tb1  1  0.125000  0.125000  0.625000  1
  Tb  Tb2  1  0.125000  0.125000  0.125000  1
  Dy  Dy3  1  0.625000  0.125000  0.125000  1
  Sb  Sb4  1  0.625000  0.625000  0.625000  1
  Rh  Rh5  1  0.125000  0.625000  0.625000  1
  Rh  Rh6  1  0.625000  0.125000  0.625000  1
  Rh  Rh7  1  0.625000  0.625000  0.125000  1
  O  O8  1  0.290301  0.711210  0.711210  1
  O  O9  1  0.542565  0.962657  0.962657  1
  O  O10  1  0.710876  0.290288  0.711777  1
  O  O11  1  0.287492  0.287387  0.707923  1
  O  O12  1  0.710876  0.711777  0.290288  1
  O  O13  1  0.998816  0.001000  0.001000  1
  O  O14  1  0.287492  0.707923  0.287387  1
  O  O15  1  0.962508  0.542077  0.962613  1
  O  O16  1  0.962508  0.962613  0.542077  1
  O  O17  1  0.539124  0.538223  0.959712  1
  O  O18  1  0.251184  0.249000  0.249000  1
  O  O19  1  0.539124  0.959712  0.538223  1
  O  O20  1  0.707435  0.287343  0.287343  1
  O  O21  1  0.959699  0.538790  0.538790  1
