# generated using pymatgen
data_Cs2ReP4O13
_symmetry_space_group_name_H-M   'P 1'
_cell_length_a   5.21970759
_cell_length_b   8.12170301
_cell_length_c   16.05204600
_cell_angle_alpha   84.22910926
_cell_angle_beta   83.93934690
_cell_angle_gamma   80.49840076
_symmetry_Int_Tables_number   1
_chemical_formula_structural   Cs2ReP4O13
_chemical_formula_sum   'Cs4 Re2 P8 O26'
_cell_volume   665.00475094
_cell_formula_units_Z   2
loop_
 _symmetry_equiv_pos_site_id
 _symmetry_equiv_pos_as_xyz
  1  'x, y, z'
loop_
 _atom_site_type_symbol
 _atom_site_label
 _atom_site_symmetry_multiplicity
 _atom_site_fract_x
 _atom_site_fract_y
 _atom_site_fract_z
 _atom_site_occupancy
  Cs  Cs0  1  0.678675  0.741421  0.988954  1
  Cs  Cs1  1  0.321325  0.258579  0.011046  1
  Cs  Cs2  1  0.266652  0.299197  0.528886  1
  Cs  Cs3  1  0.733348  0.700803  0.471114  1
  Re  Re4  1  0.448156  0.056531  0.259814  1
  Re  Re5  1  0.551844  0.943469  0.740186  1
  P  P6  1  0.876376  0.221835  0.352453  1
  P  P7  1  0.123624  0.778165  0.647547  1
  P  P8  1  0.667509  0.408139  0.195756  1
  P  P9  1  0.332491  0.591861  0.804244  1
  P  P10  1  0.313063  0.671774  0.287369  1
  P  P11  1  0.686937  0.328226  0.712631  1
  P  P12  1  0.023206  0.898221  0.161824  1
  P  P13  1  0.976794  0.101779  0.838176  1
  O  O14  1  0.718394  0.082799  0.336582  1
  O  O15  1  0.281606  0.917201  0.663418  1
  O  O16  1  0.787862  0.304292  0.431660  1
  O  O17  1  0.212138  0.695708  0.568340  1
  O  O18  1  0.850033  0.361270  0.271043  1
  O  O19  1  0.149967  0.638730  0.728957  1
  O  O20  1  0.169377  0.146629  0.348750  1
  O  O21  1  0.830623  0.853371  0.651250  1
  O  O22  1  0.514261  0.592877  0.212572  1
  O  O23  1  0.485739  0.407123  0.787428  1
  O  O24  1  0.814961  0.421716  0.111912  1
  O  O25  1  0.185039  0.578284  0.888088  1
  O  O26  1  0.458466  0.292343  0.206786  1
  O  O27  1  0.541534  0.707657  0.793214  1
  O  O28  1  0.433392  0.819835  0.311405  1
  O  O29  1  0.566608  0.180165  0.688595  1
  O  O30  1  0.060724  0.748250  0.239194  1
  O  O31  1  0.939276  0.251750  0.760806  1
  O  O32  1  0.253749  0.550167  0.358602  1
  O  O33  1  0.746251  0.449833  0.641398  1
  O  O34  1  0.119428  0.831730  0.079162  1
  O  O35  1  0.880572  0.168270  0.920838  1
  O  O36  1  0.726578  0.962956  0.169930  1
  O  O37  1  0.273422  0.037044  0.830070  1
  O  O38  1  0.171456  0.036546  0.184558  1
  O  O39  1  0.828544  0.963454  0.815442  1
