# generated using pymatgen
data_Nb4AlTe4
_symmetry_space_group_name_H-M   'P 1'
_cell_length_a   4.91306500
_cell_length_b   11.10273800
_cell_length_c   19.31565400
_cell_angle_alpha   90.00000000
_cell_angle_beta   90.00000000
_cell_angle_gamma   90.00000000
_symmetry_Int_Tables_number   1
_chemical_formula_structural   Nb4AlTe4
_chemical_formula_sum   'Nb16 Al4 Te16'
_cell_volume   1053.63943981
_cell_formula_units_Z   4
loop_
 _symmetry_equiv_pos_site_id
 _symmetry_equiv_pos_as_xyz
  1  'x, y, z'
loop_
 _atom_site_type_symbol
 _atom_site_label
 _atom_site_symmetry_multiplicity
 _atom_site_fract_x
 _atom_site_fract_y
 _atom_site_fract_z
 _atom_site_occupancy
  Nb  Nb0  1  0.500000  0.564818  0.381077  1
  Nb  Nb1  1  0.500000  0.435182  0.618923  1
  Nb  Nb2  1  0.500000  0.064818  0.118923  1
  Nb  Nb3  1  0.500000  0.935182  0.881077  1
  Nb  Nb4  1  0.500000  0.707490  0.537048  1
  Nb  Nb5  1  0.500000  0.292510  0.462952  1
  Nb  Nb6  1  0.500000  0.207490  0.962952  1
  Nb  Nb7  1  0.500000  0.792510  0.037048  1
  Nb  Nb8  1  0.000000  0.692445  0.441839  1
  Nb  Nb9  1  0.000000  0.307555  0.558161  1
  Nb  Nb10  1  0.000000  0.192445  0.058161  1
  Nb  Nb11  1  0.000000  0.807555  0.941839  1
  Nb  Nb12  1  0.000000  0.399381  0.389704  1
  Nb  Nb13  1  0.000000  0.600619  0.610296  1
  Nb  Nb14  1  0.000000  0.899381  0.110296  1
  Nb  Nb15  1  0.000000  0.100619  0.889704  1
  Al  Al16  1  0.249973  0.500000  0.500000  1
  Al  Al17  1  0.750027  0.000000  0.000000  1
  Al  Al18  1  0.750027  0.500000  0.500000  1
  Al  Al19  1  0.249973  0.000000  0.000000  1
  Te  Te20  1  0.000000  0.844101  0.561527  1
  Te  Te21  1  0.000000  0.155899  0.438473  1
  Te  Te22  1  0.000000  0.344101  0.938473  1
  Te  Te23  1  0.000000  0.655899  0.061527  1
  Te  Te24  1  0.500000  0.333218  0.316910  1
  Te  Te25  1  0.500000  0.666782  0.683090  1
  Te  Te26  1  0.500000  0.833218  0.183090  1
  Te  Te27  1  0.500000  0.166782  0.816910  1
  Te  Te28  1  0.500000  0.819506  0.403685  1
  Te  Te29  1  0.500000  0.180494  0.596315  1
  Te  Te30  1  0.500000  0.319506  0.096315  1
  Te  Te31  1  0.500000  0.680494  0.903685  1
  Te  Te32  1  0.000000  0.607062  0.302465  1
  Te  Te33  1  0.000000  0.392938  0.697535  1
  Te  Te34  1  0.000000  0.107062  0.197535  1
  Te  Te35  1  0.000000  0.892938  0.802465  1
