# generated using pymatgen
data_HoThB2Ir5
_symmetry_space_group_name_H-M   'P 1'
_cell_length_a   11.08510410
_cell_length_b   11.08510405
_cell_length_c   11.08510520
_cell_angle_alpha   28.82036926
_cell_angle_beta   28.82037296
_cell_angle_gamma   28.82037133
_symmetry_Int_Tables_number   1
_chemical_formula_structural   HoThB2Ir5
_chemical_formula_sum   'Ho2 Th2 B4 Ir10'
_cell_volume   279.90609526
_cell_formula_units_Z   2
loop_
 _symmetry_equiv_pos_site_id
 _symmetry_equiv_pos_as_xyz
  1  'x, y, z'
loop_
 _atom_site_type_symbol
 _atom_site_label
 _atom_site_symmetry_multiplicity
 _atom_site_fract_x
 _atom_site_fract_y
 _atom_site_fract_z
 _atom_site_occupancy
  Ho  Ho0  1  0.846189  0.846189  0.846189  1
  Ho  Ho1  1  0.050561  0.050561  0.050561  1
  Th  Th2  1  0.151726  0.151726  0.151726  1
  Th  Th3  1  0.949288  0.949288  0.949288  1
  B  B4  1  0.617989  0.617989  0.617989  1
  B  B5  1  0.717037  0.717037  0.717037  1
  B  B6  1  0.382995  0.382995  0.382995  1
  B  B7  1  0.283498  0.283498  0.283498  1
  Ir  Ir8  1  0.407421  0.898279  0.407421  1
  Ir  Ir9  1  0.898279  0.407421  0.407421  1
  Ir  Ir10  1  0.500410  0.500410  0.000894  1
  Ir  Ir11  1  0.500410  0.000894  0.500410  1
  Ir  Ir12  1  0.000894  0.500410  0.500410  1
  Ir  Ir13  1  0.500137  0.500137  0.500137  1
  Ir  Ir14  1  0.593168  0.099407  0.593168  1
  Ir  Ir15  1  0.593168  0.593168  0.099407  1
  Ir  Ir16  1  0.099407  0.593168  0.593168  1
  Ir  Ir17  1  0.407421  0.407421  0.898279  1
