# generated using pymatgen
data_Tb4GaSi3Ni4
_symmetry_space_group_name_H-M   'P 1'
_cell_length_a   4.20768200
_cell_length_b   6.94209753
_cell_length_c   7.16224540
_cell_angle_alpha   90.18755663
_cell_angle_beta   90.00000000
_cell_angle_gamma   90.00000000
_symmetry_Int_Tables_number   1
_chemical_formula_structural   Tb4GaSi3Ni4
_chemical_formula_sum   'Tb4 Ga1 Si3 Ni4'
_cell_volume   209.20906154
_cell_formula_units_Z   1
loop_
 _symmetry_equiv_pos_site_id
 _symmetry_equiv_pos_as_xyz
  1  'x, y, z'
loop_
 _atom_site_type_symbol
 _atom_site_label
 _atom_site_symmetry_multiplicity
 _atom_site_fract_x
 _atom_site_fract_y
 _atom_site_fract_z
 _atom_site_occupancy
  Tb  Tb0  1  0.250000  0.483644  0.202125  1
  Tb  Tb1  1  0.750000  0.510551  0.799090  1
  Tb  Tb2  1  0.750000  0.013342  0.698531  1
  Tb  Tb3  1  0.250000  0.989654  0.303621  1
  Ga  Ga4  1  0.250000  0.809225  0.912045  1
  Si  Si5  1  0.750000  0.182911  0.085311  1
  Si  Si6  1  0.750000  0.689074  0.410665  1
  Si  Si7  1  0.250000  0.310656  0.589528  1
  Ni  Ni8  1  0.250000  0.679357  0.572996  1
  Ni  Ni9  1  0.750000  0.311881  0.416672  1
  Ni  Ni10  1  0.750000  0.816877  0.094175  1
  Ni  Ni11  1  0.250000  0.202828  0.915242  1
