# generated using pymatgen
data_LiNd9Se10
_symmetry_space_group_name_H-M   'P 1'
_cell_length_a   7.27533030
_cell_length_b   8.42882018
_cell_length_c   9.46088669
_cell_angle_alpha   103.21591755
_cell_angle_beta   97.12349447
_cell_angle_gamma   106.70406435
_symmetry_Int_Tables_number   1
_chemical_formula_structural   LiNd9Se10
_chemical_formula_sum   'Li1 Nd9 Se10'
_cell_volume   529.64986313
_cell_formula_units_Z   1
loop_
 _symmetry_equiv_pos_site_id
 _symmetry_equiv_pos_as_xyz
  1  'x, y, z'
loop_
 _atom_site_type_symbol
 _atom_site_label
 _atom_site_symmetry_multiplicity
 _atom_site_fract_x
 _atom_site_fract_y
 _atom_site_fract_z
 _atom_site_occupancy
  Li  Li0  1  0.000000  0.500000  0.000000  1
  Nd  Nd1  1  0.800362  0.599979  0.597730  1
  Nd  Nd2  1  0.597639  0.199754  0.203151  1
  Nd  Nd3  1  0.402361  0.800246  0.796849  1
  Nd  Nd4  1  0.600698  0.702630  0.204185  1
  Nd  Nd5  1  0.199638  0.400021  0.402270  1
  Nd  Nd6  1  0.399302  0.297370  0.795815  1
  Nd  Nd7  1  0.000000  0.000000  0.000000  1
  Nd  Nd8  1  0.202026  0.901292  0.403828  1
  Nd  Nd9  1  0.797974  0.098708  0.596172  1
  Se  Se10  1  0.707725  0.645628  0.903892  1
  Se  Se11  1  0.500347  0.251265  0.499385  1
  Se  Se12  1  0.708428  0.160922  0.904809  1
  Se  Se13  1  0.291572  0.839078  0.095191  1
  Se  Se14  1  0.499653  0.748735  0.500615  1
  Se  Se15  1  0.096795  0.452505  0.710971  1
  Se  Se16  1  0.292275  0.354372  0.096108  1
  Se  Se17  1  0.901029  0.050350  0.298465  1
  Se  Se18  1  0.098971  0.949650  0.701535  1
  Se  Se19  1  0.903205  0.547495  0.289029  1
