# generated using pymatgen
data_PaGaPt3Au
_symmetry_space_group_name_H-M   'P 1'
_cell_length_a   5.17129520
_cell_length_b   5.17129493
_cell_length_c   5.17129500
_cell_angle_alpha   64.07859009
_cell_angle_beta   64.07857919
_cell_angle_gamma   64.07858598
_symmetry_Int_Tables_number   1
_chemical_formula_structural   PaGaPt3Au
_chemical_formula_sum   'Pa1 Ga1 Pt3 Au1'
_cell_volume   106.56550901
_cell_formula_units_Z   1
loop_
 _symmetry_equiv_pos_site_id
 _symmetry_equiv_pos_as_xyz
  1  'x, y, z'
loop_
 _atom_site_type_symbol
 _atom_site_label
 _atom_site_symmetry_multiplicity
 _atom_site_fract_x
 _atom_site_fract_y
 _atom_site_fract_z
 _atom_site_occupancy
  Pa  Pa0  1  0.246624  0.246624  0.246624  1
  Ga  Ga1  1  0.627249  0.627249  0.627249  1
  Pt  Pt2  1  0.626922  0.626922  0.124763  1
  Pt  Pt3  1  0.626922  0.124763  0.626922  1
  Pt  Pt4  1  0.124763  0.626922  0.626922  1
  Au  Au5  1  0.997519  0.997519  0.997519  1
