# generated using pymatgen
data_Ac3Ce(YIr9)2
_symmetry_space_group_name_H-M   'P 1'
_cell_length_a   5.42568306
_cell_length_b   5.42378910
_cell_length_c   17.66535901
_cell_angle_alpha   89.99626569
_cell_angle_beta   90.00407702
_cell_angle_gamma   119.99436486
_symmetry_Int_Tables_number   1
_chemical_formula_structural   Ac3Ce(YIr9)2
_chemical_formula_sum   'Ac3 Ce1 Y2 Ir18'
_cell_volume   450.23056167
_cell_formula_units_Z   1
loop_
 _symmetry_equiv_pos_site_id
 _symmetry_equiv_pos_as_xyz
  1  'x, y, z'
loop_
 _atom_site_type_symbol
 _atom_site_label
 _atom_site_symmetry_multiplicity
 _atom_site_fract_x
 _atom_site_fract_y
 _atom_site_fract_z
 _atom_site_occupancy
  Ac  Ac0  1  0.666217  0.332601  0.460726  1
  Ac  Ac1  1  0.333397  0.666754  0.753894  1
  Ac  Ac2  1  0.666595  0.333205  0.247236  1
  Ce  Ce3  1  0.333053  0.666581  0.544324  1
  Y  Y4  1  0.333358  0.666653  0.961276  1
  Y  Y5  1  0.666693  0.333229  0.039124  1
  Ir  Ir6  1  0.166250  0.833201  0.369641  1
  Ir  Ir7  1  0.166424  0.332908  0.369677  1
  Ir  Ir8  1  0.666887  0.833212  0.369572  1
  Ir  Ir9  1  0.834426  0.167177  0.629229  1
  Ir  Ir10  1  0.834058  0.668228  0.629055  1
  Ir  Ir11  1  0.332840  0.167275  0.629261  1
  Ir  Ir12  1  0.832332  0.167688  0.876564  1
  Ir  Ir13  1  0.832500  0.664901  0.876691  1
  Ir  Ir14  1  0.335520  0.167753  0.876553  1
  Ir  Ir15  1  0.167357  0.832531  0.122951  1
  Ir  Ir16  1  0.167554  0.335054  0.122993  1
  Ir  Ir17  1  0.665099  0.832435  0.123012  1
  Ir  Ir18  1  0.333037  0.666782  0.247555  1
  Ir  Ir19  1  0.667708  0.334907  0.751390  1
  Ir  Ir20  1  0.000237  0.999611  0.245927  1
  Ir  Ir21  1  0.999109  0.998574  0.753508  1
  Ir  Ir22  1  0.999158  0.998482  0.500141  1
  Ir  Ir23  1  0.000189  0.000259  0.999700  1
