# generated using pymatgen
data_ScPaNi6
_symmetry_space_group_name_H-M   'P 1'
_cell_length_a   5.31782100
_cell_length_b   5.31782155
_cell_length_c   4.39210600
_cell_angle_alpha   90.00000000
_cell_angle_beta   90.00000000
_cell_angle_gamma   119.99999037
_symmetry_Int_Tables_number   1
_chemical_formula_structural   ScPaNi6
_chemical_formula_sum   'Sc1 Pa1 Ni6'
_cell_volume   107.56499489
_cell_formula_units_Z   1
loop_
 _symmetry_equiv_pos_site_id
 _symmetry_equiv_pos_as_xyz
  1  'x, y, z'
loop_
 _atom_site_type_symbol
 _atom_site_label
 _atom_site_symmetry_multiplicity
 _atom_site_fract_x
 _atom_site_fract_y
 _atom_site_fract_z
 _atom_site_occupancy
  Sc  Sc0  1  0.666667  0.333333  0.250000  1
  Pa  Pa1  1  0.333333  0.666667  0.750000  1
  Ni  Ni2  1  0.155927  0.311854  0.250000  1
  Ni  Ni3  1  0.688146  0.844073  0.250000  1
  Ni  Ni4  1  0.155927  0.844073  0.250000  1
  Ni  Ni5  1  0.842036  0.684072  0.750000  1
  Ni  Ni6  1  0.315928  0.157964  0.750000  1
  Ni  Ni7  1  0.842036  0.157964  0.750000  1
