# generated using pymatgen
data_Y3As4Pd6Pt
_symmetry_space_group_name_H-M   'P 1'
_cell_length_a   8.13237115
_cell_length_b   8.13237151
_cell_length_c   9.63896519
_cell_angle_alpha   55.59496557
_cell_angle_beta   55.59495651
_cell_angle_gamma   29.57578509
_symmetry_Int_Tables_number   1
_chemical_formula_structural   Y3As4Pd6Pt
_chemical_formula_sum   'Y3 As4 Pd6 Pt1'
_cell_volume   255.32244627
_cell_formula_units_Z   1
loop_
 _symmetry_equiv_pos_site_id
 _symmetry_equiv_pos_as_xyz
  1  'x, y, z'
loop_
 _atom_site_type_symbol
 _atom_site_label
 _atom_site_symmetry_multiplicity
 _atom_site_fract_x
 _atom_site_fract_y
 _atom_site_fract_z
 _atom_site_occupancy
  Y  Y0  1  0.500000  0.500000  0.500000  1
  Y  Y1  1  0.823173  0.823173  0.170991  1
  Y  Y2  1  0.176827  0.176827  0.829009  1
  As  As3  1  0.393632  0.393632  0.323597  1
  As  As4  1  0.606368  0.606368  0.676403  1
  As  As5  1  0.840589  0.840589  0.751891  1
  As  As6  1  0.159411  0.159411  0.248109  1
  Pd  Pd7  1  0.667307  0.667307  0.073276  1
  Pd  Pd8  1  0.012090  0.012090  0.206989  1
  Pd  Pd9  1  0.987910  0.987910  0.793011  1
  Pd  Pd10  1  0.194673  0.194673  0.473378  1
  Pd  Pd11  1  0.805327  0.805327  0.526622  1
  Pd  Pd12  1  0.332693  0.332693  0.926724  1
  Pt  Pt13  1  0.500000  0.500000  0.000000  1
