# generated using pymatgen
data_Sr2LiB2SbPt6
_symmetry_space_group_name_H-M   'P 1'
_cell_length_a   5.70827700
_cell_length_b   5.70827684
_cell_length_c   7.46841500
_cell_angle_alpha   90.00000000
_cell_angle_beta   90.00000000
_cell_angle_gamma   119.99999512
_symmetry_Int_Tables_number   1
_chemical_formula_structural   Sr2LiB2SbPt6
_chemical_formula_sum   'Sr2 Li1 B2 Sb1 Pt6'
_cell_volume   210.75076641
_cell_formula_units_Z   1
loop_
 _symmetry_equiv_pos_site_id
 _symmetry_equiv_pos_as_xyz
  1  'x, y, z'
loop_
 _atom_site_type_symbol
 _atom_site_label
 _atom_site_symmetry_multiplicity
 _atom_site_fract_x
 _atom_site_fract_y
 _atom_site_fract_z
 _atom_site_occupancy
  Sr  Sr0  1  0.000000  0.000000  0.500000  1
  Sr  Sr1  1  0.000000  0.000000  0.000000  1
  Li  Li2  1  0.666667  0.333333  0.500000  1
  B  B3  1  0.333333  0.666667  0.000000  1
  B  B4  1  0.666667  0.333333  0.000000  1
  Sb  Sb5  1  0.333333  0.666667  0.500000  1
  Pt  Pt6  1  0.501347  0.002694  0.197742  1
  Pt  Pt7  1  0.501347  0.002694  0.802258  1
  Pt  Pt8  1  0.997306  0.498653  0.197742  1
  Pt  Pt9  1  0.997306  0.498653  0.802258  1
  Pt  Pt10  1  0.501347  0.498653  0.197742  1
  Pt  Pt11  1  0.501347  0.498653  0.802258  1
