# generated using pymatgen
data_Sc4GaPt11
_symmetry_space_group_name_H-M   'P 1'
_cell_length_a   4.04417200
_cell_length_b   5.66656906
_cell_length_c   11.28867902
_cell_angle_alpha   87.79971647
_cell_angle_beta   90.00000000
_cell_angle_gamma   90.00000000
_symmetry_Int_Tables_number   1
_chemical_formula_structural   Sc4GaPt11
_chemical_formula_sum   'Sc4 Ga1 Pt11'
_cell_volume   258.50718372
_cell_formula_units_Z   1
loop_
 _symmetry_equiv_pos_site_id
 _symmetry_equiv_pos_as_xyz
  1  'x, y, z'
loop_
 _atom_site_type_symbol
 _atom_site_label
 _atom_site_symmetry_multiplicity
 _atom_site_fract_x
 _atom_site_fract_y
 _atom_site_fract_z
 _atom_site_occupancy
  Sc  Sc0  1  0.500000  0.754828  0.374779  1
  Sc  Sc1  1  0.500000  0.721133  0.865522  1
  Sc  Sc2  1  0.500000  0.278867  0.134478  1
  Sc  Sc3  1  0.500000  0.245172  0.625221  1
  Ga  Ga4  1  0.000000  0.000000  0.000000  1
  Pt  Pt5  1  0.000000  0.014440  0.243891  1
  Pt  Pt6  1  0.000000  0.985560  0.756109  1
  Pt  Pt7  1  0.000000  0.500000  0.000000  1
  Pt  Pt8  1  0.000000  0.500000  0.500000  1
  Pt  Pt9  1  0.000000  0.516698  0.248370  1
  Pt  Pt10  1  0.000000  0.483302  0.751630  1
  Pt  Pt11  1  0.500000  0.252971  0.375601  1
  Pt  Pt12  1  0.500000  0.224782  0.886120  1
  Pt  Pt13  1  0.500000  0.775218  0.113880  1
  Pt  Pt14  1  0.500000  0.747029  0.624399  1
  Pt  Pt15  1  0.000000  0.000000  0.500000  1
