# generated using pymatgen
data_TbAl6ZnCu5
_symmetry_space_group_name_H-M   'P 1'
_cell_length_a   6.64991119
_cell_length_b   6.64991083
_cell_length_c   6.64991061
_cell_angle_alpha   134.59890796
_cell_angle_beta   98.97692520
_cell_angle_gamma   98.15339240
_symmetry_Int_Tables_number   1
_chemical_formula_structural   TbAl6ZnCu5
_chemical_formula_sum   'Tb1 Al6 Zn1 Cu5'
_cell_volume   193.16079099
_cell_formula_units_Z   1
loop_
 _symmetry_equiv_pos_site_id
 _symmetry_equiv_pos_as_xyz
  1  'x, y, z'
loop_
 _atom_site_type_symbol
 _atom_site_label
 _atom_site_symmetry_multiplicity
 _atom_site_fract_x
 _atom_site_fract_y
 _atom_site_fract_z
 _atom_site_occupancy
  Tb  Tb0  1  0.998974  0.000000  0.998974  1
  Al  Al1  1  0.353488  0.348286  0.005202  1
  Al  Al2  1  0.656916  0.651714  0.005202  1
  Al  Al3  1  0.654060  0.000000  0.654060  1
  Al  Al4  1  0.348101  0.000000  0.348101  1
  Al  Al5  1  0.786379  0.290604  0.495775  1
  Al  Al6  1  0.205171  0.709396  0.495775  1
  Zn  Zn7  1  0.227230  0.500000  0.727230  1
  Cu  Cu8  1  0.498773  0.998539  0.998369  1
  Cu  Cu9  1  0.498773  0.500405  0.500234  1
  Cu  Cu10  1  0.999829  0.001461  0.500234  1
  Cu  Cu11  1  0.999829  0.499595  0.998369  1
  Cu  Cu12  1  0.772476  0.500000  0.272476  1
