# generated using pymatgen
data_YbHo3Se4
_symmetry_space_group_name_H-M   'P 1'
_cell_length_a   13.46630055
_cell_length_b   13.46630059
_cell_length_c   13.46630010
_cell_angle_alpha   17.47436527
_cell_angle_beta   17.47436517
_cell_angle_gamma   17.47436153
_symmetry_Int_Tables_number   1
_chemical_formula_structural   YbHo3Se4
_chemical_formula_sum   'Yb1 Ho3 Se4'
_cell_volume   192.16682968
_cell_formula_units_Z   1
loop_
 _symmetry_equiv_pos_site_id
 _symmetry_equiv_pos_as_xyz
  1  'x, y, z'
loop_
 _atom_site_type_symbol
 _atom_site_label
 _atom_site_symmetry_multiplicity
 _atom_site_fract_x
 _atom_site_fract_y
 _atom_site_fract_z
 _atom_site_occupancy
  Yb  Yb0  1  0.000000  0.000000  0.000000  1
  Ho  Ho1  1  0.248850  0.248850  0.248850  1
  Ho  Ho2  1  0.500000  0.500000  0.500000  1
  Ho  Ho3  1  0.751150  0.751150  0.751150  1
  Se  Se4  1  0.375874  0.375874  0.375874  1
  Se  Se5  1  0.125322  0.125322  0.125322  1
  Se  Se6  1  0.624126  0.624126  0.624126  1
  Se  Se7  1  0.874678  0.874678  0.874678  1
