# generated using pymatgen
data_AcU(SnIr)2
_symmetry_space_group_name_H-M   'P 1'
_cell_length_a   7.55764461
_cell_length_b   7.54819352
_cell_length_c   8.44944919
_cell_angle_alpha   89.99886270
_cell_angle_beta   89.92828482
_cell_angle_gamma   120.05541174
_symmetry_Int_Tables_number   1
_chemical_formula_structural   AcU(SnIr)2
_chemical_formula_sum   'Ac3 U3 Sn6 Ir6'
_cell_volume   417.20095612
_cell_formula_units_Z   3
loop_
 _symmetry_equiv_pos_site_id
 _symmetry_equiv_pos_as_xyz
  1  'x, y, z'
loop_
 _atom_site_type_symbol
 _atom_site_label
 _atom_site_symmetry_multiplicity
 _atom_site_fract_x
 _atom_site_fract_y
 _atom_site_fract_z
 _atom_site_occupancy
  Ac  Ac0  1  0.585678  0.585486  0.750016  1
  Ac  Ac1  1  0.000035  0.414050  0.749978  1
  Ac  Ac2  1  0.414410  0.000069  0.749974  1
  U  U3  1  0.412130  0.999477  0.250002  1
  U  U4  1  0.587525  0.587836  0.250014  1
  U  U5  1  0.000211  0.413138  0.250016  1
  Sn  Sn6  1  0.250651  0.250048  0.489688  1
  Sn  Sn7  1  0.250682  0.250063  0.010319  1
  Sn  Sn8  1  0.749455  0.999730  0.010165  1
  Sn  Sn9  1  0.999886  0.750300  0.489754  1
  Sn  Sn10  1  0.749407  0.999696  0.489805  1
  Sn  Sn11  1  0.999928  0.750247  0.010223  1
  Ir  Ir12  1  0.668236  0.333759  0.457396  1
  Ir  Ir13  1  0.668209  0.333785  0.042651  1
  Ir  Ir14  1  0.331873  0.665338  0.042000  1
  Ir  Ir15  1  0.331848  0.665303  0.458024  1
  Ir  Ir16  1  0.000084  0.999844  0.749989  1
  Ir  Ir17  1  0.999751  0.001832  0.249985  1
