# generated using pymatgen
data_Mg3VRh4
_symmetry_space_group_name_H-M   'P 1'
_cell_length_a   7.51134454
_cell_length_b   7.51134468
_cell_length_c   7.51134493
_cell_angle_alpha   34.01229073
_cell_angle_beta   34.01228780
_cell_angle_gamma   34.01228926
_symmetry_Int_Tables_number   1
_chemical_formula_structural   Mg3VRh4
_chemical_formula_sum   'Mg3 V1 Rh4'
_cell_volume   118.20134195
_cell_formula_units_Z   1
loop_
 _symmetry_equiv_pos_site_id
 _symmetry_equiv_pos_as_xyz
  1  'x, y, z'
loop_
 _atom_site_type_symbol
 _atom_site_label
 _atom_site_symmetry_multiplicity
 _atom_site_fract_x
 _atom_site_fract_y
 _atom_site_fract_z
 _atom_site_occupancy
  Mg  Mg0  1  0.247530  0.247530  0.247530  1
  Mg  Mg1  1  0.752470  0.752470  0.752470  1
  Mg  Mg2  1  0.500000  0.500000  0.500000  1
  V  V3  1  0.000000  0.000000  0.000000  1
  Rh  Rh4  1  0.628944  0.628944  0.628944  1
  Rh  Rh5  1  0.118805  0.118805  0.118805  1
  Rh  Rh6  1  0.881195  0.881195  0.881195  1
  Rh  Rh7  1  0.371056  0.371056  0.371056  1
