# generated using pymatgen
data_BaSr7Ca4(AlSb3)4
_symmetry_space_group_name_H-M   'P 1'
_cell_length_a   4.65256800
_cell_length_b   13.41597133
_cell_length_c   14.92547986
_cell_angle_alpha   89.95863412
_cell_angle_beta   90.00000000
_cell_angle_gamma   90.00000000
_symmetry_Int_Tables_number   1
_chemical_formula_structural   BaSr7Ca4(AlSb3)4
_chemical_formula_sum   'Ba1 Sr7 Ca4 Al4 Sb12'
_cell_volume   931.62908911
_cell_formula_units_Z   1
loop_
 _symmetry_equiv_pos_site_id
 _symmetry_equiv_pos_as_xyz
  1  'x, y, z'
loop_
 _atom_site_type_symbol
 _atom_site_label
 _atom_site_symmetry_multiplicity
 _atom_site_fract_x
 _atom_site_fract_y
 _atom_site_fract_z
 _atom_site_occupancy
  Ba  Ba0  1  0.750000  0.645653  0.992389  1
  Sr  Sr1  1  0.250000  0.062590  0.888841  1
  Sr  Sr2  1  0.750000  0.939787  0.111389  1
  Sr  Sr3  1  0.250000  0.561025  0.609525  1
  Sr  Sr4  1  0.750000  0.437843  0.389832  1
  Sr  Sr5  1  0.250000  0.853457  0.494476  1
  Sr  Sr6  1  0.750000  0.146604  0.505396  1
  Sr  Sr7  1  0.250000  0.351338  0.006186  1
  Ca  Ca8  1  0.750000  0.225743  0.222355  1
  Ca  Ca9  1  0.250000  0.775270  0.777072  1
  Ca  Ca10  1  0.750000  0.727075  0.281097  1
  Ca  Ca11  1  0.250000  0.273817  0.720663  1
  Al  Al12  1  0.250000  0.066976  0.295569  1
  Al  Al13  1  0.750000  0.934271  0.704138  1
  Al  Al14  1  0.250000  0.567282  0.205153  1
  Al  Al15  1  0.750000  0.431221  0.792713  1
  Sb  Sb16  1  0.250000  0.249619  0.374967  1
  Sb  Sb17  1  0.750000  0.750440  0.625347  1
  Sb  Sb18  1  0.250000  0.753844  0.131319  1
  Sb  Sb19  1  0.750000  0.249823  0.874705  1
  Sb  Sb20  1  0.250000  0.116128  0.115551  1
  Sb  Sb21  1  0.750000  0.886876  0.883288  1
  Sb  Sb22  1  0.250000  0.615159  0.385068  1
  Sb  Sb23  1  0.750000  0.383142  0.613874  1
  Sb  Sb24  1  0.250000  0.039923  0.655564  1
  Sb  Sb25  1  0.750000  0.960934  0.344209  1
  Sb  Sb26  1  0.250000  0.535745  0.839880  1
  Sb  Sb27  1  0.750000  0.458412  0.159437  1
