# generated using pymatgen
data_LiCa3IrO6
_symmetry_space_group_name_H-M   'P 1'
_cell_length_a   6.48308199
_cell_length_b   6.48308308
_cell_length_c   6.48308201
_cell_angle_alpha   92.02752005
_cell_angle_beta   92.02752108
_cell_angle_gamma   92.02752280
_symmetry_Int_Tables_number   1
_chemical_formula_structural   LiCa3IrO6
_chemical_formula_sum   'Li2 Ca6 Ir2 O12'
_cell_volume   271.96208238
_cell_formula_units_Z   2
loop_
 _symmetry_equiv_pos_site_id
 _symmetry_equiv_pos_as_xyz
  1  'x, y, z'
loop_
 _atom_site_type_symbol
 _atom_site_label
 _atom_site_symmetry_multiplicity
 _atom_site_fract_x
 _atom_site_fract_y
 _atom_site_fract_z
 _atom_site_occupancy
  Li  Li0  1  0.250000  0.250000  0.250000  1
  Li  Li1  1  0.750000  0.750000  0.750000  1
  Ca  Ca2  1  0.750000  0.104843  0.395157  1
  Ca  Ca3  1  0.395157  0.750000  0.104843  1
  Ca  Ca4  1  0.104843  0.395157  0.750000  1
  Ca  Ca5  1  0.250000  0.895157  0.604843  1
  Ca  Ca6  1  0.604843  0.250000  0.895157  1
  Ca  Ca7  1  0.895157  0.604843  0.250000  1
  Ir  Ir8  1  0.500000  0.500000  0.500000  1
  Ir  Ir9  1  0.000000  0.000000  0.000000  1
  O  O10  1  0.422811  0.206796  0.548556  1
  O  O11  1  0.548556  0.422811  0.206796  1
  O  O12  1  0.206796  0.548556  0.422811  1
  O  O13  1  0.077189  0.951444  0.293204  1
  O  O14  1  0.293204  0.077189  0.951444  1
  O  O15  1  0.951444  0.293204  0.077189  1
  O  O16  1  0.577189  0.793204  0.451444  1
  O  O17  1  0.451444  0.577189  0.793204  1
  O  O18  1  0.793204  0.451444  0.577189  1
  O  O19  1  0.922811  0.048556  0.706796  1
  O  O20  1  0.048556  0.706796  0.922811  1
  O  O21  1  0.706796  0.922811  0.048556  1
