# generated using pymatgen
data_TbYCuSi3
_symmetry_space_group_name_H-M   'P 1'
_cell_length_a   8.01987148
_cell_length_b   7.98451993
_cell_length_c   5.69727726
_cell_angle_alpha   69.47596621
_cell_angle_beta   68.88151039
_cell_angle_gamma   41.70148634
_symmetry_Int_Tables_number   1
_chemical_formula_structural   TbYCuSi3
_chemical_formula_sum   'Tb2 Y2 Cu2 Si6'
_cell_volume   224.43333739
_cell_formula_units_Z   2
loop_
 _symmetry_equiv_pos_site_id
 _symmetry_equiv_pos_as_xyz
  1  'x, y, z'
loop_
 _atom_site_type_symbol
 _atom_site_label
 _atom_site_symmetry_multiplicity
 _atom_site_fract_x
 _atom_site_fract_y
 _atom_site_fract_z
 _atom_site_occupancy
  Tb  Tb0  1  0.749961  0.750042  0.749956  1
  Tb  Tb1  1  0.756496  0.243489  0.756507  1
  Y  Y2  1  0.243495  0.756524  0.243477  1
  Y  Y3  1  0.250046  0.249953  0.250050  1
  Cu  Cu4  1  0.666653  0.666642  0.333372  1
  Cu  Cu5  1  0.333369  0.333337  0.666649  1
  Si  Si6  1  0.831358  0.831477  0.168602  1
  Si  Si7  1  0.828940  0.339913  0.171016  1
  Si  Si8  1  0.660095  0.171024  0.339923  1
  Si  Si9  1  0.339932  0.828944  0.660113  1
  Si  Si10  1  0.171041  0.660105  0.828957  1
  Si  Si11  1  0.168625  0.168540  0.831378  1
