# generated using pymatgen
data_Tb2Y2Al18(PdRh)3
_symmetry_space_group_name_H-M   'P 1'
_cell_length_a   7.60615819
_cell_length_b   7.60714807
_cell_length_c   9.45962400
_cell_angle_alpha   89.99300081
_cell_angle_beta   89.98736831
_cell_angle_gamma   119.56963756
_symmetry_Int_Tables_number   1
_chemical_formula_structural   Tb2Y2Al18(PdRh)3
_chemical_formula_sum   'Tb2 Y2 Al18 Pd3 Rh3'
_cell_volume   476.05681282
_cell_formula_units_Z   1
loop_
 _symmetry_equiv_pos_site_id
 _symmetry_equiv_pos_as_xyz
  1  'x, y, z'
loop_
 _atom_site_type_symbol
 _atom_site_label
 _atom_site_symmetry_multiplicity
 _atom_site_fract_x
 _atom_site_fract_y
 _atom_site_fract_z
 _atom_site_occupancy
  Tb  Tb0  1  0.995695  0.670085  0.250159  1
  Tb  Tb1  1  0.005582  0.330734  0.749983  1
  Y  Y2  1  0.669293  0.994414  0.250059  1
  Y  Y3  1  0.329885  0.004344  0.749804  1
  Al  Al4  1  0.126006  0.126778  0.250626  1
  Al  Al5  1  0.873195  0.874000  0.749373  1
  Al  Al6  1  0.000384  0.331022  0.076078  1
  Al  Al7  1  0.999160  0.669094  0.923464  1
  Al  Al8  1  0.996291  0.664980  0.574734  1
  Al  Al9  1  0.335108  0.003726  0.425286  1
  Al  Al10  1  0.996161  0.330812  0.425320  1
  Al  Al11  1  0.669082  0.003802  0.574652  1
  Al  Al12  1  0.668892  0.999584  0.923945  1
  Al  Al13  1  0.330985  0.000865  0.076514  1
  Al  Al14  1  0.332685  0.329432  0.551649  1
  Al  Al15  1  0.670525  0.667342  0.448358  1
  Al  Al16  1  0.669505  0.669444  0.054382  1
  Al  Al17  1  0.330589  0.330452  0.945621  1
  Al  Al18  1  0.340137  0.545846  0.250596  1
  Al  Al19  1  0.659259  0.451683  0.746728  1
  Al  Al20  1  0.548286  0.340727  0.253269  1
  Al  Al21  1  0.454165  0.659853  0.749403  1
  Pd  Pd22  1  0.672065  0.327782  0.999990  1
  Pd  Pd23  1  0.327557  0.672590  0.000009  1
  Pd  Pd24  1  0.327491  0.672651  0.499989  1
  Rh  Rh25  1  0.671888  0.328092  0.500007  1
  Rh  Rh26  1  0.999916  0.000077  0.000002  1
  Rh  Rh27  1  0.000213  0.999794  0.500001  1
