# generated using pymatgen
data_CeU5(Co3Sb4)2
_symmetry_space_group_name_H-M   'P 1'
_cell_length_a   8.05509194
_cell_length_b   8.05509214
_cell_length_c   8.05509312
_cell_angle_alpha   109.42963815
_cell_angle_beta   109.55441802
_cell_angle_gamma   109.42963725
_symmetry_Int_Tables_number   1
_chemical_formula_structural   CeU5(Co3Sb4)2
_chemical_formula_sum   'Ce1 U5 Co6 Sb8'
_cell_volume   402.33610313
_cell_formula_units_Z   1
loop_
 _symmetry_equiv_pos_site_id
 _symmetry_equiv_pos_as_xyz
  1  'x, y, z'
loop_
 _atom_site_type_symbol
 _atom_site_label
 _atom_site_symmetry_multiplicity
 _atom_site_fract_x
 _atom_site_fract_y
 _atom_site_fract_z
 _atom_site_occupancy
  Ce  Ce0  1  0.875000  0.250000  0.125000  1
  U  U1  1  0.625000  0.750000  0.375000  1
  U  U2  1  0.249705  0.125558  0.876763  1
  U  U3  1  0.751205  0.374442  0.624147  1
  U  U4  1  0.123237  0.872942  0.248795  1
  U  U5  1  0.375853  0.627058  0.750295  1
  Co  Co6  1  0.375000  0.250000  0.625000  1
  Co  Co7  1  0.125000  0.750000  0.875000  1
  Co  Co8  1  0.260129  0.634125  0.381354  1
  Co  Co9  1  0.747229  0.865875  0.126004  1
  Co  Co10  1  0.618646  0.378775  0.252771  1
  Co  Co11  1  0.873996  0.121225  0.739871  1
  Sb  Sb12  1  0.662984  0.498777  0.998635  1
  Sb  Sb13  1  0.499859  0.001223  0.664207  1
  Sb  Sb14  1  0.000687  0.665614  0.500439  1
  Sb  Sb15  1  0.834825  0.834386  0.835074  1
  Sb  Sb16  1  0.499561  0.000249  0.165175  1
  Sb  Sb17  1  0.164926  0.499751  0.999313  1
  Sb  Sb18  1  0.001365  0.164348  0.500141  1
  Sb  Sb19  1  0.335793  0.335652  0.337016  1
