# generated using pymatgen
data_YbHo3(B4Os)4
_symmetry_space_group_name_H-M   'P 1'
_cell_length_a   3.55078200
_cell_length_b   5.95716191
_cell_length_c   11.51090676
_cell_angle_alpha   89.93664477
_cell_angle_beta   90.00000000
_cell_angle_gamma   90.00000000
_symmetry_Int_Tables_number   1
_chemical_formula_structural   YbHo3(B4Os)4
_chemical_formula_sum   'Yb1 Ho3 B16 Os4'
_cell_volume   243.48526503
_cell_formula_units_Z   1
loop_
 _symmetry_equiv_pos_site_id
 _symmetry_equiv_pos_as_xyz
  1  'x, y, z'
loop_
 _atom_site_type_symbol
 _atom_site_label
 _atom_site_symmetry_multiplicity
 _atom_site_fract_x
 _atom_site_fract_y
 _atom_site_fract_z
 _atom_site_occupancy
  Yb  Yb0  1  0.000000  0.370498  0.149423  1
  Ho  Ho1  1  0.000000  0.127749  0.650049  1
  Ho  Ho2  1  0.000000  0.871730  0.348815  1
  Ho  Ho3  1  0.000000  0.627909  0.850784  1
  B  B4  1  0.500000  0.474921  0.691694  1
  B  B5  1  0.500000  0.525664  0.308377  1
  B  B6  1  0.500000  0.974373  0.808643  1
  B  B7  1  0.500000  0.025427  0.191075  1
  B  B8  1  0.500000  0.288883  0.814718  1
  B  B9  1  0.500000  0.711329  0.185270  1
  B  B10  1  0.500000  0.788816  0.686035  1
  B  B11  1  0.500000  0.212302  0.313888  1
  B  B12  1  0.500000  0.363552  0.970186  1
  B  B13  1  0.500000  0.636072  0.030162  1
  B  B14  1  0.500000  0.863644  0.530159  1
  B  B15  1  0.500000  0.136206  0.470143  1
  B  B16  1  0.500000  0.387211  0.547043  1
  B  B17  1  0.500000  0.612066  0.452915  1
  B  B18  1  0.500000  0.887785  0.953762  1
  B  B19  1  0.500000  0.113920  0.047191  1
  Os  Os20  1  0.000000  0.140690  0.906666  1
  Os  Os21  1  0.000000  0.859727  0.091863  1
  Os  Os22  1  0.000000  0.641335  0.593146  1
  Os  Os23  1  0.000000  0.358190  0.407994  1
