# generated using pymatgen
data_Dy2Tm3Mg3(P3Ir4)4
_symmetry_space_group_name_H-M   'P 1'
_cell_length_a   12.79558800
_cell_length_b   12.79558777
_cell_length_c   3.97476200
_cell_angle_alpha   90.00000000
_cell_angle_beta   90.00000000
_cell_angle_gamma   120.00000059
_symmetry_Int_Tables_number   1
_chemical_formula_structural   Dy2Tm3Mg3(P3Ir4)4
_chemical_formula_sum   'Dy2 Tm3 Mg3 P12 Ir16'
_cell_volume   563.58866049
_cell_formula_units_Z   1
loop_
 _symmetry_equiv_pos_site_id
 _symmetry_equiv_pos_as_xyz
  1  'x, y, z'
loop_
 _atom_site_type_symbol
 _atom_site_label
 _atom_site_symmetry_multiplicity
 _atom_site_fract_x
 _atom_site_fract_y
 _atom_site_fract_z
 _atom_site_occupancy
  Dy  Dy0  1  0.333333  0.666667  0.500000  1
  Dy  Dy1  1  0.666667  0.333333  0.500000  1
  Tm  Tm2  1  0.000000  0.809516  0.000000  1
  Tm  Tm3  1  0.190484  0.190484  0.000000  1
  Tm  Tm4  1  0.809516  0.000000  0.000000  1
  Mg  Mg5  1  0.000000  0.444732  0.500000  1
  Mg  Mg6  1  0.555268  0.555268  0.500000  1
  Mg  Mg7  1  0.444732  0.000000  0.500000  1
  P  P8  1  0.000000  0.642075  0.500000  1
  P  P9  1  0.357925  0.357925  0.500000  1
  P  P10  1  0.642075  0.000000  0.500000  1
  P  P11  1  0.516184  0.688232  0.000000  1
  P  P12  1  0.311768  0.827952  0.000000  1
  P  P13  1  0.172048  0.483816  0.000000  1
  P  P14  1  0.483816  0.172048  0.000000  1
  P  P15  1  0.688232  0.516184  0.000000  1
  P  P16  1  0.827952  0.311768  0.000000  1
  P  P17  1  0.000000  0.176625  0.500000  1
  P  P18  1  0.823375  0.823375  0.500000  1
  P  P19  1  0.176625  0.000000  0.500000  1
  Ir  Ir20  1  0.508909  0.868229  0.000000  1
  Ir  Ir21  1  0.131771  0.640681  0.000000  1
  Ir  Ir22  1  0.359319  0.491091  0.000000  1
  Ir  Ir23  1  0.491091  0.359319  0.000000  1
  Ir  Ir24  1  0.868229  0.508909  0.000000  1
  Ir  Ir25  1  0.640681  0.131771  0.000000  1
  Ir  Ir26  1  0.000000  0.278467  0.000000  1
  Ir  Ir27  1  0.721533  0.721533  0.000000  1
  Ir  Ir28  1  0.278467  0.000000  0.000000  1
  Ir  Ir29  1  0.629154  0.807710  0.500000  1
  Ir  Ir30  1  0.192290  0.821444  0.500000  1
  Ir  Ir31  1  0.178556  0.370846  0.500000  1
  Ir  Ir32  1  0.370846  0.178556  0.500000  1
  Ir  Ir33  1  0.807710  0.629154  0.500000  1
  Ir  Ir34  1  0.821444  0.192290  0.500000  1
  Ir  Ir35  1  0.000000  0.000000  0.500000  1
