# generated using pymatgen
data_Nd5Dy2Tm(Si3Rh)4
_symmetry_space_group_name_H-M   'P 1'
_cell_length_a   8.23884529
_cell_length_b   8.23884601
_cell_length_c   8.17429900
_cell_angle_alpha   90.00000000
_cell_angle_beta   90.00000000
_cell_angle_gamma   119.96951482
_symmetry_Int_Tables_number   1
_chemical_formula_structural   Nd5Dy2Tm(Si3Rh)4
_chemical_formula_sum   'Nd5 Dy2 Tm1 Si12 Rh4'
_cell_volume   480.67021655
_cell_formula_units_Z   1
loop_
 _symmetry_equiv_pos_site_id
 _symmetry_equiv_pos_as_xyz
  1  'x, y, z'
loop_
 _atom_site_type_symbol
 _atom_site_label
 _atom_site_symmetry_multiplicity
 _atom_site_fract_x
 _atom_site_fract_y
 _atom_site_fract_z
 _atom_site_occupancy
  Nd  Nd0  1  0.000054  0.999946  0.250000  1
  Nd  Nd1  1  0.999975  0.000025  0.750000  1
  Nd  Nd2  1  0.504399  0.495601  0.250000  1
  Nd  Nd3  1  0.504407  0.008882  0.250000  1
  Nd  Nd4  1  0.991118  0.495593  0.250000  1
  Dy  Dy5  1  0.492714  0.985256  0.750000  1
  Dy  Dy6  1  0.014744  0.507286  0.750000  1
  Tm  Tm7  1  0.492827  0.507173  0.750000  1
  Si  Si8  1  0.166603  0.833397  0.506003  1
  Si  Si9  1  0.166933  0.333389  0.506340  1
  Si  Si10  1  0.666611  0.833067  0.506340  1
  Si  Si11  1  0.831727  0.168273  0.503251  1
  Si  Si12  1  0.831526  0.663392  0.503376  1
  Si  Si13  1  0.336608  0.168474  0.503376  1
  Si  Si14  1  0.831727  0.168273  0.996749  1
  Si  Si15  1  0.831526  0.663392  0.996624  1
  Si  Si16  1  0.336608  0.168474  0.996624  1
  Si  Si17  1  0.166603  0.833397  0.993997  1
  Si  Si18  1  0.166933  0.333389  0.993660  1
  Si  Si19  1  0.666611  0.833067  0.993660  1
  Rh  Rh20  1  0.333573  0.666427  0.491959  1
  Rh  Rh21  1  0.666302  0.333698  0.543421  1
  Rh  Rh22  1  0.666302  0.333698  0.956579  1
  Rh  Rh23  1  0.333573  0.666427  0.008041  1
