# generated using pymatgen
data_La2LuTaO7
_symmetry_space_group_name_H-M   'P 1'
_cell_length_a   6.60128488
_cell_length_b   6.60128477
_cell_length_c   7.71583000
_cell_angle_alpha   90.00000000
_cell_angle_beta   90.00000000
_cell_angle_gamma   108.85274353
_symmetry_Int_Tables_number   1
_chemical_formula_structural   La2LuTaO7
_chemical_formula_sum   'La4 Lu2 Ta2 O14'
_cell_volume   318.19429473
_cell_formula_units_Z   2
loop_
 _symmetry_equiv_pos_site_id
 _symmetry_equiv_pos_as_xyz
  1  'x, y, z'
loop_
 _atom_site_type_symbol
 _atom_site_label
 _atom_site_symmetry_multiplicity
 _atom_site_fract_x
 _atom_site_fract_y
 _atom_site_fract_z
 _atom_site_occupancy
  La  La0  1  0.480277  0.480277  0.500000  1
  La  La1  1  0.480277  0.480277  0.000000  1
  La  La2  1  0.529970  0.995043  0.750000  1
  La  La3  1  0.995043  0.529970  0.250000  1
  Lu  Lu4  1  0.470611  0.997560  0.250000  1
  Lu  Lu5  1  0.997560  0.470611  0.750000  1
  Ta  Ta6  1  0.997821  0.997821  0.500000  1
  Ta  Ta7  1  0.997821  0.997821  0.000000  1
  O  O8  1  0.693327  0.945564  0.453713  1
  O  O9  1  0.945564  0.693327  0.546287  1
  O  O10  1  0.693327  0.945564  0.046287  1
  O  O11  1  0.945564  0.693327  0.953713  1
  O  O12  1  0.323845  0.073389  0.513660  1
  O  O13  1  0.073389  0.323845  0.486340  1
  O  O14  1  0.323845  0.073389  0.986340  1
  O  O15  1  0.073389  0.323845  0.013660  1
  O  O16  1  0.942539  0.057061  0.750000  1
  O  O17  1  0.057061  0.942539  0.250000  1
  O  O18  1  0.348558  0.617686  0.750000  1
  O  O19  1  0.617686  0.348558  0.250000  1
  O  O20  1  0.649064  0.363467  0.750000  1
  O  O21  1  0.363467  0.649064  0.250000  1
