# generated using pymatgen
data_Tm2Ta3Si7Pt9
_symmetry_space_group_name_H-M   'P 1'
_cell_length_a   9.88198700
_cell_length_b   9.88198744
_cell_length_c   4.00245200
_cell_angle_alpha   90.00000000
_cell_angle_beta   90.00000000
_cell_angle_gamma   120.00000188
_symmetry_Int_Tables_number   1
_chemical_formula_structural   Tm2Ta3Si7Pt9
_chemical_formula_sum   'Tm2 Ta3 Si7 Pt9'
_cell_volume   338.48960145
_cell_formula_units_Z   1
loop_
 _symmetry_equiv_pos_site_id
 _symmetry_equiv_pos_as_xyz
  1  'x, y, z'
loop_
 _atom_site_type_symbol
 _atom_site_label
 _atom_site_symmetry_multiplicity
 _atom_site_fract_x
 _atom_site_fract_y
 _atom_site_fract_z
 _atom_site_occupancy
  Tm  Tm0  1  0.000000  0.000000  0.000000  1
  Tm  Tm1  1  0.333333  0.666667  0.500000  1
  Ta  Ta2  1  0.882261  0.455511  0.500000  1
  Ta  Ta3  1  0.573250  0.117739  0.500000  1
  Ta  Ta4  1  0.544489  0.426750  0.500000  1
  Si  Si5  1  0.255382  0.210060  0.500000  1
  Si  Si6  1  0.789940  0.045324  0.500000  1
  Si  Si7  1  0.954676  0.744618  0.500000  1
  Si  Si8  1  0.553985  0.637251  0.000000  1
  Si  Si9  1  0.362749  0.916733  0.000000  1
  Si  Si10  1  0.083267  0.446015  0.000000  1
  Si  Si11  1  0.666667  0.333333  0.000000  1
  Pt  Pt12  1  0.223129  0.942700  0.500000  1
  Pt  Pt13  1  0.057300  0.280430  0.500000  1
  Pt  Pt14  1  0.719570  0.776871  0.500000  1
  Pt  Pt15  1  0.307359  0.410769  0.000000  1
  Pt  Pt16  1  0.589231  0.896589  0.000000  1
  Pt  Pt17  1  0.103411  0.692641  0.000000  1
  Pt  Pt18  1  0.387677  0.174832  0.000000  1
  Pt  Pt19  1  0.825168  0.212844  0.000000  1
  Pt  Pt20  1  0.787156  0.612323  0.000000  1
