# generated using pymatgen
data_BeRe2B2Ru5
_symmetry_space_group_name_H-M   'P 1'
_cell_length_a   9.14607200
_cell_length_b   9.14607200
_cell_length_c   2.82521000
_cell_angle_alpha   90.00000000
_cell_angle_beta   90.00000000
_cell_angle_gamma   90.00000000
_symmetry_Int_Tables_number   1
_chemical_formula_structural   BeRe2B2Ru5
_chemical_formula_sum   'Be2 Re4 B4 Ru10'
_cell_volume   236.33060494
_cell_formula_units_Z   2
loop_
 _symmetry_equiv_pos_site_id
 _symmetry_equiv_pos_as_xyz
  1  'x, y, z'
loop_
 _atom_site_type_symbol
 _atom_site_label
 _atom_site_symmetry_multiplicity
 _atom_site_fract_x
 _atom_site_fract_y
 _atom_site_fract_z
 _atom_site_occupancy
  Be  Be0  1  0.500000  0.500000  0.000000  1
  Be  Be1  1  0.000000  0.000000  0.000000  1
  Re  Re2  1  0.816501  0.683499  0.000000  1
  Re  Re3  1  0.183499  0.316501  0.000000  1
  Re  Re4  1  0.316501  0.816501  0.000000  1
  Re  Re5  1  0.683499  0.183499  0.000000  1
  B  B6  1  0.630745  0.869255  0.000000  1
  B  B7  1  0.369255  0.130745  0.000000  1
  B  B8  1  0.130745  0.630745  0.000000  1
  B  B9  1  0.869255  0.369255  0.000000  1
  Ru  Ru10  1  0.555713  0.705485  0.500000  1
  Ru  Ru11  1  0.444287  0.294515  0.500000  1
  Ru  Ru12  1  0.055713  0.794515  0.500000  1
  Ru  Ru13  1  0.944287  0.205485  0.500000  1
  Ru  Ru14  1  0.294515  0.555713  0.500000  1
  Ru  Ru15  1  0.705485  0.444287  0.500000  1
  Ru  Ru16  1  0.205485  0.055713  0.500000  1
  Ru  Ru17  1  0.794515  0.944287  0.500000  1
  Ru  Ru18  1  0.500000  0.000000  0.500000  1
  Ru  Ru19  1  0.000000  0.500000  0.500000  1
