# generated using pymatgen
data_Ho4MnOsRu6
_symmetry_space_group_name_H-M   'P 1'
_cell_length_a   5.40934027
_cell_length_b   5.18044015
_cell_length_c   8.92538000
_cell_angle_alpha   90.00000000
_cell_angle_beta   90.00000000
_cell_angle_gamma   121.36214650
_symmetry_Int_Tables_number   1
_chemical_formula_structural   Ho4MnOsRu6
_chemical_formula_sum   'Ho4 Mn1 Os1 Ru6'
_cell_volume   213.57089082
_cell_formula_units_Z   1
loop_
 _symmetry_equiv_pos_site_id
 _symmetry_equiv_pos_as_xyz
  1  'x, y, z'
loop_
 _atom_site_type_symbol
 _atom_site_label
 _atom_site_symmetry_multiplicity
 _atom_site_fract_x
 _atom_site_fract_y
 _atom_site_fract_z
 _atom_site_occupancy
  Ho  Ho0  1  0.667978  0.335986  0.566244  1
  Ho  Ho1  1  0.330597  0.661379  0.433445  1
  Ho  Ho2  1  0.330597  0.661379  0.066555  1
  Ho  Ho3  1  0.667978  0.335986  0.933756  1
  Mn  Mn4  1  0.168193  0.334295  0.750000  1
  Os  Os5  1  0.836585  0.673729  0.250000  1
  Ru  Ru6  1  0.997008  0.994720  0.502534  1
  Ru  Ru7  1  0.997008  0.994720  0.997466  1
  Ru  Ru8  1  0.172445  0.825043  0.750000  1
  Ru  Ru9  1  0.653062  0.826295  0.750000  1
  Ru  Ru10  1  0.830279  0.178556  0.250000  1
  Ru  Ru11  1  0.348270  0.177911  0.250000  1
