# generated using pymatgen
data_ScNb5ReSi6Tc5
_symmetry_space_group_name_H-M   'P 1'
_cell_length_a   7.66980954
_cell_length_b   7.59410043
_cell_length_c   7.66252378
_cell_angle_alpha   126.29995938
_cell_angle_beta   128.30827136
_cell_angle_gamma   77.99335076
_symmetry_Int_Tables_number   1
_chemical_formula_structural   ScNb5ReSi6Tc5
_chemical_formula_sum   'Sc1 Nb5 Re1 Si6 Tc5'
_cell_volume   273.18303045
_cell_formula_units_Z   1
loop_
 _symmetry_equiv_pos_site_id
 _symmetry_equiv_pos_as_xyz
  1  'x, y, z'
loop_
 _atom_site_type_symbol
 _atom_site_label
 _atom_site_symmetry_multiplicity
 _atom_site_fract_x
 _atom_site_fract_y
 _atom_site_fract_z
 _atom_site_occupancy
  Sc  Sc0  1  0.547944  0.092394  0.045301  1
  Nb  Nb1  1  0.451956  0.492364  0.539113  1
  Nb  Nb2  1  0.951350  0.493232  0.042149  1
  Nb  Nb3  1  0.050936  0.099097  0.548781  1
  Nb  Nb4  1  0.745615  0.897801  0.650719  1
  Nb  Nb5  1  0.248894  0.897613  0.149704  1
  Re  Re6  1  0.367537  0.498108  0.119145  1
  Si  Si7  1  0.750462  0.496011  0.247542  1
  Si  Si8  1  0.255369  0.505191  0.747781  1
  Si  Si9  1  0.329463  0.828257  0.493944  1
  Si  Si10  1  0.667385  0.161991  0.499171  1
  Si  Si11  1  0.834322  0.827661  0.997801  1
  Si  Si12  1  0.162901  0.161308  0.994240  1
  Tc  Tc13  1  0.498364  0.242681  0.740449  1
  Tc  Tc14  1  0.002422  0.242758  0.244065  1
  Tc  Tc15  1  0.119507  0.754519  0.618074  1
  Tc  Tc16  1  0.878964  0.497130  0.629376  1
  Tc  Tc17  1  0.636610  0.754085  0.134843  1
