# generated using pymatgen
data_Cs14Fe7NiS16
_symmetry_space_group_name_H-M   'P 1'
_cell_length_a   10.40080006
_cell_length_b   10.46444648
_cell_length_c   16.87017518
_cell_angle_alpha   65.17537082
_cell_angle_beta   64.73703209
_cell_angle_gamma   48.77018225
_symmetry_Int_Tables_number   1
_chemical_formula_structural   Cs14Fe7NiS16
_chemical_formula_sum   'Cs14 Fe7 Ni1 S16'
_cell_volume   1222.63720751
_cell_formula_units_Z   1
loop_
 _symmetry_equiv_pos_site_id
 _symmetry_equiv_pos_as_xyz
  1  'x, y, z'
loop_
 _atom_site_type_symbol
 _atom_site_label
 _atom_site_symmetry_multiplicity
 _atom_site_fract_x
 _atom_site_fract_y
 _atom_site_fract_z
 _atom_site_occupancy
  Cs  Cs0  1  0.235934  0.768789  0.746956  1
  Cs  Cs1  1  0.768740  0.229833  0.250813  1
  Cs  Cs2  1  0.245247  0.744656  0.989484  1
  Cs  Cs3  1  0.256700  0.752631  0.510499  1
  Cs  Cs4  1  0.754414  0.252773  0.012923  1
  Cs  Cs5  1  0.744179  0.250455  0.488707  1
  Cs  Cs6  1  0.991819  0.532333  0.608670  1
  Cs  Cs7  1  0.473753  0.998502  0.890489  1
  Cs  Cs8  1  0.998100  0.475240  0.388871  1
  Cs  Cs9  1  0.526238  0.998767  0.112433  1
  Cs  Cs10  1  0.005461  0.510270  0.863226  1
  Cs  Cs11  1  0.488674  0.998213  0.634406  1
  Cs  Cs12  1  0.993381  0.488800  0.138868  1
  Cs  Cs13  1  0.512279  0.000209  0.365716  1
  Fe  Fe14  1  0.566931  0.318231  0.835768  1
  Fe  Fe15  1  0.319003  0.569187  0.333379  1
  Fe  Fe16  1  0.432733  0.679793  0.165965  1
  Fe  Fe17  1  0.897966  0.212695  0.777971  1
  Fe  Fe18  1  0.786164  0.102351  0.723430  1
  Fe  Fe19  1  0.104946  0.784823  0.223117  1
  Fe  Fe20  1  0.215341  0.894251  0.277071  1
  Ni  Ni21  1  0.679864  0.436241  0.662566  1
  S  S22  1  0.658824  0.491279  0.785535  1
  S  S23  1  0.509676  0.343493  0.711070  1
  S  S24  1  0.342319  0.505823  0.211244  1
  S  S25  1  0.496118  0.657098  0.287670  1
  S  S26  1  0.955267  0.199976  0.633267  1
  S  S27  1  0.805148  0.038888  0.867879  1
  S  S28  1  0.038584  0.805144  0.367481  1
  S  S29  1  0.196767  0.958502  0.132775  1
  S  S30  1  0.660699  0.612274  0.051773  1
  S  S31  1  0.385321  0.343906  0.446567  1
  S  S32  1  0.338799  0.384616  0.950153  1
  S  S33  1  0.610439  0.667654  0.550254  1
  S  S34  1  0.860833  0.877144  0.687238  1
  S  S35  1  0.122839  0.136350  0.816265  1
  S  S36  1  0.140025  0.118609  0.314214  1
  S  S37  1  0.880479  0.860201  0.185287  1
