# generated using pymatgen
data_Y4Lu8Co4CuBi
_symmetry_space_group_name_H-M   'P 1'
_cell_length_a   8.23839536
_cell_length_b   8.23886181
_cell_length_c   8.23839494
_cell_angle_alpha   110.04947549
_cell_angle_beta   110.94478881
_cell_angle_gamma   107.43741620
_symmetry_Int_Tables_number   1
_chemical_formula_structural   Y4Lu8Co4CuBi
_chemical_formula_sum   'Y4 Lu8 Co4 Cu1 Bi1'
_cell_volume   430.03759595
_cell_formula_units_Z   1
loop_
 _symmetry_equiv_pos_site_id
 _symmetry_equiv_pos_as_xyz
  1  'x, y, z'
loop_
 _atom_site_type_symbol
 _atom_site_label
 _atom_site_symmetry_multiplicity
 _atom_site_fract_x
 _atom_site_fract_y
 _atom_site_fract_z
 _atom_site_occupancy
  Y  Y0  1  0.288115  0.184886  0.472983  1
  Y  Y1  1  0.711885  0.815114  0.527017  1
  Y  Y2  1  0.288097  0.815114  0.103227  1
  Y  Y3  1  0.711903  0.184886  0.896773  1
  Lu  Lu4  1  0.623214  0.313310  0.309895  1
  Lu  Lu5  1  0.376786  0.686690  0.690105  1
  Lu  Lu6  1  0.003417  0.313310  0.690097  1
  Lu  Lu7  1  0.996583  0.686690  0.309903  1
  Lu  Lu8  1  0.211145  0.412740  0.201596  1
  Lu  Lu9  1  0.788855  0.587260  0.798404  1
  Lu  Lu10  1  0.211159  0.009576  0.798417  1
  Lu  Lu11  1  0.788841  0.990424  0.201583  1
  Co  Co12  1  0.999993  0.377832  0.377839  1
  Co  Co13  1  0.000007  0.622168  0.622161  1
  Co  Co14  1  0.385003  0.884975  0.499972  1
  Co  Co15  1  0.614997  0.115025  0.500028  1
  Cu  Cu16  1  0.000000  0.000000  0.000000  1
  Bi  Bi17  1  0.500000  0.500000  0.000000  1
