# generated using pymatgen
data_Nb4CrP4Rh3
_symmetry_space_group_name_H-M   'P 1'
_cell_length_a   3.70566000
_cell_length_b   6.35513536
_cell_length_c   7.24437960
_cell_angle_alpha   90.48139125
_cell_angle_beta   90.00000000
_cell_angle_gamma   90.00000000
_symmetry_Int_Tables_number   1
_chemical_formula_structural   Nb4CrP4Rh3
_chemical_formula_sum   'Nb4 Cr1 P4 Rh3'
_cell_volume   170.59890723
_cell_formula_units_Z   1
loop_
 _symmetry_equiv_pos_site_id
 _symmetry_equiv_pos_as_xyz
  1  'x, y, z'
loop_
 _atom_site_type_symbol
 _atom_site_label
 _atom_site_symmetry_multiplicity
 _atom_site_fract_x
 _atom_site_fract_y
 _atom_site_fract_z
 _atom_site_occupancy
  Nb  Nb0  1  0.250000  0.028703  0.825196  1
  Nb  Nb1  1  0.250000  0.524667  0.664487  1
  Nb  Nb2  1  0.750000  0.464606  0.335195  1
  Nb  Nb3  1  0.750000  0.981232  0.175332  1
  Cr  Cr4  1  0.250000  0.141249  0.440331  1
  P  P5  1  0.250000  0.772864  0.372542  1
  P  P6  1  0.250000  0.263507  0.135785  1
  P  P7  1  0.750000  0.231712  0.618206  1
  P  P8  1  0.750000  0.737420  0.874230  1
  Rh  Rh9  1  0.750000  0.856861  0.561629  1
  Rh  Rh10  1  0.250000  0.645056  0.062370  1
  Rh  Rh11  1  0.750000  0.352124  0.934697  1
