# generated using pymatgen
data_Nd2Eu2Cu3Sb8
_symmetry_space_group_name_H-M   'P 1'
_cell_length_a   11.01959011
_cell_length_b   11.01958918
_cell_length_c   11.01275900
_cell_angle_alpha   146.75230564
_cell_angle_beta   146.75229821
_cell_angle_gamma   47.81090401
_symmetry_Int_Tables_number   1
_chemical_formula_structural   Nd2Eu2Cu3Sb8
_chemical_formula_sum   'Nd2 Eu2 Cu3 Sb8'
_cell_volume   400.24864544
_cell_formula_units_Z   1
loop_
 _symmetry_equiv_pos_site_id
 _symmetry_equiv_pos_as_xyz
  1  'x, y, z'
loop_
 _atom_site_type_symbol
 _atom_site_label
 _atom_site_symmetry_multiplicity
 _atom_site_fract_x
 _atom_site_fract_y
 _atom_site_fract_z
 _atom_site_occupancy
  Nd  Nd0  1  0.633804  0.633804  0.503773  1
  Nd  Nd1  1  0.130029  0.130029  0.496227  1
  Eu  Eu2  1  0.367965  0.870819  0.000000  1
  Eu  Eu3  1  0.870819  0.367965  0.000000  1
  Cu  Cu4  1  0.000792  0.000792  0.000000  1
  Cu  Cu5  1  0.999036  0.499036  0.500000  1
  Cu  Cu6  1  0.499036  0.999036  0.500000  1
  Sb  Sb7  1  0.321820  0.321820  0.510866  1
  Sb  Sb8  1  0.810954  0.810954  0.489134  1
  Sb  Sb9  1  0.675161  0.181384  0.000000  1
  Sb  Sb10  1  0.181384  0.675161  0.000000  1
  Sb  Sb11  1  0.252109  0.252109  0.000000  1
  Sb  Sb12  1  0.751811  0.751811  0.000000  1
  Sb  Sb13  1  0.752640  0.252640  0.500000  1
  Sb  Sb14  1  0.252640  0.752640  0.500000  1
