# generated using pymatgen
data_La3Dy(Ho4Bi3)4
_symmetry_space_group_name_H-M   'P 1'
_cell_length_a   8.32844412
_cell_length_b   9.55418900
_cell_length_c   12.18199217
_cell_angle_alpha   90.00000000
_cell_angle_beta   90.01934299
_cell_angle_gamma   90.00000000
_symmetry_Int_Tables_number   1
_chemical_formula_structural   La3Dy(Ho4Bi3)4
_chemical_formula_sum   'La3 Dy1 Ho16 Bi12'
_cell_volume   969.33969054
_cell_formula_units_Z   1
loop_
 _symmetry_equiv_pos_site_id
 _symmetry_equiv_pos_as_xyz
  1  'x, y, z'
loop_
 _atom_site_type_symbol
 _atom_site_label
 _atom_site_symmetry_multiplicity
 _atom_site_fract_x
 _atom_site_fract_y
 _atom_site_fract_z
 _atom_site_occupancy
  La  La0  1  0.317218  0.250000  0.221021  1
  La  La1  1  0.816327  0.250000  0.278917  1
  La  La2  1  0.683565  0.750000  0.779355  1
  Dy  Dy3  1  0.185728  0.750000  0.717599  1
  Ho  Ho4  1  0.349973  0.750000  0.217465  1
  Ho  Ho5  1  0.851390  0.750000  0.283506  1
  Ho  Ho6  1  0.647485  0.250000  0.780401  1
  Ho  Ho7  1  0.148980  0.250000  0.718049  1
  Ho  Ho8  1  0.690680  0.565375  0.060630  1
  Ho  Ho9  1  0.192428  0.935553  0.440397  1
  Ho  Ho10  1  0.309207  0.064316  0.937906  1
  Ho  Ho11  1  0.806944  0.435670  0.561052  1
  Ho  Ho12  1  0.309207  0.435684  0.937906  1
  Ho  Ho13  1  0.806944  0.064330  0.561052  1
  Ho  Ho14  1  0.690680  0.934625  0.060630  1
  Ho  Ho15  1  0.192428  0.564447  0.440397  1
  Ho  Ho16  1  0.475281  0.250000  0.489224  1
  Ho  Ho17  1  0.977561  0.250000  0.011041  1
  Ho  Ho18  1  0.523299  0.750000  0.514127  1
  Ho  Ho19  1  0.024187  0.750000  0.987362  1
  Bi  Bi20  1  0.402258  0.750000  0.962742  1
  Bi  Bi21  1  0.909540  0.750000  0.538981  1
  Bi  Bi22  1  0.595887  0.250000  0.034137  1
  Bi  Bi23  1  0.094556  0.250000  0.465327  1
  Bi  Bi24  1  0.565032  0.988767  0.329859  1
  Bi  Bi25  1  0.064684  0.511003  0.170977  1
  Bi  Bi26  1  0.429703  0.492340  0.672282  1
  Bi  Bi27  1  0.939705  0.007389  0.827270  1
  Bi  Bi28  1  0.429703  0.007660  0.672282  1
  Bi  Bi29  1  0.939705  0.492611  0.827270  1
  Bi  Bi30  1  0.565032  0.511233  0.329859  1
  Bi  Bi31  1  0.064684  0.988997  0.170977  1
