# generated using pymatgen
data_Tb2TmHf3(SnRh)6
_symmetry_space_group_name_H-M   'P 1'
_cell_length_a   7.48507401
_cell_length_b   7.47497482
_cell_length_c   7.51620100
_cell_angle_alpha   90.00000000
_cell_angle_beta   90.00000000
_cell_angle_gamma   120.04922795
_symmetry_Int_Tables_number   1
_chemical_formula_structural   Tb2TmHf3(SnRh)6
_chemical_formula_sum   'Tb2 Tm1 Hf3 Sn6 Rh6'
_cell_volume   364.01493522
_cell_formula_units_Z   1
loop_
 _symmetry_equiv_pos_site_id
 _symmetry_equiv_pos_as_xyz
  1  'x, y, z'
loop_
 _atom_site_type_symbol
 _atom_site_label
 _atom_site_symmetry_multiplicity
 _atom_site_fract_x
 _atom_site_fract_y
 _atom_site_fract_z
 _atom_site_occupancy
  Tb  Tb0  1  0.999828  0.405977  0.750000  1
  Tb  Tb1  1  0.593984  0.593829  0.750000  1
  Tm  Tm2  1  0.405185  0.000194  0.750000  1
  Hf  Hf3  1  0.998871  0.392990  0.250000  1
  Hf  Hf4  1  0.606957  0.605911  0.250000  1
  Hf  Hf5  1  0.394279  0.001070  0.250000  1
  Sn  Sn6  1  0.266415  0.266391  0.492760  1
  Sn  Sn7  1  0.001492  0.734347  0.492794  1
  Sn  Sn8  1  0.001492  0.734347  0.007206  1
  Sn  Sn9  1  0.732355  0.999242  0.494040  1
  Sn  Sn10  1  0.732355  0.999242  0.005960  1
  Sn  Sn11  1  0.266415  0.266391  0.007240  1
  Rh  Rh12  1  0.333470  0.667477  0.460438  1
  Rh  Rh13  1  0.666039  0.332572  0.462439  1
  Rh  Rh14  1  0.333470  0.667477  0.039562  1
  Rh  Rh15  1  0.001731  0.999983  0.750000  1
  Rh  Rh16  1  0.999623  0.999991  0.250000  1
  Rh  Rh17  1  0.666039  0.332572  0.037561  1
