# generated using pymatgen
data_Cs2AlMoH10
_symmetry_space_group_name_H-M   'P 1'
_cell_length_a   11.29780938
_cell_length_b   7.46540400
_cell_length_c   4.88638100
_cell_angle_alpha   90.00000000
_cell_angle_beta   90.17447185
_cell_angle_gamma   90.00000000
_symmetry_Int_Tables_number   1
_chemical_formula_structural   Cs2AlMoH10
_chemical_formula_sum   'Cs4 Al2 Mo2 H20'
_cell_volume   412.12871140
_cell_formula_units_Z   2
loop_
 _symmetry_equiv_pos_site_id
 _symmetry_equiv_pos_as_xyz
  1  'x, y, z'
loop_
 _atom_site_type_symbol
 _atom_site_label
 _atom_site_symmetry_multiplicity
 _atom_site_fract_x
 _atom_site_fract_y
 _atom_site_fract_z
 _atom_site_occupancy
  Cs  Cs0  1  0.672259  0.071935  0.311515  1
  Cs  Cs1  1  0.172259  0.428064  0.311515  1
  Cs  Cs2  1  0.826968  0.576096  0.841807  1
  Cs  Cs3  1  0.326968  0.923904  0.841807  1
  Al  Al4  1  0.967419  0.106796  0.804665  1
  Al  Al5  1  0.467419  0.393204  0.804665  1
  Mo  Mo6  1  0.521559  0.572295  0.313022  1
  Mo  Mo7  1  0.021559  0.927705  0.313022  1
  H  H8  1  0.326129  0.325134  0.806797  1
  H  H9  1  0.826129  0.174866  0.806797  1
  H  H10  1  0.959656  0.713664  0.337860  1
  H  H11  1  0.459656  0.786335  0.337860  1
  H  H12  1  0.590437  0.433463  0.062723  1
  H  H13  1  0.090436  0.066537  0.062723  1
  H  H14  1  0.407707  0.560879  0.060098  1
  H  H15  1  0.907707  0.939122  0.060098  1
  H  H16  1  0.956506  0.140414  0.342856  1
  H  H17  1  0.456506  0.359587  0.342856  1
  H  H18  1  0.169132  0.859861  0.339455  1
  H  H19  1  0.669132  0.640138  0.339455  1
  H  H20  1  0.524824  0.186273  0.806568  1
  H  H21  1  0.024824  0.313726  0.806568  1
  H  H22  1  0.914731  0.914914  0.579208  1
  H  H23  1  0.414731  0.585086  0.579208  1
  H  H24  1  0.097641  0.042754  0.579426  1
  H  H25  1  0.597641  0.457246  0.579426  1
  H  H26  1  0.565033  0.713151  0.047996  1
  H  H27  1  0.065033  0.786850  0.047996  1
