# generated using pymatgen
data_Sm2Si4Tc7W
_symmetry_space_group_name_H-M   'P 1'
_cell_length_a   7.78203461
_cell_length_b   7.06457586
_cell_length_c   4.18725100
_cell_angle_alpha   90.00000000
_cell_angle_beta   90.00000000
_cell_angle_gamma   90.07843488
_symmetry_Int_Tables_number   1
_chemical_formula_structural   Sm2Si4Tc7W
_chemical_formula_sum   'Sm2 Si4 Tc7 W1'
_cell_volume   230.20133559
_cell_formula_units_Z   1
loop_
 _symmetry_equiv_pos_site_id
 _symmetry_equiv_pos_as_xyz
  1  'x, y, z'
loop_
 _atom_site_type_symbol
 _atom_site_label
 _atom_site_symmetry_multiplicity
 _atom_site_fract_x
 _atom_site_fract_y
 _atom_site_fract_z
 _atom_site_occupancy
  Sm  Sm0  1  0.500668  0.499369  0.000000  1
  Sm  Sm1  1  0.002920  0.000166  0.500000  1
  Si  Si2  1  0.692874  0.730050  0.500000  1
  Si  Si3  1  0.305562  0.273669  0.500000  1
  Si  Si4  1  0.192285  0.769121  0.000000  1
  Si  Si5  1  0.811510  0.231450  0.000000  1
  Tc  Tc6  1  0.390136  0.844225  0.500000  1
  Tc  Tc7  1  0.109073  0.347786  0.000000  1
  Tc  Tc8  1  0.892332  0.654500  0.000000  1
  Tc  Tc9  1  0.157180  0.578259  0.500000  1
  Tc  Tc10  1  0.841278  0.422095  0.500000  1
  Tc  Tc11  1  0.336441  0.077761  0.000000  1
  Tc  Tc12  1  0.659148  0.924395  0.000000  1
  W  W13  1  0.608594  0.147153  0.500000  1
