# generated using pymatgen
data_Zr5Si2GeN
_symmetry_space_group_name_H-M   'P 1'
_cell_length_a   7.98148800
_cell_length_b   7.97101317
_cell_length_c   5.64892700
_cell_angle_alpha   90.00000000
_cell_angle_beta   90.00000000
_cell_angle_gamma   120.04347182
_symmetry_Int_Tables_number   1
_chemical_formula_structural   Zr5Si2GeN
_chemical_formula_sum   'Zr10 Si4 Ge2 N2'
_cell_volume   311.10255356
_cell_formula_units_Z   2
loop_
 _symmetry_equiv_pos_site_id
 _symmetry_equiv_pos_as_xyz
  1  'x, y, z'
loop_
 _atom_site_type_symbol
 _atom_site_label
 _atom_site_symmetry_multiplicity
 _atom_site_fract_x
 _atom_site_fract_y
 _atom_site_fract_z
 _atom_site_occupancy
  Zr  Zr0  1  0.230472  0.000000  0.750000  1
  Zr  Zr1  1  0.769528  0.000000  0.250000  1
  Zr  Zr2  1  0.002074  0.235719  0.750000  1
  Zr  Zr3  1  0.997926  0.764281  0.250000  1
  Zr  Zr4  1  0.766355  0.764281  0.750000  1
  Zr  Zr5  1  0.233645  0.235719  0.250000  1
  Zr  Zr6  1  0.331235  0.662470  0.500000  1
  Zr  Zr7  1  0.668765  0.337530  0.500000  1
  Zr  Zr8  1  0.668765  0.337530  0.000000  1
  Zr  Zr9  1  0.331235  0.662470  0.000000  1
  Si  Si10  1  0.000865  0.595261  0.750000  1
  Si  Si11  1  0.999135  0.404739  0.250000  1
  Si  Si12  1  0.405604  0.404739  0.750000  1
  Si  Si13  1  0.594396  0.595261  0.250000  1
  Ge  Ge14  1  0.595728  0.000000  0.750000  1
  Ge  Ge15  1  0.404272  0.000000  0.250000  1
  N  N16  1  0.000000  0.000000  0.500000  1
  N  N17  1  0.000000  0.000000  0.000000  1
