# generated using pymatgen
data_MnCr2Mo2(PO4)6
_symmetry_space_group_name_H-M   'P 1'
_cell_length_a   8.70239600
_cell_length_b   8.76487642
_cell_length_c   12.27997509
_cell_angle_alpha   89.88144833
_cell_angle_beta   90.00000000
_cell_angle_gamma   90.00000000
_symmetry_Int_Tables_number   1
_chemical_formula_structural   MnCr2Mo2(PO4)6
_chemical_formula_sum   'Mn2 Cr4 Mo4 P12 O48'
_cell_volume   936.65832004
_cell_formula_units_Z   2
loop_
 _symmetry_equiv_pos_site_id
 _symmetry_equiv_pos_as_xyz
  1  'x, y, z'
loop_
 _atom_site_type_symbol
 _atom_site_label
 _atom_site_symmetry_multiplicity
 _atom_site_fract_x
 _atom_site_fract_y
 _atom_site_fract_z
 _atom_site_occupancy
  Mn  Mn0  1  0.500000  0.500000  0.000000  1
  Mn  Mn1  1  0.000000  0.000000  0.000000  1
  Cr  Cr2  1  0.500651  0.213150  0.860553  1
  Cr  Cr3  1  0.000651  0.286850  0.139447  1
  Cr  Cr4  1  0.499349  0.786850  0.139447  1
  Cr  Cr5  1  0.999349  0.713150  0.860553  1
  Mo  Mo6  1  0.497933  0.776367  0.643575  1
  Mo  Mo7  1  0.997933  0.723633  0.356425  1
  Mo  Mo8  1  0.002067  0.276367  0.643575  1
  Mo  Mo9  1  0.502067  0.223633  0.356425  1
  P  P10  1  0.356993  0.858369  0.391594  1
  P  P11  1  0.288620  0.501698  0.762061  1
  P  P12  1  0.143007  0.358369  0.391594  1
  P  P13  1  0.853068  0.356659  0.898082  1
  P  P14  1  0.353068  0.143341  0.101918  1
  P  P15  1  0.788620  0.998302  0.237939  1
  P  P16  1  0.211380  0.001698  0.762061  1
  P  P17  1  0.646932  0.856659  0.898082  1
  P  P18  1  0.146932  0.643341  0.101918  1
  P  P19  1  0.856993  0.641631  0.608406  1
  P  P20  1  0.711380  0.498302  0.237939  1
  P  P21  1  0.643007  0.141631  0.608406  1
  O  O22  1  0.309861  0.884770  0.698125  1
  O  O23  1  0.179628  0.847054  0.400329  1
  O  O24  1  0.419092  0.773933  0.495526  1
  O  O25  1  0.423056  0.782608  0.291778  1
  O  O26  1  0.392496  0.580693  0.674868  1
  O  O27  1  0.103959  0.529238  0.401741  1
  O  O28  1  0.397667  0.421827  0.844393  1
  O  O29  1  0.101692  0.477047  0.095125  1
  O  O30  1  0.190139  0.384770  0.698125  1
  O  O31  1  0.805971  0.384413  0.174075  1
  O  O32  1  0.320372  0.347054  0.400329  1
  O  O33  1  0.676048  0.349416  0.910280  1
  O  O34  1  0.080908  0.273933  0.495526  1
  O  O35  1  0.076944  0.282608  0.291778  1
  O  O36  1  0.933479  0.250540  0.981854  1
  O  O37  1  0.903369  0.285343  0.785724  1
  O  O38  1  0.403369  0.214657  0.214276  1
  O  O39  1  0.433479  0.249460  0.018146  1
  O  O40  1  0.176048  0.150584  0.089720  1
  O  O41  1  0.897667  0.078173  0.155607  1
  O  O42  1  0.305971  0.115587  0.825925  1
  O  O43  1  0.396041  0.029238  0.401741  1
  O  O44  1  0.107504  0.080693  0.674868  1
  O  O45  1  0.601692  0.022953  0.904875  1
  O  O46  1  0.398308  0.977047  0.095125  1
  O  O47  1  0.892496  0.919307  0.325132  1
  O  O48  1  0.603959  0.970762  0.598259  1
  O  O49  1  0.694029  0.884413  0.174075  1
  O  O50  1  0.102333  0.921827  0.844393  1
  O  O51  1  0.823952  0.849416  0.910280  1
  O  O52  1  0.566521  0.750540  0.981854  1
  O  O53  1  0.596631  0.785343  0.785724  1
  O  O54  1  0.096631  0.714657  0.214276  1
  O  O55  1  0.066521  0.749460  0.018146  1
  O  O56  1  0.923056  0.717392  0.708222  1
  O  O57  1  0.919092  0.726067  0.504474  1
  O  O58  1  0.323952  0.650584  0.089720  1
  O  O59  1  0.679628  0.652946  0.599671  1
  O  O60  1  0.194029  0.615587  0.825925  1
  O  O61  1  0.809861  0.615230  0.301875  1
  O  O62  1  0.898308  0.522953  0.904875  1
  O  O63  1  0.602333  0.578173  0.155607  1
  O  O64  1  0.896041  0.470762  0.598259  1
  O  O65  1  0.607504  0.419307  0.325132  1
  O  O66  1  0.576944  0.217392  0.708222  1
  O  O67  1  0.580908  0.226067  0.504474  1
  O  O68  1  0.820372  0.152946  0.599671  1
  O  O69  1  0.690139  0.115230  0.301875  1
