# generated using pymatgen
data_MnTc2NiSn8
_symmetry_space_group_name_H-M   'P 1'
_cell_length_a   5.53232900
_cell_length_b   5.39749264
_cell_length_c   9.43233900
_cell_angle_alpha   90.00000000
_cell_angle_beta   90.00000000
_cell_angle_gamma   120.82985486
_symmetry_Int_Tables_number   1
_chemical_formula_structural   MnTc2NiSn8
_chemical_formula_sum   'Mn1 Tc2 Ni1 Sn8'
_cell_volume   241.85627942
_cell_formula_units_Z   1
loop_
 _symmetry_equiv_pos_site_id
 _symmetry_equiv_pos_as_xyz
  1  'x, y, z'
loop_
 _atom_site_type_symbol
 _atom_site_label
 _atom_site_symmetry_multiplicity
 _atom_site_fract_x
 _atom_site_fract_y
 _atom_site_fract_z
 _atom_site_occupancy
  Mn  Mn0  1  0.750000  0.000000  0.500000  1
  Tc  Tc1  1  0.250000  0.000000  0.500000  1
  Tc  Tc2  1  0.250000  0.000000  0.000000  1
  Ni  Ni3  1  0.750000  0.000000  0.000000  1
  Sn  Sn4  1  0.250000  0.500000  0.408173  1
  Sn  Sn5  1  0.750000  0.500000  0.912137  1
  Sn  Sn6  1  0.250000  0.500000  0.087863  1
  Sn  Sn7  1  0.750000  0.500000  0.591827  1
  Sn  Sn8  1  0.917780  0.824769  0.246861  1
  Sn  Sn9  1  0.406989  0.824769  0.753139  1
  Sn  Sn10  1  0.582220  0.175231  0.246861  1
  Sn  Sn11  1  0.093011  0.175231  0.753139  1
