# generated using pymatgen
data_Y(SnRh2)2
_symmetry_space_group_name_H-M   'P 1'
_cell_length_a   4.40205200
_cell_length_b   9.72181100
_cell_length_c   11.86171500
_cell_angle_alpha   90.00000000
_cell_angle_beta   90.00000000
_cell_angle_gamma   90.00000000
_symmetry_Int_Tables_number   1
_chemical_formula_structural   Y(SnRh2)2
_chemical_formula_sum   'Y4 Sn8 Rh16'
_cell_volume   507.63297721
_cell_formula_units_Z   4
loop_
 _symmetry_equiv_pos_site_id
 _symmetry_equiv_pos_as_xyz
  1  'x, y, z'
loop_
 _atom_site_type_symbol
 _atom_site_label
 _atom_site_symmetry_multiplicity
 _atom_site_fract_x
 _atom_site_fract_y
 _atom_site_fract_z
 _atom_site_occupancy
  Y  Y0  1  0.250000  0.151783  0.826970  1
  Y  Y1  1  0.250000  0.348217  0.326970  1
  Y  Y2  1  0.750000  0.848217  0.173030  1
  Y  Y3  1  0.750000  0.651783  0.673030  1
  Sn  Sn4  1  0.250000  0.414872  0.637972  1
  Sn  Sn5  1  0.250000  0.085128  0.137972  1
  Sn  Sn6  1  0.750000  0.585128  0.362028  1
  Sn  Sn7  1  0.750000  0.914872  0.862028  1
  Sn  Sn8  1  0.250000  0.616772  0.063445  1
  Sn  Sn9  1  0.250000  0.883228  0.563445  1
  Sn  Sn10  1  0.750000  0.383228  0.936555  1
  Sn  Sn11  1  0.750000  0.116772  0.436555  1
  Rh  Rh12  1  0.250000  0.618782  0.496349  1
  Rh  Rh13  1  0.250000  0.881218  0.996349  1
  Rh  Rh14  1  0.750000  0.381218  0.503651  1
  Rh  Rh15  1  0.750000  0.118782  0.003651  1
  Rh  Rh16  1  0.250000  0.709224  0.274265  1
  Rh  Rh17  1  0.250000  0.790776  0.774265  1
  Rh  Rh18  1  0.750000  0.290776  0.725735  1
  Rh  Rh19  1  0.750000  0.209224  0.225735  1
  Rh  Rh20  1  0.250000  0.167314  0.564490  1
  Rh  Rh21  1  0.250000  0.332686  0.064490  1
  Rh  Rh22  1  0.750000  0.832686  0.435510  1
  Rh  Rh23  1  0.750000  0.667314  0.935510  1
  Rh  Rh24  1  0.250000  0.994592  0.344551  1
  Rh  Rh25  1  0.250000  0.505408  0.844551  1
  Rh  Rh26  1  0.750000  0.005408  0.655449  1
  Rh  Rh27  1  0.750000  0.494592  0.155449  1
