# generated using pymatgen
data_YPt4Au
_symmetry_space_group_name_H-M   'P 1'
_cell_length_a   5.36322690
_cell_length_b   5.36322707
_cell_length_c   5.36322800
_cell_angle_alpha   60.00000661
_cell_angle_beta   60.00000554
_cell_angle_gamma   60.00000832
_symmetry_Int_Tables_number   1
_chemical_formula_structural   YPt4Au
_chemical_formula_sum   'Y1 Pt4 Au1'
_cell_volume   109.08466065
_cell_formula_units_Z   1
loop_
 _symmetry_equiv_pos_site_id
 _symmetry_equiv_pos_as_xyz
  1  'x, y, z'
loop_
 _atom_site_type_symbol
 _atom_site_label
 _atom_site_symmetry_multiplicity
 _atom_site_fract_x
 _atom_site_fract_y
 _atom_site_fract_z
 _atom_site_occupancy
  Y  Y0  1  0.000000  0.000000  0.000000  1
  Pt  Pt1  1  0.624544  0.624544  0.126366  1
  Pt  Pt2  1  0.624544  0.126366  0.624544  1
  Pt  Pt3  1  0.126366  0.624544  0.624544  1
  Pt  Pt4  1  0.624544  0.624544  0.624544  1
  Au  Au5  1  0.250000  0.250000  0.250000  1
