# generated using pymatgen
data_Eu2SnGeAu2
_symmetry_space_group_name_H-M   'P 1'
_cell_length_a   5.99063740
_cell_length_b   6.07023112
_cell_length_c   6.07023053
_cell_angle_alpha   133.96594216
_cell_angle_beta   103.13422414
_cell_angle_gamma   94.73795496
_symmetry_Int_Tables_number   1
_chemical_formula_structural   Eu2SnGeAu2
_chemical_formula_sum   'Eu2 Sn1 Ge1 Au2'
_cell_volume   145.34198698
_cell_formula_units_Z   1
loop_
 _symmetry_equiv_pos_site_id
 _symmetry_equiv_pos_as_xyz
  1  'x, y, z'
loop_
 _atom_site_type_symbol
 _atom_site_label
 _atom_site_symmetry_multiplicity
 _atom_site_fract_x
 _atom_site_fract_y
 _atom_site_fract_z
 _atom_site_occupancy
  Eu  Eu0  1  0.203309  0.703671  0.499638  1
  Eu  Eu1  1  0.633238  0.630972  0.002266  1
  Sn  Sn2  1  0.637946  0.331610  0.306336  1
  Ge  Ge3  1  0.031017  0.333691  0.697326  1
  Au  Au4  1  0.792031  0.013644  0.778388  1
  Au  Au5  1  0.208128  0.992082  0.216046  1
