# generated using pymatgen
data_HoTm3(ZnPd)4
_symmetry_space_group_name_H-M   'P 1'
_cell_length_a   3.96478800
_cell_length_b   7.11814001
_cell_length_c   8.26696666
_cell_angle_alpha   90.18317451
_cell_angle_beta   90.00000000
_cell_angle_gamma   90.00000000
_symmetry_Int_Tables_number   1
_chemical_formula_structural   HoTm3(ZnPd)4
_chemical_formula_sum   'Ho1 Tm3 Zn4 Pd4'
_cell_volume   233.30844713
_cell_formula_units_Z   1
loop_
 _symmetry_equiv_pos_site_id
 _symmetry_equiv_pos_as_xyz
  1  'x, y, z'
loop_
 _atom_site_type_symbol
 _atom_site_label
 _atom_site_symmetry_multiplicity
 _atom_site_fract_x
 _atom_site_fract_y
 _atom_site_fract_z
 _atom_site_occupancy
  Ho  Ho0  1  0.750000  0.446552  0.188201  1
  Tm  Tm1  1  0.750000  0.946650  0.311862  1
  Tm  Tm2  1  0.250000  0.553748  0.810324  1
  Tm  Tm3  1  0.250000  0.053475  0.689147  1
  Zn  Zn4  1  0.750000  0.869816  0.935099  1
  Zn  Zn5  1  0.750000  0.369520  0.565533  1
  Zn  Zn6  1  0.250000  0.129509  0.064795  1
  Zn  Zn7  1  0.250000  0.630822  0.435027  1
  Pd  Pd8  1  0.750000  0.257499  0.875129  1
  Pd  Pd9  1  0.750000  0.758197  0.623382  1
  Pd  Pd10  1  0.250000  0.743642  0.123597  1
  Pd  Pd11  1  0.250000  0.240571  0.377906  1
