# generated using pymatgen
data_TbEr3(B6Os)2
_symmetry_space_group_name_H-M   'P 1'
_cell_length_a   3.63987400
_cell_length_b   9.11911901
_cell_length_c   11.50148601
_cell_angle_alpha   90.00506900
_cell_angle_beta   90.00000000
_cell_angle_gamma   90.00000000
_symmetry_Int_Tables_number   1
_chemical_formula_structural   TbEr3(B6Os)2
_chemical_formula_sum   'Tb2 Er6 B24 Os4'
_cell_volume   381.76243096
_cell_formula_units_Z   2
loop_
 _symmetry_equiv_pos_site_id
 _symmetry_equiv_pos_as_xyz
  1  'x, y, z'
loop_
 _atom_site_type_symbol
 _atom_site_label
 _atom_site_symmetry_multiplicity
 _atom_site_fract_x
 _atom_site_fract_y
 _atom_site_fract_z
 _atom_site_occupancy
  Tb  Tb0  1  0.000000  0.321969  0.413846  1
  Tb  Tb1  1  0.000000  0.678031  0.586154  1
  Er  Er2  1  0.000000  0.821850  0.085647  1
  Er  Er3  1  0.000000  0.178150  0.914353  1
  Er  Er4  1  0.000000  0.943901  0.372455  1
  Er  Er5  1  0.000000  0.056099  0.627545  1
  Er  Er6  1  0.000000  0.443681  0.126638  1
  Er  Er7  1  0.000000  0.556319  0.873362  1
  B  B8  1  0.500000  0.554266  0.432497  1
  B  B9  1  0.500000  0.445734  0.567503  1
  B  B10  1  0.500000  0.053646  0.066438  1
  B  B11  1  0.500000  0.946354  0.933562  1
  B  B12  1  0.500000  0.748761  0.419076  1
  B  B13  1  0.500000  0.251239  0.580924  1
  B  B14  1  0.500000  0.248062  0.079645  1
  B  B15  1  0.500000  0.751938  0.920355  1
  B  B16  1  0.500000  0.791426  0.265499  1
  B  B17  1  0.500000  0.208574  0.734501  1
  B  B18  1  0.500000  0.290768  0.233011  1
  B  B19  1  0.500000  0.709232  0.766989  1
  B  B20  1  0.500000  0.631604  0.184428  1
  B  B21  1  0.500000  0.368396  0.815572  1
  B  B22  1  0.500000  0.130748  0.314454  1
  B  B23  1  0.500000  0.869252  0.685546  1
  B  B24  1  0.500000  0.982367  0.212521  1
  B  B25  1  0.500000  0.017633  0.787479  1
  B  B26  1  0.500000  0.483170  0.286174  1
  B  B27  1  0.500000  0.516830  0.713826  1
  B  B28  1  0.500000  0.607451  0.029652  1
  B  B29  1  0.500000  0.392549  0.970348  1
  B  B30  1  0.500000  0.105290  0.470833  1
  B  B31  1  0.500000  0.894710  0.529167  1
  Os  Os32  1  0.000000  0.638086  0.320419  1
  Os  Os33  1  0.000000  0.361914  0.679581  1
  Os  Os34  1  0.000000  0.136804  0.178129  1
  Os  Os35  1  0.000000  0.863196  0.821871  1
