# generated using pymatgen
data_EuAs2RuRh
_symmetry_space_group_name_H-M   'P 1'
_cell_length_a   6.40389698
_cell_length_b   6.40389707
_cell_length_c   6.40389684
_cell_angle_alpha   142.41107311
_cell_angle_beta   142.41107067
_cell_angle_gamma   54.21007077
_symmetry_Int_Tables_number   1
_chemical_formula_structural   EuAs2RuRh
_chemical_formula_sum   'Eu1 As2 Ru1 Rh1'
_cell_volume   97.06192364
_cell_formula_units_Z   1
loop_
 _symmetry_equiv_pos_site_id
 _symmetry_equiv_pos_as_xyz
  1  'x, y, z'
loop_
 _atom_site_type_symbol
 _atom_site_label
 _atom_site_symmetry_multiplicity
 _atom_site_fract_x
 _atom_site_fract_y
 _atom_site_fract_z
 _atom_site_occupancy
  Eu  Eu0  1  0.000000  0.000000  0.000000  1
  As  As1  1  0.633125  0.633125  0.000000  1
  As  As2  1  0.366875  0.366875  0.000000  1
  Ru  Ru3  1  0.250000  0.750000  0.500000  1
  Rh  Rh4  1  0.750000  0.250000  0.500000  1
