# generated using pymatgen
data_TmGePRu2
_symmetry_space_group_name_H-M   'P 1'
_cell_length_a   5.65035725
_cell_length_b   5.65035763
_cell_length_c   5.65035748
_cell_angle_alpha   136.90427304
_cell_angle_beta   136.90427395
_cell_angle_gamma   62.58536585
_symmetry_Int_Tables_number   1
_chemical_formula_structural   TmGePRu2
_chemical_formula_sum   'Tm1 Ge1 P1 Ru2'
_cell_volume   83.17700152
_cell_formula_units_Z   1
loop_
 _symmetry_equiv_pos_site_id
 _symmetry_equiv_pos_as_xyz
  1  'x, y, z'
loop_
 _atom_site_type_symbol
 _atom_site_label
 _atom_site_symmetry_multiplicity
 _atom_site_fract_x
 _atom_site_fract_y
 _atom_site_fract_z
 _atom_site_occupancy
  Tm  Tm0  1  0.998559  0.998559  0.000000  1
  Ge  Ge1  1  0.620110  0.620110  0.000000  1
  P  P2  1  0.365976  0.365976  0.000000  1
  Ru  Ru3  1  0.257677  0.757677  0.500000  1
  Ru  Ru4  1  0.757677  0.257677  0.500000  1
