# generated using pymatgen
data_Ba7SrSb4H2O
_symmetry_space_group_name_H-M   'P 1'
_cell_length_a   5.15558093
_cell_length_b   5.25014818
_cell_length_c   19.36381267
_cell_angle_alpha   97.79134353
_cell_angle_beta   97.65015526
_cell_angle_gamma   89.99999917
_symmetry_Int_Tables_number   1
_chemical_formula_structural   Ba7SrSb4H2O
_chemical_formula_sum   'Ba7 Sr1 Sb4 H2 O1'
_cell_volume   514.58367749
_cell_formula_units_Z   1
loop_
 _symmetry_equiv_pos_site_id
 _symmetry_equiv_pos_as_xyz
  1  'x, y, z'
loop_
 _atom_site_type_symbol
 _atom_site_label
 _atom_site_symmetry_multiplicity
 _atom_site_fract_x
 _atom_site_fract_y
 _atom_site_fract_z
 _atom_site_occupancy
  Ba  Ba0  1  0.000000  0.499999  0.000000  1
  Ba  Ba1  1  0.083471  0.083471  0.166941  1
  Ba  Ba2  1  0.659146  0.659146  0.318294  1
  Ba  Ba3  1  0.749782  0.249783  0.499567  1
  Ba  Ba4  1  0.250217  0.750216  0.500433  1
  Ba  Ba5  1  0.340854  0.340854  0.681706  1
  Ba  Ba6  1  0.916529  0.916529  0.833059  1
  Sr  Sr7  1  0.499999  0.000000  0.000000  1
  Sb  Sb8  1  0.565445  0.565445  0.130892  1
  Sb  Sb9  1  0.179789  0.179789  0.359576  1
  Sb  Sb10  1  0.820210  0.820210  0.640424  1
  Sb  Sb11  1  0.434554  0.434554  0.869108  1
  H  H12  1  0.728890  0.728890  0.457784  1
  H  H13  1  0.271109  0.271109  0.542216  1
  O  O14  1  0.000000  0.000000  0.000000  1
