# generated using pymatgen
data_NdLu(FeB)8
_symmetry_space_group_name_H-M   'P 1'
_cell_length_a   6.97233000
_cell_length_b   6.97233000
_cell_length_c   3.81222900
_cell_angle_alpha   90.00000000
_cell_angle_beta   90.00000000
_cell_angle_gamma   90.00000000
_symmetry_Int_Tables_number   1
_chemical_formula_structural   NdLu(FeB)8
_chemical_formula_sum   'Nd1 Lu1 Fe8 B8'
_cell_volume   185.32535848
_cell_formula_units_Z   1
loop_
 _symmetry_equiv_pos_site_id
 _symmetry_equiv_pos_as_xyz
  1  'x, y, z'
loop_
 _atom_site_type_symbol
 _atom_site_label
 _atom_site_symmetry_multiplicity
 _atom_site_fract_x
 _atom_site_fract_y
 _atom_site_fract_z
 _atom_site_occupancy
  Nd  Nd0  1  0.500000  0.500000  0.500000  1
  Lu  Lu1  1  0.000000  0.000000  0.000000  1
  Fe  Fe2  1  0.129805  0.384043  0.891003  1
  Fe  Fe3  1  0.870195  0.615957  0.891003  1
  Fe  Fe4  1  0.887405  0.365543  0.391347  1
  Fe  Fe5  1  0.112595  0.634457  0.391347  1
  Fe  Fe6  1  0.365543  0.112595  0.608653  1
  Fe  Fe7  1  0.634457  0.887405  0.608653  1
  Fe  Fe8  1  0.615957  0.129805  0.108997  1
  Fe  Fe9  1  0.384043  0.870195  0.108997  1
  B  B10  1  0.669244  0.805851  0.105365  1
  B  B11  1  0.330756  0.194149  0.105365  1
  B  B12  1  0.294155  0.836545  0.608406  1
  B  B13  1  0.705845  0.163455  0.608406  1
  B  B14  1  0.836545  0.705845  0.391594  1
  B  B15  1  0.163455  0.294155  0.391594  1
  B  B16  1  0.194149  0.669244  0.894635  1
  B  B17  1  0.805851  0.330756  0.894635  1
