# generated using pymatgen
data_YbY2S3
_symmetry_space_group_name_H-M   'P 1'
_cell_length_a   3.93232100
_cell_length_b   3.93232049
_cell_length_c   9.66636900
_cell_angle_alpha   90.00000000
_cell_angle_beta   90.00000000
_cell_angle_gamma   120.00001273
_symmetry_Int_Tables_number   1
_chemical_formula_structural   YbY2S3
_chemical_formula_sum   'Yb1 Y2 S3'
_cell_volume   129.44694760
_cell_formula_units_Z   1
loop_
 _symmetry_equiv_pos_site_id
 _symmetry_equiv_pos_as_xyz
  1  'x, y, z'
loop_
 _atom_site_type_symbol
 _atom_site_label
 _atom_site_symmetry_multiplicity
 _atom_site_fract_x
 _atom_site_fract_y
 _atom_site_fract_z
 _atom_site_occupancy
  Yb  Yb0  1  0.000000  0.000000  0.000000  1
  Y  Y1  1  0.333333  0.666667  0.658161  1
  Y  Y2  1  0.666667  0.333333  0.341839  1
  S  S3  1  0.333333  0.666667  0.168975  1
  S  S4  1  0.666667  0.333333  0.831025  1
  S  S5  1  0.000000  0.000000  0.500000  1
