# generated using pymatgen
data_Dy2HoEr3(RuI3)2
_symmetry_space_group_name_H-M   'P 1'
_cell_length_a   4.19927100
_cell_length_b   8.86341705
_cell_length_c   12.30556099
_cell_angle_alpha   94.16549262
_cell_angle_beta   90.00000000
_cell_angle_gamma   90.00000000
_symmetry_Int_Tables_number   1
_chemical_formula_structural   Dy2HoEr3(RuI3)2
_chemical_formula_sum   'Dy2 Ho1 Er3 Ru2 I6'
_cell_volume   456.80174772
_cell_formula_units_Z   1
loop_
 _symmetry_equiv_pos_site_id
 _symmetry_equiv_pos_as_xyz
  1  'x, y, z'
loop_
 _atom_site_type_symbol
 _atom_site_label
 _atom_site_symmetry_multiplicity
 _atom_site_fract_x
 _atom_site_fract_y
 _atom_site_fract_z
 _atom_site_occupancy
  Dy  Dy0  1  0.750000  0.263181  0.602940  1
  Dy  Dy1  1  0.250000  0.736558  0.396581  1
  Ho  Ho2  1  0.750000  0.871538  0.626221  1
  Er  Er3  1  0.250000  0.127402  0.373948  1
  Er  Er4  1  0.750000  0.897216  0.186975  1
  Er  Er5  1  0.250000  0.103305  0.813227  1
  Ru  Ru6  1  0.750000  0.944522  0.407477  1
  Ru  Ru7  1  0.250000  0.056001  0.592282  1
  I  I8  1  0.750000  0.423227  0.365947  1
  I  I9  1  0.250000  0.575928  0.633595  1
  I  I10  1  0.750000  0.863909  0.891103  1
  I  I11  1  0.250000  0.136844  0.109656  1
  I  I12  1  0.750000  0.355789  0.865294  1
  I  I13  1  0.250000  0.644581  0.134754  1
