# generated using pymatgen
data_TaTi4Mn6Si6W
_symmetry_space_group_name_H-M   'P 1'
_cell_length_a   7.25380481
_cell_length_b   7.24960423
_cell_length_c   7.25380304
_cell_angle_alpha   126.12454814
_cell_angle_beta   127.28090014
_cell_angle_gamma   78.75310028
_symmetry_Int_Tables_number   1
_chemical_formula_structural   TaTi4Mn6Si6W
_chemical_formula_sum   'Ta1 Ti4 Mn6 Si6 W1'
_cell_volume   237.23913726
_cell_formula_units_Z   1
loop_
 _symmetry_equiv_pos_site_id
 _symmetry_equiv_pos_as_xyz
  1  'x, y, z'
loop_
 _atom_site_type_symbol
 _atom_site_label
 _atom_site_symmetry_multiplicity
 _atom_site_fract_x
 _atom_site_fract_y
 _atom_site_fract_z
 _atom_site_occupancy
  Ta  Ta0  1  0.249734  0.899595  0.149860  1
  Ti  Ti1  1  0.549387  0.096559  0.047172  1
  Ti  Ti2  1  0.448973  0.488206  0.539232  1
  Ti  Ti3  1  0.951354  0.497675  0.046322  1
  Ti  Ti4  1  0.050045  0.088468  0.538423  1
  Mn  Mn5  1  0.130855  0.752465  0.628817  1
  Mn  Mn6  1  0.873700  0.497894  0.625974  1
  Mn  Mn7  1  0.623649  0.752465  0.121610  1
  Mn  Mn8  1  0.371920  0.497894  0.124195  1
  Mn  Mn9  1  0.504803  0.244010  0.748656  1
  Mn  Mn10  1  0.995354  0.244010  0.239207  1
  Si  Si11  1  0.335812  0.827710  0.501573  1
  Si  Si12  1  0.673162  0.165772  0.500754  1
  Si  Si13  1  0.826137  0.827710  0.991898  1
  Si  Si14  1  0.165019  0.165772  0.992611  1
  Si  Si15  1  0.750814  0.502881  0.252068  1
  Si  Si16  1  0.249130  0.492835  0.743705  1
  W  W17  1  0.750154  0.900075  0.649922  1
