# generated using pymatgen
data_Ce2Er4CoI10
_symmetry_space_group_name_H-M   'P 1'
_cell_length_a   7.74642063
_cell_length_b   9.75135477
_cell_length_c   9.76092400
_cell_angle_alpha   106.85145511
_cell_angle_beta   96.11140195
_cell_angle_gamma   105.19025058
_symmetry_Int_Tables_number   1
_chemical_formula_structural   Ce2Er4CoI10
_chemical_formula_sum   'Ce2 Er4 Co1 I10'
_cell_volume   667.59099562
_cell_formula_units_Z   1
loop_
 _symmetry_equiv_pos_site_id
 _symmetry_equiv_pos_as_xyz
  1  'x, y, z'
loop_
 _atom_site_type_symbol
 _atom_site_label
 _atom_site_symmetry_multiplicity
 _atom_site_fract_x
 _atom_site_fract_y
 _atom_site_fract_z
 _atom_site_occupancy
  Ce  Ce0  1  0.887765  0.957875  0.226562  1
  Ce  Ce1  1  0.112235  0.042125  0.773438  1
  Er  Er2  1  0.029099  0.718468  0.915395  1
  Er  Er3  1  0.970901  0.281532  0.084605  1
  Er  Er4  1  0.658187  0.877155  0.838704  1
  Er  Er5  1  0.341813  0.122845  0.161296  1
  Co  Co6  1  0.000000  0.000000  0.000000  1
  I  I7  1  0.652616  0.552641  0.731081  1
  I  I8  1  0.347384  0.447359  0.268919  1
  I  I9  1  0.732840  0.911708  0.543739  1
  I  I10  1  0.267160  0.088292  0.456261  1
  I  I11  1  0.082126  0.378693  0.824928  1
  I  I12  1  0.917874  0.621307  0.175072  1
  I  I13  1  0.446534  0.815606  0.088694  1
  I  I14  1  0.553466  0.184394  0.911306  1
  I  I15  1  0.229584  0.738039  0.660792  1
  I  I16  1  0.770416  0.261961  0.339208  1
