# generated using pymatgen
data_Hf4ZrSc3(V3Si4)4
_symmetry_space_group_name_H-M   'P 1'
_cell_length_a   6.61708100
_cell_length_b   6.61807084
_cell_length_c   12.25798111
_cell_angle_alpha   90.01869228
_cell_angle_beta   90.00552001
_cell_angle_gamma   89.94157142
_symmetry_Int_Tables_number   1
_chemical_formula_structural   Hf4ZrSc3(V3Si4)4
_chemical_formula_sum   'Hf4 Zr1 Sc3 V12 Si16'
_cell_volume   536.80500859
_cell_formula_units_Z   1
loop_
 _symmetry_equiv_pos_site_id
 _symmetry_equiv_pos_as_xyz
  1  'x, y, z'
loop_
 _atom_site_type_symbol
 _atom_site_label
 _atom_site_symmetry_multiplicity
 _atom_site_fract_x
 _atom_site_fract_y
 _atom_site_fract_z
 _atom_site_occupancy
  Hf  Hf0  1  0.837323  0.502947  0.280404  1
  Hf  Hf1  1  0.162043  0.497087  0.780015  1
  Hf  Hf2  1  0.502545  0.837713  0.719470  1
  Hf  Hf3  1  0.497006  0.162273  0.219673  1
  Zr  Zr4  1  0.002926  0.661008  0.030170  1
  Sc  Sc5  1  0.998297  0.337831  0.529576  1
  Sc  Sc6  1  0.662490  0.001437  0.970488  1
  Sc  Sc7  1  0.337899  0.998566  0.470541  1
  V  V8  1  0.331424  0.333892  0.999808  1
  V  V9  1  0.167597  0.832719  0.249837  1
  V  V10  1  0.832669  0.167528  0.749981  1
  V  V11  1  0.667321  0.667226  0.500114  1
  V  V12  1  0.004672  0.159602  0.126759  1
  V  V13  1  0.342483  0.505273  0.375471  1
  V  V14  1  0.657950  0.495081  0.875667  1
  V  V15  1  0.505287  0.342770  0.624727  1
  V  V16  1  0.494884  0.658282  0.123944  1
  V  V17  1  0.995188  0.840899  0.627729  1
  V  V18  1  0.158711  0.004392  0.872873  1
  V  V19  1  0.841029  0.994700  0.372593  1
  Si  Si20  1  0.293087  0.961533  0.063753  1
  Si  Si21  1  0.538323  0.793534  0.315451  1
  Si  Si22  1  0.461203  0.206661  0.815273  1
  Si  Si23  1  0.793624  0.538691  0.684586  1
  Si  Si24  1  0.208403  0.459775  0.185992  1
  Si  Si25  1  0.708227  0.039662  0.563836  1
  Si  Si26  1  0.958790  0.289379  0.935229  1
  Si  Si27  1  0.039660  0.707967  0.436262  1
  Si  Si28  1  0.703360  0.370853  0.070854  1
  Si  Si29  1  0.128477  0.203667  0.321040  1
  Si  Si30  1  0.870588  0.795741  0.821048  1
  Si  Si31  1  0.204238  0.128783  0.679038  1
  Si  Si32  1  0.794322  0.872904  0.179467  1
  Si  Si33  1  0.295842  0.628616  0.570707  1
  Si  Si34  1  0.373584  0.705254  0.928246  1
  Si  Si35  1  0.628528  0.295750  0.429378  1
