# generated using pymatgen
data_PrTh3(HgPd2)2
_symmetry_space_group_name_H-M   'P 1'
_cell_length_a   7.95003249
_cell_length_b   7.95003175
_cell_length_c   3.83067400
_cell_angle_alpha   90.00000000
_cell_angle_beta   90.00000000
_cell_angle_gamma   88.84507544
_symmetry_Int_Tables_number   1
_chemical_formula_structural   PrTh3(HgPd2)2
_chemical_formula_sum   'Pr1 Th3 Hg2 Pd4'
_cell_volume   242.06094498
_cell_formula_units_Z   1
loop_
 _symmetry_equiv_pos_site_id
 _symmetry_equiv_pos_as_xyz
  1  'x, y, z'
loop_
 _atom_site_type_symbol
 _atom_site_label
 _atom_site_symmetry_multiplicity
 _atom_site_fract_x
 _atom_site_fract_y
 _atom_site_fract_z
 _atom_site_occupancy
  Pr  Pr0  1  0.676668  0.176668  0.500000  1
  Th  Th1  1  0.325288  0.825288  0.500000  1
  Th  Th2  1  0.824143  0.675288  0.500000  1
  Th  Th3  1  0.175288  0.324143  0.500000  1
  Hg  Hg4  1  0.996675  0.999998  0.000000  1
  Hg  Hg5  1  0.499998  0.496675  0.000000  1
  Pd  Pd6  1  0.366106  0.121876  0.000000  1
  Pd  Pd7  1  0.883032  0.383032  0.000000  1
  Pd  Pd8  1  0.130924  0.630924  0.000000  1
  Pd  Pd9  1  0.621876  0.866106  0.000000  1
