# generated using pymatgen
data_Ho4B8OsRu3
_symmetry_space_group_name_H-M   'P 1'
_cell_length_a   5.30797800
_cell_length_b   5.89444122
_cell_length_c   6.34377417
_cell_angle_alpha   89.75751546
_cell_angle_beta   90.00000000
_cell_angle_gamma   90.00000000
_symmetry_Int_Tables_number   1
_chemical_formula_structural   Ho4B8OsRu3
_chemical_formula_sum   'Ho4 B8 Os1 Ru3'
_cell_volume   198.47946511
_cell_formula_units_Z   1
loop_
 _symmetry_equiv_pos_site_id
 _symmetry_equiv_pos_as_xyz
  1  'x, y, z'
loop_
 _atom_site_type_symbol
 _atom_site_label
 _atom_site_symmetry_multiplicity
 _atom_site_fract_x
 _atom_site_fract_y
 _atom_site_fract_z
 _atom_site_occupancy
  Ho  Ho0  1  0.250000  0.510475  0.836165  1
  Ho  Ho1  1  0.250000  0.011306  0.664550  1
  Ho  Ho2  1  0.750000  0.489151  0.162741  1
  Ho  Ho3  1  0.750000  0.988983  0.335971  1
  B  B4  1  0.082886  0.867220  0.039450  1
  B  B5  1  0.415829  0.368407  0.462476  1
  B  B6  1  0.584522  0.131555  0.962299  1
  B  B7  1  0.916592  0.632463  0.537577  1
  B  B8  1  0.915478  0.131555  0.962299  1
  B  B9  1  0.583408  0.632463  0.537577  1
  B  B10  1  0.417114  0.867220  0.039450  1
  B  B11  1  0.084171  0.368407  0.462476  1
  Os  Os12  1  0.250000  0.680982  0.317372  1
  Ru  Ru13  1  0.250000  0.181395  0.181441  1
  Ru  Ru14  1  0.750000  0.319060  0.680519  1
  Ru  Ru15  1  0.750000  0.819357  0.817638  1
