# generated using pymatgen
data_YHo2Al7Pd2
_symmetry_space_group_name_H-M   'P 1'
_cell_length_a   9.21871266
_cell_length_b   9.21871250
_cell_length_c   9.21871258
_cell_angle_alpha   34.82122376
_cell_angle_beta   34.82122585
_cell_angle_gamma   34.82122266
_symmetry_Int_Tables_number   1
_chemical_formula_structural   YHo2Al7Pd2
_chemical_formula_sum   'Y1 Ho2 Al7 Pd2'
_cell_volume   228.01900738
_cell_formula_units_Z   1
loop_
 _symmetry_equiv_pos_site_id
 _symmetry_equiv_pos_as_xyz
  1  'x, y, z'
loop_
 _atom_site_type_symbol
 _atom_site_label
 _atom_site_symmetry_multiplicity
 _atom_site_fract_x
 _atom_site_fract_y
 _atom_site_fract_z
 _atom_site_occupancy
  Y  Y0  1  0.000000  0.000000  0.000000  1
  Ho  Ho1  1  0.856885  0.856885  0.856885  1
  Ho  Ho2  1  0.143115  0.143115  0.143115  1
  Al  Al3  1  0.417098  0.417098  0.926240  1
  Al  Al4  1  0.926240  0.417098  0.417098  1
  Al  Al5  1  0.417098  0.926240  0.417098  1
  Al  Al6  1  0.500000  0.500000  0.500000  1
  Al  Al7  1  0.582902  0.073760  0.582902  1
  Al  Al8  1  0.073760  0.582902  0.582902  1
  Al  Al9  1  0.582902  0.582902  0.073760  1
  Pd  Pd10  1  0.664729  0.664729  0.664729  1
  Pd  Pd11  1  0.335271  0.335271  0.335271  1
