# generated using pymatgen
data_Yb2DyU(B4Ru)4
_symmetry_space_group_name_H-M   'P 1'
_cell_length_a   3.55164000
_cell_length_b   5.94709609
_cell_length_c   11.49077607
_cell_angle_alpha   89.98385060
_cell_angle_beta   90.00000000
_cell_angle_gamma   90.00000000
_symmetry_Int_Tables_number   1
_chemical_formula_structural   Yb2DyU(B4Ru)4
_chemical_formula_sum   'Yb2 Dy1 U1 B16 Ru4'
_cell_volume   242.70752306
_cell_formula_units_Z   1
loop_
 _symmetry_equiv_pos_site_id
 _symmetry_equiv_pos_as_xyz
  1  'x, y, z'
loop_
 _atom_site_type_symbol
 _atom_site_label
 _atom_site_symmetry_multiplicity
 _atom_site_fract_x
 _atom_site_fract_y
 _atom_site_fract_z
 _atom_site_occupancy
  Yb  Yb0  1  0.500000  0.127807  0.353245  1
  Yb  Yb1  1  0.500000  0.871293  0.648759  1
  Dy  Dy2  1  0.500000  0.370954  0.847285  1
  U  U3  1  0.500000  0.628942  0.152587  1
  B  B4  1  0.000000  0.974472  0.191997  1
  B  B5  1  0.000000  0.024352  0.807914  1
  B  B6  1  0.000000  0.477049  0.308081  1
  B  B7  1  0.000000  0.524570  0.690874  1
  B  B8  1  0.000000  0.788065  0.313877  1
  B  B9  1  0.000000  0.211021  0.684131  1
  B  B10  1  0.000000  0.290489  0.185988  1
  B  B11  1  0.000000  0.714146  0.813051  1
  B  B12  1  0.000000  0.862898  0.469046  1
  B  B13  1  0.000000  0.135716  0.529826  1
  B  B14  1  0.000000  0.366514  0.031685  1
  B  B15  1  0.000000  0.635107  0.969632  1
  B  B16  1  0.000000  0.886687  0.047512  1
  B  B17  1  0.000000  0.111256  0.952687  1
  B  B18  1  0.000000  0.385856  0.453679  1
  B  B19  1  0.000000  0.612848  0.545863  1
  Ru  Ru20  1  0.500000  0.637323  0.406097  1
  Ru  Ru21  1  0.500000  0.362649  0.590828  1
  Ru  Ru22  1  0.500000  0.142027  0.094387  1
  Ru  Ru23  1  0.500000  0.857960  0.910970  1
