# generated using pymatgen
data_Gd4LuSc3Pt4
_symmetry_space_group_name_H-M   'P 1'
_cell_length_a   4.64864700
_cell_length_b   7.03550125
_cell_length_c   8.49141700
_cell_angle_alpha   90.31040280
_cell_angle_beta   90.00000000
_cell_angle_gamma   90.00000000
_symmetry_Int_Tables_number   1
_chemical_formula_structural   Gd4LuSc3Pt4
_chemical_formula_sum   'Gd4 Lu1 Sc3 Pt4'
_cell_volume   277.71248764
_cell_formula_units_Z   1
loop_
 _symmetry_equiv_pos_site_id
 _symmetry_equiv_pos_as_xyz
  1  'x, y, z'
loop_
 _atom_site_type_symbol
 _atom_site_label
 _atom_site_symmetry_multiplicity
 _atom_site_fract_x
 _atom_site_fract_y
 _atom_site_fract_z
 _atom_site_occupancy
  Gd  Gd0  1  0.250000  0.981031  0.327565  1
  Gd  Gd1  1  0.250000  0.487845  0.176519  1
  Gd  Gd2  1  0.750000  0.016991  0.677963  1
  Gd  Gd3  1  0.750000  0.518450  0.818858  1
  Lu  Lu4  1  0.750000  0.142657  0.076022  1
  Sc  Sc5  1  0.250000  0.361739  0.571103  1
  Sc  Sc6  1  0.250000  0.855838  0.925983  1
  Sc  Sc7  1  0.750000  0.640446  0.425995  1
  Pt  Pt8  1  0.250000  0.243286  0.897118  1
  Pt  Pt9  1  0.250000  0.741764  0.597978  1
  Pt  Pt10  1  0.750000  0.751090  0.096639  1
  Pt  Pt11  1  0.750000  0.258864  0.408260  1
