# generated using pymatgen
data_Tb3Y5Re(TcB8)3
_symmetry_space_group_name_H-M   'P 1'
_cell_length_a   3.69420400
_cell_length_b   9.18736922
_cell_length_c   11.57842701
_cell_angle_alpha   89.97266537
_cell_angle_beta   90.00000000
_cell_angle_gamma   90.00000000
_symmetry_Int_Tables_number   1
_chemical_formula_structural   Tb3Y5Re(TcB8)3
_chemical_formula_sum   'Tb3 Y5 Re1 Tc3 B24'
_cell_volume   392.97195467
_cell_formula_units_Z   1
loop_
 _symmetry_equiv_pos_site_id
 _symmetry_equiv_pos_as_xyz
  1  'x, y, z'
loop_
 _atom_site_type_symbol
 _atom_site_label
 _atom_site_symmetry_multiplicity
 _atom_site_fract_x
 _atom_site_fract_y
 _atom_site_fract_z
 _atom_site_occupancy
  Tb  Tb0  1  0.000000  0.823977  0.085851  1
  Tb  Tb1  1  0.000000  0.176240  0.914140  1
  Tb  Tb2  1  0.000000  0.323773  0.414038  1
  Y  Y3  1  0.000000  0.676607  0.585652  1
  Y  Y4  1  0.000000  0.442352  0.130852  1
  Y  Y5  1  0.000000  0.558163  0.870068  1
  Y  Y6  1  0.000000  0.942380  0.369191  1
  Y  Y7  1  0.000000  0.056607  0.630289  1
  Re  Re8  1  0.000000  0.361724  0.679308  1
  Tc  Tc9  1  0.000000  0.138413  0.179320  1
  Tc  Tc10  1  0.000000  0.861635  0.820692  1
  Tc  Tc11  1  0.000000  0.638441  0.320605  1
  B  B12  1  0.500000  0.053379  0.067264  1
  B  B13  1  0.500000  0.946761  0.932693  1
  B  B14  1  0.500000  0.553290  0.432684  1
  B  B15  1  0.500000  0.446863  0.567036  1
  B  B16  1  0.500000  0.248427  0.081788  1
  B  B17  1  0.500000  0.751800  0.918272  1
  B  B18  1  0.500000  0.748376  0.418263  1
  B  B19  1  0.500000  0.251273  0.581655  1
  B  B20  1  0.500000  0.291298  0.234673  1
  B  B21  1  0.500000  0.708594  0.765436  1
  B  B22  1  0.500000  0.791329  0.265283  1
  B  B23  1  0.500000  0.208314  0.734591  1
  B  B24  1  0.500000  0.130592  0.314126  1
  B  B25  1  0.500000  0.869212  0.685817  1
  B  B26  1  0.500000  0.630637  0.185802  1
  B  B27  1  0.500000  0.369582  0.814330  1
  B  B28  1  0.500000  0.482250  0.288418  1
  B  B29  1  0.500000  0.518163  0.711792  1
  B  B30  1  0.500000  0.982246  0.211596  1
  B  B31  1  0.500000  0.017683  0.788281  1
  B  B32  1  0.500000  0.100201  0.471789  1
  B  B33  1  0.500000  0.899213  0.527999  1
  B  B34  1  0.500000  0.600342  0.028365  1
  B  B35  1  0.500000  0.399866  0.972041  1
