# generated using pymatgen
data_Pr8Tl5C8
_symmetry_space_group_name_H-M   'P 1'
_cell_length_a   16.37178200
_cell_length_b   7.15450284
_cell_length_c   8.67278052
_cell_angle_alpha   72.60826338
_cell_angle_beta   90.00000000
_cell_angle_gamma   90.00000000
_symmetry_Int_Tables_number   1
_chemical_formula_structural   Pr8Tl5C8
_chemical_formula_sum   'Pr16 Tl10 C16'
_cell_volume   969.41818092
_cell_formula_units_Z   2
loop_
 _symmetry_equiv_pos_site_id
 _symmetry_equiv_pos_as_xyz
  1  'x, y, z'
loop_
 _atom_site_type_symbol
 _atom_site_label
 _atom_site_symmetry_multiplicity
 _atom_site_fract_x
 _atom_site_fract_y
 _atom_site_fract_z
 _atom_site_occupancy
  Pr  Pr0  1  0.057307  0.857321  0.172156  1
  Pr  Pr1  1  0.557307  0.642679  0.827844  1
  Pr  Pr2  1  0.942693  0.142679  0.827844  1
  Pr  Pr3  1  0.442693  0.357321  0.172156  1
  Pr  Pr4  1  0.937660  0.391307  0.191117  1
  Pr  Pr5  1  0.437660  0.108693  0.808883  1
  Pr  Pr6  1  0.062340  0.608693  0.808883  1
  Pr  Pr7  1  0.562340  0.891307  0.191117  1
  Pr  Pr8  1  0.194879  0.303555  0.138996  1
  Pr  Pr9  1  0.694879  0.196445  0.861004  1
  Pr  Pr10  1  0.805121  0.696445  0.861004  1
  Pr  Pr11  1  0.305121  0.803555  0.138996  1
  Pr  Pr12  1  0.182548  0.066559  0.775333  1
  Pr  Pr13  1  0.682548  0.433441  0.224667  1
  Pr  Pr14  1  0.817452  0.933441  0.224667  1
  Pr  Pr15  1  0.317452  0.566559  0.775333  1
  Tl  Tl16  1  0.198099  0.861347  0.460336  1
  Tl  Tl17  1  0.698099  0.638653  0.539664  1
  Tl  Tl18  1  0.801901  0.138653  0.539664  1
  Tl  Tl19  1  0.301901  0.361347  0.460336  1
  Tl  Tl20  1  0.102593  0.434919  0.468113  1
  Tl  Tl21  1  0.602593  0.065081  0.531887  1
  Tl  Tl22  1  0.897407  0.565081  0.531887  1
  Tl  Tl23  1  0.397407  0.934919  0.468113  1
  Tl  Tl24  1  0.000000  0.000000  0.500000  1
  Tl  Tl25  1  0.500000  0.500000  0.500000  1
  C  C26  1  0.040031  0.270261  0.034193  1
  C  C27  1  0.540031  0.229739  0.965807  1
  C  C28  1  0.959969  0.729739  0.965807  1
  C  C29  1  0.459969  0.770261  0.034193  1
  C  C30  1  0.159147  0.725244  0.024190  1
  C  C31  1  0.659147  0.774756  0.975810  1
  C  C32  1  0.840853  0.274756  0.975810  1
  C  C33  1  0.340853  0.225244  0.024190  1
  C  C34  1  0.088429  0.196920  0.943159  1
  C  C35  1  0.588429  0.303080  0.056841  1
  C  C36  1  0.911571  0.803080  0.056841  1
  C  C37  1  0.411571  0.696920  0.943159  1
  C  C38  1  0.289756  0.159924  0.934172  1
  C  C39  1  0.789756  0.340076  0.065828  1
  C  C40  1  0.710244  0.840076  0.065828  1
  C  C41  1  0.210244  0.659924  0.934172  1
