# generated using pymatgen
data_Sm5MnAuO12
_symmetry_space_group_name_H-M   'P 1'
_cell_length_a   7.01545557
_cell_length_b   7.01545527
_cell_length_c   7.43552484
_cell_angle_alpha   74.54937649
_cell_angle_beta   74.54937972
_cell_angle_gamma   50.62801297
_symmetry_Int_Tables_number   1
_chemical_formula_structural   Sm5MnAuO12
_chemical_formula_sum   'Sm5 Mn1 Au1 O12'
_cell_volume   270.33242600
_cell_formula_units_Z   1
loop_
 _symmetry_equiv_pos_site_id
 _symmetry_equiv_pos_as_xyz
  1  'x, y, z'
loop_
 _atom_site_type_symbol
 _atom_site_label
 _atom_site_symmetry_multiplicity
 _atom_site_fract_x
 _atom_site_fract_y
 _atom_site_fract_z
 _atom_site_occupancy
  Sm  Sm0  1  0.296066  0.307101  0.359072  1
  Sm  Sm1  1  0.692899  0.703934  0.640928  1
  Sm  Sm2  1  0.698732  0.692785  0.164577  1
  Sm  Sm3  1  0.307215  0.301268  0.835423  1
  Sm  Sm4  1  0.000013  0.999987  0.500000  1
  Mn  Mn5  1  0.246760  0.753240  0.000000  1
  Au  Au6  1  0.754850  0.245150  0.000000  1
  O  O7  1  0.094799  0.599308  0.575926  1
  O  O8  1  0.011843  0.987022  0.178089  1
  O  O9  1  0.400692  0.905201  0.424074  1
  O  O10  1  0.492343  0.507744  0.179167  1
  O  O11  1  0.103628  0.579605  0.079128  1
  O  O12  1  0.901179  0.402979  0.425307  1
  O  O13  1  0.012978  0.988157  0.821911  1
  O  O14  1  0.597021  0.098820  0.574693  1
  O  O15  1  0.492256  0.507657  0.820833  1
  O  O16  1  0.571934  0.095603  0.083279  1
  O  O17  1  0.420395  0.896372  0.920872  1
  O  O18  1  0.904397  0.428066  0.916721  1
