# generated using pymatgen
data_CoRuI18
_symmetry_space_group_name_H-M   'P 1'
_cell_length_a   9.89142649
_cell_length_b   9.89147024
_cell_length_c   9.89325773
_cell_angle_alpha   94.61119523
_cell_angle_beta   94.68134078
_cell_angle_gamma   94.67730203
_symmetry_Int_Tables_number   1
_chemical_formula_structural   CoRuI18
_chemical_formula_sum   'Co1 Ru1 I18'
_cell_volume   957.82281031
_cell_formula_units_Z   1
loop_
 _symmetry_equiv_pos_site_id
 _symmetry_equiv_pos_as_xyz
  1  'x, y, z'
loop_
 _atom_site_type_symbol
 _atom_site_label
 _atom_site_symmetry_multiplicity
 _atom_site_fract_x
 _atom_site_fract_y
 _atom_site_fract_z
 _atom_site_occupancy
  Co  Co0  1  0.000000  0.000000  0.000000  1
  Ru  Ru1  1  0.500000  0.500000  0.500000  1
  I  I2  1  0.774120  0.494344  0.525561  1
  I  I3  1  0.525336  0.773892  0.493150  1
  I  I4  1  0.494593  0.526185  0.774115  1
  I  I5  1  0.225880  0.505656  0.474439  1
  I  I6  1  0.474664  0.226108  0.506850  1
  I  I7  1  0.505407  0.473815  0.225885  1
  I  I8  1  0.888259  0.365794  0.765314  1
  I  I9  1  0.765581  0.887940  0.365426  1
  I  I10  1  0.365707  0.765586  0.887795  1
  I  I11  1  0.111741  0.634206  0.234686  1
  I  I12  1  0.234419  0.112060  0.634574  1
  I  I13  1  0.634293  0.234414  0.112205  1
  I  I14  1  0.996652  0.965638  0.735792  1
  I  I15  1  0.735704  0.997120  0.965559  1
  I  I16  1  0.965359  0.735894  0.997033  1
  I  I17  1  0.003348  0.034362  0.264208  1
  I  I18  1  0.264296  0.002880  0.034441  1
  I  I19  1  0.034641  0.264106  0.002967  1
