# generated using pymatgen
data_Y4ZrScGa10
_symmetry_space_group_name_H-M   'P 1'
_cell_length_a   6.05380500
_cell_length_b   9.47758400
_cell_length_c   11.33580200
_cell_angle_alpha   90.00000000
_cell_angle_beta   90.00000000
_cell_angle_gamma   90.00000000
_symmetry_Int_Tables_number   1
_chemical_formula_structural   Y4ZrScGa10
_chemical_formula_sum   'Y8 Zr2 Sc2 Ga20'
_cell_volume   650.39668880
_cell_formula_units_Z   2
loop_
 _symmetry_equiv_pos_site_id
 _symmetry_equiv_pos_as_xyz
  1  'x, y, z'
loop_
 _atom_site_type_symbol
 _atom_site_label
 _atom_site_symmetry_multiplicity
 _atom_site_fract_x
 _atom_site_fract_y
 _atom_site_fract_z
 _atom_site_occupancy
  Y  Y0  1  0.887629  0.511067  0.352062  1
  Y  Y1  1  0.612371  0.988933  0.852062  1
  Y  Y2  1  0.111734  0.011177  0.647781  1
  Y  Y3  1  0.388266  0.488823  0.147781  1
  Y  Y4  1  0.111734  0.488823  0.647781  1
  Y  Y5  1  0.388266  0.011177  0.147781  1
  Y  Y6  1  0.887629  0.988933  0.352062  1
  Y  Y7  1  0.612371  0.511067  0.852062  1
  Zr  Zr8  1  0.858505  0.750000  0.075079  1
  Zr  Zr9  1  0.641495  0.750000  0.575079  1
  Sc  Sc10  1  0.150394  0.250000  0.923682  1
  Sc  Sc11  1  0.349606  0.250000  0.423682  1
  Ga  Ga12  1  0.875418  0.050598  0.089079  1
  Ga  Ga13  1  0.624582  0.449402  0.589079  1
  Ga  Ga14  1  0.122607  0.553710  0.911720  1
  Ga  Ga15  1  0.377393  0.946290  0.411720  1
  Ga  Ga16  1  0.122607  0.946290  0.911720  1
  Ga  Ga17  1  0.377393  0.553710  0.411720  1
  Ga  Ga18  1  0.875418  0.449402  0.089079  1
  Ga  Ga19  1  0.624582  0.050598  0.589079  1
  Ga  Ga20  1  0.165872  0.750000  0.250803  1
  Ga  Ga21  1  0.334128  0.750000  0.750803  1
  Ga  Ga22  1  0.835820  0.250000  0.750735  1
  Ga  Ga23  1  0.664180  0.250000  0.250735  1
  Ga  Ga24  1  0.385745  0.750000  0.003219  1
  Ga  Ga25  1  0.114255  0.750000  0.503219  1
  Ga  Ga26  1  0.617576  0.250000  0.997922  1
  Ga  Ga27  1  0.882424  0.250000  0.497922  1
  Ga  Ga28  1  0.601672  0.750000  0.290848  1
  Ga  Ga29  1  0.898328  0.750000  0.790848  1
  Ga  Ga30  1  0.402176  0.250000  0.706428  1
  Ga  Ga31  1  0.097824  0.250000  0.206428  1
