# generated using pymatgen
data_Ba6Zn(PtO6)2
_symmetry_space_group_name_H-M   'P 1'
_cell_length_a   9.32398663
_cell_length_b   9.32398693
_cell_length_c   7.23407124
_cell_angle_alpha   67.29598077
_cell_angle_beta   67.29597791
_cell_angle_gamma   36.89215022
_symmetry_Int_Tables_number   1
_chemical_formula_structural   Ba6Zn(PtO6)2
_chemical_formula_sum   'Ba6 Zn1 Pt2 O12'
_cell_volume   344.87598064
_cell_formula_units_Z   1
loop_
 _symmetry_equiv_pos_site_id
 _symmetry_equiv_pos_as_xyz
  1  'x, y, z'
loop_
 _atom_site_type_symbol
 _atom_site_label
 _atom_site_symmetry_multiplicity
 _atom_site_fract_x
 _atom_site_fract_y
 _atom_site_fract_z
 _atom_site_occupancy
  Ba  Ba0  1  0.210838  0.210838  0.713491  1
  Ba  Ba1  1  0.884651  0.884651  0.709996  1
  Ba  Ba2  1  0.547408  0.547408  0.716732  1
  Ba  Ba3  1  0.789162  0.789162  0.286509  1
  Ba  Ba4  1  0.452592  0.452592  0.283268  1
  Ba  Ba5  1  0.115349  0.115349  0.290004  1
  Zn  Zn6  1  0.000000  0.000000  0.000000  1
  Pt  Pt7  1  0.668605  0.668605  0.000225  1
  Pt  Pt8  1  0.331395  0.331395  0.999775  1
  O  O9  1  0.280269  0.280269  0.311384  1
  O  O10  1  0.949735  0.949735  0.303019  1
  O  O11  1  0.615788  0.615788  0.311436  1
  O  O12  1  0.719731  0.719731  0.688616  1
  O  O13  1  0.384212  0.384212  0.688564  1
  O  O14  1  0.050265  0.050265  0.696981  1
  O  O15  1  0.000000  0.500000  0.000000  1
  O  O16  1  0.645923  0.175719  0.000009  1
  O  O17  1  0.354077  0.824281  0.999991  1
  O  O18  1  0.500000  0.000000  0.000000  1
  O  O19  1  0.175719  0.645923  0.000009  1
  O  O20  1  0.824281  0.354077  0.999991  1
