# generated using pymatgen
data_Er4Ga4IrPt3
_symmetry_space_group_name_H-M   'P 1'
_cell_length_a   4.42062800
_cell_length_b   6.80830686
_cell_length_c   7.67983962
_cell_angle_alpha   90.16204183
_cell_angle_beta   90.00000000
_cell_angle_gamma   90.00000000
_symmetry_Int_Tables_number   1
_chemical_formula_structural   Er4Ga4IrPt3
_chemical_formula_sum   'Er4 Ga4 Ir1 Pt3'
_cell_volume   231.13914671
_cell_formula_units_Z   1
loop_
 _symmetry_equiv_pos_site_id
 _symmetry_equiv_pos_as_xyz
  1  'x, y, z'
loop_
 _atom_site_type_symbol
 _atom_site_label
 _atom_site_symmetry_multiplicity
 _atom_site_fract_x
 _atom_site_fract_y
 _atom_site_fract_z
 _atom_site_occupancy
  Er  Er0  1  0.250000  0.980527  0.306543  1
  Er  Er1  1  0.250000  0.477065  0.190655  1
  Er  Er2  1  0.750000  0.019967  0.697115  1
  Er  Er3  1  0.750000  0.514618  0.806079  1
  Ga  Ga4  1  0.250000  0.330296  0.572933  1
  Ga  Ga5  1  0.250000  0.838510  0.929350  1
  Ga  Ga6  1  0.750000  0.667890  0.429463  1
  Ga  Ga7  1  0.750000  0.168996  0.069395  1
  Ir  Ir8  1  0.250000  0.229320  0.894980  1
  Pt  Pt9  1  0.250000  0.726217  0.603759  1
  Pt  Pt10  1  0.750000  0.773348  0.104070  1
  Pt  Pt11  1  0.750000  0.273246  0.395656  1
