# generated using pymatgen
data_Cs8AcLa3I20
_symmetry_space_group_name_H-M   'P 1'
_cell_length_a   9.87794345
_cell_length_b   10.37492500
_cell_length_c   15.76806713
_cell_angle_alpha   90.00000000
_cell_angle_beta   89.87814049
_cell_angle_gamma   90.00000000
_symmetry_Int_Tables_number   1
_chemical_formula_structural   Cs8AcLa3I20
_chemical_formula_sum   'Cs8 Ac1 La3 I20'
_cell_volume   1615.95394641
_cell_formula_units_Z   1
loop_
 _symmetry_equiv_pos_site_id
 _symmetry_equiv_pos_as_xyz
  1  'x, y, z'
loop_
 _atom_site_type_symbol
 _atom_site_label
 _atom_site_symmetry_multiplicity
 _atom_site_fract_x
 _atom_site_fract_y
 _atom_site_fract_z
 _atom_site_occupancy
  Cs  Cs0  1  0.943702  0.004197  0.828297  1
  Cs  Cs1  1  0.056616  0.996557  0.171717  1
  Cs  Cs2  1  0.443693  0.996864  0.673037  1
  Cs  Cs3  1  0.056616  0.503443  0.171717  1
  Cs  Cs4  1  0.555574  0.004270  0.326976  1
  Cs  Cs5  1  0.943702  0.495803  0.828297  1
  Cs  Cs6  1  0.555574  0.495730  0.326976  1
  Cs  Cs7  1  0.443693  0.503136  0.673037  1
  Ac  Ac8  1  0.929338  0.750000  0.504061  1
  La  La9  1  0.071996  0.250000  0.496246  1
  La  La10  1  0.429718  0.250000  0.996461  1
  La  La11  1  0.570483  0.750000  0.003570  1
  I  I12  1  0.122155  0.750000  0.676942  1
  I  I13  1  0.884318  0.250000  0.329120  1
  I  I14  1  0.616229  0.250000  0.828534  1
  I  I15  1  0.383610  0.750000  0.171558  1
  I  I16  1  0.838859  0.048955  0.572635  1
  I  I17  1  0.162718  0.960489  0.427004  1
  I  I18  1  0.341965  0.956681  0.929606  1
  I  I19  1  0.162718  0.539511  0.427004  1
  I  I20  1  0.658225  0.043375  0.070454  1
  I  I21  1  0.838859  0.451045  0.572635  1
  I  I22  1  0.658225  0.456625  0.070454  1
  I  I23  1  0.341965  0.543319  0.929606  1
  I  I24  1  0.589333  0.750000  0.511993  1
  I  I25  1  0.402797  0.250000  0.488142  1
  I  I26  1  0.099249  0.250000  0.987566  1
  I  I27  1  0.900733  0.750000  0.012104  1
  I  I28  1  0.653263  0.750000  0.805480  1
  I  I29  1  0.346972  0.250000  0.194269  1
  I  I30  1  0.153024  0.250000  0.693980  1
  I  I31  1  0.844080  0.750000  0.300524  1
