# generated using pymatgen
data_NdHo4(FeB3)2
_symmetry_space_group_name_H-M   'P 1'
_cell_length_a   8.29868762
_cell_length_b   8.29868788
_cell_length_c   8.29868693
_cell_angle_alpha   38.20027297
_cell_angle_beta   38.20027022
_cell_angle_gamma   38.20026393
_symmetry_Int_Tables_number   1
_chemical_formula_structural   NdHo4(FeB3)2
_chemical_formula_sum   'Nd1 Ho4 Fe2 B6'
_cell_volume   196.26779503
_cell_formula_units_Z   1
loop_
 _symmetry_equiv_pos_site_id
 _symmetry_equiv_pos_as_xyz
  1  'x, y, z'
loop_
 _atom_site_type_symbol
 _atom_site_label
 _atom_site_symmetry_multiplicity
 _atom_site_fract_x
 _atom_site_fract_y
 _atom_site_fract_z
 _atom_site_occupancy
  Nd  Nd0  1  0.000000  0.000000  0.000000  1
  Ho  Ho1  1  0.582407  0.582407  0.582407  1
  Ho  Ho2  1  0.417593  0.417593  0.417593  1
  Ho  Ho3  1  0.750161  0.750161  0.750161  1
  Ho  Ho4  1  0.249839  0.249839  0.249839  1
  Fe  Fe5  1  0.883265  0.883265  0.883265  1
  Fe  Fe6  1  0.116735  0.116735  0.116735  1
  B  B7  1  0.500000  0.832262  0.167738  1
  B  B8  1  0.167738  0.500000  0.832262  1
  B  B9  1  0.832262  0.167738  0.500000  1
  B  B10  1  0.500000  0.167738  0.832262  1
  B  B11  1  0.832262  0.500000  0.167738  1
  B  B12  1  0.167738  0.832262  0.500000  1
