# generated using pymatgen
data_Dy2Y3Sn3Cl
_symmetry_space_group_name_H-M   'P 1'
_cell_length_a   9.13256800
_cell_length_b   9.13256860
_cell_length_c   6.55632000
_cell_angle_alpha   90.00000000
_cell_angle_beta   90.00000000
_cell_angle_gamma   120.00000509
_symmetry_Int_Tables_number   1
_chemical_formula_structural   Dy2Y3Sn3Cl
_chemical_formula_sum   'Dy4 Y6 Sn6 Cl2'
_cell_volume   473.56174190
_cell_formula_units_Z   2
loop_
 _symmetry_equiv_pos_site_id
 _symmetry_equiv_pos_as_xyz
  1  'x, y, z'
loop_
 _atom_site_type_symbol
 _atom_site_label
 _atom_site_symmetry_multiplicity
 _atom_site_fract_x
 _atom_site_fract_y
 _atom_site_fract_z
 _atom_site_occupancy
  Dy  Dy0  1  0.333333  0.666667  0.500000  1
  Dy  Dy1  1  0.666667  0.333333  0.500000  1
  Dy  Dy2  1  0.333333  0.666667  0.000000  1
  Dy  Dy3  1  0.666667  0.333333  0.000000  1
  Y  Y4  1  0.261940  0.261940  0.750000  1
  Y  Y5  1  0.000000  0.738060  0.750000  1
  Y  Y6  1  0.738060  0.000000  0.750000  1
  Y  Y7  1  0.000000  0.261940  0.250000  1
  Y  Y8  1  0.738060  0.738060  0.250000  1
  Y  Y9  1  0.261940  0.000000  0.250000  1
  Sn  Sn10  1  0.610272  0.000000  0.250000  1
  Sn  Sn11  1  0.000000  0.389728  0.750000  1
  Sn  Sn12  1  0.389728  0.000000  0.750000  1
  Sn  Sn13  1  0.610272  0.610272  0.750000  1
  Sn  Sn14  1  0.000000  0.610272  0.250000  1
  Sn  Sn15  1  0.389728  0.389728  0.250000  1
  Cl  Cl16  1  0.000000  0.000000  0.000000  1
  Cl  Cl17  1  0.000000  0.000000  0.500000  1
