# generated using pymatgen
data_Tm5Th3(Ta3Si4)4
_symmetry_space_group_name_H-M   'P 1'
_cell_length_a   7.06626290
_cell_length_b   7.07006384
_cell_length_c   13.09571341
_cell_angle_alpha   89.84676084
_cell_angle_beta   90.03417710
_cell_angle_gamma   90.09800201
_symmetry_Int_Tables_number   1
_chemical_formula_structural   Tm5Th3(Ta3Si4)4
_chemical_formula_sum   'Tm5 Th3 Ta12 Si16'
_cell_volume   654.24441502
_cell_formula_units_Z   1
loop_
 _symmetry_equiv_pos_site_id
 _symmetry_equiv_pos_as_xyz
  1  'x, y, z'
loop_
 _atom_site_type_symbol
 _atom_site_label
 _atom_site_symmetry_multiplicity
 _atom_site_fract_x
 _atom_site_fract_y
 _atom_site_fract_z
 _atom_site_occupancy
  Tm  Tm0  1  0.999885  0.340988  0.216512  1
  Tm  Tm1  1  0.998747  0.660069  0.719317  1
  Tm  Tm2  1  0.159769  0.501020  0.467879  1
  Tm  Tm3  1  0.499458  0.839110  0.031416  1
  Tm  Tm4  1  0.839241  0.499704  0.968889  1
  Th  Th5  1  0.497360  0.162930  0.531939  1
  Th  Th6  1  0.337722  0.996301  0.782573  1
  Th  Th7  1  0.662733  0.003635  0.281391  1
  Ta  Ta8  1  0.168013  0.169405  0.999346  1
  Ta  Ta9  1  0.830621  0.831709  0.499378  1
  Ta  Ta10  1  0.331318  0.670024  0.248569  1
  Ta  Ta11  1  0.667995  0.330632  0.751079  1
  Ta  Ta12  1  0.156689  0.990943  0.373606  1
  Ta  Ta13  1  0.845223  0.006613  0.876179  1
  Ta  Ta14  1  0.508966  0.656116  0.626023  1
  Ta  Ta15  1  0.344519  0.494408  0.876297  1
  Ta  Ta16  1  0.492138  0.345291  0.124849  1
  Ta  Ta17  1  0.656994  0.503496  0.373858  1
  Ta  Ta18  1  0.997068  0.157490  0.625451  1
  Ta  Ta19  1  0.003962  0.843529  0.124694  1
  Si  Si20  1  0.289105  0.042896  0.182658  1
  Si  Si21  1  0.714996  0.954224  0.687165  1
  Si  Si22  1  0.454190  0.784965  0.436224  1
  Si  Si23  1  0.203043  0.541476  0.063926  1
  Si  Si24  1  0.545385  0.207076  0.938826  1
  Si  Si25  1  0.800291  0.462573  0.564541  1
  Si  Si26  1  0.036739  0.300984  0.815158  1
  Si  Si27  1  0.960861  0.699246  0.313448  1
  Si  Si28  1  0.362152  0.301292  0.315345  1
  Si  Si29  1  0.636612  0.699696  0.819063  1
  Si  Si30  1  0.198311  0.862807  0.566139  1
  Si  Si31  1  0.126869  0.790717  0.935392  1
  Si  Si32  1  0.797855  0.133932  0.066132  1
  Si  Si33  1  0.879920  0.209018  0.433364  1
  Si  Si34  1  0.290375  0.379016  0.684009  1
  Si  Si35  1  0.704876  0.626669  0.179365  1
