# generated using pymatgen
data_KGdH6Os
_symmetry_space_group_name_H-M   'P 1'
_cell_length_a   5.24181616
_cell_length_b   5.24181586
_cell_length_c   5.24181500
_cell_angle_alpha   59.99999910
_cell_angle_beta   60.00000099
_cell_angle_gamma   60.00000970
_symmetry_Int_Tables_number   1
_chemical_formula_structural   KGdH6Os
_chemical_formula_sum   'K1 Gd1 H6 Os1'
_cell_volume   101.84278549
_cell_formula_units_Z   1
loop_
 _symmetry_equiv_pos_site_id
 _symmetry_equiv_pos_as_xyz
  1  'x, y, z'
loop_
 _atom_site_type_symbol
 _atom_site_label
 _atom_site_symmetry_multiplicity
 _atom_site_fract_x
 _atom_site_fract_y
 _atom_site_fract_z
 _atom_site_occupancy
  K  K0  1  0.250000  0.250000  0.250000  1
  Gd  Gd1  1  0.750000  0.750000  0.750000  1
  H  H2  1  0.766554  0.766554  0.233446  1
  H  H3  1  0.233446  0.766554  0.233446  1
  H  H4  1  0.766554  0.233446  0.233446  1
  H  H5  1  0.233446  0.233446  0.766554  1
  H  H6  1  0.766554  0.233446  0.766554  1
  H  H7  1  0.233446  0.766554  0.766554  1
  Os  Os8  1  0.000000  0.000000  0.000000  1
