# generated using pymatgen
data_Tm2P7(Ru5Rh)2
_symmetry_space_group_name_H-M   'P 1'
_cell_length_a   9.39133100
_cell_length_b   9.45728770
_cell_length_c   3.93034400
_cell_angle_alpha   90.00000000
_cell_angle_beta   90.00000000
_cell_angle_gamma   120.14238539
_symmetry_Int_Tables_number   1
_chemical_formula_structural   Tm2P7(Ru5Rh)2
_chemical_formula_sum   'Tm2 P7 Ru10 Rh2'
_cell_volume   301.87701101
_cell_formula_units_Z   1
loop_
 _symmetry_equiv_pos_site_id
 _symmetry_equiv_pos_as_xyz
  1  'x, y, z'
loop_
 _atom_site_type_symbol
 _atom_site_label
 _atom_site_symmetry_multiplicity
 _atom_site_fract_x
 _atom_site_fract_y
 _atom_site_fract_z
 _atom_site_occupancy
  Tm  Tm0  1  0.668364  0.333074  0.500000  1
  Tm  Tm1  1  0.328967  0.664985  0.000000  1
  P  P2  1  0.600258  0.715921  0.500000  1
  P  P3  1  0.000062  0.002277  0.000000  1
  P  P4  1  0.279326  0.880342  0.500000  1
  P  P5  1  0.115106  0.402919  0.500000  1
  P  P6  1  0.883910  0.576634  0.000000  1
  P  P7  1  0.424536  0.301700  0.000000  1
  P  P8  1  0.698405  0.119633  0.000000  1
  Ru  Ru9  1  0.913902  0.126274  0.500000  1
  Ru  Ru10  1  0.214909  0.088182  0.500000  1
  Ru  Ru11  1  0.875075  0.790160  0.500000  1
  Ru  Ru12  1  0.724860  0.889725  0.000000  1
  Ru  Ru13  1  0.108705  0.838749  0.000000  1
  Ru  Ru14  1  0.166239  0.274246  0.000000  1
  Ru  Ru15  1  0.431472  0.064763  0.000000  1
  Ru  Ru16  1  0.935498  0.363151  0.000000  1
  Ru  Ru17  1  0.636612  0.569218  0.000000  1
  Ru  Ru18  1  0.051854  0.609627  0.500000  1
  Rh  Rh19  1  0.550771  0.941569  0.500000  1
  Rh  Rh20  1  0.391172  0.446848  0.500000  1
