# generated using pymatgen
data_Li4Pr4AsPt3
_symmetry_space_group_name_H-M   'P 1'
_cell_length_a   4.17238500
_cell_length_b   7.39458066
_cell_length_c   8.47283097
_cell_angle_alpha   92.17472296
_cell_angle_beta   90.00000000
_cell_angle_gamma   90.00000000
_symmetry_Int_Tables_number   1
_chemical_formula_structural   Li4Pr4AsPt3
_chemical_formula_sum   'Li4 Pr4 As1 Pt3'
_cell_volume   261.22428984
_cell_formula_units_Z   1
loop_
 _symmetry_equiv_pos_site_id
 _symmetry_equiv_pos_as_xyz
  1  'x, y, z'
loop_
 _atom_site_type_symbol
 _atom_site_label
 _atom_site_symmetry_multiplicity
 _atom_site_fract_x
 _atom_site_fract_y
 _atom_site_fract_z
 _atom_site_occupancy
  Li  Li0  1  0.250000  0.141256  0.946584  1
  Li  Li1  1  0.250000  0.631053  0.557283  1
  Li  Li2  1  0.750000  0.869633  0.063373  1
  Li  Li3  1  0.750000  0.360955  0.431726  1
  Pr  Pr4  1  0.250000  0.029578  0.318056  1
  Pr  Pr5  1  0.250000  0.544611  0.181682  1
  Pr  Pr6  1  0.750000  0.966196  0.697217  1
  Pr  Pr7  1  0.750000  0.466729  0.802367  1
  As  As8  1  0.750000  0.236389  0.111810  1
  Pt  Pt9  1  0.250000  0.251108  0.617276  1
  Pt  Pt10  1  0.250000  0.755974  0.885225  1
  Pt  Pt11  1  0.750000  0.746519  0.387400  1
