# generated using pymatgen
data_Dy5Re2P12Ru4Rh13
_symmetry_space_group_name_H-M   'P 1'
_cell_length_a   12.62895977
_cell_length_b   12.72180040
_cell_length_c   3.94709300
_cell_angle_alpha   90.00000000
_cell_angle_beta   90.00000000
_cell_angle_gamma   120.45472496
_symmetry_Int_Tables_number   1
_chemical_formula_structural   Dy5Re2P12Ru4Rh13
_chemical_formula_sum   'Dy5 Re2 P12 Ru4 Rh13'
_cell_volume   546.65820388
_cell_formula_units_Z   1
loop_
 _symmetry_equiv_pos_site_id
 _symmetry_equiv_pos_as_xyz
  1  'x, y, z'
loop_
 _atom_site_type_symbol
 _atom_site_label
 _atom_site_symmetry_multiplicity
 _atom_site_fract_x
 _atom_site_fract_y
 _atom_site_fract_z
 _atom_site_occupancy
  Dy  Dy0  1  0.669982  0.332799  0.000000  1
  Dy  Dy1  1  0.329392  0.664753  0.000000  1
  Dy  Dy2  1  0.814930  0.002598  0.500000  1
  Dy  Dy3  1  0.184112  0.186757  0.500000  1
  Dy  Dy4  1  0.999317  0.813085  0.500000  1
  Re  Re5  1  0.516875  0.877513  0.500000  1
  Re  Re6  1  0.003461  0.449401  0.000000  1
  P  P7  1  0.633430  0.996377  0.000000  1
  P  P8  1  0.363800  0.363732  0.000000  1
  P  P9  1  0.000317  0.631710  0.000000  1
  P  P10  1  0.688427  0.519063  0.500000  1
  P  P11  1  0.835150  0.311954  0.500000  1
  P  P12  1  0.316507  0.834695  0.500000  1
  P  P13  1  0.518260  0.692863  0.500000  1
  P  P14  1  0.180781  0.999730  0.000000  1
  P  P15  1  0.818346  0.816925  0.000000  1
  P  P16  1  0.995788  0.177400  0.000000  1
  P  P17  1  0.480363  0.170146  0.500000  1
  P  P18  1  0.162788  0.480923  0.500000  1
  Ru  Ru19  1  0.714936  0.712971  0.500000  1
  Ru  Ru20  1  0.001940  0.284490  0.500000  1
  Ru  Ru21  1  0.817825  0.194059  0.000000  1
  Ru  Ru22  1  0.283746  0.000457  0.500000  1
  Rh  Rh23  1  0.624826  0.801949  0.000000  1
  Rh  Rh24  1  0.182241  0.373418  0.000000  1
  Rh  Rh25  1  0.376495  0.182454  0.000000  1
  Rh  Rh26  1  0.194305  0.819324  0.000000  1
  Rh  Rh27  1  0.804596  0.621506  0.000000  1
  Rh  Rh28  1  0.872615  0.510043  0.500000  1
  Rh  Rh29  1  0.488838  0.360271  0.500000  1
  Rh  Rh30  1  0.638614  0.133373  0.500000  1
  Rh  Rh31  1  0.128414  0.641658  0.500000  1
  Rh  Rh32  1  0.358194  0.493180  0.500000  1
  Rh  Rh33  1  0.999560  0.998365  0.000000  1
  Rh  Rh34  1  0.452903  0.005184  0.000000  1
  Rh  Rh35  1  0.547928  0.544877  0.000000  1
