# generated using pymatgen
data_KMn2(Sb6Ru)2
_symmetry_space_group_name_H-M   'P 1'
_cell_length_a   8.20477145
_cell_length_b   8.20477170
_cell_length_c   8.18435256
_cell_angle_alpha   109.42936358
_cell_angle_beta   109.35642583
_cell_angle_gamma   109.72856821
_symmetry_Int_Tables_number   1
_chemical_formula_structural   KMn2(Sb6Ru)2
_chemical_formula_sum   'K1 Mn2 Sb12 Ru2'
_cell_volume   423.59486349
_cell_formula_units_Z   1
loop_
 _symmetry_equiv_pos_site_id
 _symmetry_equiv_pos_as_xyz
  1  'x, y, z'
loop_
 _atom_site_type_symbol
 _atom_site_label
 _atom_site_symmetry_multiplicity
 _atom_site_fract_x
 _atom_site_fract_y
 _atom_site_fract_z
 _atom_site_occupancy
  K  K0  1  0.000000  0.000000  0.000000  1
  Mn  Mn1  1  0.500000  0.500000  0.500000  1
  Mn  Mn2  1  0.000000  0.000000  0.500000  1
  Sb  Sb3  1  0.159667  0.815773  0.661303  1
  Sb  Sb4  1  0.154470  0.498364  0.338697  1
  Sb  Sb5  1  0.501799  0.661068  0.845255  1
  Sb  Sb6  1  0.338357  0.841370  0.179729  1
  Sb  Sb7  1  0.815813  0.656545  0.154745  1
  Sb  Sb8  1  0.655202  0.844687  0.499889  1
  Sb  Sb9  1  0.184187  0.343455  0.845255  1
  Sb  Sb10  1  0.661643  0.158630  0.820271  1
  Sb  Sb11  1  0.344798  0.155313  0.500111  1
  Sb  Sb12  1  0.498201  0.338932  0.154745  1
  Sb  Sb13  1  0.845530  0.501636  0.661303  1
  Sb  Sb14  1  0.840333  0.184227  0.338697  1
  Ru  Ru15  1  0.500000  0.000000  0.000000  1
  Ru  Ru16  1  0.000000  0.500000  0.000000  1
