# generated using pymatgen
data_RbLa6CoBr12
_symmetry_space_group_name_H-M   'P 1'
_cell_length_a   9.79688891
_cell_length_b   9.61723657
_cell_length_c   9.79921700
_cell_angle_alpha   104.73814007
_cell_angle_beta   104.95213449
_cell_angle_gamma   104.39880486
_symmetry_Int_Tables_number   1
_chemical_formula_structural   RbLa6CoBr12
_chemical_formula_sum   'Rb1 La6 Co1 Br12'
_cell_volume   812.38960031
_cell_formula_units_Z   1
loop_
 _symmetry_equiv_pos_site_id
 _symmetry_equiv_pos_as_xyz
  1  'x, y, z'
loop_
 _atom_site_type_symbol
 _atom_site_label
 _atom_site_symmetry_multiplicity
 _atom_site_fract_x
 _atom_site_fract_y
 _atom_site_fract_z
 _atom_site_occupancy
  Rb  Rb0  1  0.500000  0.500000  0.500000  1
  La  La1  1  0.089550  0.273321  0.009582  1
  La  La2  1  0.315880  0.006921  0.109038  1
  La  La3  1  0.010081  0.108726  0.315285  1
  La  La4  1  0.989918  0.891274  0.684715  1
  La  La5  1  0.684120  0.993078  0.890961  1
  La  La6  1  0.910450  0.726679  0.990418  1
  Co  Co7  1  0.000000  0.000000  0.000000  1
  Br  Br8  1  0.211278  0.671854  0.071690  1
  Br  Br9  1  0.422551  0.330158  0.118157  1
  Br  Br10  1  0.674838  0.075672  0.210651  1
  Br  Br11  1  0.926056  0.789503  0.324500  1
  Br  Br12  1  0.118456  0.428617  0.335016  1
  Br  Br13  1  0.331902  0.115312  0.427969  1
  Br  Br14  1  0.668098  0.884688  0.572031  1
  Br  Br15  1  0.881543  0.571383  0.664984  1
  Br  Br16  1  0.073945  0.210498  0.675501  1
  Br  Br17  1  0.325163  0.924329  0.789349  1
  Br  Br18  1  0.577448  0.669841  0.881843  1
  Br  Br19  1  0.788722  0.328147  0.928310  1
