# generated using pymatgen
data_La2B10Ir
_symmetry_space_group_name_H-M   'P 1'
_cell_length_a   4.25042600
_cell_length_b   5.79105900
_cell_length_c   11.53869800
_cell_angle_alpha   90.00000000
_cell_angle_beta   90.00000000
_cell_angle_gamma   90.00000000
_symmetry_Int_Tables_number   1
_chemical_formula_structural   La2B10Ir
_chemical_formula_sum   'La4 B20 Ir2'
_cell_volume   284.01890970
_cell_formula_units_Z   2
loop_
 _symmetry_equiv_pos_site_id
 _symmetry_equiv_pos_as_xyz
  1  'x, y, z'
loop_
 _atom_site_type_symbol
 _atom_site_label
 _atom_site_symmetry_multiplicity
 _atom_site_fract_x
 _atom_site_fract_y
 _atom_site_fract_z
 _atom_site_occupancy
  La  La0  1  0.500000  0.292922  0.866116  1
  La  La1  1  0.500000  0.707078  0.133884  1
  La  La2  1  0.500000  0.792922  0.633884  1
  La  La3  1  0.500000  0.207078  0.366116  1
  B  B4  1  0.000000  0.119665  0.543502  1
  B  B5  1  0.000000  0.880335  0.456498  1
  B  B6  1  0.000000  0.619665  0.956498  1
  B  B7  1  0.000000  0.380335  0.043502  1
  B  B8  1  0.000000  0.139102  0.696886  1
  B  B9  1  0.000000  0.860898  0.303114  1
  B  B10  1  0.299393  0.217604  0.118289  1
  B  B11  1  0.299393  0.782396  0.881711  1
  B  B12  1  0.700607  0.717604  0.381711  1
  B  B13  1  0.700607  0.282396  0.618289  1
  B  B14  1  0.700607  0.782396  0.881711  1
  B  B15  1  0.700607  0.217604  0.118289  1
  B  B16  1  0.299393  0.282396  0.618289  1
  B  B17  1  0.299393  0.717604  0.381711  1
  B  B18  1  0.000000  0.055717  0.192758  1
  B  B19  1  0.000000  0.944283  0.807242  1
  B  B20  1  0.000000  0.555717  0.307242  1
  B  B21  1  0.000000  0.444283  0.692758  1
  B  B22  1  0.000000  0.360898  0.196886  1
  B  B23  1  0.000000  0.639102  0.803114  1
  Ir  Ir24  1  0.000000  0.500000  0.500000  1
  Ir  Ir25  1  0.000000  0.000000  0.000000  1
