# generated using pymatgen
data_CaTb4Pr2FeI12
_symmetry_space_group_name_H-M   'P 1'
_cell_length_a   9.92667114
_cell_length_b   9.87073497
_cell_length_c   9.88902064
_cell_angle_alpha   106.91034875
_cell_angle_beta   106.67485988
_cell_angle_gamma   107.13813984
_symmetry_Int_Tables_number   1
_chemical_formula_structural   CaTb4Pr2FeI12
_chemical_formula_sum   'Ca1 Tb4 Pr2 Fe1 I12'
_cell_volume   808.97134736
_cell_formula_units_Z   1
loop_
 _symmetry_equiv_pos_site_id
 _symmetry_equiv_pos_as_xyz
  1  'x, y, z'
loop_
 _atom_site_type_symbol
 _atom_site_label
 _atom_site_symmetry_multiplicity
 _atom_site_fract_x
 _atom_site_fract_y
 _atom_site_fract_z
 _atom_site_occupancy
  Ca  Ca0  1  0.501551  0.499751  0.500651  1
  Tb  Tb1  1  0.300835  0.025795  0.096537  1
  Tb  Tb2  1  0.906379  0.715144  0.975552  1
  Tb  Tb3  1  0.975877  0.905959  0.716767  1
  Tb  Tb4  1  0.697735  0.974502  0.899893  1
  Pr  Pr5  1  0.095762  0.295424  0.025606  1
  Pr  Pr6  1  0.023294  0.093741  0.293438  1
  Fe  Fe7  1  0.999803  0.002985  0.001899  1
  I  I8  1  0.463818  0.378014  0.154946  1
  I  I9  1  0.159026  0.465469  0.387516  1
  I  I10  1  0.384935  0.150027  0.454344  1
  I  I11  1  0.546612  0.622883  0.849558  1
  I  I12  1  0.850150  0.546655  0.625656  1
  I  I13  1  0.626313  0.849799  0.545398  1
  I  I14  1  0.766372  0.313077  0.922892  1
  I  I15  1  0.922292  0.763178  0.309030  1
  I  I16  1  0.314012  0.925704  0.774111  1
  I  I17  1  0.221577  0.686314  0.071541  1
  I  I18  1  0.071242  0.216631  0.678010  1
  I  I19  1  0.672414  0.068948  0.216655  1
