# generated using pymatgen
data_Sr2Yb(GdSn2)2
_symmetry_space_group_name_H-M   'P 1'
_cell_length_a   8.25100000
_cell_length_b   8.79562500
_cell_length_c   16.75835200
_cell_angle_alpha   90.00000000
_cell_angle_beta   90.00000000
_cell_angle_gamma   90.00000000
_symmetry_Int_Tables_number   1
_chemical_formula_structural   Sr2Yb(GdSn2)2
_chemical_formula_sum   'Sr8 Yb4 Gd8 Sn16'
_cell_volume   1216.19888361
_cell_formula_units_Z   4
loop_
 _symmetry_equiv_pos_site_id
 _symmetry_equiv_pos_as_xyz
  1  'x, y, z'
loop_
 _atom_site_type_symbol
 _atom_site_label
 _atom_site_symmetry_multiplicity
 _atom_site_fract_x
 _atom_site_fract_y
 _atom_site_fract_z
 _atom_site_occupancy
  Sr  Sr0  1  0.507601  0.683808  0.594411  1
  Sr  Sr1  1  0.007601  0.816192  0.905589  1
  Sr  Sr2  1  0.492399  0.316192  0.094411  1
  Sr  Sr3  1  0.992399  0.183808  0.405589  1
  Sr  Sr4  1  0.492399  0.316192  0.405589  1
  Sr  Sr5  1  0.992399  0.183808  0.094411  1
  Sr  Sr6  1  0.507601  0.683808  0.905589  1
  Sr  Sr7  1  0.007601  0.816192  0.594411  1
  Yb  Yb8  1  0.837973  0.506704  0.750000  1
  Yb  Yb9  1  0.337973  0.993296  0.750000  1
  Yb  Yb10  1  0.162027  0.493296  0.250000  1
  Yb  Yb11  1  0.662027  0.006704  0.250000  1
  Gd  Gd12  1  0.673624  0.168714  0.622865  1
  Gd  Gd13  1  0.173624  0.331286  0.877135  1
  Gd  Gd14  1  0.326376  0.831286  0.122865  1
  Gd  Gd15  1  0.826376  0.668714  0.377135  1
  Gd  Gd16  1  0.326376  0.831286  0.377135  1
  Gd  Gd17  1  0.826376  0.668714  0.122865  1
  Gd  Gd18  1  0.673624  0.168714  0.877135  1
  Gd  Gd19  1  0.173624  0.331286  0.622865  1
  Sn  Sn20  1  0.660144  0.960541  0.458887  1
  Sn  Sn21  1  0.160144  0.539459  0.041113  1
  Sn  Sn22  1  0.339856  0.039459  0.958887  1
  Sn  Sn23  1  0.839856  0.460541  0.541113  1
  Sn  Sn24  1  0.339856  0.039459  0.541113  1
  Sn  Sn25  1  0.839856  0.460541  0.958887  1
  Sn  Sn26  1  0.660144  0.960541  0.041113  1
  Sn  Sn27  1  0.160144  0.539459  0.458887  1
  Sn  Sn28  1  0.470281  0.373147  0.750000  1
  Sn  Sn29  1  0.970281  0.126853  0.750000  1
  Sn  Sn30  1  0.529719  0.626853  0.250000  1
  Sn  Sn31  1  0.029719  0.873147  0.250000  1
  Sn  Sn32  1  0.718125  0.882942  0.750000  1
  Sn  Sn33  1  0.218125  0.617058  0.750000  1
  Sn  Sn34  1  0.281875  0.117058  0.250000  1
  Sn  Sn35  1  0.781875  0.382942  0.250000  1
