# generated using pymatgen
data_Sc7TaV12Si15Ge
_symmetry_space_group_name_H-M   'P 1'
_cell_length_a   6.61444820
_cell_length_b   6.62308893
_cell_length_c   12.24543560
_cell_angle_alpha   90.08353439
_cell_angle_beta   89.99740085
_cell_angle_gamma   90.08022142
_symmetry_Int_Tables_number   1
_chemical_formula_structural   Sc7TaV12Si15Ge
_chemical_formula_sum   'Sc7 Ta1 V12 Si15 Ge1'
_cell_volume   536.44790887
_cell_formula_units_Z   1
loop_
 _symmetry_equiv_pos_site_id
 _symmetry_equiv_pos_as_xyz
  1  'x, y, z'
loop_
 _atom_site_type_symbol
 _atom_site_label
 _atom_site_symmetry_multiplicity
 _atom_site_fract_x
 _atom_site_fract_y
 _atom_site_fract_z
 _atom_site_occupancy
  Sc  Sc0  1  0.837767  0.501720  0.278983  1
  Sc  Sc1  1  0.161433  0.498236  0.779031  1
  Sc  Sc2  1  0.501598  0.837511  0.721066  1
  Sc  Sc3  1  0.500723  0.163679  0.220785  1
  Sc  Sc4  1  0.998684  0.337207  0.529765  1
  Sc  Sc5  1  0.666569  0.999507  0.970710  1
  Sc  Sc6  1  0.337623  0.998192  0.469993  1
  Ta  Ta7  1  0.006708  0.656052  0.030340  1
  V  V8  1  0.329040  0.340573  0.999426  1
  V  V9  1  0.166617  0.829457  0.250728  1
  V  V10  1  0.832935  0.168453  0.751569  1
  V  V11  1  0.668679  0.668231  0.500331  1
  V  V12  1  0.000387  0.160269  0.125924  1
  V  V13  1  0.342517  0.506789  0.375557  1
  V  V14  1  0.657504  0.495826  0.877943  1
  V  V15  1  0.506424  0.343587  0.623657  1
  V  V16  1  0.494316  0.655201  0.122032  1
  V  V17  1  0.992327  0.842373  0.627256  1
  V  V18  1  0.152771  0.005796  0.872898  1
  V  V19  1  0.843339  0.990626  0.372530  1
  Si  Si20  1  0.540075  0.793608  0.313897  1
  Si  Si21  1  0.459968  0.206655  0.815249  1
  Si  Si22  1  0.794109  0.539615  0.685750  1
  Si  Si23  1  0.206535  0.459560  0.185406  1
  Si  Si24  1  0.705960  0.039825  0.565108  1
  Si  Si25  1  0.959054  0.295824  0.935034  1
  Si  Si26  1  0.039488  0.705072  0.435660  1
  Si  Si27  1  0.706091  0.372479  0.070742  1
  Si  Si28  1  0.129014  0.202908  0.319596  1
  Si  Si29  1  0.869904  0.793514  0.822832  1
  Si  Si30  1  0.203784  0.129594  0.679778  1
  Si  Si31  1  0.798055  0.867458  0.176876  1
  Si  Si32  1  0.296914  0.630178  0.569988  1
  Si  Si33  1  0.368710  0.703776  0.927612  1
  Si  Si34  1  0.630150  0.296449  0.430042  1
  Ge  Ge35  1  0.294230  0.964203  0.065905  1
