# generated using pymatgen
data_CaTiVO5
_symmetry_space_group_name_H-M   'P 1'
_cell_length_a   3.61677300
_cell_length_b   5.04847694
_cell_length_c   11.65982743
_cell_angle_alpha   90.11916865
_cell_angle_beta   90.00000000
_cell_angle_gamma   89.99997730
_symmetry_Int_Tables_number   1
_chemical_formula_structural   CaTiVO5
_chemical_formula_sum   'Ca2 Ti2 V2 O10'
_cell_volume   212.89860338
_cell_formula_units_Z   2
loop_
 _symmetry_equiv_pos_site_id
 _symmetry_equiv_pos_as_xyz
  1  'x, y, z'
loop_
 _atom_site_type_symbol
 _atom_site_label
 _atom_site_symmetry_multiplicity
 _atom_site_fract_x
 _atom_site_fract_y
 _atom_site_fract_z
 _atom_site_occupancy
  Ca  Ca0  1  0.749999  0.859778  0.253703  1
  Ca  Ca1  1  0.250000  0.140223  0.746297  1
  Ti  Ti2  1  0.749999  0.599910  0.601220  1
  Ti  Ti3  1  0.250000  0.400091  0.398780  1
  V  V4  1  0.250000  0.393529  0.096001  1
  V  V5  1  0.749999  0.606466  0.903999  1
  O  O6  1  0.749999  0.450249  0.750886  1
  O  O7  1  0.250000  0.549750  0.249114  1
  O  O8  1  0.750000  0.541280  0.074226  1
  O  O9  1  0.250000  0.458718  0.925773  1
  O  O10  1  0.749999  0.537951  0.424854  1
  O  O11  1  0.250000  0.462051  0.575146  1
  O  O12  1  0.249999  0.064199  0.368757  1
  O  O13  1  0.750000  0.935804  0.631244  1
  O  O14  1  0.750000  0.933168  0.874507  1
  O  O15  1  0.249999  0.066832  0.125493  1
