# generated using pymatgen
data_SmTa2B2Ru5
_symmetry_space_group_name_H-M   'P 1'
_cell_length_a   9.61278059
_cell_length_b   9.61278059
_cell_length_c   3.09061900
_cell_angle_alpha   90.00000000
_cell_angle_beta   90.00000000
_cell_angle_gamma   91.03959907
_symmetry_Int_Tables_number   1
_chemical_formula_structural   SmTa2B2Ru5
_chemical_formula_sum   'Sm2 Ta4 B4 Ru10'
_cell_volume   285.54334069
_cell_formula_units_Z   2
loop_
 _symmetry_equiv_pos_site_id
 _symmetry_equiv_pos_as_xyz
  1  'x, y, z'
loop_
 _atom_site_type_symbol
 _atom_site_label
 _atom_site_symmetry_multiplicity
 _atom_site_fract_x
 _atom_site_fract_y
 _atom_site_fract_z
 _atom_site_occupancy
  Sm  Sm0  1  0.823466  0.676534  0.000000  1
  Sm  Sm1  1  0.176534  0.323466  0.000000  1
  Ta  Ta2  1  0.324720  0.824720  0.000000  1
  Ta  Ta3  1  0.675280  0.175280  0.000000  1
  Ta  Ta4  1  0.500000  0.500000  0.000000  1
  Ta  Ta5  1  0.000000  0.000000  0.000000  1
  B  B6  1  0.619192  0.880808  0.000000  1
  B  B7  1  0.380808  0.119192  0.000000  1
  B  B8  1  0.122273  0.622273  0.000000  1
  B  B9  1  0.877727  0.377727  0.000000  1
  Ru  Ru10  1  0.557078  0.724377  0.500000  1
  Ru  Ru11  1  0.442922  0.275623  0.500000  1
  Ru  Ru12  1  0.084092  0.786242  0.500000  1
  Ru  Ru13  1  0.915908  0.213758  0.500000  1
  Ru  Ru14  1  0.286242  0.584092  0.500000  1
  Ru  Ru15  1  0.713758  0.415908  0.500000  1
  Ru  Ru16  1  0.224377  0.057078  0.500000  1
  Ru  Ru17  1  0.775623  0.942922  0.500000  1
  Ru  Ru18  1  0.500000  0.000000  0.500000  1
  Ru  Ru19  1  0.000000  0.500000  0.500000  1
