# generated using pymatgen
data_TbDyHo3Sn4
_symmetry_space_group_name_H-M   'P 1'
_cell_length_a   8.03012200
_cell_length_b   8.17020600
_cell_length_c   15.44111100
_cell_angle_alpha   90.00000000
_cell_angle_beta   90.00000000
_cell_angle_gamma   90.00000000
_symmetry_Int_Tables_number   1
_chemical_formula_structural   TbDyHo3Sn4
_chemical_formula_sum   'Tb4 Dy4 Ho12 Sn16'
_cell_volume   1013.05656480
_cell_formula_units_Z   4
loop_
 _symmetry_equiv_pos_site_id
 _symmetry_equiv_pos_as_xyz
  1  'x, y, z'
loop_
 _atom_site_type_symbol
 _atom_site_label
 _atom_site_symmetry_multiplicity
 _atom_site_fract_x
 _atom_site_fract_y
 _atom_site_fract_z
 _atom_site_occupancy
  Tb  Tb0  1  0.521135  0.320388  0.902479  1
  Tb  Tb1  1  0.021135  0.179612  0.597521  1
  Tb  Tb2  1  0.478865  0.679612  0.402479  1
  Tb  Tb3  1  0.978865  0.820388  0.097521  1
  Dy  Dy4  1  0.478794  0.679609  0.097636  1
  Dy  Dy5  1  0.978794  0.820391  0.402364  1
  Dy  Dy6  1  0.521206  0.320391  0.597636  1
  Dy  Dy7  1  0.021206  0.179609  0.902364  1
  Ho  Ho8  1  0.367650  0.836399  0.877884  1
  Ho  Ho9  1  0.867650  0.663601  0.622116  1
  Ho  Ho10  1  0.632350  0.163601  0.377884  1
  Ho  Ho11  1  0.132350  0.336399  0.122116  1
  Ho  Ho12  1  0.632324  0.163608  0.122145  1
  Ho  Ho13  1  0.132324  0.336392  0.377855  1
  Ho  Ho14  1  0.367676  0.836392  0.622145  1
  Ho  Ho15  1  0.867676  0.663608  0.877855  1
  Ho  Ho16  1  0.198527  0.503235  0.749972  1
  Ho  Ho17  1  0.698527  0.996765  0.750028  1
  Ho  Ho18  1  0.801473  0.496765  0.249972  1
  Ho  Ho19  1  0.301473  0.003235  0.250028  1
  Sn  Sn20  1  0.293238  0.036489  0.041676  1
  Sn  Sn21  1  0.793238  0.463511  0.458324  1
  Sn  Sn22  1  0.706762  0.963511  0.541676  1
  Sn  Sn23  1  0.206762  0.536489  0.958324  1
  Sn  Sn24  1  0.706965  0.963681  0.958176  1
  Sn  Sn25  1  0.206965  0.536319  0.541824  1
  Sn  Sn26  1  0.293035  0.036319  0.458176  1
  Sn  Sn27  1  0.793035  0.463681  0.041824  1
  Sn  Sn28  1  0.565048  0.619434  0.749997  1
  Sn  Sn29  1  0.065048  0.880566  0.750003  1
  Sn  Sn30  1  0.434952  0.380566  0.249997  1
  Sn  Sn31  1  0.934952  0.119434  0.250003  1
  Sn  Sn32  1  0.329758  0.147289  0.749868  1
  Sn  Sn33  1  0.829758  0.352711  0.750132  1
  Sn  Sn34  1  0.670242  0.852711  0.249868  1
  Sn  Sn35  1  0.170242  0.647289  0.250132  1
