# generated using pymatgen
data_Ti2BeB2Ir4Ru
_symmetry_space_group_name_H-M   'P 1'
_cell_length_a   9.15132800
_cell_length_b   9.15132800
_cell_length_c   2.92650200
_cell_angle_alpha   90.00000000
_cell_angle_beta   90.00000000
_cell_angle_gamma   90.00000000
_symmetry_Int_Tables_number   1
_chemical_formula_structural   Ti2BeB2Ir4Ru
_chemical_formula_sum   'Ti4 Be2 B4 Ir8 Ru2'
_cell_volume   245.08518988
_cell_formula_units_Z   2
loop_
 _symmetry_equiv_pos_site_id
 _symmetry_equiv_pos_as_xyz
  1  'x, y, z'
loop_
 _atom_site_type_symbol
 _atom_site_label
 _atom_site_symmetry_multiplicity
 _atom_site_fract_x
 _atom_site_fract_y
 _atom_site_fract_z
 _atom_site_occupancy
  Ti  Ti0  1  0.326820  0.173180  0.000000  1
  Ti  Ti1  1  0.826820  0.326820  0.000000  1
  Ti  Ti2  1  0.173180  0.673180  0.000000  1
  Ti  Ti3  1  0.673180  0.826820  0.000000  1
  Be  Be4  1  0.000000  0.000000  0.000000  1
  Be  Be5  1  0.500000  0.500000  0.000000  1
  B  B6  1  0.627063  0.127063  0.000000  1
  B  B7  1  0.127063  0.372937  0.000000  1
  B  B8  1  0.872936  0.627063  0.000000  1
  B  B9  1  0.372937  0.872936  0.000000  1
  Ir  Ir10  1  0.793133  0.070284  0.499999  1
  Ir  Ir11  1  0.070284  0.206867  0.499999  1
  Ir  Ir12  1  0.570283  0.293133  0.499999  1
  Ir  Ir13  1  0.293133  0.429717  0.499999  1
  Ir  Ir14  1  0.706866  0.570283  0.499999  1
  Ir  Ir15  1  0.429717  0.706866  0.499999  1
  Ir  Ir16  1  0.929716  0.793133  0.499999  1
  Ir  Ir17  1  0.206867  0.929716  0.499999  1
  Ru  Ru18  1  0.500000  0.000000  0.499999  1
  Ru  Ru19  1  0.000000  0.500000  0.499999  1
