# generated using pymatgen
data_Tm9MgZn3NiSb2
_symmetry_space_group_name_H-M   'P 1'
_cell_length_a   8.42698083
_cell_length_b   8.42698121
_cell_length_c   8.48428628
_cell_angle_alpha   125.07871984
_cell_angle_beta   125.64507921
_cell_angle_gamma   80.48330566
_symmetry_Int_Tables_number   1
_chemical_formula_structural   Tm9MgZn3NiSb2
_chemical_formula_sum   'Tm9 Mg1 Zn3 Ni1 Sb2'
_cell_volume   387.44125565
_cell_formula_units_Z   1
loop_
 _symmetry_equiv_pos_site_id
 _symmetry_equiv_pos_as_xyz
  1  'x, y, z'
loop_
 _atom_site_type_symbol
 _atom_site_label
 _atom_site_symmetry_multiplicity
 _atom_site_fract_x
 _atom_site_fract_y
 _atom_site_fract_z
 _atom_site_occupancy
  Tm  Tm0  1  0.006654  0.002693  0.009347  1
  Tm  Tm1  1  0.780901  0.304713  0.805518  1
  Tm  Tm2  1  0.204166  0.703168  0.191942  1
  Tm  Tm3  1  0.488774  0.987776  0.191942  1
  Tm  Tm4  1  0.313704  0.475105  0.512614  1
  Tm  Tm5  1  0.037511  0.198911  0.512614  1
  Tm  Tm6  1  0.500805  0.024617  0.805518  1
  Tm  Tm7  1  0.695114  0.511361  0.491250  1
  Tm  Tm8  1  0.979887  0.796135  0.491250  1
  Mg  Mg9  1  0.500472  0.502319  0.002791  1
  Zn  Zn10  1  0.134439  0.634264  0.768703  1
  Zn  Zn11  1  0.864745  0.363906  0.228650  1
  Zn  Zn12  1  0.634499  0.870589  0.505090  1
  Ni  Ni13  1  0.366655  0.115863  0.482517  1
  Sb  Sb14  1  0.243417  0.251871  0.000126  1
  Sb  Sb15  1  0.748255  0.756708  0.000126  1
