# generated using pymatgen
data_Ca2(PPd)3
_symmetry_space_group_name_H-M   'P 1'
_cell_length_a   4.14483300
_cell_length_b   4.11087300
_cell_length_c   34.13540800
_cell_angle_alpha   90.00000000
_cell_angle_beta   90.00000000
_cell_angle_gamma   90.00000000
_symmetry_Int_Tables_number   1
_chemical_formula_structural   Ca2(PPd)3
_chemical_formula_sum   'Ca8 P12 Pd12'
_cell_volume   581.62919130
_cell_formula_units_Z   4
loop_
 _symmetry_equiv_pos_site_id
 _symmetry_equiv_pos_as_xyz
  1  'x, y, z'
loop_
 _atom_site_type_symbol
 _atom_site_label
 _atom_site_symmetry_multiplicity
 _atom_site_fract_x
 _atom_site_fract_y
 _atom_site_fract_z
 _atom_site_occupancy
  Ca  Ca0  1  0.000000  0.000000  0.427846  1
  Ca  Ca1  1  0.500000  0.000000  0.678505  1
  Ca  Ca2  1  0.500000  0.000000  0.321495  1
  Ca  Ca3  1  0.000000  0.500000  0.176826  1
  Ca  Ca4  1  0.500000  0.500000  0.928509  1
  Ca  Ca5  1  0.500000  0.500000  0.071491  1
  Ca  Ca6  1  0.000000  0.500000  0.823174  1
  Ca  Ca7  1  0.000000  0.000000  0.572154  1
  P  P8  1  0.000000  0.000000  0.958712  1
  P  P9  1  0.500000  0.500000  0.541695  1
  P  P10  1  0.500000  0.500000  0.458305  1
  P  P11  1  0.500000  0.000000  0.209096  1
  P  P12  1  0.000000  0.500000  0.289224  1
  P  P13  1  0.000000  0.500000  0.710776  1
  P  P14  1  0.500000  0.000000  0.855521  1
  P  P15  1  0.500000  0.000000  0.790904  1
  P  P16  1  0.000000  0.500000  0.645986  1
  P  P17  1  0.000000  0.500000  0.354014  1
  P  P18  1  0.500000  0.000000  0.144479  1
  P  P19  1  0.000000  0.000000  0.041288  1
  Pd  Pd20  1  0.000000  0.000000  0.889654  1
  Pd  Pd21  1  0.000000  0.000000  0.110346  1
  Pd  Pd22  1  0.000000  0.000000  0.752054  1
  Pd  Pd23  1  0.500000  0.500000  0.388737  1
  Pd  Pd24  1  0.500000  0.500000  0.611263  1
  Pd  Pd25  1  0.000000  0.000000  0.247946  1
  Pd  Pd26  1  0.000000  0.500000  0.500000  1
  Pd  Pd27  1  0.500000  0.500000  0.250048  1
  Pd  Pd28  1  0.500000  0.000000  0.000000  1
  Pd  Pd29  1  0.500000  0.500000  0.749952  1
  Pd  Pd30  1  0.500000  0.000000  0.500000  1
  Pd  Pd31  1  0.000000  0.500000  0.000000  1
