# generated using pymatgen
data_CeTe(PBr9)2
_symmetry_space_group_name_H-M   'P 1'
_cell_length_a   8.25383665
_cell_length_b   11.05295123
_cell_length_c   10.66137900
_cell_angle_alpha   103.64053487
_cell_angle_beta   98.00253732
_cell_angle_gamma   88.42257446
_symmetry_Int_Tables_number   1
_chemical_formula_structural   CeTe(PBr9)2
_chemical_formula_sum   'Ce1 Te1 P2 Br18'
_cell_volume   935.97742655
_cell_formula_units_Z   1
loop_
 _symmetry_equiv_pos_site_id
 _symmetry_equiv_pos_as_xyz
  1  'x, y, z'
loop_
 _atom_site_type_symbol
 _atom_site_label
 _atom_site_symmetry_multiplicity
 _atom_site_fract_x
 _atom_site_fract_y
 _atom_site_fract_z
 _atom_site_occupancy
  Ce  Ce0  1  0.398430  0.344776  0.348044  1
  Te  Te1  1  0.603620  0.659255  0.653933  1
  P  P2  1  0.063983  0.193480  0.784643  1
  P  P3  1  0.933826  0.804440  0.211065  1
  Br  Br4  1  0.903710  0.740808  0.724173  1
  Br  Br5  1  0.818608  0.655215  0.047370  1
  Br  Br6  1  0.347961  0.512981  0.182458  1
  Br  Br7  1  0.655795  0.489024  0.821039  1
  Br  Br8  1  0.468776  0.185060  0.507082  1
  Br  Br9  1  0.535741  0.808939  0.496982  1
  Br  Br10  1  0.077219  0.270146  0.287245  1
  Br  Br11  1  0.482037  0.820251  0.841523  1
  Br  Br12  1  0.528475  0.177263  0.151379  1
  Br  Br13  1  0.289206  0.534714  0.557509  1
  Br  Br14  1  0.164039  0.865494  0.166942  1
  Br  Br15  1  0.713525  0.466485  0.448660  1
  Br  Br16  1  0.016961  0.247482  0.600208  1
  Br  Br17  1  0.984697  0.747169  0.393932  1
  Br  Br18  1  0.227843  0.033647  0.765096  1
  Br  Br19  1  0.770326  0.964994  0.231009  1
  Br  Br20  1  0.835664  0.136463  0.834150  1
  Br  Br21  1  0.179557  0.341914  0.945560  1
