# generated using pymatgen
data_Yb10Bi6SCl
_symmetry_space_group_name_H-M   'P 1'
_cell_length_a   9.23979800
_cell_length_b   9.23979868
_cell_length_c   7.13798300
_cell_angle_alpha   90.00000000
_cell_angle_beta   90.00000000
_cell_angle_gamma   120.00000473
_symmetry_Int_Tables_number   1
_chemical_formula_structural   Yb10Bi6SCl
_chemical_formula_sum   'Yb10 Bi6 S1 Cl1'
_cell_volume   527.75348007
_cell_formula_units_Z   1
loop_
 _symmetry_equiv_pos_site_id
 _symmetry_equiv_pos_as_xyz
  1  'x, y, z'
loop_
 _atom_site_type_symbol
 _atom_site_label
 _atom_site_symmetry_multiplicity
 _atom_site_fract_x
 _atom_site_fract_y
 _atom_site_fract_z
 _atom_site_occupancy
  Yb  Yb0  1  0.757965  0.000000  0.738230  1
  Yb  Yb1  1  0.000000  0.242035  0.261770  1
  Yb  Yb2  1  0.757965  0.757965  0.261770  1
  Yb  Yb3  1  0.333333  0.666667  0.500000  1
  Yb  Yb4  1  0.333333  0.666667  0.000000  1
  Yb  Yb5  1  0.666667  0.333333  0.500000  1
  Yb  Yb6  1  0.666667  0.333333  0.000000  1
  Yb  Yb7  1  0.242035  0.000000  0.261770  1
  Yb  Yb8  1  0.242035  0.242035  0.738230  1
  Yb  Yb9  1  0.000000  0.757965  0.738230  1
  Bi  Bi10  1  0.401776  0.000000  0.751058  1
  Bi  Bi11  1  0.598224  0.000000  0.248942  1
  Bi  Bi12  1  0.000000  0.598224  0.248942  1
  Bi  Bi13  1  0.598224  0.598224  0.751058  1
  Bi  Bi14  1  0.000000  0.401776  0.751058  1
  Bi  Bi15  1  0.401776  0.401776  0.248942  1
  S  S16  1  0.000000  0.000000  0.500000  1
  Cl  Cl17  1  0.000000  0.000000  0.000000  1
