# generated using pymatgen
data_Y6TiAl23Ru8
_symmetry_space_group_name_H-M   'P 1'
_cell_length_a   8.84104600
_cell_length_b   8.84104513
_cell_length_c   9.57805400
_cell_angle_alpha   90.00000000
_cell_angle_beta   90.00000000
_cell_angle_gamma   119.99999579
_symmetry_Int_Tables_number   1
_chemical_formula_structural   Y6TiAl23Ru8
_chemical_formula_sum   'Y6 Ti1 Al23 Ru8'
_cell_volume   648.35847014
_cell_formula_units_Z   1
loop_
 _symmetry_equiv_pos_site_id
 _symmetry_equiv_pos_as_xyz
  1  'x, y, z'
loop_
 _atom_site_type_symbol
 _atom_site_label
 _atom_site_symmetry_multiplicity
 _atom_site_fract_x
 _atom_site_fract_y
 _atom_site_fract_z
 _atom_site_occupancy
  Y  Y0  1  0.193521  0.387041  0.250214  1
  Y  Y1  1  0.806980  0.613961  0.749116  1
  Y  Y2  1  0.612959  0.806479  0.250214  1
  Y  Y3  1  0.386039  0.193020  0.749116  1
  Y  Y4  1  0.193521  0.806479  0.250214  1
  Y  Y5  1  0.806980  0.193020  0.749116  1
  Ti  Ti6  1  0.333333  0.666667  0.994586  1
  Al  Al7  1  0.666667  0.333333  0.983135  1
  Al  Al8  1  0.666667  0.333333  0.514607  1
  Al  Al9  1  0.333333  0.666667  0.483959  1
  Al  Al10  1  0.161658  0.323316  0.576986  1
  Al  Al11  1  0.837955  0.675910  0.422824  1
  Al  Al12  1  0.676684  0.838342  0.576986  1
  Al  Al13  1  0.837464  0.674930  0.077833  1
  Al  Al14  1  0.324090  0.162045  0.422824  1
  Al  Al15  1  0.158866  0.317731  0.923832  1
  Al  Al16  1  0.161658  0.838342  0.576986  1
  Al  Al17  1  0.325070  0.162536  0.077833  1
  Al  Al18  1  0.837955  0.162045  0.422824  1
  Al  Al19  1  0.682269  0.841134  0.923832  1
  Al  Al20  1  0.837464  0.162536  0.077833  1
  Al  Al21  1  0.158866  0.841134  0.923832  1
  Al  Al22  1  0.561732  0.123466  0.252286  1
  Al  Al23  1  0.440026  0.880052  0.750266  1
  Al  Al24  1  0.876534  0.438268  0.252286  1
  Al  Al25  1  0.119948  0.559974  0.750266  1
  Al  Al26  1  0.561732  0.438268  0.252286  1
  Al  Al27  1  0.440026  0.559974  0.750266  1
  Al  Al28  1  0.000000  0.000000  0.249174  1
  Al  Al29  1  0.000000  0.000000  0.748797  1
  Ru  Ru30  1  0.498312  0.996623  0.002744  1
  Ru  Ru31  1  0.003377  0.501688  0.002744  1
  Ru  Ru32  1  0.499659  0.999318  0.503053  1
  Ru  Ru33  1  0.498312  0.501688  0.002744  1
  Ru  Ru34  1  0.000682  0.500341  0.503053  1
  Ru  Ru35  1  0.499659  0.500341  0.503053  1
  Ru  Ru36  1  0.000000  0.000000  0.999725  1
  Ru  Ru37  1  0.000000  0.000000  0.498559  1
