# generated using pymatgen
data_K6InBiAu10
_symmetry_space_group_name_H-M   'P 1'
_cell_length_a   11.26544772
_cell_length_b   11.26544746
_cell_length_c   11.26544737
_cell_angle_alpha   150.99362678
_cell_angle_beta   134.01901516
_cell_angle_gamma   55.28722566
_symmetry_Int_Tables_number   1
_chemical_formula_structural   K6InBiAu10
_chemical_formula_sum   'K6 In1 Bi1 Au10'
_cell_volume   495.52671970
_cell_formula_units_Z   1
loop_
 _symmetry_equiv_pos_site_id
 _symmetry_equiv_pos_as_xyz
  1  'x, y, z'
loop_
 _atom_site_type_symbol
 _atom_site_label
 _atom_site_symmetry_multiplicity
 _atom_site_fract_x
 _atom_site_fract_y
 _atom_site_fract_z
 _atom_site_occupancy
  K  K0  1  0.297746  0.916033  0.381714  1
  K  K1  1  0.036165  0.415318  0.620848  1
  K  K2  1  0.626420  0.250000  0.376420  1
  K  K3  1  0.371311  0.750000  0.621311  1
  K  K4  1  0.965682  0.583967  0.381714  1
  K  K5  1  0.705529  0.084682  0.620848  1
  In  In6  1  0.090707  0.250000  0.840707  1
  Bi  Bi7  1  0.917990  0.750000  0.167990  1
  Au  Au8  1  0.001690  0.999229  0.002461  1
  Au  Au9  1  0.503232  0.500771  0.002461  1
  Au  Au10  1  0.681905  0.682031  0.499525  1
  Au  Au11  1  0.681905  0.182380  0.999873  1
  Au  Au12  1  0.814460  0.854634  0.959826  1
  Au  Au13  1  0.388066  0.355528  0.032539  1
  Au  Au14  1  0.605192  0.645366  0.959826  1
  Au  Au15  1  0.177011  0.144472  0.032539  1
  Au  Au16  1  0.317494  0.817969  0.999873  1
  Au  Au17  1  0.317494  0.317620  0.499525  1
