# generated using pymatgen
data_Zr6Ga6Pd5Ru
_symmetry_space_group_name_H-M   'P 1'
_cell_length_a   7.32485200
_cell_length_b   7.32485121
_cell_length_c   6.86236200
_cell_angle_alpha   90.00000000
_cell_angle_beta   90.00000000
_cell_angle_gamma   119.99999574
_symmetry_Int_Tables_number   1
_chemical_formula_structural   Zr6Ga6Pd5Ru
_chemical_formula_sum   'Zr6 Ga6 Pd5 Ru1'
_cell_volume   318.86139061
_cell_formula_units_Z   1
loop_
 _symmetry_equiv_pos_site_id
 _symmetry_equiv_pos_as_xyz
  1  'x, y, z'
loop_
 _atom_site_type_symbol
 _atom_site_label
 _atom_site_symmetry_multiplicity
 _atom_site_fract_x
 _atom_site_fract_y
 _atom_site_fract_z
 _atom_site_occupancy
  Zr  Zr0  1  0.603071  0.602860  0.255734  1
  Zr  Zr1  1  0.017403  0.404682  0.744195  1
  Zr  Zr2  1  0.397140  0.000213  0.255734  1
  Zr  Zr3  1  0.999787  0.396929  0.255734  1
  Zr  Zr4  1  0.387279  0.982597  0.744195  1
  Zr  Zr5  1  0.595318  0.612721  0.744195  1
  Ga  Ga6  1  0.270031  0.268462  0.499120  1
  Ga  Ga7  1  0.731538  0.001568  0.499120  1
  Ga  Ga8  1  0.998432  0.729969  0.499120  1
  Ga  Ga9  1  0.729494  0.004584  0.999939  1
  Ga  Ga10  1  0.275090  0.270506  0.999939  1
  Ga  Ga11  1  0.995416  0.724910  0.999939  1
  Pd  Pd12  1  0.000000  0.000000  0.752595  1
  Pd  Pd13  1  0.000000  0.000000  0.245798  1
  Pd  Pd14  1  0.333333  0.666667  0.014101  1
  Pd  Pd15  1  0.666667  0.333333  0.515043  1
  Pd  Pd16  1  0.666667  0.333333  0.983257  1
  Ru  Ru17  1  0.333333  0.666667  0.492245  1
