# generated using pymatgen
data_Tb3TiGa2Rh3
_symmetry_space_group_name_H-M   'P 1'
_cell_length_a   6.89165200
_cell_length_b   7.11357020
_cell_length_c   4.12106900
_cell_angle_alpha   90.00000000
_cell_angle_beta   90.00000000
_cell_angle_gamma   118.97328548
_symmetry_Int_Tables_number   1
_chemical_formula_structural   Tb3TiGa2Rh3
_chemical_formula_sum   'Tb3 Ti1 Ga2 Rh3'
_cell_volume   176.74709624
_cell_formula_units_Z   1
loop_
 _symmetry_equiv_pos_site_id
 _symmetry_equiv_pos_as_xyz
  1  'x, y, z'
loop_
 _atom_site_type_symbol
 _atom_site_label
 _atom_site_symmetry_multiplicity
 _atom_site_fract_x
 _atom_site_fract_y
 _atom_site_fract_z
 _atom_site_occupancy
  Tb  Tb0  1  0.604086  0.000000  0.499999  1
  Tb  Tb1  1  0.418979  0.430346  0.499999  1
  Tb  Tb2  1  0.988633  0.569655  0.499999  1
  Ti  Ti3  1  0.229675  0.000000  0.000000  1
  Ga  Ga4  1  0.001928  0.244249  0.000000  1
  Ga  Ga5  1  0.757679  0.755751  0.000000  1
  Rh  Rh6  1  0.649016  0.319256  0.000000  1
  Rh  Rh7  1  0.329760  0.680744  0.000000  1
  Rh  Rh8  1  0.020245  0.000000  0.499999  1
