# generated using pymatgen
data_Dy5Ho9(ErBi2)6
_symmetry_space_group_name_H-M   'P 1'
_cell_length_a   8.23823374
_cell_length_b   9.50158914
_cell_length_c   12.00608501
_cell_angle_alpha   89.99204611
_cell_angle_beta   90.02230250
_cell_angle_gamma   90.00458755
_symmetry_Int_Tables_number   1
_chemical_formula_structural   Dy5Ho9(ErBi2)6
_chemical_formula_sum   'Dy5 Ho9 Er6 Bi12'
_cell_volume   939.79197619
_cell_formula_units_Z   1
loop_
 _symmetry_equiv_pos_site_id
 _symmetry_equiv_pos_as_xyz
  1  'x, y, z'
loop_
 _atom_site_type_symbol
 _atom_site_label
 _atom_site_symmetry_multiplicity
 _atom_site_fract_x
 _atom_site_fract_y
 _atom_site_fract_z
 _atom_site_occupancy
  Dy  Dy0  1  0.192267  0.563949  0.440958  1
  Dy  Dy1  1  0.312704  0.249999  0.218407  1
  Dy  Dy2  1  0.812869  0.249989  0.281602  1
  Dy  Dy3  1  0.687285  0.750061  0.781690  1
  Dy  Dy4  1  0.187488  0.750173  0.718564  1
  Ho  Ho5  1  0.353195  0.750352  0.216377  1
  Ho  Ho6  1  0.852523  0.750268  0.283318  1
  Ho  Ho7  1  0.647268  0.250058  0.783439  1
  Ho  Ho8  1  0.147281  0.250198  0.716528  1
  Ho  Ho9  1  0.692524  0.564912  0.059033  1
  Ho  Ho10  1  0.192551  0.935021  0.440823  1
  Ho  Ho11  1  0.307398  0.064814  0.940982  1
  Ho  Ho12  1  0.807619  0.434993  0.559031  1
  Ho  Ho13  1  0.307535  0.435148  0.940915  1
  Er  Er14  1  0.807157  0.064902  0.559248  1
  Er  Er15  1  0.692542  0.935092  0.059011  1
  Er  Er16  1  0.475978  0.250040  0.488454  1
  Er  Er17  1  0.975825  0.250132  0.011476  1
  Er  Er18  1  0.524389  0.750092  0.511591  1
  Er  Er19  1  0.024140  0.750032  0.988416  1
  Bi  Bi20  1  0.406001  0.750022  0.957858  1
  Bi  Bi21  1  0.905720  0.750428  0.542267  1
  Bi  Bi22  1  0.594097  0.249893  0.042100  1
  Bi  Bi23  1  0.093616  0.248672  0.458125  1
  Bi  Bi24  1  0.565480  0.995245  0.325825  1
  Bi  Bi25  1  0.065330  0.505001  0.173948  1
  Bi  Bi26  1  0.434546  0.495174  0.674233  1
  Bi  Bi27  1  0.934502  0.005062  0.825894  1
  Bi  Bi28  1  0.434604  0.005032  0.674167  1
  Bi  Bi29  1  0.934404  0.495134  0.825915  1
  Bi  Bi30  1  0.565770  0.504971  0.325774  1
  Bi  Bi31  1  0.065393  0.995139  0.174028  1
