# generated using pymatgen
data_Cs3Al2P3
_symmetry_space_group_name_H-M   'P 1'
_cell_length_a   6.05559900
_cell_length_b   8.10222819
_cell_length_c   10.88219609
_cell_angle_alpha   69.98130821
_cell_angle_beta   90.00000000
_cell_angle_gamma   90.00000000
_symmetry_Int_Tables_number   1
_chemical_formula_structural   Cs3Al2P3
_chemical_formula_sum   'Cs6 Al4 P6'
_cell_volume   501.66332104
_cell_formula_units_Z   2
loop_
 _symmetry_equiv_pos_site_id
 _symmetry_equiv_pos_as_xyz
  1  'x, y, z'
loop_
 _atom_site_type_symbol
 _atom_site_label
 _atom_site_symmetry_multiplicity
 _atom_site_fract_x
 _atom_site_fract_y
 _atom_site_fract_z
 _atom_site_occupancy
  Cs  Cs0  1  0.250000  0.436914  0.423352  1
  Cs  Cs1  1  0.750000  0.142331  0.916922  1
  Cs  Cs2  1  0.750000  0.473000  0.148375  1
  Cs  Cs3  1  0.250000  0.527000  0.851625  1
  Cs  Cs4  1  0.750000  0.563086  0.576648  1
  Cs  Cs5  1  0.250000  0.857669  0.083078  1
  Al  Al6  1  0.999721  0.022651  0.350703  1
  Al  Al7  1  0.499721  0.977349  0.649297  1
  Al  Al8  1  0.500279  0.022651  0.350703  1
  Al  Al9  1  0.000279  0.977349  0.649297  1
  P  P10  1  0.250000  0.837765  0.527906  1
  P  P11  1  0.750000  0.162235  0.472094  1
  P  P12  1  0.250000  0.216861  0.199839  1
  P  P13  1  0.750000  0.783139  0.800161  1
  P  P14  1  0.250000  0.134164  0.736717  1
  P  P15  1  0.750000  0.865836  0.263283  1
