# generated using pymatgen
data_GdHoCI
_symmetry_space_group_name_H-M   'P 1'
_cell_length_a   3.77022000
_cell_length_b   3.77021974
_cell_length_c   14.86222300
_cell_angle_alpha   90.00000000
_cell_angle_beta   90.00000000
_cell_angle_gamma   120.00000226
_symmetry_Int_Tables_number   1
_chemical_formula_structural   GdHoCI
_chemical_formula_sum   'Gd2 Ho2 C2 I2'
_cell_volume   182.95646114
_cell_formula_units_Z   2
loop_
 _symmetry_equiv_pos_site_id
 _symmetry_equiv_pos_as_xyz
  1  'x, y, z'
loop_
 _atom_site_type_symbol
 _atom_site_label
 _atom_site_symmetry_multiplicity
 _atom_site_fract_x
 _atom_site_fract_y
 _atom_site_fract_z
 _atom_site_occupancy
  Gd  Gd0  1  0.666667  0.333333  0.585256  1
  Gd  Gd1  1  0.333333  0.666667  0.085256  1
  Ho  Ho2  1  0.333333  0.666667  0.415251  1
  Ho  Ho3  1  0.666667  0.333333  0.915251  1
  C  C4  1  0.000000  0.000000  0.496869  1
  C  C5  1  0.000000  0.000000  0.996869  1
  I  I6  1  0.666667  0.333333  0.252624  1
  I  I7  1  0.333333  0.666667  0.752624  1
