# generated using pymatgen
data_Y2Ho8Ag3Pt
_symmetry_space_group_name_H-M   'P 1'
_cell_length_a   9.47783900
_cell_length_b   9.48828081
_cell_length_c   9.60032700
_cell_angle_alpha   90.00000000
_cell_angle_beta   90.00000000
_cell_angle_gamma   120.03644351
_symmetry_Int_Tables_number   1
_chemical_formula_structural   Y2Ho8Ag3Pt
_chemical_formula_sum   'Y4 Ho16 Ag6 Pt2'
_cell_volume   747.40140720
_cell_formula_units_Z   2
loop_
 _symmetry_equiv_pos_site_id
 _symmetry_equiv_pos_as_xyz
  1  'x, y, z'
loop_
 _atom_site_type_symbol
 _atom_site_label
 _atom_site_symmetry_multiplicity
 _atom_site_fract_x
 _atom_site_fract_y
 _atom_site_fract_z
 _atom_site_occupancy
  Y  Y0  1  0.914630  0.457315  0.250000  1
  Y  Y1  1  0.457976  0.541950  0.750000  1
  Y  Y2  1  0.457976  0.916027  0.750000  1
  Y  Y3  1  0.083660  0.541830  0.750000  1
  Ho  Ho4  1  0.000291  0.000146  0.499693  1
  Ho  Ho5  1  0.000291  0.000146  0.000307  1
  Ho  Ho6  1  0.207422  0.793374  0.443800  1
  Ho  Ho7  1  0.207422  0.414049  0.443800  1
  Ho  Ho8  1  0.586458  0.793229  0.443853  1
  Ho  Ho9  1  0.792563  0.206701  0.555356  1
  Ho  Ho10  1  0.792563  0.585863  0.555356  1
  Ho  Ho11  1  0.414451  0.207226  0.554735  1
  Ho  Ho12  1  0.792563  0.206701  0.944644  1
  Ho  Ho13  1  0.792563  0.585863  0.944644  1
  Ho  Ho14  1  0.414451  0.207226  0.945265  1
  Ho  Ho15  1  0.207422  0.793374  0.056200  1
  Ho  Ho16  1  0.207422  0.414049  0.056200  1
  Ho  Ho17  1  0.586458  0.793229  0.056147  1
  Ho  Ho18  1  0.541802  0.457334  0.250000  1
  Ho  Ho19  1  0.541802  0.084466  0.250000  1
  Ag  Ag20  1  0.882392  0.115103  0.250000  1
  Ag  Ag21  1  0.882392  0.767291  0.250000  1
  Ag  Ag22  1  0.234007  0.117004  0.250000  1
  Ag  Ag23  1  0.115785  0.884768  0.750000  1
  Ag  Ag24  1  0.115785  0.231014  0.750000  1
  Ag  Ag25  1  0.768985  0.884491  0.750000  1
  Pt  Pt26  1  0.333424  0.666712  0.250000  1
  Pt  Pt27  1  0.667042  0.333520  0.750000  1
