# generated using pymatgen
data_Nd6MgMn(Co4P3)4
_symmetry_space_group_name_H-M   'P 1'
_cell_length_a   3.78475700
_cell_length_b   10.72822300
_cell_length_c   12.47428400
_cell_angle_alpha   90.00000000
_cell_angle_beta   90.00000000
_cell_angle_gamma   90.00000000
_symmetry_Int_Tables_number   1
_chemical_formula_structural   Nd6MgMn(Co4P3)4
_chemical_formula_sum   'Nd6 Mg1 Mn1 Co16 P12'
_cell_volume   506.50229852
_cell_formula_units_Z   1
loop_
 _symmetry_equiv_pos_site_id
 _symmetry_equiv_pos_as_xyz
  1  'x, y, z'
loop_
 _atom_site_type_symbol
 _atom_site_label
 _atom_site_symmetry_multiplicity
 _atom_site_fract_x
 _atom_site_fract_y
 _atom_site_fract_z
 _atom_site_occupancy
  Nd  Nd0  1  0.000000  0.500000  0.521974  1
  Nd  Nd1  1  0.500000  0.000000  0.474264  1
  Nd  Nd2  1  0.500000  0.818122  0.205566  1
  Nd  Nd3  1  0.500000  0.181878  0.205566  1
  Nd  Nd4  1  0.000000  0.679676  0.793456  1
  Nd  Nd5  1  0.000000  0.320324  0.793456  1
  Mg  Mg6  1  0.000000  0.000000  0.848111  1
  Mn  Mn7  1  0.500000  0.500000  0.160593  1
  Co  Co8  1  0.500000  0.500000  0.705830  1
  Co  Co9  1  0.000000  0.000000  0.293940  1
  Co  Co10  1  0.000000  0.500000  0.989542  1
  Co  Co11  1  0.500000  0.000000  0.012889  1
  Co  Co12  1  0.500000  0.337040  0.999312  1
  Co  Co13  1  0.500000  0.662960  0.999312  1
  Co  Co14  1  0.000000  0.170679  0.006404  1
  Co  Co15  1  0.000000  0.829321  0.006404  1
  Co  Co16  1  0.500000  0.298095  0.428430  1
  Co  Co17  1  0.500000  0.701905  0.428430  1
  Co  Co18  1  0.000000  0.205107  0.566880  1
  Co  Co19  1  0.000000  0.794893  0.566880  1
  Co  Co20  1  0.500000  0.879182  0.704431  1
  Co  Co21  1  0.500000  0.120818  0.704431  1
  Co  Co22  1  0.000000  0.617576  0.289702  1
  Co  Co23  1  0.000000  0.382424  0.289702  1
  P  P24  1  0.500000  0.500000  0.887905  1
  P  P25  1  0.000000  0.000000  0.112922  1
  P  P26  1  0.500000  0.500000  0.343210  1
  P  P27  1  0.000000  0.000000  0.649994  1
  P  P28  1  0.500000  0.306569  0.612550  1
  P  P29  1  0.500000  0.693431  0.612550  1
  P  P30  1  0.000000  0.194962  0.384727  1
  P  P31  1  0.000000  0.805038  0.384727  1
  P  P32  1  0.500000  0.838814  0.900477  1
  P  P33  1  0.500000  0.161186  0.900477  1
  P  P34  1  0.000000  0.650157  0.107478  1
  P  P35  1  0.000000  0.349843  0.107478  1
