# generated using pymatgen
data_Cs11KIn(FeSe4)3
_symmetry_space_group_name_H-M   'P 1'
_cell_length_a   11.13445646
_cell_length_b   11.15113969
_cell_length_c   14.23788391
_cell_angle_alpha   89.57525553
_cell_angle_beta   89.83037440
_cell_angle_gamma   140.25960292
_symmetry_Int_Tables_number   1
_chemical_formula_structural   Cs11KIn(FeSe4)3
_chemical_formula_sum   'Cs11 K1 In1 Fe3 Se12'
_cell_volume   1130.03923359
_cell_formula_units_Z   1
loop_
 _symmetry_equiv_pos_site_id
 _symmetry_equiv_pos_as_xyz
  1  'x, y, z'
loop_
 _atom_site_type_symbol
 _atom_site_label
 _atom_site_symmetry_multiplicity
 _atom_site_fract_x
 _atom_site_fract_y
 _atom_site_fract_z
 _atom_site_occupancy
  Cs  Cs0  1  0.143716  0.144650  0.329772  1
  Cs  Cs1  1  0.646250  0.643990  0.170580  1
  Cs  Cs2  1  0.358205  0.356403  0.820471  1
  Cs  Cs3  1  0.161255  0.523540  0.131441  1
  Cs  Cs4  1  0.484866  0.839366  0.870115  1
  Cs  Cs5  1  0.979578  0.334975  0.628157  1
  Cs  Cs6  1  0.661524  0.012483  0.378785  1
  Cs  Cs7  1  0.834239  0.488272  0.873239  1
  Cs  Cs8  1  0.517020  0.164117  0.129745  1
  Cs  Cs9  1  0.010741  0.661338  0.374362  1
  Cs  Cs10  1  0.335239  0.982194  0.632132  1
  K  K11  1  0.837684  0.837304  0.651729  1
  In  In12  1  0.924427  0.087297  0.997671  1
  Fe  Fe13  1  0.413836  0.571173  0.503102  1
  Fe  Fe14  1  0.088887  0.923567  0.996981  1
  Fe  Fe15  1  0.571405  0.413364  0.503136  1
  Se  Se16  1  0.279381  0.279089  0.571756  1
  Se  Se17  1  0.694682  0.694056  0.427097  1
  Se  Se18  1  0.219915  0.204785  0.073420  1
  Se  Se19  1  0.818547  0.805979  0.910866  1
  Se  Se20  1  0.689021  0.987701  0.123398  1
  Se  Se21  1  0.021690  0.330265  0.880710  1
  Se  Se22  1  0.506015  0.785310  0.617802  1
  Se  Se23  1  0.206874  0.501000  0.391704  1
  Se  Se24  1  0.307143  0.006381  0.887991  1
  Se  Se25  1  0.001154  0.709205  0.113521  1
  Se  Se26  1  0.499566  0.205334  0.392604  1
  Se  Se27  1  0.787142  0.506864  0.617714  1
