# generated using pymatgen
data_ZrSc(Ga2Ni)2
_symmetry_space_group_name_H-M   'P 1'
_cell_length_a   5.24333966
_cell_length_b   5.24333969
_cell_length_c   6.37316300
_cell_angle_alpha   90.00000000
_cell_angle_beta   90.00000000
_cell_angle_gamma   134.22298568
_symmetry_Int_Tables_number   1
_chemical_formula_structural   ZrSc(Ga2Ni)2
_chemical_formula_sum   'Zr1 Sc1 Ga4 Ni2'
_cell_volume   125.56439852
_cell_formula_units_Z   1
loop_
 _symmetry_equiv_pos_site_id
 _symmetry_equiv_pos_as_xyz
  1  'x, y, z'
loop_
 _atom_site_type_symbol
 _atom_site_label
 _atom_site_symmetry_multiplicity
 _atom_site_fract_x
 _atom_site_fract_y
 _atom_site_fract_z
 _atom_site_occupancy
  Zr  Zr0  1  0.925408  0.074592  0.250000  1
  Sc  Sc1  1  0.075218  0.924782  0.750000  1
  Ga  Ga2  1  0.635141  0.364859  0.451172  1
  Ga  Ga3  1  0.364455  0.635545  0.548908  1
  Ga  Ga4  1  0.364455  0.635545  0.951092  1
  Ga  Ga5  1  0.635141  0.364859  0.048828  1
  Ni  Ni6  1  0.206258  0.793742  0.250000  1
  Ni  Ni7  1  0.793923  0.206077  0.750000  1
