# generated using pymatgen
data_GdSeBrO3
_symmetry_space_group_name_H-M   'P 1'
_cell_length_a   7.09097600
_cell_length_b   7.71755900
_cell_length_c   9.12616100
_cell_angle_alpha   90.00000000
_cell_angle_beta   90.00000000
_cell_angle_gamma   90.00000000
_symmetry_Int_Tables_number   1
_chemical_formula_structural   GdSeBrO3
_chemical_formula_sum   'Gd4 Se4 Br4 O12'
_cell_volume   499.42939479
_cell_formula_units_Z   4
loop_
 _symmetry_equiv_pos_site_id
 _symmetry_equiv_pos_as_xyz
  1  'x, y, z'
loop_
 _atom_site_type_symbol
 _atom_site_label
 _atom_site_symmetry_multiplicity
 _atom_site_fract_x
 _atom_site_fract_y
 _atom_site_fract_z
 _atom_site_occupancy
  Gd  Gd0  1  0.250000  0.893477  0.028096  1
  Gd  Gd1  1  0.750000  0.106523  0.971904  1
  Gd  Gd2  1  0.750000  0.606523  0.528096  1
  Gd  Gd3  1  0.250000  0.393477  0.471904  1
  Se  Se4  1  0.250000  0.781659  0.627117  1
  Se  Se5  1  0.750000  0.218341  0.372883  1
  Se  Se6  1  0.750000  0.718341  0.127117  1
  Se  Se7  1  0.250000  0.281659  0.872883  1
  Br  Br8  1  0.250000  0.555612  0.179163  1
  Br  Br9  1  0.750000  0.444388  0.820837  1
  Br  Br10  1  0.750000  0.944388  0.679163  1
  Br  Br11  1  0.250000  0.055612  0.320837  1
  O  O12  1  0.073499  0.637828  0.568156  1
  O  O13  1  0.926501  0.362172  0.431844  1
  O  O14  1  0.926501  0.862172  0.068156  1
  O  O15  1  0.573499  0.362172  0.431844  1
  O  O16  1  0.073499  0.137828  0.931844  1
  O  O17  1  0.426501  0.637828  0.568156  1
  O  O18  1  0.426501  0.137828  0.931844  1
  O  O19  1  0.573499  0.862172  0.068156  1
  O  O20  1  0.250000  0.754008  0.812172  1
  O  O21  1  0.750000  0.245992  0.187828  1
  O  O22  1  0.750000  0.745992  0.312172  1
  O  O23  1  0.250000  0.254008  0.687828  1
