# generated using pymatgen
data_Er10In8IrAu3
_symmetry_space_group_name_H-M   'P 1'
_cell_length_a   3.63907000
_cell_length_b   8.14060408
_cell_length_c   18.26282062
_cell_angle_alpha   90.00702486
_cell_angle_beta   90.00000000
_cell_angle_gamma   90.00000000
_symmetry_Int_Tables_number   1
_chemical_formula_structural   Er10In8IrAu3
_chemical_formula_sum   'Er10 In8 Ir1 Au3'
_cell_volume   541.02195942
_cell_formula_units_Z   1
loop_
 _symmetry_equiv_pos_site_id
 _symmetry_equiv_pos_as_xyz
  1  'x, y, z'
loop_
 _atom_site_type_symbol
 _atom_site_label
 _atom_site_symmetry_multiplicity
 _atom_site_fract_x
 _atom_site_fract_y
 _atom_site_fract_z
 _atom_site_occupancy
  Er  Er0  1  0.000000  0.502209  0.498106  1
  Er  Er1  1  0.000000  0.001970  0.001782  1
  Er  Er2  1  0.000000  0.722040  0.276884  1
  Er  Er3  1  0.000000  0.259379  0.718439  1
  Er  Er4  1  0.000000  0.761283  0.782851  1
  Er  Er5  1  0.000000  0.262115  0.217527  1
  Er  Er6  1  0.000000  0.614014  0.086596  1
  Er  Er7  1  0.000000  0.380516  0.920522  1
  Er  Er8  1  0.000000  0.881106  0.579700  1
  Er  Er9  1  0.000000  0.119227  0.418289  1
  In  In10  1  0.500000  0.710523  0.935719  1
  In  In11  1  0.500000  0.292272  0.068009  1
  In  In12  1  0.500000  0.790959  0.432058  1
  In  In13  1  0.500000  0.211808  0.565526  1
  In  In14  1  0.500000  0.579414  0.646034  1
  In  In15  1  0.500000  0.421743  0.351407  1
  In  In16  1  0.500000  0.919744  0.148330  1
  In  In17  1  0.500000  0.078488  0.854596  1
  Ir  Ir18  1  0.500000  0.524466  0.195414  1
  Au  Au19  1  0.500000  0.471536  0.803663  1
  Au  Au20  1  0.500000  0.970353  0.696708  1
  Au  Au21  1  0.500000  0.024837  0.301840  1
