# generated using pymatgen
data_TlB9O14
_symmetry_space_group_name_H-M   'P 1'
_cell_length_a   8.87847000
_cell_length_b   8.91616800
_cell_length_c   16.16464600
_cell_angle_alpha   90.00000000
_cell_angle_beta   90.00000000
_cell_angle_gamma   90.00000000
_symmetry_Int_Tables_number   1
_chemical_formula_structural   TlB9O14
_chemical_formula_sum   'Tl4 B36 O56'
_cell_volume   1279.62457679
_cell_formula_units_Z   4
loop_
 _symmetry_equiv_pos_site_id
 _symmetry_equiv_pos_as_xyz
  1  'x, y, z'
loop_
 _atom_site_type_symbol
 _atom_site_label
 _atom_site_symmetry_multiplicity
 _atom_site_fract_x
 _atom_site_fract_y
 _atom_site_fract_z
 _atom_site_occupancy
  Tl  Tl0  1  0.037991  0.000000  0.500000  1
  Tl  Tl1  1  0.500000  0.483769  0.250000  1
  Tl  Tl2  1  0.500000  0.516231  0.750000  1
  Tl  Tl3  1  0.962009  0.000000  0.000000  1
  B  B4  1  0.110091  0.436948  0.117385  1
  B  B5  1  0.638848  0.670111  0.561867  1
  B  B6  1  0.155579  0.356047  0.374377  1
  B  B7  1  0.320293  0.950360  0.185955  1
  B  B8  1  0.844421  0.643953  0.874377  1
  B  B9  1  0.679707  0.049640  0.685955  1
  B  B10  1  0.568867  0.824670  0.447496  1
  B  B11  1  0.919392  0.621948  0.137841  1
  B  B12  1  0.224406  0.140709  0.278288  1
  B  B13  1  0.844421  0.356047  0.125623  1
  B  B14  1  0.889909  0.563052  0.617385  1
  B  B15  1  0.224406  0.859291  0.721712  1
  B  B16  1  0.626247  0.282084  0.032936  1
  B  B17  1  0.183830  0.875263  0.306567  1
  B  B18  1  0.775594  0.140709  0.221712  1
  B  B19  1  0.361152  0.329889  0.061867  1
  B  B20  1  0.080608  0.621948  0.362159  1
  B  B21  1  0.568867  0.175330  0.552504  1
  B  B22  1  0.816170  0.875263  0.193433  1
  B  B23  1  0.431133  0.824670  0.052504  1
  B  B24  1  0.775594  0.859291  0.778288  1
  B  B25  1  0.080608  0.378052  0.637841  1
  B  B26  1  0.373753  0.282084  0.467064  1
  B  B27  1  0.638848  0.329889  0.438133  1
  B  B28  1  0.431133  0.175330  0.947496  1
  B  B29  1  0.320293  0.049640  0.814045  1
  B  B30  1  0.919392  0.378052  0.862159  1
  B  B31  1  0.110091  0.563052  0.882615  1
  B  B32  1  0.155579  0.643953  0.625623  1
  B  B33  1  0.361152  0.670111  0.938133  1
  B  B34  1  0.816170  0.124737  0.806567  1
  B  B35  1  0.183830  0.124737  0.693433  1
  B  B36  1  0.889909  0.436948  0.382615  1
  B  B37  1  0.626247  0.717916  0.967064  1
  B  B38  1  0.679707  0.950360  0.314045  1
  B  B39  1  0.373753  0.717916  0.532936  1
  O  O40  1  0.736279  0.586077  0.606390  1
  O  O41  1  0.581428  0.800313  0.036559  1
  O  O42  1  0.007388  0.325556  0.116507  1
  O  O43  1  0.929184  0.414151  0.630714  1
  O  O44  1  0.736279  0.413923  0.393610  1
  O  O45  1  0.227101  0.710129  0.551277  1
  O  O46  1  0.992612  0.325556  0.383493  1
  O  O47  1  0.298829  0.099216  0.205430  1
  O  O48  1  0.487139  0.651448  0.580779  1
  O  O49  1  0.772899  0.289871  0.051277  1
  O  O50  1  0.512861  0.348552  0.080779  1
  O  O51  1  0.772899  0.710129  0.948723  1
  O  O52  1  0.782669  0.285984  0.201747  1
  O  O53  1  0.680807  0.236863  0.503184  1
  O  O54  1  0.164285  0.974621  0.672816  1
  O  O55  1  0.728933  0.836780  0.261716  1
  O  O56  1  0.217331  0.285984  0.298253  1
  O  O57  1  0.809299  0.481907  0.866387  1
  O  O58  1  0.603214  0.919811  0.384553  1
  O  O59  1  0.319193  0.763137  0.003184  1
  O  O60  1  0.603214  0.080189  0.615447  1
  O  O61  1  0.835715  0.974621  0.827184  1
  O  O62  1  0.581428  0.199687  0.963441  1
  O  O63  1  0.007388  0.674444  0.883493  1
  O  O64  1  0.396786  0.919811  0.115447  1
  O  O65  1  0.396786  0.080189  0.884553  1
  O  O66  1  0.217331  0.714016  0.701747  1
  O  O67  1  0.070816  0.414151  0.869286  1
  O  O68  1  0.190701  0.518093  0.366387  1
  O  O69  1  0.929184  0.585849  0.369286  1
  O  O70  1  0.701171  0.900784  0.705430  1
  O  O71  1  0.319193  0.236863  0.996816  1
  O  O72  1  0.108376  0.225107  0.646665  1
  O  O73  1  0.891624  0.774893  0.146665  1
  O  O74  1  0.298829  0.900784  0.794570  1
  O  O75  1  0.108376  0.774893  0.353335  1
  O  O76  1  0.835715  0.025379  0.172816  1
  O  O77  1  0.263721  0.586077  0.893610  1
  O  O78  1  0.992612  0.674444  0.616507  1
  O  O79  1  0.891624  0.225107  0.853335  1
  O  O80  1  0.418572  0.199687  0.536559  1
  O  O81  1  0.512861  0.651448  0.919221  1
  O  O82  1  0.070816  0.585849  0.130714  1
  O  O83  1  0.271067  0.163220  0.761716  1
  O  O84  1  0.263721  0.413923  0.106390  1
  O  O85  1  0.782669  0.714016  0.798253  1
  O  O86  1  0.227101  0.289871  0.448723  1
  O  O87  1  0.271067  0.836780  0.238284  1
  O  O88  1  0.418572  0.800313  0.463441  1
  O  O89  1  0.809299  0.518093  0.133613  1
  O  O90  1  0.728933  0.163220  0.738284  1
  O  O91  1  0.164285  0.025379  0.327184  1
  O  O92  1  0.487139  0.348552  0.419221  1
  O  O93  1  0.190701  0.481907  0.633613  1
  O  O94  1  0.680807  0.763137  0.496816  1
  O  O95  1  0.701171  0.099216  0.294570  1
