# generated using pymatgen
data_Y3In3Ni2Au
_symmetry_space_group_name_H-M   'P 1'
_cell_length_a   7.75313100
_cell_length_b   7.75313127
_cell_length_c   3.68238200
_cell_angle_alpha   90.00000000
_cell_angle_beta   90.00000000
_cell_angle_gamma   119.99999460
_symmetry_Int_Tables_number   1
_chemical_formula_structural   Y3In3Ni2Au
_chemical_formula_sum   'Y3 In3 Ni2 Au1'
_cell_volume   191.69631006
_cell_formula_units_Z   1
loop_
 _symmetry_equiv_pos_site_id
 _symmetry_equiv_pos_as_xyz
  1  'x, y, z'
loop_
 _atom_site_type_symbol
 _atom_site_label
 _atom_site_symmetry_multiplicity
 _atom_site_fract_x
 _atom_site_fract_y
 _atom_site_fract_z
 _atom_site_occupancy
  Y  Y0  1  0.016774  0.600876  0.500000  1
  Y  Y1  1  0.584102  0.983226  0.500000  1
  Y  Y2  1  0.399124  0.415898  0.500000  1
  In  In3  1  0.003639  0.255001  0.000000  1
  In  In4  1  0.251362  0.996361  0.000000  1
  In  In5  1  0.744999  0.748638  0.000000  1
  Ni  Ni6  1  0.000000  0.000000  0.500000  1
  Ni  Ni7  1  0.333333  0.666667  0.000000  1
  Au  Au8  1  0.666667  0.333333  0.000000  1
