# generated using pymatgen
data_Li8Hf3ZrS12
_symmetry_space_group_name_H-M   'P 1'
_cell_length_a   6.39641572
_cell_length_b   6.39641499
_cell_length_c   12.31656233
_cell_angle_alpha   85.03572559
_cell_angle_beta   85.03572664
_cell_angle_gamma   120.01192249
_symmetry_Int_Tables_number   1
_chemical_formula_structural   Li8Hf3ZrS12
_chemical_formula_sum   'Li8 Hf3 Zr1 S12'
_cell_volume   429.76916805
_cell_formula_units_Z   1
loop_
 _symmetry_equiv_pos_site_id
 _symmetry_equiv_pos_as_xyz
  1  'x, y, z'
loop_
 _atom_site_type_symbol
 _atom_site_label
 _atom_site_symmetry_multiplicity
 _atom_site_fract_x
 _atom_site_fract_y
 _atom_site_fract_z
 _atom_site_occupancy
  Li  Li0  1  0.837251  0.669042  0.499616  1
  Li  Li1  1  0.330958  0.162749  0.000384  1
  Li  Li2  1  0.162651  0.330906  0.500333  1
  Li  Li3  1  0.669094  0.837349  0.999667  1
  Li  Li4  1  0.416958  0.583042  0.750000  1
  Li  Li5  1  0.583048  0.416952  0.250000  1
  Li  Li6  1  0.999931  0.499885  0.000024  1
  Li  Li7  1  0.500115  0.000069  0.499976  1
  Hf  Hf8  1  0.916647  0.083353  0.250000  1
  Hf  Hf9  1  0.749905  0.250095  0.750000  1
  Hf  Hf10  1  0.250125  0.749875  0.250000  1
  Zr  Zr11  1  0.083292  0.916708  0.750000  1
  S  S12  1  0.969141  0.802852  0.130051  1
  S  S13  1  0.197148  0.030859  0.369949  1
  S  S14  1  0.030533  0.199855  0.870852  1
  S  S15  1  0.800145  0.969467  0.629148  1
  S  S16  1  0.109890  0.620398  0.628915  1
  S  S17  1  0.379602  0.890110  0.871085  1
  S  S18  1  0.890436  0.376931  0.370074  1
  S  S19  1  0.623069  0.109564  0.129926  1
  S  S20  1  0.720291  0.539380  0.872580  1
  S  S21  1  0.460620  0.279709  0.627420  1
  S  S22  1  0.276434  0.457284  0.128412  1
  S  S23  1  0.542716  0.723566  0.371588  1
