# generated using pymatgen
data_Er2Lu2B12IrRh
_symmetry_space_group_name_H-M   'P 1'
_cell_length_a   3.60302100
_cell_length_b   9.09683116
_cell_length_c   11.43497197
_cell_angle_alpha   90.09551066
_cell_angle_beta   90.00000000
_cell_angle_gamma   90.00000000
_symmetry_Int_Tables_number   1
_chemical_formula_structural   Er2Lu2B12IrRh
_chemical_formula_sum   'Er4 Lu4 B24 Ir2 Rh2'
_cell_volume   374.79296340
_cell_formula_units_Z   2
loop_
 _symmetry_equiv_pos_site_id
 _symmetry_equiv_pos_as_xyz
  1  'x, y, z'
loop_
 _atom_site_type_symbol
 _atom_site_label
 _atom_site_symmetry_multiplicity
 _atom_site_fract_x
 _atom_site_fract_y
 _atom_site_fract_z
 _atom_site_occupancy
  Er  Er0  1  0.500000  0.322024  0.414162  1
  Er  Er1  1  0.500000  0.677976  0.585838  1
  Er  Er2  1  0.500000  0.179533  0.913047  1
  Er  Er3  1  0.500000  0.820467  0.086953  1
  Lu  Lu4  1  0.500000  0.445613  0.126793  1
  Lu  Lu5  1  0.500000  0.554387  0.873207  1
  Lu  Lu6  1  0.500000  0.056341  0.626082  1
  Lu  Lu7  1  0.500000  0.943659  0.373918  1
  B  B8  1  0.000000  0.106855  0.470938  1
  B  B9  1  0.000000  0.893145  0.529062  1
  B  B10  1  0.000000  0.393258  0.971159  1
  B  B11  1  0.000000  0.606742  0.028841  1
  B  B12  1  0.000000  0.132045  0.316863  1
  B  B13  1  0.000000  0.867955  0.683137  1
  B  B14  1  0.000000  0.367190  0.816771  1
  B  B15  1  0.000000  0.632810  0.183229  1
  B  B16  1  0.000000  0.054509  0.065479  1
  B  B17  1  0.000000  0.945491  0.934521  1
  B  B18  1  0.000000  0.445994  0.564898  1
  B  B19  1  0.000000  0.554006  0.435102  1
  B  B20  1  0.000000  0.482434  0.286371  1
  B  B21  1  0.000000  0.517566  0.713629  1
  B  B22  1  0.000000  0.017785  0.785912  1
  B  B23  1  0.000000  0.982215  0.214088  1
  B  B24  1  0.000000  0.251256  0.079220  1
  B  B25  1  0.000000  0.748744  0.920780  1
  B  B26  1  0.000000  0.249473  0.579344  1
  B  B27  1  0.000000  0.750527  0.420656  1
  B  B28  1  0.000000  0.295084  0.235791  1
  B  B29  1  0.000000  0.704916  0.764209  1
  B  B30  1  0.000000  0.205029  0.736045  1
  B  B31  1  0.000000  0.794971  0.263955  1
  Ir  Ir32  1  0.500000  0.139742  0.178716  1
  Ir  Ir33  1  0.500000  0.860258  0.821284  1
  Rh  Rh34  1  0.500000  0.359961  0.680045  1
  Rh  Rh35  1  0.500000  0.640039  0.319955  1
