# generated using pymatgen
data_HoLu3Al18Rh5Au
_symmetry_space_group_name_H-M   'P 1'
_cell_length_a   7.55914778
_cell_length_b   7.56054599
_cell_length_c   9.41262610
_cell_angle_alpha   89.95194609
_cell_angle_beta   89.98346543
_cell_angle_gamma   119.49453915
_symmetry_Int_Tables_number   1
_chemical_formula_structural   HoLu3Al18Rh5Au
_chemical_formula_sum   'Ho1 Lu3 Al18 Rh5 Au1'
_cell_volume   468.22726713
_cell_formula_units_Z   1
loop_
 _symmetry_equiv_pos_site_id
 _symmetry_equiv_pos_as_xyz
  1  'x, y, z'
loop_
 _atom_site_type_symbol
 _atom_site_label
 _atom_site_symmetry_multiplicity
 _atom_site_fract_x
 _atom_site_fract_y
 _atom_site_fract_z
 _atom_site_occupancy
  Ho  Ho0  1  0.995652  0.674437  0.250668  1
  Lu  Lu1  1  0.004294  0.325112  0.748916  1
  Lu  Lu2  1  0.674594  0.995849  0.251059  1
  Lu  Lu3  1  0.325424  0.004488  0.748939  1
  Al  Al4  1  0.135011  0.135430  0.256943  1
  Al  Al5  1  0.865020  0.865289  0.743233  1
  Al  Al6  1  0.000539  0.343557  0.079419  1
  Al  Al7  1  0.999567  0.655497  0.918909  1
  Al  Al8  1  0.001192  0.663837  0.576090  1
  Al  Al9  1  0.336902  0.999620  0.425512  1
  Al  Al10  1  0.998790  0.335412  0.425536  1
  Al  Al11  1  0.663860  0.001194  0.575325  1
  Al  Al12  1  0.655748  0.999588  0.919683  1
  Al  Al13  1  0.345213  0.001203  0.079558  1
  Al  Al14  1  0.332519  0.332595  0.553743  1
  Al  Al15  1  0.666817  0.667481  0.447412  1
  Al  Al16  1  0.657999  0.658713  0.058220  1
  Al  Al17  1  0.341192  0.341203  0.940672  1
  Al  Al18  1  0.339654  0.552296  0.251381  1
  Al  Al19  1  0.660699  0.447485  0.748652  1
  Al  Al20  1  0.551576  0.338500  0.251344  1
  Al  Al21  1  0.447608  0.660955  0.748669  1
  Rh  Rh22  1  0.672043  0.327706  0.999730  1
  Rh  Rh23  1  0.327956  0.672169  0.999739  1
  Rh  Rh24  1  0.327803  0.672210  0.500215  1
  Rh  Rh25  1  0.672112  0.327642  0.500307  1
  Rh  Rh26  1  0.000154  0.000375  0.500345  1
  Au  Au27  1  0.000062  0.000156  0.999779  1
