# generated using pymatgen
data_Tb6LuCo17P12
_symmetry_space_group_name_H-M   'P 1'
_cell_length_a   3.73419800
_cell_length_b   10.62727200
_cell_length_c   12.38624700
_cell_angle_alpha   90.00000000
_cell_angle_beta   90.00000000
_cell_angle_gamma   90.00000000
_symmetry_Int_Tables_number   1
_chemical_formula_structural   Tb6LuCo17P12
_chemical_formula_sum   'Tb6 Lu1 Co17 P12'
_cell_volume   491.54001061
_cell_formula_units_Z   1
loop_
 _symmetry_equiv_pos_site_id
 _symmetry_equiv_pos_as_xyz
  1  'x, y, z'
loop_
 _atom_site_type_symbol
 _atom_site_label
 _atom_site_symmetry_multiplicity
 _atom_site_fract_x
 _atom_site_fract_y
 _atom_site_fract_z
 _atom_site_occupancy
  Tb  Tb0  1  0.000000  0.500000  0.530745  1
  Tb  Tb1  1  0.500000  0.000000  0.477893  1
  Tb  Tb2  1  0.500000  0.822102  0.207764  1
  Tb  Tb3  1  0.500000  0.177898  0.207764  1
  Tb  Tb4  1  0.000000  0.683371  0.795411  1
  Tb  Tb5  1  0.000000  0.316629  0.795411  1
  Lu  Lu6  1  0.500000  0.500000  0.153941  1
  Co  Co7  1  0.000000  0.000000  0.835661  1
  Co  Co8  1  0.500000  0.500000  0.703330  1
  Co  Co9  1  0.000000  0.000000  0.295289  1
  Co  Co10  1  0.000000  0.500000  0.982237  1
  Co  Co11  1  0.500000  0.000000  0.012710  1
  Co  Co12  1  0.500000  0.324714  0.987161  1
  Co  Co13  1  0.500000  0.675286  0.987161  1
  Co  Co14  1  0.000000  0.159843  0.999362  1
  Co  Co15  1  0.000000  0.840157  0.999362  1
  Co  Co16  1  0.500000  0.293341  0.435886  1
  Co  Co17  1  0.500000  0.706659  0.435886  1
  Co  Co18  1  0.000000  0.201043  0.571129  1
  Co  Co19  1  0.000000  0.798957  0.571129  1
  Co  Co20  1  0.500000  0.881166  0.707589  1
  Co  Co21  1  0.500000  0.118834  0.707589  1
  Co  Co22  1  0.000000  0.622269  0.302440  1
  Co  Co23  1  0.000000  0.377731  0.302440  1
  P  P24  1  0.500000  0.500000  0.882354  1
  P  P25  1  0.000000  0.000000  0.115326  1
  P  P26  1  0.500000  0.500000  0.362973  1
  P  P27  1  0.000000  0.000000  0.654883  1
  P  P28  1  0.500000  0.307310  0.618207  1
  P  P29  1  0.500000  0.692690  0.618207  1
  P  P30  1  0.000000  0.188846  0.387552  1
  P  P31  1  0.000000  0.811154  0.387552  1
  P  P32  1  0.500000  0.853717  0.887750  1
  P  P33  1  0.500000  0.146283  0.887750  1
  P  P34  1  0.000000  0.667249  0.096078  1
  P  P35  1  0.000000  0.332751  0.096078  1
