# generated using pymatgen
data_Lu12Co4SnRh
_symmetry_space_group_name_H-M   'P 1'
_cell_length_a   8.10280356
_cell_length_b   8.10280385
_cell_length_c   8.10280292
_cell_angle_alpha   111.15275408
_cell_angle_beta   110.99496481
_cell_angle_gamma   106.31144725
_symmetry_Int_Tables_number   1
_chemical_formula_structural   Lu12Co4SnRh
_chemical_formula_sum   'Lu12 Co4 Sn1 Rh1'
_cell_volume   408.59999838
_cell_formula_units_Z   1
loop_
 _symmetry_equiv_pos_site_id
 _symmetry_equiv_pos_as_xyz
  1  'x, y, z'
loop_
 _atom_site_type_symbol
 _atom_site_label
 _atom_site_symmetry_multiplicity
 _atom_site_fract_x
 _atom_site_fract_y
 _atom_site_fract_z
 _atom_site_occupancy
  Lu  Lu0  1  0.415756  0.220627  0.195128  1
  Lu  Lu1  1  0.584244  0.779373  0.804872  1
  Lu  Lu2  1  0.025499  0.220627  0.804872  1
  Lu  Lu3  1  0.974501  0.779373  0.195128  1
  Lu  Lu4  1  0.183589  0.283339  0.466929  1
  Lu  Lu5  1  0.816411  0.716661  0.533071  1
  Lu  Lu6  1  0.183589  0.716661  0.900249  1
  Lu  Lu7  1  0.816411  0.283339  0.099751  1
  Lu  Lu8  1  0.316453  0.624257  0.307804  1
  Lu  Lu9  1  0.683547  0.375743  0.692196  1
  Lu  Lu10  1  0.316453  0.008649  0.692196  1
  Lu  Lu11  1  0.683547  0.991351  0.307804  1
  Co  Co12  1  0.367920  0.000000  0.367920  1
  Co  Co13  1  0.632080  0.000000  0.632080  1
  Co  Co14  1  0.113456  0.613456  0.500000  1
  Co  Co15  1  0.886544  0.386544  0.500000  1
  Sn  Sn16  1  0.500000  0.500000  0.000000  1
  Rh  Rh17  1  0.000000  0.000000  0.000000  1
