# generated using pymatgen
data_Zr8Ga15Ir7
_symmetry_space_group_name_H-M   'P 1'
_cell_length_a   8.94840265
_cell_length_b   8.94840162
_cell_length_c   8.94819884
_cell_angle_alpha   120.69597641
_cell_angle_beta   119.67831154
_cell_angle_gamma   89.67975755
_symmetry_Int_Tables_number   1
_chemical_formula_structural   Zr8Ga15Ir7
_chemical_formula_sum   'Zr8 Ga15 Ir7'
_cell_volume   505.15641820
_cell_formula_units_Z   1
loop_
 _symmetry_equiv_pos_site_id
 _symmetry_equiv_pos_as_xyz
  1  'x, y, z'
loop_
 _atom_site_type_symbol
 _atom_site_label
 _atom_site_symmetry_multiplicity
 _atom_site_fract_x
 _atom_site_fract_y
 _atom_site_fract_z
 _atom_site_occupancy
  Zr  Zr0  1  0.801762  0.290269  0.076304  1
  Zr  Zr1  1  0.213963  0.290269  0.488508  1
  Zr  Zr2  1  0.195344  0.695344  0.500000  1
  Zr  Zr3  1  0.213965  0.725457  0.923696  1
  Zr  Zr4  1  0.801763  0.725456  0.511492  1
  Zr  Zr5  1  0.774612  0.274612  0.500000  1
  Zr  Zr6  1  0.377844  0.121372  0.743528  1
  Zr  Zr7  1  0.377844  0.634315  0.256472  1
  Ga  Ga8  1  0.985034  0.485034  0.500000  1
  Ga  Ga9  1  0.157559  0.341841  0.184281  1
  Ga  Ga10  1  0.157559  0.973277  0.815719  1
  Ga  Ga11  1  0.150078  0.351181  0.798898  1
  Ga  Ga12  1  0.552282  0.351180  0.201102  1
  Ga  Ga13  1  0.844305  0.653018  0.808714  1
  Ga  Ga14  1  0.844305  0.035591  0.191286  1
  Ga  Ga15  1  0.843534  0.654915  0.188618  1
  Ga  Ga16  1  0.466296  0.654916  0.811382  1
  Ga  Ga17  1  0.377070  0.124521  0.252550  1
  Ga  Ga18  1  0.871972  0.124520  0.747450  1
  Ga  Ga19  1  0.620877  0.868065  0.247189  1
  Ga  Ga20  1  0.620875  0.373688  0.752811  1
  Ga  Ga21  1  0.614416  0.875839  0.738578  1
  Ga  Ga22  1  0.137261  0.875838  0.261422  1
  Ir  Ir23  1  0.998145  0.000618  0.502210  1
  Ir  Ir24  1  0.498408  0.000619  0.002473  1
  Ir  Ir25  1  0.498045  0.498045  0.000000  1
  Ir  Ir26  1  0.498408  0.495936  0.497790  1
  Ir  Ir27  1  0.998145  0.495935  0.997527  1
  Ir  Ir28  1  0.998970  0.998970  0.000000  1
  Ir  Ir29  1  0.509353  0.009353  0.500000  1
