# generated using pymatgen
data_Hf2Co3Cu3Pt
_symmetry_space_group_name_H-M   'P 1'
_cell_length_a   4.76991716
_cell_length_b   4.77336972
_cell_length_c   6.51465684
_cell_angle_alpha   83.07564518
_cell_angle_beta   74.43470862
_cell_angle_gamma   59.87211719
_symmetry_Int_Tables_number   1
_chemical_formula_structural   Hf2Co3Cu3Pt
_chemical_formula_sum   'Hf2 Co3 Cu3 Pt1'
_cell_volume   123.56842746
_cell_formula_units_Z   1
loop_
 _symmetry_equiv_pos_site_id
 _symmetry_equiv_pos_as_xyz
  1  'x, y, z'
loop_
 _atom_site_type_symbol
 _atom_site_label
 _atom_site_symmetry_multiplicity
 _atom_site_fract_x
 _atom_site_fract_y
 _atom_site_fract_z
 _atom_site_occupancy
  Hf  Hf0  1  0.098922  0.993642  0.252930  1
  Hf  Hf1  1  0.902581  0.003287  0.750915  1
  Co  Co2  1  0.500767  0.497796  0.496232  1
  Co  Co3  1  0.004293  0.500412  0.494705  1
  Co  Co4  1  0.499804  0.002166  0.494596  1
  Cu  Cu5  1  0.206138  0.333291  0.844918  1
  Cu  Cu6  1  0.465324  0.316839  0.157829  1
  Cu  Cu7  1  0.795432  0.670010  0.158211  1
  Pt  Pt8  1  0.526740  0.682556  0.849666  1
