# generated using pymatgen
data_Th8Ta5Ti7Si16
_symmetry_space_group_name_H-M   'P 1'
_cell_length_a   7.17628212
_cell_length_b   7.17226252
_cell_length_c   13.33006125
_cell_angle_alpha   89.98789731
_cell_angle_beta   90.04821782
_cell_angle_gamma   89.95793081
_symmetry_Int_Tables_number   1
_chemical_formula_structural   Th8Ta5Ti7Si16
_chemical_formula_sum   'Th8 Ta5 Ti7 Si16'
_cell_volume   686.10019956
_cell_formula_units_Z   1
loop_
 _symmetry_equiv_pos_site_id
 _symmetry_equiv_pos_as_xyz
  1  'x, y, z'
loop_
 _atom_site_type_symbol
 _atom_site_label
 _atom_site_symmetry_multiplicity
 _atom_site_fract_x
 _atom_site_fract_y
 _atom_site_fract_z
 _atom_site_occupancy
  Th  Th0  1  0.338058  0.001931  0.468426  1
  Th  Th1  1  0.498151  0.837990  0.718552  1
  Th  Th2  1  0.501722  0.161983  0.218631  1
  Th  Th3  1  0.837899  0.497865  0.281486  1
  Th  Th4  1  0.162372  0.502460  0.781670  1
  Th  Th5  1  0.661676  0.998183  0.968444  1
  Th  Th6  1  0.001961  0.337991  0.531625  1
  Th  Th7  1  0.997706  0.662058  0.031632  1
  Ta  Ta8  1  0.328695  0.328270  0.999442  1
  Ta  Ta9  1  0.171000  0.829002  0.249810  1
  Ta  Ta10  1  0.830230  0.170677  0.750278  1
  Ta  Ta11  1  0.671581  0.671079  0.499900  1
  Ta  Ta12  1  0.158347  0.006399  0.876506  1
  Ti  Ti13  1  0.491982  0.659171  0.126404  1
  Ti  Ti14  1  0.506608  0.341089  0.626655  1
  Ti  Ti15  1  0.658950  0.492621  0.873570  1
  Ti  Ti16  1  0.341052  0.507515  0.373806  1
  Ti  Ti17  1  0.840877  0.992553  0.376343  1
  Ti  Ti18  1  0.007075  0.158281  0.123779  1
  Ti  Ti19  1  0.992575  0.840533  0.623788  1
  Si  Si20  1  0.197651  0.124036  0.686351  1
  Si  Si21  1  0.377002  0.697810  0.936886  1
  Si  Si22  1  0.623778  0.302639  0.437102  1
  Si  Si23  1  0.696898  0.376118  0.062972  1
  Si  Si24  1  0.303249  0.623544  0.562874  1
  Si  Si25  1  0.803188  0.876467  0.187040  1
  Si  Si26  1  0.123962  0.196910  0.312861  1
  Si  Si27  1  0.874841  0.802119  0.813116  1
  Si  Si28  1  0.288330  0.958535  0.065482  1
  Si  Si29  1  0.541184  0.787861  0.315141  1
  Si  Si30  1  0.459420  0.213289  0.814647  1
  Si  Si31  1  0.787817  0.541209  0.684740  1
  Si  Si32  1  0.212550  0.458620  0.184932  1
  Si  Si33  1  0.712822  0.041348  0.564903  1
  Si  Si34  1  0.957591  0.289352  0.935326  1
  Si  Si35  1  0.041202  0.712492  0.434877  1
