# generated using pymatgen
data_GdHo2(InAg)3
_symmetry_space_group_name_H-M   'P 1'
_cell_length_a   7.84371800
_cell_length_b   7.84371835
_cell_length_c   3.96876500
_cell_angle_alpha   90.00000000
_cell_angle_beta   90.00000000
_cell_angle_gamma   120.20993315
_symmetry_Int_Tables_number   1
_chemical_formula_structural   GdHo2(InAg)3
_chemical_formula_sum   'Gd1 Ho2 In3 Ag3'
_cell_volume   211.01210403
_cell_formula_units_Z   1
loop_
 _symmetry_equiv_pos_site_id
 _symmetry_equiv_pos_as_xyz
  1  'x, y, z'
loop_
 _atom_site_type_symbol
 _atom_site_label
 _atom_site_symmetry_multiplicity
 _atom_site_fract_x
 _atom_site_fract_y
 _atom_site_fract_z
 _atom_site_occupancy
  Gd  Gd0  1  0.595888  0.595888  0.500000  1
  Ho  Ho1  1  0.403700  0.999855  0.500000  1
  Ho  Ho2  1  0.999855  0.403700  0.500000  1
  In  In3  1  0.738022  0.000528  0.000000  1
  In  In4  1  0.000528  0.738022  0.000000  1
  In  In5  1  0.262104  0.262104  0.000000  1
  Ag  Ag6  1  0.331038  0.667335  0.000000  1
  Ag  Ag7  1  0.667335  0.331038  0.000000  1
  Ag  Ag8  1  0.001529  0.001529  0.500000  1
