# generated using pymatgen
data_Cs2Dy(PdO2)3
_symmetry_space_group_name_H-M   'P 1'
_cell_length_a   10.16721466
_cell_length_b   8.88230955
_cell_length_c   8.01474062
_cell_angle_alpha   73.78456862
_cell_angle_beta   57.02084852
_cell_angle_gamma   49.19457238
_symmetry_Int_Tables_number   1
_chemical_formula_structural   Cs2Dy(PdO2)3
_chemical_formula_sum   'Cs4 Dy2 Pd6 O12'
_cell_volume   456.24332857
_cell_formula_units_Z   2
loop_
 _symmetry_equiv_pos_site_id
 _symmetry_equiv_pos_as_xyz
  1  'x, y, z'
loop_
 _atom_site_type_symbol
 _atom_site_label
 _atom_site_symmetry_multiplicity
 _atom_site_fract_x
 _atom_site_fract_y
 _atom_site_fract_z
 _atom_site_occupancy
  Cs  Cs0  1  0.750000  0.750000  0.750000  1
  Cs  Cs1  1  0.250000  0.250000  0.250000  1
  Cs  Cs2  1  0.222389  0.777611  0.222389  1
  Cs  Cs3  1  0.777611  0.222389  0.777611  1
  Dy  Dy4  1  0.669988  0.669988  0.330012  1
  Dy  Dy5  1  0.330012  0.330012  0.669988  1
  Pd  Pd6  1  0.688964  0.005371  0.311036  1
  Pd  Pd7  1  0.994629  0.311036  0.005371  1
  Pd  Pd8  1  0.005371  0.688964  0.994629  1
  Pd  Pd9  1  0.311036  0.994629  0.688964  1
  Pd  Pd10  1  0.322063  0.677937  0.677937  1
  Pd  Pd11  1  0.677937  0.322063  0.322063  1
  O  O12  1  0.309730  0.482807  0.883872  1
  O  O13  1  0.323592  0.883872  0.482807  1
  O  O14  1  0.883872  0.323592  0.309730  1
  O  O15  1  0.482807  0.309730  0.323592  1
  O  O16  1  0.690270  0.517193  0.116128  1
  O  O17  1  0.676408  0.116128  0.517193  1
  O  O18  1  0.701916  0.894467  0.105533  1
  O  O19  1  0.517193  0.690270  0.676408  1
  O  O20  1  0.894467  0.701916  0.298084  1
  O  O21  1  0.105533  0.298084  0.701916  1
  O  O22  1  0.298084  0.105533  0.894467  1
  O  O23  1  0.116128  0.676408  0.690270  1
