# generated using pymatgen
data_Ho2Er2TcB12Rh
_symmetry_space_group_name_H-M   'P 1'
_cell_length_a   3.66113200
_cell_length_b   9.11242715
_cell_length_c   11.50083500
_cell_angle_alpha   90.36882631
_cell_angle_beta   90.00000000
_cell_angle_gamma   90.00000000
_symmetry_Int_Tables_number   1
_chemical_formula_structural   Ho2Er2TcB12Rh
_chemical_formula_sum   'Ho4 Er4 Tc2 B24 Rh2'
_cell_volume   383.68059172
_cell_formula_units_Z   2
loop_
 _symmetry_equiv_pos_site_id
 _symmetry_equiv_pos_as_xyz
  1  'x, y, z'
loop_
 _atom_site_type_symbol
 _atom_site_label
 _atom_site_symmetry_multiplicity
 _atom_site_fract_x
 _atom_site_fract_y
 _atom_site_fract_z
 _atom_site_occupancy
  Ho  Ho0  1  0.500000  0.318727  0.410984  1
  Ho  Ho1  1  0.500000  0.681273  0.589016  1
  Ho  Ho2  1  0.500000  0.173485  0.917045  1
  Ho  Ho3  1  0.500000  0.826515  0.082955  1
  Er  Er4  1  0.500000  0.442033  0.126720  1
  Er  Er5  1  0.500000  0.557967  0.873280  1
  Er  Er6  1  0.500000  0.053795  0.628429  1
  Er  Er7  1  0.500000  0.946205  0.371571  1
  Tc  Tc8  1  0.500000  0.139344  0.180023  1
  Tc  Tc9  1  0.500000  0.860656  0.819977  1
  B  B10  1  0.000000  0.107496  0.471122  1
  B  B11  1  0.000000  0.892504  0.528878  1
  B  B12  1  0.000000  0.393762  0.970441  1
  B  B13  1  0.000000  0.606238  0.029559  1
  B  B14  1  0.000000  0.132311  0.314961  1
  B  B15  1  0.000000  0.867689  0.685039  1
  B  B16  1  0.000000  0.367487  0.816533  1
  B  B17  1  0.000000  0.632513  0.183467  1
  B  B18  1  0.000000  0.053219  0.067428  1
  B  B19  1  0.000000  0.946781  0.932572  1
  B  B20  1  0.000000  0.445538  0.565920  1
  B  B21  1  0.000000  0.554462  0.434080  1
  B  B22  1  0.000000  0.483543  0.287563  1
  B  B23  1  0.000000  0.516457  0.712437  1
  B  B24  1  0.000000  0.016657  0.786836  1
  B  B25  1  0.000000  0.983343  0.213164  1
  B  B26  1  0.000000  0.248564  0.081137  1
  B  B27  1  0.000000  0.751436  0.918863  1
  B  B28  1  0.000000  0.250496  0.578747  1
  B  B29  1  0.000000  0.749504  0.421253  1
  B  B30  1  0.000000  0.293161  0.234672  1
  B  B31  1  0.000000  0.706839  0.765328  1
  B  B32  1  0.000000  0.208068  0.734757  1
  B  B33  1  0.000000  0.791932  0.265243  1
  Rh  Rh34  1  0.500000  0.361635  0.678583  1
  Rh  Rh35  1  0.500000  0.638365  0.321417  1
