# generated using pymatgen
data_YHfSbRh5
_symmetry_space_group_name_H-M   'P 1'
_cell_length_a   4.20194200
_cell_length_b   5.72394852
_cell_length_c   11.27676294
_cell_angle_alpha   89.77203294
_cell_angle_beta   90.00000000
_cell_angle_gamma   90.00000000
_symmetry_Int_Tables_number   1
_chemical_formula_structural   YHfSbRh5
_chemical_formula_sum   'Y2 Hf2 Sb2 Rh10'
_cell_volume   271.22316883
_cell_formula_units_Z   2
loop_
 _symmetry_equiv_pos_site_id
 _symmetry_equiv_pos_as_xyz
  1  'x, y, z'
loop_
 _atom_site_type_symbol
 _atom_site_label
 _atom_site_symmetry_multiplicity
 _atom_site_fract_x
 _atom_site_fract_y
 _atom_site_fract_z
 _atom_site_occupancy
  Y  Y0  1  0.500000  0.178759  0.643353  1
  Y  Y1  1  0.500000  0.821241  0.356647  1
  Hf  Hf2  1  0.500000  0.672763  0.857439  1
  Hf  Hf3  1  0.500000  0.327237  0.142561  1
  Sb  Sb4  1  0.000000  0.500000  0.500000  1
  Sb  Sb5  1  0.000000  0.000000  0.000000  1
  Rh  Rh6  1  0.500000  0.200961  0.897579  1
  Rh  Rh7  1  0.500000  0.799039  0.102421  1
  Rh  Rh8  1  0.500000  0.691387  0.618862  1
  Rh  Rh9  1  0.500000  0.308613  0.381138  1
  Rh  Rh10  1  0.000000  0.440464  0.754622  1
  Rh  Rh11  1  0.000000  0.559536  0.245378  1
  Rh  Rh12  1  0.000000  0.000000  0.500000  1
  Rh  Rh13  1  0.000000  0.500000  0.000000  1
  Rh  Rh14  1  0.000000  0.071693  0.237680  1
  Rh  Rh15  1  0.000000  0.928307  0.762320  1
