# generated using pymatgen
data_Cs6HfWSe8
_symmetry_space_group_name_H-M   'P 1'
_cell_length_a   10.51999000
_cell_length_b   10.66588500
_cell_length_c   12.02438000
_cell_angle_alpha   90.00000000
_cell_angle_beta   90.00000000
_cell_angle_gamma   90.00000000
_symmetry_Int_Tables_number   1
_chemical_formula_structural   Cs6HfWSe8
_chemical_formula_sum   'Cs12 Hf2 W2 Se16'
_cell_volume   1349.19560048
_cell_formula_units_Z   2
loop_
 _symmetry_equiv_pos_site_id
 _symmetry_equiv_pos_as_xyz
  1  'x, y, z'
loop_
 _atom_site_type_symbol
 _atom_site_label
 _atom_site_symmetry_multiplicity
 _atom_site_fract_x
 _atom_site_fract_y
 _atom_site_fract_z
 _atom_site_occupancy
  Cs  Cs0  1  0.549356  0.206883  0.054880  1
  Cs  Cs1  1  0.049356  0.293117  0.445120  1
  Cs  Cs2  1  0.452692  0.795411  0.528100  1
  Cs  Cs3  1  0.952692  0.704589  0.971900  1
  Cs  Cs4  1  0.452692  0.795411  0.971900  1
  Cs  Cs5  1  0.952692  0.704589  0.528100  1
  Cs  Cs6  1  0.549356  0.206883  0.445120  1
  Cs  Cs7  1  0.049356  0.293117  0.054880  1
  Cs  Cs8  1  0.644928  0.426266  0.750000  1
  Cs  Cs9  1  0.144928  0.073734  0.750000  1
  Cs  Cs10  1  0.357574  0.583725  0.250000  1
  Cs  Cs11  1  0.857574  0.916275  0.250000  1
  Hf  Hf12  1  0.273394  0.019272  0.250000  1
  Hf  Hf13  1  0.773394  0.480728  0.250000  1
  W  W14  1  0.721192  0.986297  0.750000  1
  W  W15  1  0.221192  0.513703  0.750000  1
  Se  Se16  1  0.831452  0.050242  0.591565  1
  Se  Se17  1  0.331452  0.449758  0.908435  1
  Se  Se18  1  0.160270  0.957870  0.071503  1
  Se  Se19  1  0.660270  0.542130  0.428497  1
  Se  Se20  1  0.160270  0.957870  0.428497  1
  Se  Se21  1  0.660270  0.542130  0.071503  1
  Se  Se22  1  0.831452  0.050242  0.908435  1
  Se  Se23  1  0.331452  0.449758  0.591565  1
  Se  Se24  1  0.515626  0.074054  0.750000  1
  Se  Se25  1  0.015626  0.425946  0.750000  1
  Se  Se26  1  0.493522  0.924913  0.250000  1
  Se  Se27  1  0.993522  0.575087  0.250000  1
  Se  Se28  1  0.708195  0.766949  0.750000  1
  Se  Se29  1  0.208195  0.733051  0.750000  1
  Se  Se30  1  0.298029  0.254693  0.250000  1
  Se  Se31  1  0.798029  0.245307  0.250000  1
