# generated using pymatgen
data_Li2Y5Se7
_symmetry_space_group_name_H-M   'P 1'
_cell_length_a   7.04084917
_cell_length_b   7.02651926
_cell_length_c   7.02026000
_cell_angle_alpha   99.72123722
_cell_angle_beta   99.36364745
_cell_angle_gamma   99.33444914
_symmetry_Int_Tables_number   1
_chemical_formula_structural   Li2Y5Se7
_chemical_formula_sum   'Li2 Y5 Se7'
_cell_volume   331.27656013
_cell_formula_units_Z   1
loop_
 _symmetry_equiv_pos_site_id
 _symmetry_equiv_pos_as_xyz
  1  'x, y, z'
loop_
 _atom_site_type_symbol
 _atom_site_label
 _atom_site_symmetry_multiplicity
 _atom_site_fract_x
 _atom_site_fract_y
 _atom_site_fract_z
 _atom_site_occupancy
  Li  Li0  1  0.959513  0.296458  0.064901  1
  Li  Li1  1  0.079988  0.574986  0.648958  1
  Y  Y2  1  0.657508  0.719542  0.925464  1
  Y  Y3  1  0.798007  0.999618  0.492916  1
  Y  Y4  1  0.370923  0.146192  0.781026  1
  Y  Y5  1  0.514501  0.432452  0.354210  1
  Y  Y6  1  0.228550  0.866665  0.213781  1
  Se  Se7  1  0.593823  0.080167  0.137923  1
  Se  Se8  1  0.293717  0.504420  0.990329  1
  Se  Se9  1  0.152525  0.228339  0.423769  1
  Se  Se10  1  0.013967  0.933553  0.853378  1
  Se  Se11  1  0.874722  0.637895  0.283477  1
  Se  Se12  1  0.432884  0.784928  0.568426  1
  Se  Se13  1  0.735447  0.361663  0.717872  1
