# generated using pymatgen
data_Cs5K(Ga2As3)2
_symmetry_space_group_name_H-M   'P 1'
_cell_length_a   6.47186500
_cell_length_b   8.11176514
_cell_length_c   11.18434375
_cell_angle_alpha   70.68788408
_cell_angle_beta   90.00000000
_cell_angle_gamma   90.00000000
_symmetry_Int_Tables_number   1
_chemical_formula_structural   Cs5K(Ga2As3)2
_chemical_formula_sum   'Cs5 K1 Ga4 As6'
_cell_volume   554.11966551
_cell_formula_units_Z   1
loop_
 _symmetry_equiv_pos_site_id
 _symmetry_equiv_pos_as_xyz
  1  'x, y, z'
loop_
 _atom_site_type_symbol
 _atom_site_label
 _atom_site_symmetry_multiplicity
 _atom_site_fract_x
 _atom_site_fract_y
 _atom_site_fract_z
 _atom_site_occupancy
  Cs  Cs0  1  0.750000  0.151206  0.893152  1
  Cs  Cs1  1  0.750000  0.471410  0.154849  1
  Cs  Cs2  1  0.250000  0.535661  0.847350  1
  Cs  Cs3  1  0.750000  0.589254  0.546464  1
  Cs  Cs4  1  0.250000  0.863136  0.105817  1
  K  K5  1  0.250000  0.374485  0.458738  1
  Ga  Ga6  1  0.999842  0.038943  0.347103  1
  Ga  Ga7  1  0.501429  0.960771  0.651901  1
  Ga  Ga8  1  0.500158  0.038943  0.347103  1
  Ga  Ga9  1  0.998571  0.960771  0.651901  1
  As  As10  1  0.250000  0.822351  0.515825  1
  As  As11  1  0.750000  0.171587  0.481543  1
  As  As12  1  0.250000  0.254792  0.206442  1
  As  As13  1  0.750000  0.755331  0.801727  1
  As  As14  1  0.250000  0.111071  0.750078  1
  As  As15  1  0.750000  0.900288  0.240008  1
