# generated using pymatgen
data_Tb5Pa3(TcB6)4
_symmetry_space_group_name_H-M   'P 1'
_cell_length_a   3.72791500
_cell_length_b   9.21301959
_cell_length_c   11.54861605
_cell_angle_alpha   90.16241758
_cell_angle_beta   90.00000000
_cell_angle_gamma   90.00000000
_symmetry_Int_Tables_number   1
_chemical_formula_structural   Tb5Pa3(TcB6)4
_chemical_formula_sum   'Tb5 Pa3 Tc4 B24'
_cell_volume   396.63971209
_cell_formula_units_Z   1
loop_
 _symmetry_equiv_pos_site_id
 _symmetry_equiv_pos_as_xyz
  1  'x, y, z'
loop_
 _atom_site_type_symbol
 _atom_site_label
 _atom_site_symmetry_multiplicity
 _atom_site_fract_x
 _atom_site_fract_y
 _atom_site_fract_z
 _atom_site_occupancy
  Tb  Tb0  1  0.000000  0.176939  0.912682  1
  Tb  Tb1  1  0.000000  0.945571  0.374958  1
  Tb  Tb2  1  0.000000  0.055302  0.627014  1
  Tb  Tb3  1  0.000000  0.443705  0.125024  1
  Tb  Tb4  1  0.000000  0.553643  0.874096  1
  Pa  Pa5  1  0.000000  0.323458  0.412849  1
  Pa  Pa6  1  0.000000  0.676063  0.587777  1
  Pa  Pa7  1  0.000000  0.825082  0.086581  1
  Tc  Tc8  1  0.000000  0.638359  0.322398  1
  Tc  Tc9  1  0.000000  0.364356  0.674236  1
  Tc  Tc10  1  0.000000  0.137760  0.180800  1
  Tc  Tc11  1  0.000000  0.859167  0.821631  1
  B  B12  1  0.500000  0.552977  0.432366  1
  B  B13  1  0.500000  0.447874  0.566202  1
  B  B14  1  0.500000  0.052435  0.068388  1
  B  B15  1  0.500000  0.945741  0.933025  1
  B  B16  1  0.500000  0.746847  0.420767  1
  B  B17  1  0.500000  0.253884  0.579529  1
  B  B18  1  0.500000  0.246487  0.079522  1
  B  B19  1  0.500000  0.753398  0.920867  1
  B  B20  1  0.500000  0.792535  0.266520  1
  B  B21  1  0.500000  0.208577  0.732698  1
  B  B22  1  0.500000  0.292457  0.232947  1
  B  B23  1  0.500000  0.707028  0.766625  1
  B  B24  1  0.500000  0.634249  0.185707  1
  B  B25  1  0.500000  0.366602  0.813251  1
  B  B26  1  0.500000  0.134425  0.314339  1
  B  B27  1  0.500000  0.865582  0.686920  1
  B  B28  1  0.500000  0.983366  0.213249  1
  B  B29  1  0.500000  0.016182  0.786829  1
  B  B30  1  0.500000  0.483666  0.286205  1
  B  B31  1  0.500000  0.516205  0.713289  1
  B  B32  1  0.500000  0.615509  0.032220  1
  B  B33  1  0.500000  0.384594  0.967735  1
  B  B34  1  0.500000  0.117720  0.467823  1
  B  B35  1  0.500000  0.882256  0.532934  1
