# generated using pymatgen
data_Tb2NdTm(Ir2O7)2
_symmetry_space_group_name_H-M   'P 1'
_cell_length_a   7.32170896
_cell_length_b   7.26878362
_cell_length_c   7.25628742
_cell_angle_alpha   59.94302357
_cell_angle_beta   60.18079417
_cell_angle_gamma   60.23883844
_symmetry_Int_Tables_number   1
_chemical_formula_structural   Tb2NdTm(Ir2O7)2
_chemical_formula_sum   'Tb2 Nd1 Tm1 Ir4 O14'
_cell_volume   273.81357878
_cell_formula_units_Z   1
loop_
 _symmetry_equiv_pos_site_id
 _symmetry_equiv_pos_as_xyz
  1  'x, y, z'
loop_
 _atom_site_type_symbol
 _atom_site_label
 _atom_site_symmetry_multiplicity
 _atom_site_fract_x
 _atom_site_fract_y
 _atom_site_fract_z
 _atom_site_occupancy
  Tb  Tb0  1  0.125000  0.625000  0.125000  1
  Tb  Tb1  1  0.125000  0.125000  0.125000  1
  Nd  Nd2  1  0.625000  0.125000  0.125000  1
  Tm  Tm3  1  0.125000  0.125000  0.625000  1
  Ir  Ir4  1  0.125000  0.625000  0.625000  1
  Ir  Ir5  1  0.625000  0.125000  0.625000  1
  Ir  Ir6  1  0.625000  0.625000  0.125000  1
  Ir  Ir7  1  0.625000  0.625000  0.625000  1
  O  O8  1  0.719295  0.703540  0.288622  1
  O  O9  1  0.288267  0.289161  0.707799  1
  O  O10  1  0.723240  0.288336  0.700089  1
  O  O11  1  0.288386  0.711210  0.289194  1
  O  O12  1  0.288267  0.714773  0.707799  1
  O  O13  1  0.719295  0.288543  0.288622  1
  O  O14  1  0.530705  0.546460  0.961378  1
  O  O15  1  0.961733  0.960839  0.542201  1
  O  O16  1  0.526760  0.961664  0.549911  1
  O  O17  1  0.961614  0.538790  0.960806  1
  O  O18  1  0.961733  0.535227  0.542201  1
  O  O19  1  0.530705  0.961457  0.961378  1
  O  O20  1  0.240461  0.250713  0.258114  1
  O  O21  1  0.009539  0.999287  0.991886  1
