# generated using pymatgen
data_Ba6Sm(ReO6)3
_symmetry_space_group_name_H-M   'P 1'
_cell_length_a   10.21511850
_cell_length_b   10.21511825
_cell_length_c   10.08707500
_cell_angle_alpha   80.28440793
_cell_angle_beta   80.28440817
_cell_angle_gamma   119.99499085
_symmetry_Int_Tables_number   1
_chemical_formula_structural   Ba6Sm(ReO6)3
_chemical_formula_sum   'Ba12 Sm2 Re6 O36'
_cell_volume   858.11630255
_cell_formula_units_Z   2
loop_
 _symmetry_equiv_pos_site_id
 _symmetry_equiv_pos_as_xyz
  1  'x, y, z'
loop_
 _atom_site_type_symbol
 _atom_site_label
 _atom_site_symmetry_multiplicity
 _atom_site_fract_x
 _atom_site_fract_y
 _atom_site_fract_z
 _atom_site_occupancy
  Ba  Ba0  1  0.639362  0.958282  0.125241  1
  Ba  Ba1  1  0.277238  0.277238  0.125772  1
  Ba  Ba2  1  0.958282  0.639362  0.125241  1
  Ba  Ba3  1  0.360638  0.041718  0.874759  1
  Ba  Ba4  1  0.041718  0.360638  0.874759  1
  Ba  Ba5  1  0.722762  0.722762  0.874228  1
  Ba  Ba6  1  0.464470  0.798572  0.603829  1
  Ba  Ba7  1  0.130082  0.130082  0.612027  1
  Ba  Ba8  1  0.798572  0.464470  0.603829  1
  Ba  Ba9  1  0.535530  0.201428  0.396171  1
  Ba  Ba10  1  0.201428  0.535530  0.396171  1
  Ba  Ba11  1  0.869918  0.869918  0.387973  1
  Sm  Sm12  1  0.666801  0.333199  0.000000  1
  Sm  Sm13  1  0.333199  0.666801  0.000000  1
  Re  Re14  1  0.420494  0.420494  0.730969  1
  Re  Re15  1  0.089443  0.759042  0.730686  1
  Re  Re16  1  0.759042  0.089443  0.730686  1
  Re  Re17  1  0.579506  0.579506  0.269031  1
  Re  Re18  1  0.240958  0.910557  0.269314  1
  Re  Re19  1  0.910557  0.240958  0.269314  1
  O  O20  1  0.457223  0.300561  0.630619  1
  O  O21  1  0.121231  0.630021  0.637542  1
  O  O22  1  0.789013  0.966937  0.629339  1
  O  O23  1  0.611739  0.611739  0.636538  1
  O  O24  1  0.280249  0.945045  0.630569  1
  O  O25  1  0.945045  0.280249  0.630569  1
  O  O26  1  0.300561  0.457223  0.630619  1
  O  O27  1  0.966937  0.789013  0.629339  1
  O  O28  1  0.630021  0.121231  0.637542  1
  O  O29  1  0.542777  0.699439  0.369381  1
  O  O30  1  0.210987  0.033063  0.370661  1
  O  O31  1  0.878769  0.369979  0.362458  1
  O  O32  1  0.388261  0.388261  0.363462  1
  O  O33  1  0.054955  0.719751  0.369431  1
  O  O34  1  0.719751  0.054955  0.369431  1
  O  O35  1  0.699439  0.542777  0.369381  1
  O  O36  1  0.369979  0.878769  0.362458  1
  O  O37  1  0.033063  0.210987  0.370661  1
  O  O38  1  0.618934  0.466356  0.140236  1
  O  O39  1  0.287467  0.800778  0.139973  1
  O  O40  1  0.953166  0.142674  0.141137  1
  O  O41  1  0.763369  0.763369  0.140672  1
  O  O42  1  0.439846  0.106009  0.140404  1
  O  O43  1  0.106009  0.439846  0.140404  1
  O  O44  1  0.466356  0.618934  0.140236  1
  O  O45  1  0.142674  0.953166  0.141137  1
  O  O46  1  0.800778  0.287467  0.139973  1
  O  O47  1  0.381066  0.533644  0.859764  1
  O  O48  1  0.046834  0.857326  0.858863  1
  O  O49  1  0.712533  0.199222  0.860027  1
  O  O50  1  0.236631  0.236631  0.859328  1
  O  O51  1  0.893991  0.560154  0.859596  1
  O  O52  1  0.560154  0.893991  0.859596  1
  O  O53  1  0.533644  0.381066  0.859764  1
  O  O54  1  0.199222  0.712533  0.860027  1
  O  O55  1  0.857326  0.046834  0.858863  1
