# generated using pymatgen
data_PrSm2Bi(MoO4)6
_symmetry_space_group_name_H-M   'P 1'
_cell_length_a   7.61503967
_cell_length_b   7.61365965
_cell_length_c   10.93120806
_cell_angle_alpha   90.00236431
_cell_angle_beta   89.78796399
_cell_angle_gamma   89.94214457
_symmetry_Int_Tables_number   1
_chemical_formula_structural   PrSm2Bi(MoO4)6
_chemical_formula_sum   'Pr1 Sm2 Bi1 Mo6 O24'
_cell_volume   633.76841814
_cell_formula_units_Z   1
loop_
 _symmetry_equiv_pos_site_id
 _symmetry_equiv_pos_as_xyz
  1  'x, y, z'
loop_
 _atom_site_type_symbol
 _atom_site_label
 _atom_site_symmetry_multiplicity
 _atom_site_fract_x
 _atom_site_fract_y
 _atom_site_fract_z
 _atom_site_occupancy
  Pr  Pr0  1  0.312917  0.187374  0.260857  1
  Sm  Sm1  1  0.810700  0.310887  0.737050  1
  Sm  Sm2  1  0.691006  0.809167  0.263470  1
  Bi  Bi3  1  0.191874  0.692130  0.739786  1
  Mo  Mo4  1  0.208244  0.709438  0.354590  1
  Mo  Mo5  1  0.791026  0.292068  0.357050  1
  Mo  Mo6  1  0.707503  0.792567  0.643714  1
  Mo  Mo7  1  0.292758  0.207230  0.647090  1
  Mo  Mo8  1  0.996876  0.997452  0.998329  1
  Mo  Mo9  1  0.502675  0.503393  0.998319  1
  O  O10  1  0.000326  0.229526  0.298472  1
  O  O11  1  0.999131  0.777556  0.297582  1
  O  O12  1  0.229531  0.998261  0.708075  1
  O  O13  1  0.498150  0.729971  0.704467  1
  O  O14  1  0.776096  0.001161  0.700703  1
  O  O15  1  0.500773  0.276438  0.704165  1
  O  O16  1  0.271098  0.499939  0.296462  1
  O  O17  1  0.723042  0.500885  0.299568  1
  O  O18  1  0.184421  0.043923  0.091029  1
  O  O19  1  0.813861  0.952394  0.096733  1
  O  O20  1  0.040855  0.808780  0.903661  1
  O  O21  1  0.313098  0.550870  0.905812  1
  O  O22  1  0.948423  0.183090  0.903726  1
  O  O23  1  0.687384  0.458191  0.901606  1
  O  O24  1  0.459040  0.315232  0.091632  1
  O  O25  1  0.550769  0.685676  0.096068  1
  O  O26  1  0.631597  0.124866  0.309758  1
  O  O27  1  0.376028  0.869334  0.307310  1
  O  O28  1  0.124764  0.367321  0.692189  1
  O  O29  1  0.867156  0.624920  0.688727  1
  O  O30  1  0.197792  0.699415  0.516799  1
  O  O31  1  0.801204  0.302525  0.519787  1
  O  O32  1  0.695194  0.803747  0.480899  1
  O  O33  1  0.304690  0.194271  0.484514  1
