# generated using pymatgen
data_Mn24Mo4Ir
_symmetry_space_group_name_H-M   'P 1'
_cell_length_a   7.59105989
_cell_length_b   7.59105945
_cell_length_c   7.59105900
_cell_angle_alpha   109.47121943
_cell_angle_beta   109.47121827
_cell_angle_gamma   109.47122416
_symmetry_Int_Tables_number   1
_chemical_formula_structural   Mn24Mo4Ir
_chemical_formula_sum   'Mn24 Mo4 Ir1'
_cell_volume   336.73269538
_cell_formula_units_Z   1
loop_
 _symmetry_equiv_pos_site_id
 _symmetry_equiv_pos_as_xyz
  1  'x, y, z'
loop_
 _atom_site_type_symbol
 _atom_site_label
 _atom_site_symmetry_multiplicity
 _atom_site_fract_x
 _atom_site_fract_y
 _atom_site_fract_z
 _atom_site_occupancy
  Mn  Mn0  1  0.324472  0.324472  0.713520  1
  Mn  Mn1  1  0.389048  0.675528  0.000000  1
  Mn  Mn2  1  0.675528  0.389048  0.000000  1
  Mn  Mn3  1  0.610952  0.286480  0.610952  1
  Mn  Mn4  1  0.389048  0.000000  0.675528  1
  Mn  Mn5  1  0.000000  0.389048  0.675528  1
  Mn  Mn6  1  0.286480  0.610952  0.610952  1
  Mn  Mn7  1  0.713520  0.324472  0.324472  1
  Mn  Mn8  1  0.324472  0.713520  0.324472  1
  Mn  Mn9  1  0.675528  0.000000  0.389048  1
  Mn  Mn10  1  0.000000  0.675528  0.389048  1
  Mn  Mn11  1  0.610952  0.610952  0.286480  1
  Mn  Mn12  1  0.804976  0.804976  0.181334  1
  Mn  Mn13  1  0.376359  0.195024  0.000000  1
  Mn  Mn14  1  0.195024  0.376359  0.000000  1
  Mn  Mn15  1  0.623641  0.818666  0.623641  1
  Mn  Mn16  1  0.376359  0.000000  0.195024  1
  Mn  Mn17  1  0.000000  0.376359  0.195024  1
  Mn  Mn18  1  0.818666  0.623641  0.623641  1
  Mn  Mn19  1  0.181334  0.804976  0.804976  1
  Mn  Mn20  1  0.804976  0.181334  0.804976  1
  Mn  Mn21  1  0.195024  0.000000  0.376359  1
  Mn  Mn22  1  0.000000  0.195024  0.376359  1
  Mn  Mn23  1  0.623641  0.623641  0.818666  1
  Mo  Mo24  1  0.000000  0.000000  0.635473  1
  Mo  Mo25  1  0.635473  0.000000  0.000000  1
  Mo  Mo26  1  0.000000  0.635473  0.000000  1
  Mo  Mo27  1  0.364527  0.364527  0.364527  1
  Ir  Ir28  1  0.000000  0.000000  0.000000  1
