# generated using pymatgen
data_Tb16In4AgOs3
_symmetry_space_group_name_H-M   'P 1'
_cell_length_a   9.73710720
_cell_length_b   9.78949084
_cell_length_c   9.78942286
_cell_angle_alpha   59.84814404
_cell_angle_beta   59.74698944
_cell_angle_gamma   59.74699680
_symmetry_Int_Tables_number   1
_chemical_formula_structural   Tb16In4AgOs3
_chemical_formula_sum   'Tb16 In4 Ag1 Os3'
_cell_volume   656.54368855
_cell_formula_units_Z   1
loop_
 _symmetry_equiv_pos_site_id
 _symmetry_equiv_pos_as_xyz
  1  'x, y, z'
loop_
 _atom_site_type_symbol
 _atom_site_label
 _atom_site_symmetry_multiplicity
 _atom_site_fract_x
 _atom_site_fract_y
 _atom_site_fract_z
 _atom_site_occupancy
  Tb  Tb0  1  0.811269  0.808895  0.190573  1
  Tb  Tb1  1  0.811269  0.190570  0.808895  1
  Tb  Tb2  1  0.178716  0.204046  0.811805  1
  Tb  Tb3  1  0.658496  0.053146  0.643216  1
  Tb  Tb4  1  0.060403  0.056048  0.441490  1
  Tb  Tb5  1  0.449746  0.431607  0.058562  1
  Tb  Tb6  1  0.659526  0.643864  0.643864  1
  Tb  Tb7  1  0.812640  0.191789  0.191794  1
  Tb  Tb8  1  0.179163  0.809178  0.809175  1
  Tb  Tb9  1  0.038364  0.652616  0.652616  1
  Tb  Tb10  1  0.447723  0.058581  0.058582  1
  Tb  Tb11  1  0.449747  0.058561  0.431607  1
  Tb  Tb12  1  0.060405  0.441492  0.056049  1
  Tb  Tb13  1  0.658497  0.643216  0.053144  1
  Tb  Tb14  1  0.178714  0.811806  0.204048  1
  Tb  Tb15  1  0.063936  0.438274  0.438272  1
  In  In16  1  0.414902  0.419088  0.419087  1
  In  In17  1  0.417196  0.419614  0.745758  1
  In  In18  1  0.417197  0.745758  0.419613  1
  In  In19  1  0.751322  0.416868  0.416867  1
  Ag  Ag20  1  0.425590  0.858101  0.858098  1
  Os  Os21  1  0.851270  0.423917  0.861176  1
  Os  Os22  1  0.852640  0.861790  0.861791  1
  Os  Os23  1  0.851271  0.861175  0.423919  1
