# generated using pymatgen
data_Tb2Tm2MnB12Ru
_symmetry_space_group_name_H-M   'P 1'
_cell_length_a   3.59752200
_cell_length_b   9.07977212
_cell_length_c   11.47041201
_cell_angle_alpha   89.99286180
_cell_angle_beta   90.00000000
_cell_angle_gamma   90.00000000
_symmetry_Int_Tables_number   1
_chemical_formula_structural   Tb2Tm2MnB12Ru
_chemical_formula_sum   'Tb4 Tm4 Mn2 B24 Ru2'
_cell_volume   374.67733442
_cell_formula_units_Z   2
loop_
 _symmetry_equiv_pos_site_id
 _symmetry_equiv_pos_as_xyz
  1  'x, y, z'
loop_
 _atom_site_type_symbol
 _atom_site_label
 _atom_site_symmetry_multiplicity
 _atom_site_fract_x
 _atom_site_fract_y
 _atom_site_fract_z
 _atom_site_occupancy
  Tb  Tb0  1  0.000000  0.326207  0.416168  1
  Tb  Tb1  1  0.000000  0.673793  0.583832  1
  Tb  Tb2  1  0.000000  0.820447  0.087595  1
  Tb  Tb3  1  0.000000  0.179553  0.912405  1
  Tm  Tm4  1  0.000000  0.939591  0.370636  1
  Tm  Tm5  1  0.000000  0.060409  0.629364  1
  Tm  Tm6  1  0.000000  0.444946  0.131715  1
  Tm  Tm7  1  0.000000  0.555054  0.868285  1
  Mn  Mn8  1  0.000000  0.639042  0.319612  1
  Mn  Mn9  1  0.000000  0.360958  0.680388  1
  B  B10  1  0.500000  0.554431  0.431719  1
  B  B11  1  0.500000  0.445569  0.568281  1
  B  B12  1  0.500000  0.053960  0.067631  1
  B  B13  1  0.500000  0.946040  0.932369  1
  B  B14  1  0.500000  0.747016  0.417232  1
  B  B15  1  0.500000  0.252984  0.582768  1
  B  B16  1  0.500000  0.249912  0.081970  1
  B  B17  1  0.500000  0.750088  0.918030  1
  B  B18  1  0.500000  0.789410  0.266252  1
  B  B19  1  0.500000  0.210590  0.733748  1
  B  B20  1  0.500000  0.291733  0.235097  1
  B  B21  1  0.500000  0.708267  0.764903  1
  B  B22  1  0.500000  0.630633  0.186526  1
  B  B23  1  0.500000  0.369367  0.813474  1
  B  B24  1  0.500000  0.130437  0.315154  1
  B  B25  1  0.500000  0.869563  0.684846  1
  B  B26  1  0.500000  0.982367  0.212843  1
  B  B27  1  0.500000  0.017633  0.787157  1
  B  B28  1  0.500000  0.485415  0.288443  1
  B  B29  1  0.500000  0.514585  0.711557  1
  B  B30  1  0.500000  0.601460  0.027965  1
  B  B31  1  0.500000  0.398540  0.972035  1
  B  B32  1  0.500000  0.102060  0.471867  1
  B  B33  1  0.500000  0.897940  0.528133  1
  Ru  Ru34  1  0.000000  0.138567  0.179743  1
  Ru  Ru35  1  0.000000  0.861433  0.820257  1
