# generated using pymatgen
data_Ac2GeS5
_symmetry_space_group_name_H-M   'P 1'
_cell_length_a   13.14617200
_cell_length_b   7.89298658
_cell_length_c   8.17836223
_cell_angle_alpha   78.75713583
_cell_angle_beta   90.00000000
_cell_angle_gamma   90.00000000
_symmetry_Int_Tables_number   1
_chemical_formula_structural   Ac2GeS5
_chemical_formula_sum   'Ac8 Ge4 S20'
_cell_volume   832.32264688
_cell_formula_units_Z   4
loop_
 _symmetry_equiv_pos_site_id
 _symmetry_equiv_pos_as_xyz
  1  'x, y, z'
loop_
 _atom_site_type_symbol
 _atom_site_label
 _atom_site_symmetry_multiplicity
 _atom_site_fract_x
 _atom_site_fract_y
 _atom_site_fract_z
 _atom_site_occupancy
  Ac  Ac0  1  0.165550  0.160527  0.367031  1
  Ac  Ac1  1  0.094135  0.758506  0.043591  1
  Ac  Ac2  1  0.594135  0.241494  0.456409  1
  Ac  Ac3  1  0.405865  0.758506  0.543591  1
  Ac  Ac4  1  0.834450  0.839473  0.632969  1
  Ac  Ac5  1  0.905865  0.241494  0.956409  1
  Ac  Ac6  1  0.665550  0.839473  0.132969  1
  Ac  Ac7  1  0.334450  0.160527  0.867031  1
  Ge  Ge8  1  0.616867  0.336980  0.907828  1
  Ge  Ge9  1  0.116867  0.663020  0.592172  1
  Ge  Ge10  1  0.383133  0.663020  0.092172  1
  Ge  Ge11  1  0.883133  0.336980  0.407828  1
  S  S12  1  0.703829  0.130613  0.805818  1
  S  S13  1  0.028507  0.825926  0.385482  1
  S  S14  1  0.230440  0.468034  0.548344  1
  S  S15  1  0.528507  0.174074  0.114518  1
  S  S16  1  0.796171  0.130613  0.305818  1
  S  S17  1  0.296171  0.869387  0.194182  1
  S  S18  1  0.203829  0.869387  0.694182  1
  S  S19  1  0.878365  0.862151  0.996581  1
  S  S20  1  0.971493  0.174074  0.614518  1
  S  S21  1  0.621635  0.862151  0.496581  1
  S  S22  1  0.495843  0.419798  0.718971  1
  S  S23  1  0.769560  0.531966  0.451656  1
  S  S24  1  0.471493  0.825926  0.885482  1
  S  S25  1  0.995843  0.580202  0.781029  1
  S  S26  1  0.378365  0.137849  0.503419  1
  S  S27  1  0.504157  0.580202  0.281029  1
  S  S28  1  0.004157  0.419798  0.218971  1
  S  S29  1  0.121635  0.137849  0.003419  1
  S  S30  1  0.730440  0.531966  0.951656  1
  S  S31  1  0.269560  0.468034  0.048344  1
