# generated using pymatgen
data_CeNd2In3Pd2Rh
_symmetry_space_group_name_H-M   'P 1'
_cell_length_a   7.70438554
_cell_length_b   7.78012965
_cell_length_c   4.05621800
_cell_angle_alpha   90.00000000
_cell_angle_beta   90.00000000
_cell_angle_gamma   120.85018045
_symmetry_Int_Tables_number   1
_chemical_formula_structural   CeNd2In3Pd2Rh
_chemical_formula_sum   'Ce1 Nd2 In3 Pd2 Rh1'
_cell_volume   208.73344990
_cell_formula_units_Z   1
loop_
 _symmetry_equiv_pos_site_id
 _symmetry_equiv_pos_as_xyz
  1  'x, y, z'
loop_
 _atom_site_type_symbol
 _atom_site_label
 _atom_site_symmetry_multiplicity
 _atom_site_fract_x
 _atom_site_fract_y
 _atom_site_fract_z
 _atom_site_occupancy
  Ce  Ce0  1  0.983744  0.576649  0.000000  1
  Nd  Nd1  1  0.412643  0.407471  0.000000  1
  Nd  Nd2  1  0.593153  0.007488  0.000000  1
  In  In3  1  0.742104  0.747364  0.500000  1
  In  In4  1  0.256064  0.001110  0.500000  1
  In  In5  1  0.000369  0.248027  0.500000  1
  Pd  Pd6  1  0.000822  0.993904  0.000000  1
  Pd  Pd7  1  0.318877  0.664164  0.500000  1
  Rh  Rh8  1  0.692224  0.353823  0.500000  1
