# generated using pymatgen
data_Tb8Tm9Sc2Si16W
_symmetry_space_group_name_H-M   'P 1'
_cell_length_a   7.20018562
_cell_length_b   7.58732305
_cell_length_c   14.28374800
_cell_angle_alpha   90.00000000
_cell_angle_beta   90.00000000
_cell_angle_gamma   90.19317216
_symmetry_Int_Tables_number   1
_chemical_formula_structural   Tb8Tm9Sc2Si16W
_chemical_formula_sum   'Tb8 Tm9 Sc2 Si16 W1'
_cell_volume   780.31863697
_cell_formula_units_Z   1
loop_
 _symmetry_equiv_pos_site_id
 _symmetry_equiv_pos_as_xyz
  1  'x, y, z'
loop_
 _atom_site_type_symbol
 _atom_site_label
 _atom_site_symmetry_multiplicity
 _atom_site_fract_x
 _atom_site_fract_y
 _atom_site_fract_z
 _atom_site_occupancy
  Tb  Tb0  1  0.019471  0.180133  0.093434  1
  Tb  Tb1  1  0.987580  0.815294  0.898835  1
  Tb  Tb2  1  0.480244  0.678523  0.901346  1
  Tb  Tb3  1  0.987580  0.815294  0.601165  1
  Tb  Tb4  1  0.518191  0.317405  0.095363  1
  Tb  Tb5  1  0.019471  0.180133  0.406566  1
  Tb  Tb6  1  0.518191  0.317405  0.404637  1
  Tb  Tb7  1  0.480244  0.678523  0.598654  1
  Tm  Tm8  1  0.847422  0.488856  0.250000  1
  Tm  Tm9  1  0.322297  0.180089  0.628406  1
  Tm  Tm10  1  0.677246  0.822927  0.376168  1
  Tm  Tm11  1  0.178551  0.676083  0.378836  1
  Tm  Tm12  1  0.677246  0.822927  0.123832  1
  Tm  Tm13  1  0.819669  0.328622  0.629144  1
  Tm  Tm14  1  0.322297  0.180089  0.871594  1
  Tm  Tm15  1  0.819669  0.328622  0.870856  1
  Tm  Tm16  1  0.178551  0.676083  0.121164  1
  Sc  Sc17  1  0.345510  0.011467  0.250000  1
  Sc  Sc18  1  0.653710  0.981996  0.750000  1
  Si  Si19  1  0.019880  0.105560  0.750000  1
  Si  Si20  1  0.980334  0.897355  0.250000  1
  Si  Si21  1  0.472707  0.607111  0.250000  1
  Si  Si22  1  0.507103  0.413418  0.750000  1
  Si  Si23  1  0.277987  0.852367  0.750000  1
  Si  Si24  1  0.722468  0.127577  0.250000  1
  Si  Si25  1  0.226496  0.366325  0.250000  1
  Si  Si26  1  0.788299  0.633507  0.750000  1
  Si  Si27  1  0.150106  0.472428  0.551273  1
  Si  Si28  1  0.847193  0.531346  0.463920  1
  Si  Si29  1  0.349882  0.969100  0.462740  1
  Si  Si30  1  0.847193  0.531346  0.036080  1
  Si  Si31  1  0.654966  0.031165  0.541525  1
  Si  Si32  1  0.150106  0.472428  0.948727  1
  Si  Si33  1  0.654966  0.031165  0.958475  1
  Si  Si34  1  0.349882  0.969100  0.037260  1
  W  W35  1  0.147293  0.508231  0.750000  1
