# generated using pymatgen
data_Ac3TmAu5
_symmetry_space_group_name_H-M   'P 1'
_cell_length_a   8.52036048
_cell_length_b   8.52035965
_cell_length_c   8.52035936
_cell_angle_alpha   65.72416041
_cell_angle_beta   65.72416883
_cell_angle_gamma   65.72414436
_symmetry_Int_Tables_number   1
_chemical_formula_structural   Ac3TmAu5
_chemical_formula_sum   'Ac6 Tm2 Au10'
_cell_volume   491.69793921
_cell_formula_units_Z   2
loop_
 _symmetry_equiv_pos_site_id
 _symmetry_equiv_pos_as_xyz
  1  'x, y, z'
loop_
 _atom_site_type_symbol
 _atom_site_label
 _atom_site_symmetry_multiplicity
 _atom_site_fract_x
 _atom_site_fract_y
 _atom_site_fract_z
 _atom_site_occupancy
  Ac  Ac0  1  0.890574  0.186054  0.623822  1
  Ac  Ac1  1  0.623822  0.890574  0.186054  1
  Ac  Ac2  1  0.186054  0.623822  0.890574  1
  Ac  Ac3  1  0.109426  0.813946  0.376178  1
  Ac  Ac4  1  0.376178  0.109426  0.813946  1
  Ac  Ac5  1  0.813946  0.376178  0.109426  1
  Tm  Tm6  1  0.656992  0.656992  0.656992  1
  Tm  Tm7  1  0.343008  0.343008  0.343008  1
  Au  Au8  1  0.000000  0.000000  0.000000  1
  Au  Au9  1  0.500000  0.500000  0.500000  1
  Au  Au10  1  0.801486  0.801486  0.801486  1
  Au  Au11  1  0.198514  0.198514  0.198514  1
  Au  Au12  1  0.941883  0.547633  0.326429  1
  Au  Au13  1  0.326429  0.941883  0.547633  1
  Au  Au14  1  0.547633  0.326429  0.941883  1
  Au  Au15  1  0.058117  0.452367  0.673571  1
  Au  Au16  1  0.673571  0.058117  0.452367  1
  Au  Au17  1  0.452367  0.673571  0.058117  1
