# generated using pymatgen
data_Ta2CoTcP2
_symmetry_space_group_name_H-M   'P 1'
_cell_length_a   3.64979700
_cell_length_b   6.29477500
_cell_length_c   7.16439400
_cell_angle_alpha   90.00000000
_cell_angle_beta   90.00000000
_cell_angle_gamma   90.00000000
_symmetry_Int_Tables_number   1
_chemical_formula_structural   Ta2CoTcP2
_chemical_formula_sum   'Ta4 Co2 Tc2 P4'
_cell_volume   164.59945114
_cell_formula_units_Z   2
loop_
 _symmetry_equiv_pos_site_id
 _symmetry_equiv_pos_as_xyz
  1  'x, y, z'
loop_
 _atom_site_type_symbol
 _atom_site_label
 _atom_site_symmetry_multiplicity
 _atom_site_fract_x
 _atom_site_fract_y
 _atom_site_fract_z
 _atom_site_occupancy
  Ta  Ta0  1  0.250000  0.029609  0.823975  1
  Ta  Ta1  1  0.250000  0.529609  0.676025  1
  Ta  Ta2  1  0.750000  0.975573  0.168086  1
  Ta  Ta3  1  0.750000  0.475573  0.331914  1
  Co  Co4  1  0.750000  0.848231  0.564294  1
  Co  Co5  1  0.750000  0.348231  0.935706  1
  Tc  Tc6  1  0.250000  0.140282  0.441474  1
  Tc  Tc7  1  0.250000  0.640282  0.058526  1
  P  P8  1  0.250000  0.271395  0.120053  1
  P  P9  1  0.250000  0.771395  0.379947  1
  P  P10  1  0.750000  0.734910  0.867160  1
  P  P11  1  0.750000  0.234910  0.632840  1
