# generated using pymatgen
data_Pr3AgSn3IrRh
_symmetry_space_group_name_H-M   'P 1'
_cell_length_a   7.69660500
_cell_length_b   7.69660609
_cell_length_c   4.17149400
_cell_angle_alpha   90.00000000
_cell_angle_beta   90.00000000
_cell_angle_gamma   119.99999102
_symmetry_Int_Tables_number   1
_chemical_formula_structural   Pr3AgSn3IrRh
_chemical_formula_sum   'Pr3 Ag1 Sn3 Ir1 Rh1'
_cell_volume   214.00343921
_cell_formula_units_Z   1
loop_
 _symmetry_equiv_pos_site_id
 _symmetry_equiv_pos_as_xyz
  1  'x, y, z'
loop_
 _atom_site_type_symbol
 _atom_site_label
 _atom_site_symmetry_multiplicity
 _atom_site_fract_x
 _atom_site_fract_y
 _atom_site_fract_z
 _atom_site_occupancy
  Pr  Pr0  1  0.599190  0.017691  0.000000  1
  Pr  Pr1  1  0.982309  0.581498  0.000000  1
  Pr  Pr2  1  0.418502  0.400810  0.000000  1
  Ag  Ag3  1  0.333333  0.666667  0.500000  1
  Sn  Sn4  1  0.248237  0.002785  0.500000  1
  Sn  Sn5  1  0.997215  0.245452  0.500000  1
  Sn  Sn6  1  0.754548  0.751763  0.500000  1
  Ir  Ir7  1  0.666667  0.333333  0.500000  1
  Rh  Rh8  1  0.000000  0.000000  0.000000  1
