# generated using pymatgen
data_TbTh3Pd11Rh
_symmetry_space_group_name_H-M   'P 1'
_cell_length_a   5.91541144
_cell_length_b   5.87952028
_cell_length_c   9.77092040
_cell_angle_alpha   90.00000111
_cell_angle_beta   90.67978805
_cell_angle_gamma   119.79949374
_symmetry_Int_Tables_number   1
_chemical_formula_structural   TbTh3Pd11Rh
_chemical_formula_sum   'Tb1 Th3 Pd11 Rh1'
_cell_volume   294.86707642
_cell_formula_units_Z   1
loop_
 _symmetry_equiv_pos_site_id
 _symmetry_equiv_pos_as_xyz
  1  'x, y, z'
loop_
 _atom_site_type_symbol
 _atom_site_label
 _atom_site_symmetry_multiplicity
 _atom_site_fract_x
 _atom_site_fract_y
 _atom_site_fract_z
 _atom_site_occupancy
  Tb  Tb0  1  0.000000  0.000000  0.500000  1
  Th  Th1  1  0.000000  0.000000  0.000000  1
  Th  Th2  1  0.325813  0.662907  0.248187  1
  Th  Th3  1  0.674187  0.337093  0.751813  1
  Pd  Pd4  1  0.500000  0.500000  0.500000  1
  Pd  Pd5  1  0.500000  0.000000  0.500000  1
  Pd  Pd6  1  0.000000  0.500000  0.500000  1
  Pd  Pd7  1  0.500000  0.500000  0.000000  1
  Pd  Pd8  1  0.500000  0.000000  0.000000  1
  Pd  Pd9  1  0.823734  0.651745  0.250761  1
  Pd  Pd10  1  0.348467  0.174234  0.251449  1
  Pd  Pd11  1  0.823734  0.171990  0.250761  1
  Pd  Pd12  1  0.176266  0.348255  0.749239  1
  Pd  Pd13  1  0.651533  0.825766  0.748551  1
  Pd  Pd14  1  0.176266  0.828010  0.749239  1
  Rh  Rh15  1  0.000000  0.500000  0.000000  1
