# generated using pymatgen
data_NaCa3PtO6
_symmetry_space_group_name_H-M   'P 1'
_cell_length_a   6.57072604
_cell_length_b   6.57072611
_cell_length_c   6.57072634
_cell_angle_alpha   90.47417212
_cell_angle_beta   90.47417899
_cell_angle_gamma   90.47418629
_symmetry_Int_Tables_number   1
_chemical_formula_structural   NaCa3PtO6
_chemical_formula_sum   'Na2 Ca6 Pt2 O12'
_cell_volume   283.65813070
_cell_formula_units_Z   2
loop_
 _symmetry_equiv_pos_site_id
 _symmetry_equiv_pos_as_xyz
  1  'x, y, z'
loop_
 _atom_site_type_symbol
 _atom_site_label
 _atom_site_symmetry_multiplicity
 _atom_site_fract_x
 _atom_site_fract_y
 _atom_site_fract_z
 _atom_site_occupancy
  Na  Na0  1  0.250000  0.250000  0.250000  1
  Na  Na1  1  0.750000  0.750000  0.750000  1
  Ca  Ca2  1  0.750000  0.104857  0.395143  1
  Ca  Ca3  1  0.395143  0.750000  0.104857  1
  Ca  Ca4  1  0.104857  0.395143  0.750000  1
  Ca  Ca5  1  0.250000  0.895143  0.604857  1
  Ca  Ca6  1  0.604857  0.250000  0.895143  1
  Ca  Ca7  1  0.895143  0.604857  0.250000  1
  Pt  Pt8  1  0.500000  0.500000  0.500000  1
  Pt  Pt9  1  0.000000  0.000000  0.000000  1
  O  O10  1  0.432655  0.205835  0.559164  1
  O  O11  1  0.559164  0.432655  0.205835  1
  O  O12  1  0.205835  0.559164  0.432655  1
  O  O13  1  0.067345  0.940836  0.294165  1
  O  O14  1  0.294165  0.067345  0.940836  1
  O  O15  1  0.940836  0.294165  0.067345  1
  O  O16  1  0.567345  0.794165  0.440836  1
  O  O17  1  0.440836  0.567345  0.794165  1
  O  O18  1  0.794165  0.440836  0.567345  1
  O  O19  1  0.932655  0.059164  0.705835  1
  O  O20  1  0.059164  0.705835  0.932655  1
  O  O21  1  0.705835  0.932655  0.059164  1
