# generated using pymatgen
data_Li2Ho3CdSn3
_symmetry_space_group_name_H-M   'P 1'
_cell_length_a   7.39252500
_cell_length_b   7.26261699
_cell_length_c   4.61162300
_cell_angle_alpha   90.00000000
_cell_angle_beta   90.00000000
_cell_angle_gamma   120.59348506
_symmetry_Int_Tables_number   1
_chemical_formula_structural   Li2Ho3CdSn3
_chemical_formula_sum   'Li2 Ho3 Cd1 Sn3'
_cell_volume   213.12870644
_cell_formula_units_Z   1
loop_
 _symmetry_equiv_pos_site_id
 _symmetry_equiv_pos_as_xyz
  1  'x, y, z'
loop_
 _atom_site_type_symbol
 _atom_site_label
 _atom_site_symmetry_multiplicity
 _atom_site_fract_x
 _atom_site_fract_y
 _atom_site_fract_z
 _atom_site_occupancy
  Li  Li0  1  0.000177  0.235220  0.500000  1
  Li  Li1  1  0.764957  0.764780  0.500000  1
  Ho  Ho2  1  0.004763  0.562768  0.000000  1
  Ho  Ho3  1  0.441995  0.437232  0.000000  1
  Ho  Ho4  1  0.560163  0.000000  0.000000  1
  Cd  Cd5  1  0.232073  0.000000  0.500000  1
  Sn  Sn6  1  0.981091  0.000000  0.000000  1
  Sn  Sn7  1  0.678883  0.342986  0.500000  1
  Sn  Sn8  1  0.335896  0.657014  0.500000  1
