# generated using pymatgen
data_LiTh3(Co4P3)2
_symmetry_space_group_name_H-M   'P 1'
_cell_length_a   3.82102200
_cell_length_b   10.61996000
_cell_length_c   12.43471100
_cell_angle_alpha   90.00000000
_cell_angle_beta   90.00000000
_cell_angle_gamma   90.00000000
_symmetry_Int_Tables_number   1
_chemical_formula_structural   LiTh3(Co4P3)2
_chemical_formula_sum   'Li2 Th6 Co16 P12'
_cell_volume   504.58939108
_cell_formula_units_Z   2
loop_
 _symmetry_equiv_pos_site_id
 _symmetry_equiv_pos_as_xyz
  1  'x, y, z'
loop_
 _atom_site_type_symbol
 _atom_site_label
 _atom_site_symmetry_multiplicity
 _atom_site_fract_x
 _atom_site_fract_y
 _atom_site_fract_z
 _atom_site_occupancy
  Li  Li0  1  0.500000  0.500000  0.149409  1
  Li  Li1  1  0.000000  0.000000  0.850591  1
  Th  Th2  1  0.000000  0.500000  0.522132  1
  Th  Th3  1  0.500000  0.000000  0.477868  1
  Th  Th4  1  0.500000  0.816280  0.206405  1
  Th  Th5  1  0.500000  0.183720  0.206405  1
  Th  Th6  1  0.000000  0.683720  0.793595  1
  Th  Th7  1  0.000000  0.316280  0.793595  1
  Co  Co8  1  0.500000  0.500000  0.705115  1
  Co  Co9  1  0.000000  0.000000  0.294885  1
  Co  Co10  1  0.000000  0.500000  0.986462  1
  Co  Co11  1  0.500000  0.000000  0.013538  1
  Co  Co12  1  0.500000  0.332102  0.997243  1
  Co  Co13  1  0.500000  0.667898  0.997243  1
  Co  Co14  1  0.000000  0.167898  0.002757  1
  Co  Co15  1  0.000000  0.832102  0.002757  1
  Co  Co16  1  0.500000  0.298699  0.431596  1
  Co  Co17  1  0.500000  0.701301  0.431596  1
  Co  Co18  1  0.000000  0.201301  0.568404  1
  Co  Co19  1  0.000000  0.798699  0.568404  1
  Co  Co20  1  0.500000  0.878356  0.706614  1
  Co  Co21  1  0.500000  0.121644  0.706614  1
  Co  Co22  1  0.000000  0.621644  0.293386  1
  Co  Co23  1  0.000000  0.378356  0.293386  1
  P  P24  1  0.500000  0.500000  0.888245  1
  P  P25  1  0.000000  0.000000  0.111755  1
  P  P26  1  0.500000  0.500000  0.340318  1
  P  P27  1  0.000000  0.000000  0.659682  1
  P  P28  1  0.500000  0.306055  0.612942  1
  P  P29  1  0.500000  0.693945  0.612942  1
  P  P30  1  0.000000  0.193945  0.387058  1
  P  P31  1  0.000000  0.806055  0.387058  1
  P  P32  1  0.500000  0.846436  0.896929  1
  P  P33  1  0.500000  0.153564  0.896929  1
  P  P34  1  0.000000  0.653564  0.103071  1
  P  P35  1  0.000000  0.346436  0.103071  1
