# generated using pymatgen
data_Tb4ErLu5Sn6
_symmetry_space_group_name_H-M   'P 1'
_cell_length_a   8.88502500
_cell_length_b   8.88502591
_cell_length_c   6.44484200
_cell_angle_alpha   90.00000000
_cell_angle_beta   90.00000000
_cell_angle_gamma   119.80226767
_symmetry_Int_Tables_number   1
_chemical_formula_structural   Tb4ErLu5Sn6
_chemical_formula_sum   'Tb4 Er1 Lu5 Sn6'
_cell_volume   441.49128942
_cell_formula_units_Z   1
loop_
 _symmetry_equiv_pos_site_id
 _symmetry_equiv_pos_as_xyz
  1  'x, y, z'
loop_
 _atom_site_type_symbol
 _atom_site_label
 _atom_site_symmetry_multiplicity
 _atom_site_fract_x
 _atom_site_fract_y
 _atom_site_fract_z
 _atom_site_occupancy
  Tb  Tb0  1  0.238455  0.999802  0.750000  1
  Tb  Tb1  1  0.999802  0.238455  0.750000  1
  Tb  Tb2  1  0.761513  0.999585  0.250000  1
  Tb  Tb3  1  0.999585  0.761513  0.250000  1
  Er  Er4  1  0.241590  0.241590  0.250000  1
  Lu  Lu5  1  0.666620  0.333023  0.999721  1
  Lu  Lu6  1  0.333023  0.666620  0.999721  1
  Lu  Lu7  1  0.333023  0.666620  0.500279  1
  Lu  Lu8  1  0.666620  0.333023  0.500279  1
  Lu  Lu9  1  0.759931  0.759931  0.750000  1
  Sn  Sn10  1  0.398723  0.398723  0.750000  1
  Sn  Sn11  1  0.603546  0.998349  0.750000  1
  Sn  Sn12  1  0.998349  0.603546  0.750000  1
  Sn  Sn13  1  0.602207  0.602207  0.250000  1
  Sn  Sn14  1  0.396884  0.000129  0.250000  1
  Sn  Sn15  1  0.000129  0.396884  0.250000  1
