# generated using pymatgen
data_K2V2As2O9
_symmetry_space_group_name_H-M   'P 1'
_cell_length_a   5.84330600
_cell_length_b   8.67223700
_cell_length_c   18.26067100
_cell_angle_alpha   90.00000000
_cell_angle_beta   90.00000000
_cell_angle_gamma   90.00000000
_symmetry_Int_Tables_number   1
_chemical_formula_structural   K2V2As2O9
_chemical_formula_sum   'K8 V8 As8 O36'
_cell_volume   925.35100250
_cell_formula_units_Z   4
loop_
 _symmetry_equiv_pos_site_id
 _symmetry_equiv_pos_as_xyz
  1  'x, y, z'
loop_
 _atom_site_type_symbol
 _atom_site_label
 _atom_site_symmetry_multiplicity
 _atom_site_fract_x
 _atom_site_fract_y
 _atom_site_fract_z
 _atom_site_occupancy
  K  K0  1  0.750000  0.455054  0.765209  1
  K  K1  1  0.250000  0.597639  0.634191  1
  K  K2  1  0.750000  0.955054  0.734791  1
  K  K3  1  0.750000  0.402361  0.365809  1
  K  K4  1  0.250000  0.044946  0.265209  1
  K  K5  1  0.250000  0.544946  0.234791  1
  K  K6  1  0.250000  0.097639  0.865809  1
  K  K7  1  0.750000  0.902361  0.134191  1
  V  V8  1  0.250000  0.219134  0.063541  1
  V  V9  1  0.750000  0.280866  0.563541  1
  V  V10  1  0.250000  0.719134  0.436459  1
  V  V11  1  0.500000  0.000000  0.500000  1
  V  V12  1  0.750000  0.780866  0.936459  1
  V  V13  1  0.000000  0.500000  0.000000  1
  V  V14  1  0.500000  0.500000  0.000000  1
  V  V15  1  0.000000  0.000000  0.500000  1
  As  As16  1  0.250000  0.323487  0.443347  1
  As  As17  1  0.250000  0.183588  0.646816  1
  As  As18  1  0.750000  0.316412  0.146816  1
  As  As19  1  0.750000  0.676513  0.556653  1
  As  As20  1  0.750000  0.816412  0.353184  1
  As  As21  1  0.250000  0.683588  0.853184  1
  As  As22  1  0.750000  0.176513  0.943347  1
  As  As23  1  0.250000  0.823487  0.056653  1
  O  O24  1  0.750000  0.958224  0.423505  1
  O  O25  1  0.491260  0.800957  0.861543  1
  O  O26  1  0.002247  0.233123  0.477407  1
  O  O27  1  0.497753  0.233123  0.477407  1
  O  O28  1  0.750000  0.915365  0.274329  1
  O  O29  1  0.250000  0.505704  0.477289  1
  O  O30  1  0.502247  0.266877  0.977407  1
  O  O31  1  0.250000  0.945936  0.432419  1
  O  O32  1  0.250000  0.445936  0.067581  1
  O  O33  1  0.250000  0.041776  0.576495  1
  O  O34  1  0.250000  0.315707  0.351033  1
  O  O35  1  0.991260  0.199043  0.138457  1
  O  O36  1  0.250000  0.584635  0.774329  1
  O  O37  1  0.497753  0.733123  0.022593  1
  O  O38  1  0.250000  0.541776  0.923505  1
  O  O39  1  0.008740  0.800957  0.861543  1
  O  O40  1  0.750000  0.458224  0.076495  1
  O  O41  1  0.750000  0.554064  0.932419  1
  O  O42  1  0.508740  0.199043  0.138457  1
  O  O43  1  0.502247  0.766877  0.522593  1
  O  O44  1  0.750000  0.184293  0.851033  1
  O  O45  1  0.750000  0.994296  0.977289  1
  O  O46  1  0.008740  0.300957  0.638457  1
  O  O47  1  0.250000  0.084635  0.725671  1
  O  O48  1  0.997753  0.266877  0.977407  1
  O  O49  1  0.750000  0.415365  0.225671  1
  O  O50  1  0.002247  0.733123  0.022593  1
  O  O51  1  0.997753  0.766877  0.522593  1
  O  O52  1  0.250000  0.005704  0.022711  1
  O  O53  1  0.991260  0.699043  0.361543  1
  O  O54  1  0.250000  0.815707  0.148967  1
  O  O55  1  0.750000  0.054064  0.567581  1
  O  O56  1  0.491260  0.300957  0.638457  1
  O  O57  1  0.750000  0.494296  0.522711  1
  O  O58  1  0.750000  0.684293  0.648967  1
  O  O59  1  0.508740  0.699043  0.361543  1
