# generated using pymatgen
data_Ce4Np3PaO16
_symmetry_space_group_name_H-M   'P 1'
_cell_length_a   7.73247000
_cell_length_b   7.69821000
_cell_length_c   5.45938300
_cell_angle_alpha   90.00000000
_cell_angle_beta   90.00000000
_cell_angle_gamma   90.00000000
_symmetry_Int_Tables_number   1
_chemical_formula_structural   Ce4Np3PaO16
_chemical_formula_sum   'Ce4 Np3 Pa1 O16'
_cell_volume   324.97620357
_cell_formula_units_Z   1
loop_
 _symmetry_equiv_pos_site_id
 _symmetry_equiv_pos_as_xyz
  1  'x, y, z'
loop_
 _atom_site_type_symbol
 _atom_site_label
 _atom_site_symmetry_multiplicity
 _atom_site_fract_x
 _atom_site_fract_y
 _atom_site_fract_z
 _atom_site_occupancy
  Ce  Ce0  1  0.000000  0.498791  0.000000  1
  Ce  Ce1  1  0.251994  0.749912  0.500000  1
  Ce  Ce2  1  0.500000  0.499445  0.000000  1
  Ce  Ce3  1  0.748006  0.749912  0.500000  1
  Np  Np4  1  0.251654  0.250618  0.500000  1
  Np  Np5  1  0.500000  0.000344  0.000000  1
  Np  Np6  1  0.748346  0.250618  0.500000  1
  Pa  Pa7  1  0.000000  0.000122  0.000000  1
  O  O8  1  0.000000  0.241291  0.251213  1
  O  O9  1  0.246298  0.005747  0.243011  1
  O  O10  1  0.246298  0.005747  0.756989  1
  O  O11  1  0.000000  0.241291  0.748787  1
  O  O12  1  0.500000  0.241365  0.254811  1
  O  O13  1  0.753702  0.005747  0.243011  1
  O  O14  1  0.753702  0.005747  0.756989  1
  O  O15  1  0.500000  0.241365  0.745189  1
  O  O16  1  0.000000  0.760162  0.243059  1
  O  O17  1  0.249926  0.493798  0.253873  1
  O  O18  1  0.249926  0.493798  0.746127  1
  O  O19  1  0.000000  0.760162  0.756941  1
  O  O20  1  0.500000  0.758212  0.245773  1
  O  O21  1  0.750074  0.493798  0.253873  1
  O  O22  1  0.750074  0.493798  0.746127  1
  O  O23  1  0.500000  0.758212  0.754227  1
