# generated using pymatgen
data_Tb4Sc4Rh3Au
_symmetry_space_group_name_H-M   'P 1'
_cell_length_a   4.46607600
_cell_length_b   7.07863431
_cell_length_c   8.64617112
_cell_angle_alpha   89.83703807
_cell_angle_beta   90.00000000
_cell_angle_gamma   90.00000000
_symmetry_Int_Tables_number   1
_chemical_formula_structural   Tb4Sc4Rh3Au
_chemical_formula_sum   'Tb4 Sc4 Rh3 Au1'
_cell_volume   273.33651692
_cell_formula_units_Z   1
loop_
 _symmetry_equiv_pos_site_id
 _symmetry_equiv_pos_as_xyz
  1  'x, y, z'
loop_
 _atom_site_type_symbol
 _atom_site_label
 _atom_site_symmetry_multiplicity
 _atom_site_fract_x
 _atom_site_fract_y
 _atom_site_fract_z
 _atom_site_occupancy
  Tb  Tb0  1  0.250000  0.012403  0.325774  1
  Tb  Tb1  1  0.250000  0.525460  0.180776  1
  Tb  Tb2  1  0.750000  0.984596  0.671247  1
  Tb  Tb3  1  0.750000  0.489153  0.819980  1
  Sc  Sc4  1  0.250000  0.135789  0.921675  1
  Sc  Sc5  1  0.250000  0.637903  0.570795  1
  Sc  Sc6  1  0.750000  0.855258  0.066099  1
  Sc  Sc7  1  0.750000  0.361266  0.431621  1
  Rh  Rh8  1  0.250000  0.256183  0.592726  1
  Rh  Rh9  1  0.250000  0.755661  0.908101  1
  Rh  Rh10  1  0.750000  0.741472  0.407047  1
  Au  Au11  1  0.750000  0.244858  0.104158  1
