# generated using pymatgen
data_Mn4TcMo
_symmetry_space_group_name_H-M   'P 1'
_cell_length_a   4.67626800
_cell_length_b   4.67626810
_cell_length_c   7.71885700
_cell_angle_alpha   90.00000000
_cell_angle_beta   90.00000000
_cell_angle_gamma   119.99999928
_symmetry_Int_Tables_number   1
_chemical_formula_structural   Mn4TcMo
_chemical_formula_sum   'Mn8 Tc2 Mo2'
_cell_volume   146.17813790
_cell_formula_units_Z   2
loop_
 _symmetry_equiv_pos_site_id
 _symmetry_equiv_pos_as_xyz
  1  'x, y, z'
loop_
 _atom_site_type_symbol
 _atom_site_label
 _atom_site_symmetry_multiplicity
 _atom_site_fract_x
 _atom_site_fract_y
 _atom_site_fract_z
 _atom_site_occupancy
  Mn  Mn0  1  0.000000  0.000000  0.000469  1
  Mn  Mn1  1  0.346432  0.173216  0.250000  1
  Mn  Mn2  1  0.826783  0.173216  0.250000  1
  Mn  Mn3  1  0.826785  0.653567  0.250000  1
  Mn  Mn4  1  0.000000  0.000000  0.499531  1
  Mn  Mn5  1  0.172270  0.344541  0.749999  1
  Mn  Mn6  1  0.172270  0.827730  0.749999  1
  Mn  Mn7  1  0.655459  0.827730  0.749999  1
  Tc  Tc8  1  0.666667  0.333333  0.570024  1
  Tc  Tc9  1  0.666667  0.333333  0.929976  1
  Mo  Mo10  1  0.333333  0.666666  0.062932  1
  Mo  Mo11  1  0.333333  0.666666  0.437067  1
