# generated using pymatgen
data_Zr7Sc(InAu2)4
_symmetry_space_group_name_H-M   'P 1'
_cell_length_a   7.63660006
_cell_length_b   7.63660006
_cell_length_c   7.13872600
_cell_angle_alpha   90.00000000
_cell_angle_beta   90.00000000
_cell_angle_gamma   90.11813890
_symmetry_Int_Tables_number   1
_chemical_formula_structural   Zr7Sc(InAu2)4
_chemical_formula_sum   'Zr7 Sc1 In4 Au8'
_cell_volume   416.31291395
_cell_formula_units_Z   1
loop_
 _symmetry_equiv_pos_site_id
 _symmetry_equiv_pos_as_xyz
  1  'x, y, z'
loop_
 _atom_site_type_symbol
 _atom_site_label
 _atom_site_symmetry_multiplicity
 _atom_site_fract_x
 _atom_site_fract_y
 _atom_site_fract_z
 _atom_site_occupancy
  Zr  Zr0  1  0.145645  0.145645  0.000000  1
  Zr  Zr1  1  0.853852  0.853852  0.000000  1
  Zr  Zr2  1  0.649427  0.355662  0.500000  1
  Zr  Zr3  1  0.355662  0.649427  0.500000  1
  Zr  Zr4  1  0.693426  0.302562  0.000000  1
  Zr  Zr5  1  0.302562  0.693426  0.000000  1
  Zr  Zr6  1  0.805003  0.805003  0.500000  1
  Sc  Sc7  1  0.193950  0.193950  0.500000  1
  In  In8  1  0.500996  0.999052  0.250428  1
  In  In9  1  0.500996  0.999052  0.749572  1
  In  In10  1  0.999052  0.500996  0.250428  1
  In  In11  1  0.999052  0.500996  0.749572  1
  Au  Au12  1  0.368561  0.368561  0.208342  1
  Au  Au13  1  0.628859  0.628859  0.796591  1
  Au  Au14  1  0.628859  0.628859  0.203409  1
  Au  Au15  1  0.872031  0.130738  0.704982  1
  Au  Au16  1  0.872031  0.130738  0.295018  1
  Au  Au17  1  0.368561  0.368561  0.791658  1
  Au  Au18  1  0.130738  0.872031  0.295018  1
  Au  Au19  1  0.130738  0.872031  0.704982  1
