# generated using pymatgen
data_Zr18CoCu(Re3W)2
_symmetry_space_group_name_H-M   'P 1'
_cell_length_a   8.74165300
_cell_length_b   8.74165276
_cell_length_c   8.51094600
_cell_angle_alpha   90.00000000
_cell_angle_beta   90.00000000
_cell_angle_gamma   120.00000470
_symmetry_Int_Tables_number   1
_chemical_formula_structural   Zr18CoCu(Re3W)2
_chemical_formula_sum   'Zr18 Co1 Cu1 Re6 W2'
_cell_volume   563.24268539
_cell_formula_units_Z   1
loop_
 _symmetry_equiv_pos_site_id
 _symmetry_equiv_pos_as_xyz
  1  'x, y, z'
loop_
 _atom_site_type_symbol
 _atom_site_label
 _atom_site_symmetry_multiplicity
 _atom_site_fract_x
 _atom_site_fract_y
 _atom_site_fract_z
 _atom_site_occupancy
  Zr  Zr0  1  0.195655  0.804347  0.445434  1
  Zr  Zr1  1  0.195652  0.391310  0.445430  1
  Zr  Zr2  1  0.608690  0.804348  0.445431  1
  Zr  Zr3  1  0.799326  0.200670  0.557572  1
  Zr  Zr4  1  0.799327  0.598656  0.557580  1
  Zr  Zr5  1  0.401344  0.200671  0.557576  1
  Zr  Zr6  1  0.799326  0.200670  0.942428  1
  Zr  Zr7  1  0.799327  0.598656  0.942420  1
  Zr  Zr8  1  0.401344  0.200671  0.942424  1
  Zr  Zr9  1  0.195655  0.804347  0.054566  1
  Zr  Zr10  1  0.195652  0.391310  0.054570  1
  Zr  Zr11  1  0.608690  0.804348  0.054569  1
  Zr  Zr12  1  0.542111  0.457887  0.250000  1
  Zr  Zr13  1  0.542108  0.084215  0.250000  1
  Zr  Zr14  1  0.915784  0.457890  0.250000  1
  Zr  Zr15  1  0.458518  0.541483  0.750000  1
  Zr  Zr16  1  0.458516  0.917037  0.750000  1
  Zr  Zr17  1  0.082966  0.541478  0.750000  1
  Co  Co18  1  0.666667  0.333333  0.750000  1
  Cu  Cu19  1  0.333328  0.666665  0.250000  1
  Re  Re20  1  0.890952  0.109052  0.250000  1
  Re  Re21  1  0.890952  0.781906  0.250000  1
  Re  Re22  1  0.218100  0.109052  0.250000  1
  Re  Re23  1  0.108818  0.891178  0.750000  1
  Re  Re24  1  0.108818  0.217637  0.750000  1
  Re  Re25  1  0.782375  0.891187  0.750000  1
  W  W26  1  0.999999  0.999999  0.500046  1
  W  W27  1  0.999999  0.999999  0.999954  1
