# generated using pymatgen
data_Nb5CrCo4B5
_symmetry_space_group_name_H-M   'P 1'
_cell_length_a   3.22328900
_cell_length_b   6.04239500
_cell_length_c   17.22912300
_cell_angle_alpha   90.00000000
_cell_angle_beta   90.00000000
_cell_angle_gamma   90.00000000
_symmetry_Int_Tables_number   1
_chemical_formula_structural   Nb5CrCo4B5
_chemical_formula_sum   'Nb10 Cr2 Co8 B10'
_cell_volume   335.56103857
_cell_formula_units_Z   2
loop_
 _symmetry_equiv_pos_site_id
 _symmetry_equiv_pos_as_xyz
  1  'x, y, z'
loop_
 _atom_site_type_symbol
 _atom_site_label
 _atom_site_symmetry_multiplicity
 _atom_site_fract_x
 _atom_site_fract_y
 _atom_site_fract_z
 _atom_site_occupancy
  Nb  Nb0  1  0.000000  0.471972  0.320855  1
  Nb  Nb1  1  0.000000  0.471972  0.679145  1
  Nb  Nb2  1  0.500000  0.528028  0.179145  1
  Nb  Nb3  1  0.500000  0.528028  0.820855  1
  Nb  Nb4  1  0.000000  0.978953  0.375983  1
  Nb  Nb5  1  0.000000  0.978953  0.624017  1
  Nb  Nb6  1  0.500000  0.021047  0.124017  1
  Nb  Nb7  1  0.500000  0.021047  0.875983  1
  Nb  Nb8  1  0.000000  0.357962  0.500000  1
  Nb  Nb9  1  0.500000  0.642038  0.000000  1
  Cr  Cr10  1  0.000000  0.992642  0.000000  1
  Cr  Cr11  1  0.500000  0.007358  0.500000  1
  Co  Co12  1  0.000000  0.853754  0.226776  1
  Co  Co13  1  0.000000  0.853754  0.773224  1
  Co  Co14  1  0.500000  0.146246  0.273224  1
  Co  Co15  1  0.500000  0.146246  0.726776  1
  Co  Co16  1  0.000000  0.353094  0.072021  1
  Co  Co17  1  0.000000  0.353094  0.927979  1
  Co  Co18  1  0.500000  0.646906  0.427979  1
  Co  Co19  1  0.500000  0.646906  0.572021  1
  B  B20  1  0.000000  0.234264  0.201927  1
  B  B21  1  0.000000  0.234264  0.798073  1
  B  B22  1  0.500000  0.765736  0.298073  1
  B  B23  1  0.500000  0.765736  0.701927  1
  B  B24  1  0.000000  0.730423  0.101313  1
  B  B25  1  0.000000  0.730423  0.898687  1
  B  B26  1  0.500000  0.269577  0.398687  1
  B  B27  1  0.500000  0.269577  0.601313  1
  B  B28  1  0.000000  0.762201  0.500000  1
  B  B29  1  0.500000  0.237799  0.000000  1
