# generated using pymatgen
data_Hf6Ta4Al12Fe5Ru2
_symmetry_space_group_name_H-M   'P 1'
_cell_length_a   8.65875046
_cell_length_b   8.65866522
_cell_length_c   8.67143704
_cell_angle_alpha   59.87891223
_cell_angle_beta   59.87995015
_cell_angle_gamma   60.08683728
_symmetry_Int_Tables_number   1
_chemical_formula_structural   Hf6Ta4Al12Fe5Ru2
_chemical_formula_sum   'Hf6 Ta4 Al12 Fe5 Ru2'
_cell_volume   459.16792544
_cell_formula_units_Z   1
loop_
 _symmetry_equiv_pos_site_id
 _symmetry_equiv_pos_as_xyz
  1  'x, y, z'
loop_
 _atom_site_type_symbol
 _atom_site_label
 _atom_site_symmetry_multiplicity
 _atom_site_fract_x
 _atom_site_fract_y
 _atom_site_fract_z
 _atom_site_occupancy
  Hf  Hf0  1  0.696840  0.696840  0.304150  1
  Hf  Hf1  1  0.302123  0.696484  0.303223  1
  Hf  Hf2  1  0.696504  0.302102  0.303206  1
  Hf  Hf3  1  0.303141  0.303142  0.695084  1
  Hf  Hf4  1  0.696697  0.304798  0.694813  1
  Hf  Hf5  1  0.304775  0.696718  0.694839  1
  Ta  Ta6  1  0.880572  0.880552  0.357130  1
  Ta  Ta7  1  0.879285  0.356022  0.878118  1
  Ta  Ta8  1  0.356014  0.879285  0.878141  1
  Ta  Ta9  1  0.884359  0.884373  0.876368  1
  Al  Al10  1  0.120797  0.120818  0.639611  1
  Al  Al11  1  0.120725  0.640582  0.122617  1
  Al  Al12  1  0.640587  0.120728  0.122610  1
  Al  Al13  1  0.117663  0.117664  0.122964  1
  Al  Al14  1  0.660047  0.660036  0.011783  1
  Al  Al15  1  0.665117  0.011663  0.657885  1
  Al  Al16  1  0.011668  0.665112  0.657882  1
  Al  Al17  1  0.662853  0.662840  0.662691  1
  Al  Al18  1  0.336961  0.336960  0.998495  1
  Al  Al19  1  0.331082  0.997986  0.339149  1
  Al  Al20  1  0.997974  0.331091  0.339148  1
  Al  Al21  1  0.334454  0.334461  0.333697  1
  Fe  Fe22  1  0.999957  0.999964  0.999346  1
  Fe  Fe23  1  0.996310  0.996312  0.505247  1
  Fe  Fe24  1  0.503031  0.995985  0.504524  1
  Fe  Fe25  1  0.995985  0.503021  0.504527  1
  Fe  Fe26  1  0.503727  0.503720  0.995802  1
  Ru  Ru27  1  0.998913  0.501840  0.998474  1
  Ru  Ru28  1  0.501843  0.998902  0.998478  1
