# generated using pymatgen
data_Zr3Tc2Ag
_symmetry_space_group_name_H-M   'P 1'
_cell_length_a   3.32018200
_cell_length_b   3.32018200
_cell_length_c   10.35293100
_cell_angle_alpha   90.00000000
_cell_angle_beta   90.00000000
_cell_angle_gamma   90.00000000
_symmetry_Int_Tables_number   1
_chemical_formula_structural   Zr3Tc2Ag
_chemical_formula_sum   'Zr3 Tc2 Ag1'
_cell_volume   114.12665831
_cell_formula_units_Z   1
loop_
 _symmetry_equiv_pos_site_id
 _symmetry_equiv_pos_as_xyz
  1  'x, y, z'
loop_
 _atom_site_type_symbol
 _atom_site_label
 _atom_site_symmetry_multiplicity
 _atom_site_fract_x
 _atom_site_fract_y
 _atom_site_fract_z
 _atom_site_occupancy
  Zr  Zr0  1  0.000000  0.000000  0.000000  1
  Zr  Zr1  1  0.000000  0.000000  0.310865  1
  Zr  Zr2  1  0.000000  0.000000  0.689134  1
  Tc  Tc3  1  0.500001  0.500001  0.163550  1
  Tc  Tc4  1  0.500001  0.500001  0.836450  1
  Ag  Ag5  1  0.500001  0.500001  0.500000  1
