# generated using pymatgen
data_TmLuFe8Co4P7
_symmetry_space_group_name_H-M   'P 1'
_cell_length_a   3.60481900
_cell_length_b   8.94494530
_cell_length_c   8.92977996
_cell_angle_alpha   120.05311083
_cell_angle_beta   90.00000000
_cell_angle_gamma   90.00000000
_symmetry_Int_Tables_number   1
_chemical_formula_structural   TmLuFe8Co4P7
_chemical_formula_sum   'Tm1 Lu1 Fe8 Co4 P7'
_cell_volume   249.22974169
_cell_formula_units_Z   1
loop_
 _symmetry_equiv_pos_site_id
 _symmetry_equiv_pos_as_xyz
  1  'x, y, z'
loop_
 _atom_site_type_symbol
 _atom_site_label
 _atom_site_symmetry_multiplicity
 _atom_site_fract_x
 _atom_site_fract_y
 _atom_site_fract_z
 _atom_site_occupancy
  Tm  Tm0  1  0.000000  0.666344  0.332132  1
  Lu  Lu1  1  0.500000  0.333535  0.666686  1
  Fe  Fe2  1  0.000000  0.567702  0.627762  1
  Fe  Fe3  1  0.000000  0.881210  0.725012  1
  Fe  Fe4  1  0.000000  0.274599  0.156029  1
  Fe  Fe5  1  0.000000  0.845458  0.119604  1
  Fe  Fe6  1  0.500000  0.612262  0.048365  1
  Fe  Fe7  1  0.500000  0.128212  0.898762  1
  Fe  Fe8  1  0.500000  0.101282  0.230576  1
  Fe  Fe9  1  0.500000  0.776787  0.875512  1
  Co  Co10  1  0.000000  0.370725  0.939157  1
  Co  Co11  1  0.000000  0.060475  0.433255  1
  Co  Co12  1  0.500000  0.949316  0.562496  1
  Co  Co13  1  0.500000  0.435834  0.385510  1
  P  P14  1  0.000000  0.113276  0.704507  1
  P  P15  1  0.000000  0.296717  0.410520  1
  P  P16  1  0.000000  0.590606  0.886222  1
  P  P17  1  0.500000  0.710843  0.599015  1
  P  P18  1  0.500000  0.402637  0.114262  1
  P  P19  1  0.500000  0.882125  0.284554  1
  P  P20  1  0.000000  0.000054  0.000067  1
