# generated using pymatgen
data_Ac3Au4
_symmetry_space_group_name_H-M   'P 1'
_cell_length_a   8.73734370
_cell_length_b   8.73734432
_cell_length_c   8.73734257
_cell_angle_alpha   114.16167316
_cell_angle_beta   114.16167513
_cell_angle_gamma   114.16168295
_symmetry_Int_Tables_number   1
_chemical_formula_structural   Ac3Au4
_chemical_formula_sum   'Ac6 Au8'
_cell_volume   400.34416046
_cell_formula_units_Z   2
loop_
 _symmetry_equiv_pos_site_id
 _symmetry_equiv_pos_as_xyz
  1  'x, y, z'
loop_
 _atom_site_type_symbol
 _atom_site_label
 _atom_site_symmetry_multiplicity
 _atom_site_fract_x
 _atom_site_fract_y
 _atom_site_fract_z
 _atom_site_occupancy
  Ac  Ac0  1  0.402000  0.024182  0.276404  1
  Ac  Ac1  1  0.024182  0.276404  0.402000  1
  Ac  Ac2  1  0.276404  0.402000  0.024182  1
  Ac  Ac3  1  0.598000  0.975818  0.723596  1
  Ac  Ac4  1  0.975818  0.723596  0.598000  1
  Ac  Ac5  1  0.723596  0.598000  0.975818  1
  Au  Au6  1  0.062367  0.556993  0.223810  1
  Au  Au7  1  0.223810  0.062367  0.556993  1
  Au  Au8  1  0.556993  0.223810  0.062367  1
  Au  Au9  1  0.776190  0.937633  0.443007  1
  Au  Au10  1  0.937633  0.443007  0.776190  1
  Au  Au11  1  0.443007  0.776190  0.937633  1
  Au  Au12  1  0.500000  0.500000  0.500000  1
  Au  Au13  1  0.000000  0.000000  0.000000  1
