# generated using pymatgen
data_Yb3TmAl16(SiIr3)2
_symmetry_space_group_name_H-M   'P 1'
_cell_length_a   7.53725580
_cell_length_b   7.54308105
_cell_length_c   9.41059400
_cell_angle_alpha   90.00000000
_cell_angle_beta   90.00000000
_cell_angle_gamma   119.55101305
_symmetry_Int_Tables_number   1
_chemical_formula_structural   Yb3TmAl16(SiIr3)2
_chemical_formula_sum   'Yb3 Tm1 Al16 Si2 Ir6'
_cell_volume   465.43265031
_cell_formula_units_Z   1
loop_
 _symmetry_equiv_pos_site_id
 _symmetry_equiv_pos_as_xyz
  1  'x, y, z'
loop_
 _atom_site_type_symbol
 _atom_site_label
 _atom_site_symmetry_multiplicity
 _atom_site_fract_x
 _atom_site_fract_y
 _atom_site_fract_z
 _atom_site_occupancy
  Yb  Yb0  1  0.993591  0.677190  0.250000  1
  Yb  Yb1  1  0.004071  0.323774  0.750000  1
  Yb  Yb2  1  0.678211  0.994266  0.250000  1
  Tm  Tm3  1  0.322223  0.001796  0.750000  1
  Al  Al4  1  0.001389  0.336507  0.071911  1
  Al  Al5  1  0.999268  0.662604  0.924653  1
  Al  Al6  1  0.999268  0.662604  0.575347  1
  Al  Al7  1  0.336635  0.001464  0.427122  1
  Al  Al8  1  0.001389  0.336507  0.428089  1
  Al  Al9  1  0.663934  0.000386  0.575320  1
  Al  Al10  1  0.663934  0.000386  0.924680  1
  Al  Al11  1  0.336635  0.001464  0.072878  1
  Al  Al12  1  0.334395  0.334581  0.556756  1
  Al  Al13  1  0.664011  0.664122  0.452343  1
  Al  Al14  1  0.664011  0.664122  0.047657  1
  Al  Al15  1  0.334395  0.334581  0.943244  1
  Al  Al16  1  0.332866  0.545893  0.250000  1
  Al  Al17  1  0.663120  0.451072  0.750000  1
  Al  Al18  1  0.546072  0.333462  0.250000  1
  Al  Al19  1  0.454020  0.668039  0.750000  1
  Si  Si20  1  0.133334  0.134624  0.250000  1
  Si  Si21  1  0.870966  0.868845  0.750000  1
  Ir  Ir22  1  0.670335  0.328651  0.999159  1
  Ir  Ir23  1  0.329651  0.672071  0.999082  1
  Ir  Ir24  1  0.329651  0.672071  0.500918  1
  Ir  Ir25  1  0.670335  0.328651  0.500841  1
  Ir  Ir26  1  0.001144  0.000136  0.998219  1
  Ir  Ir27  1  0.001144  0.000136  0.501781  1
