# generated using pymatgen
data_Zr6ScTi3Al12Rh7
_symmetry_space_group_name_H-M   'P 1'
_cell_length_a   8.80815253
_cell_length_b   8.80815187
_cell_length_c   8.81692618
_cell_angle_alpha   60.03291136
_cell_angle_beta   60.03291253
_cell_angle_gamma   60.00000320
_symmetry_Int_Tables_number   1
_chemical_formula_structural   Zr6ScTi3Al12Rh7
_chemical_formula_sum   'Zr6 Sc1 Ti3 Al12 Rh7'
_cell_volume   483.93574866
_cell_formula_units_Z   1
loop_
 _symmetry_equiv_pos_site_id
 _symmetry_equiv_pos_as_xyz
  1  'x, y, z'
loop_
 _atom_site_type_symbol
 _atom_site_label
 _atom_site_symmetry_multiplicity
 _atom_site_fract_x
 _atom_site_fract_y
 _atom_site_fract_z
 _atom_site_occupancy
  Zr  Zr0  1  0.688194  0.688194  0.310067  1
  Zr  Zr1  1  0.313546  0.688194  0.310067  1
  Zr  Zr2  1  0.688194  0.313546  0.310067  1
  Zr  Zr3  1  0.309185  0.309185  0.690782  1
  Zr  Zr4  1  0.690848  0.309185  0.690782  1
  Zr  Zr5  1  0.309185  0.690848  0.690782  1
  Sc  Sc6  1  0.881456  0.881456  0.355630  1
  Ti  Ti7  1  0.879707  0.359876  0.880708  1
  Ti  Ti8  1  0.359876  0.879707  0.880708  1
  Ti  Ti9  1  0.879707  0.879707  0.880708  1
  Al  Al10  1  0.120223  0.120223  0.639331  1
  Al  Al11  1  0.121421  0.639205  0.117953  1
  Al  Al12  1  0.639205  0.121421  0.117953  1
  Al  Al13  1  0.121421  0.121421  0.117953  1
  Al  Al14  1  0.664278  0.664278  0.007164  1
  Al  Al15  1  0.663149  0.008034  0.665667  1
  Al  Al16  1  0.008034  0.663149  0.665667  1
  Al  Al17  1  0.663149  0.663149  0.665667  1
  Al  Al18  1  0.335494  0.335494  0.993518  1
  Al  Al19  1  0.335641  0.993498  0.335220  1
  Al  Al20  1  0.993498  0.335641  0.335220  1
  Al  Al21  1  0.335641  0.335641  0.335220  1
  Rh  Rh22  1  0.003567  0.003567  0.989298  1
  Rh  Rh23  1  0.999481  0.999481  0.506367  1
  Rh  Rh24  1  0.494672  0.999481  0.506367  1
  Rh  Rh25  1  0.999481  0.494672  0.506367  1
  Rh  Rh26  1  0.501749  0.501749  0.998255  1
  Rh  Rh27  1  0.998247  0.501749  0.998255  1
  Rh  Rh28  1  0.501749  0.998247  0.998255  1
