# generated using pymatgen
data_Tl2AgAu(NO3)8
_symmetry_space_group_name_H-M   'P 1'
_cell_length_a   8.72439842
_cell_length_b   8.15630108
_cell_length_c   7.90045993
_cell_angle_alpha   90.45975397
_cell_angle_beta   86.59280857
_cell_angle_gamma   91.57694023
_symmetry_Int_Tables_number   1
_chemical_formula_structural   Tl2AgAu(NO3)8
_chemical_formula_sum   'Tl2 Ag1 Au1 N8 O24'
_cell_volume   560.96963480
_cell_formula_units_Z   1
loop_
 _symmetry_equiv_pos_site_id
 _symmetry_equiv_pos_as_xyz
  1  'x, y, z'
loop_
 _atom_site_type_symbol
 _atom_site_label
 _atom_site_symmetry_multiplicity
 _atom_site_fract_x
 _atom_site_fract_y
 _atom_site_fract_z
 _atom_site_occupancy
  Tl  Tl0  1  0.500000  0.500000  0.500000  1
  Tl  Tl1  1  0.500000  0.000000  0.000000  1
  Ag  Ag2  1  0.000000  0.500000  0.000000  1
  Au  Au3  1  0.000000  0.000000  0.500000  1
  N  N4  1  0.634784  0.138923  0.296185  1
  N  N5  1  0.696003  0.321835  0.867602  1
  N  N6  1  0.856836  0.834749  0.801928  1
  N  N7  1  0.846752  0.702345  0.364126  1
  N  N8  1  0.143164  0.165251  0.198072  1
  N  N9  1  0.153248  0.297655  0.635874  1
  N  N10  1  0.303997  0.678165  0.132398  1
  N  N11  1  0.365216  0.861077  0.703815  1
  O  O12  1  0.576498  0.224019  0.838651  1
  O  O13  1  0.520272  0.214864  0.246759  1
  O  O14  1  0.711306  0.446583  0.778694  1
  O  O15  1  0.675485  0.007242  0.210761  1
  O  O16  1  0.738103  0.748748  0.457127  1
  O  O17  1  0.761216  0.824785  0.924744  1
  O  O18  1  0.785403  0.285964  0.978638  1
  O  O19  1  0.707801  0.183453  0.418502  1
  O  O20  1  0.840402  0.964130  0.701338  1
  O  O21  1  0.844995  0.580634  0.269000  1
  O  O22  1  0.960705  0.738035  0.768958  1
  O  O23  1  0.982138  0.785746  0.361384  1
  O  O24  1  0.017862  0.214254  0.638616  1
  O  O25  1  0.039295  0.261965  0.231042  1
  O  O26  1  0.155005  0.419366  0.731000  1
  O  O27  1  0.159598  0.035870  0.298662  1
  O  O28  1  0.214597  0.714036  0.021362  1
  O  O29  1  0.292199  0.816547  0.581498  1
  O  O30  1  0.238784  0.175215  0.075256  1
  O  O31  1  0.261897  0.251252  0.542873  1
  O  O32  1  0.288694  0.553417  0.221306  1
  O  O33  1  0.324515  0.992758  0.789239  1
  O  O34  1  0.479728  0.785136  0.753241  1
  O  O35  1  0.423502  0.775981  0.161349  1
