# generated using pymatgen
data_CsTa(AgS2)2
_symmetry_space_group_name_H-M   'P 1'
_cell_length_a   10.30253362
_cell_length_b   10.30253356
_cell_length_c   8.29380300
_cell_angle_alpha   90.00000000
_cell_angle_beta   90.00000000
_cell_angle_gamma   145.77838433
_symmetry_Int_Tables_number   1
_chemical_formula_structural   CsTa(AgS2)2
_chemical_formula_sum   'Cs2 Ta2 Ag4 S8'
_cell_volume   495.08928532
_cell_formula_units_Z   2
loop_
 _symmetry_equiv_pos_site_id
 _symmetry_equiv_pos_as_xyz
  1  'x, y, z'
loop_
 _atom_site_type_symbol
 _atom_site_label
 _atom_site_symmetry_multiplicity
 _atom_site_fract_x
 _atom_site_fract_y
 _atom_site_fract_z
 _atom_site_occupancy
  Cs  Cs0  1  0.457399  0.821891  0.750000  1
  Cs  Cs1  1  0.821891  0.457399  0.250000  1
  Ta  Ta2  1  0.523854  0.297205  0.750000  1
  Ta  Ta3  1  0.297205  0.523854  0.250000  1
  Ag  Ag4  1  0.371938  0.371938  0.000000  1
  Ag  Ag5  1  0.371938  0.371938  0.500000  1
  Ag  Ag6  1  0.024772  0.795523  0.750000  1
  Ag  Ag7  1  0.795523  0.024772  0.250000  1
  S  S8  1  0.642834  0.612809  0.750000  1
  S  S9  1  0.612809  0.642834  0.250000  1
  S  S10  1  0.311281  0.076130  0.980928  1
  S  S11  1  0.076130  0.311281  0.480928  1
  S  S12  1  0.415161  0.833274  0.250000  1
  S  S13  1  0.076130  0.311281  0.019072  1
  S  S14  1  0.311281  0.076130  0.519072  1
  S  S15  1  0.833274  0.415161  0.750000  1
