# generated using pymatgen
data_TiNb5Ga4(CoC)2
_symmetry_space_group_name_H-M   'P 1'
_cell_length_a   8.19603738
_cell_length_b   8.19603779
_cell_length_c   8.21299209
_cell_angle_alpha   60.03563774
_cell_angle_beta   60.03563859
_cell_angle_gamma   60.15988578
_symmetry_Int_Tables_number   1
_chemical_formula_structural   TiNb5Ga4(CoC)2
_chemical_formula_sum   'Ti2 Nb10 Ga8 Co4 C4'
_cell_volume   390.79645467
_cell_formula_units_Z   2
loop_
 _symmetry_equiv_pos_site_id
 _symmetry_equiv_pos_as_xyz
  1  'x, y, z'
loop_
 _atom_site_type_symbol
 _atom_site_label
 _atom_site_symmetry_multiplicity
 _atom_site_fract_x
 _atom_site_fract_y
 _atom_site_fract_z
 _atom_site_occupancy
  Ti  Ti0  1  0.691703  0.310942  0.689087  1
  Ti  Ti1  1  0.939058  0.558297  0.560913  1
  Nb  Nb2  1  0.559958  0.942239  0.939652  1
  Nb  Nb3  1  0.943557  0.559009  0.941519  1
  Nb  Nb4  1  0.557814  0.558845  0.939366  1
  Nb  Nb5  1  0.941647  0.942431  0.560927  1
  Nb  Nb6  1  0.691155  0.692186  0.310634  1
  Nb  Nb7  1  0.309753  0.693034  0.689505  1
  Nb  Nb8  1  0.690991  0.306443  0.308481  1
  Nb  Nb9  1  0.307569  0.308353  0.689073  1
  Nb  Nb10  1  0.556966  0.940247  0.560495  1
  Nb  Nb11  1  0.307761  0.690042  0.310348  1
  Ga  Ga12  1  0.331769  0.333748  0.332820  1
  Ga  Ga13  1  0.249434  0.916653  0.917496  1
  Ga  Ga14  1  0.916294  0.252438  0.913374  1
  Ga  Ga15  1  0.916684  0.913452  0.253432  1
  Ga  Ga16  1  0.333347  0.000566  0.332504  1
  Ga  Ga17  1  0.336548  0.333316  0.996568  1
  Ga  Ga18  1  0.997562  0.333706  0.336626  1
  Ga  Ga19  1  0.916252  0.918231  0.917180  1
  Co  Co20  1  0.123895  0.126105  0.125000  1
  Co  Co21  1  0.625984  0.125220  0.124841  1
  Co  Co22  1  0.124780  0.624016  0.125159  1
  Co  Co23  1  0.125342  0.124658  0.625000  1
  C  C24  1  0.631479  0.618521  0.625000  1
  C  C25  1  0.120777  0.624111  0.624594  1
  C  C26  1  0.625889  0.129223  0.625406  1
  C  C27  1  0.626033  0.623967  0.125000  1
