# generated using pymatgen
data_Y9HoHg3Ru
_symmetry_space_group_name_H-M   'P 1'
_cell_length_a   9.65934426
_cell_length_b   9.66231540
_cell_length_c   9.68355457
_cell_angle_alpha   90.00440261
_cell_angle_beta   89.94143343
_cell_angle_gamma   119.99183763
_symmetry_Int_Tables_number   1
_chemical_formula_structural   Y9HoHg3Ru
_chemical_formula_sum   'Y18 Ho2 Hg6 Ru2'
_cell_volume   782.76198092
_cell_formula_units_Z   2
loop_
 _symmetry_equiv_pos_site_id
 _symmetry_equiv_pos_as_xyz
  1  'x, y, z'
loop_
 _atom_site_type_symbol
 _atom_site_label
 _atom_site_symmetry_multiplicity
 _atom_site_fract_x
 _atom_site_fract_y
 _atom_site_fract_z
 _atom_site_occupancy
  Y  Y0  1  0.000480  0.000241  0.499714  1
  Y  Y1  1  0.000020  0.000006  0.999989  1
  Y  Y2  1  0.580136  0.790066  0.439986  1
  Y  Y3  1  0.790670  0.209821  0.560076  1
  Y  Y4  1  0.790699  0.580880  0.560102  1
  Y  Y5  1  0.419148  0.209580  0.559982  1
  Y  Y6  1  0.790410  0.209702  0.939774  1
  Y  Y7  1  0.790417  0.580711  0.939760  1
  Y  Y8  1  0.419350  0.209685  0.939782  1
  Y  Y9  1  0.209665  0.790319  0.060497  1
  Y  Y10  1  0.209656  0.419346  0.060516  1
  Y  Y11  1  0.580515  0.790257  0.060173  1
  Y  Y12  1  0.540957  0.458665  0.250271  1
  Y  Y13  1  0.540977  0.082314  0.250275  1
  Y  Y14  1  0.918199  0.459100  0.250490  1
  Y  Y15  1  0.458518  0.541236  0.749630  1
  Y  Y16  1  0.458492  0.917273  0.749621  1
  Y  Y17  1  0.082874  0.541441  0.749303  1
  Ho  Ho18  1  0.210150  0.789492  0.439279  1
  Ho  Ho19  1  0.210127  0.420609  0.439293  1
  Hg  Hg20  1  0.881382  0.118706  0.250039  1
  Hg  Hg21  1  0.881355  0.762659  0.250030  1
  Hg  Hg22  1  0.237296  0.118670  0.249968  1
  Hg  Hg23  1  0.118675  0.881286  0.749905  1
  Hg  Hg24  1  0.118697  0.237401  0.749913  1
  Hg  Hg25  1  0.762627  0.881284  0.749982  1
  Ru  Ru26  1  0.331854  0.665924  0.251769  1
  Ru  Ru27  1  0.666651  0.333328  0.749880  1
