# generated using pymatgen
data_Y12Ho4Cd4Os3Pt
_symmetry_space_group_name_H-M   'P 1'
_cell_length_a   9.65429726
_cell_length_b   9.75548335
_cell_length_c   9.75544100
_cell_angle_alpha   59.67036299
_cell_angle_beta   59.28948823
_cell_angle_gamma   59.28954292
_symmetry_Int_Tables_number   1
_chemical_formula_structural   Y12Ho4Cd4Os3Pt
_chemical_formula_sum   'Y12 Ho4 Cd4 Os3 Pt1'
_cell_volume   641.03712677
_cell_formula_units_Z   1
loop_
 _symmetry_equiv_pos_site_id
 _symmetry_equiv_pos_as_xyz
  1  'x, y, z'
loop_
 _atom_site_type_symbol
 _atom_site_label
 _atom_site_symmetry_multiplicity
 _atom_site_fract_x
 _atom_site_fract_y
 _atom_site_fract_z
 _atom_site_occupancy
  Y  Y0  1  0.813595  0.190147  0.190166  1
  Y  Y1  1  0.183459  0.810584  0.810534  1
  Y  Y2  1  0.186904  0.810710  0.190975  1
  Y  Y3  1  0.813261  0.190075  0.803467  1
  Y  Y4  1  0.186882  0.190964  0.810683  1
  Y  Y5  1  0.813200  0.803493  0.190109  1
  Y  Y6  1  0.938790  0.559068  0.559114  1
  Y  Y7  1  0.553617  0.940484  0.940484  1
  Y  Y8  1  0.552309  0.940765  0.566266  1
  Y  Y9  1  0.936449  0.560211  0.939699  1
  Y  Y10  1  0.552365  0.566249  0.940754  1
  Y  Y11  1  0.936471  0.939705  0.560218  1
  Ho  Ho12  1  0.349035  0.350275  0.350194  1
  Ho  Ho13  1  0.346565  0.351110  0.955233  1
  Ho  Ho14  1  0.346615  0.955219  0.351056  1
  Ho  Ho15  1  0.968828  0.343818  0.343759  1
  Cd  Cd16  1  0.580230  0.579267  0.579274  1
  Cd  Cd17  1  0.580690  0.579449  0.259351  1
  Cd  Cd18  1  0.580699  0.259328  0.579460  1
  Cd  Cd19  1  0.256002  0.581484  0.581493  1
  Os  Os20  1  0.148816  0.137900  0.137935  1
  Os  Os21  1  0.149915  0.140478  0.576599  1
  Os  Os22  1  0.149862  0.576581  0.140536  1
  Pt  Pt23  1  0.575446  0.142636  0.142641  1
