# generated using pymatgen
data_Dy5GaB8Au
_symmetry_space_group_name_H-M   'P 1'
_cell_length_a   7.22493697
_cell_length_b   7.22493727
_cell_length_c   8.39248100
_cell_angle_alpha   90.00000000
_cell_angle_beta   90.00000000
_cell_angle_gamma   90.27034446
_symmetry_Int_Tables_number   1
_chemical_formula_structural   Dy5GaB8Au
_chemical_formula_sum   'Dy10 Ga2 B16 Au2'
_cell_volume   438.08025119
_cell_formula_units_Z   2
loop_
 _symmetry_equiv_pos_site_id
 _symmetry_equiv_pos_as_xyz
  1  'x, y, z'
loop_
 _atom_site_type_symbol
 _atom_site_label
 _atom_site_symmetry_multiplicity
 _atom_site_fract_x
 _atom_site_fract_y
 _atom_site_fract_z
 _atom_site_occupancy
  Dy  Dy0  1  0.683223  0.183223  0.213087  1
  Dy  Dy1  1  0.316777  0.816777  0.786913  1
  Dy  Dy2  1  0.316777  0.816777  0.213087  1
  Dy  Dy3  1  0.820164  0.679836  0.212275  1
  Dy  Dy4  1  0.820164  0.679836  0.787725  1
  Dy  Dy5  1  0.683223  0.183223  0.786913  1
  Dy  Dy6  1  0.179836  0.320164  0.787725  1
  Dy  Dy7  1  0.179836  0.320164  0.212275  1
  Dy  Dy8  1  0.000000  0.000000  0.500000  1
  Dy  Dy9  1  0.500000  0.500000  0.500000  1
  Ga  Ga10  1  0.119637  0.619636  0.500000  1
  Ga  Ga11  1  0.880363  0.380364  0.500000  1
  B  B12  1  0.172287  0.040500  0.000000  1
  B  B13  1  0.827713  0.959500  0.000000  1
  B  B14  1  0.960178  0.170940  0.000000  1
  B  B15  1  0.329060  0.539822  0.000000  1
  B  B16  1  0.039822  0.829060  0.000000  1
  B  B17  1  0.670940  0.460178  0.000000  1
  B  B18  1  0.540500  0.672287  0.000000  1
  B  B19  1  0.459500  0.327713  0.000000  1
  B  B20  1  0.091087  0.591087  0.000000  1
  B  B21  1  0.908913  0.408913  0.000000  1
  B  B22  1  0.409621  0.090379  0.000000  1
  B  B23  1  0.590379  0.909621  0.000000  1
  B  B24  1  0.000000  0.000000  0.158153  1
  B  B25  1  0.000000  0.000000  0.841847  1
  B  B26  1  0.500000  0.500000  0.841847  1
  B  B27  1  0.500000  0.500000  0.158153  1
  Au  Au28  1  0.369535  0.130466  0.500000  1
  Au  Au29  1  0.630465  0.869534  0.500000  1
