# generated using pymatgen
data_Yb3In(GaPt)4
_symmetry_space_group_name_H-M   'P 1'
_cell_length_a   4.28031400
_cell_length_b   7.04488979
_cell_length_c   7.74970292
_cell_angle_alpha   92.21383252
_cell_angle_beta   90.00000000
_cell_angle_gamma   90.00000000
_symmetry_Int_Tables_number   1
_chemical_formula_structural   Yb3In(GaPt)4
_chemical_formula_sum   'Yb3 In1 Ga4 Pt4'
_cell_volume   233.51276030
_cell_formula_units_Z   1
loop_
 _symmetry_equiv_pos_site_id
 _symmetry_equiv_pos_as_xyz
  1  'x, y, z'
loop_
 _atom_site_type_symbol
 _atom_site_label
 _atom_site_symmetry_multiplicity
 _atom_site_fract_x
 _atom_site_fract_y
 _atom_site_fract_z
 _atom_site_occupancy
  Yb  Yb0  1  0.250000  0.483248  0.186118  1
  Yb  Yb1  1  0.750000  0.014518  0.671496  1
  Yb  Yb2  1  0.750000  0.526464  0.820777  1
  In  In3  1  0.250000  0.981844  0.325547  1
  Ga  Ga4  1  0.250000  0.345998  0.567462  1
  Ga  Ga5  1  0.250000  0.848494  0.937043  1
  Ga  Ga6  1  0.750000  0.638356  0.433483  1
  Ga  Ga7  1  0.750000  0.157492  0.058042  1
  Pt  Pt8  1  0.250000  0.220188  0.876021  1
  Pt  Pt9  1  0.250000  0.719218  0.613843  1
  Pt  Pt10  1  0.750000  0.797954  0.129724  1
  Pt  Pt11  1  0.750000  0.266226  0.380443  1
