# generated using pymatgen
data_Yb2MnCo5O12
_symmetry_space_group_name_H-M   'P 1'
_cell_length_a   4.94896400
_cell_length_b   5.59147188
_cell_length_c   8.48727300
_cell_angle_alpha   89.99951839
_cell_angle_beta   89.99906224
_cell_angle_gamma   73.90341377
_symmetry_Int_Tables_number   1
_chemical_formula_structural   Yb2MnCo5O12
_chemical_formula_sum   'Yb2 Mn1 Co5 O12'
_cell_volume   225.65224109
_cell_formula_units_Z   1
loop_
 _symmetry_equiv_pos_site_id
 _symmetry_equiv_pos_as_xyz
  1  'x, y, z'
loop_
 _atom_site_type_symbol
 _atom_site_label
 _atom_site_symmetry_multiplicity
 _atom_site_fract_x
 _atom_site_fract_y
 _atom_site_fract_z
 _atom_site_occupancy
  Yb  Yb0  1  0.000000  0.500000  0.166971  1
  Yb  Yb1  1  0.500001  0.500000  0.666939  1
  Mn  Mn2  1  0.500000  0.000000  0.166608  1
  Co  Co3  1  0.500001  0.000000  0.833017  1
  Co  Co4  1  0.500000  0.000001  0.500241  1
  Co  Co5  1  0.000000  0.000000  0.666621  1
  Co  Co6  1  0.999998  0.000001  0.335672  1
  Co  Co7  1  0.999999  0.000001  0.997599  1
  O  O8  1  0.776915  0.187122  0.166639  1
  O  O9  1  0.275838  0.184420  0.666600  1
  O  O10  1  0.223083  0.812874  0.166640  1
  O  O11  1  0.724163  0.815580  0.666602  1
  O  O12  1  0.271114  0.190500  0.001526  1
  O  O13  1  0.773988  0.184949  0.504671  1
  O  O14  1  0.271224  0.190304  0.331774  1
  O  O15  1  0.774108  0.184773  0.828623  1
  O  O16  1  0.728774  0.809696  0.331774  1
  O  O17  1  0.225888  0.815231  0.828622  1
  O  O18  1  0.728888  0.809500  0.001526  1
  O  O19  1  0.226018  0.815049  0.504670  1
