# generated using pymatgen
data_Nd8Ga3Tc
_symmetry_space_group_name_H-M   'P 1'
_cell_length_a   10.45819200
_cell_length_b   10.45817763
_cell_length_c   7.19198700
_cell_angle_alpha   90.00000000
_cell_angle_beta   90.00000000
_cell_angle_gamma   119.99894271
_symmetry_Int_Tables_number   1
_chemical_formula_structural   Nd8Ga3Tc
_chemical_formula_sum   'Nd16 Ga6 Tc2'
_cell_volume   681.23472441
_cell_formula_units_Z   2
loop_
 _symmetry_equiv_pos_site_id
 _symmetry_equiv_pos_as_xyz
  1  'x, y, z'
loop_
 _atom_site_type_symbol
 _atom_site_label
 _atom_site_symmetry_multiplicity
 _atom_site_fract_x
 _atom_site_fract_y
 _atom_site_fract_z
 _atom_site_occupancy
  Nd  Nd0  1  0.831432  0.662881  0.488293  1
  Nd  Nd1  1  0.337120  0.168563  0.488288  1
  Nd  Nd2  1  0.831434  0.168549  0.488295  1
  Nd  Nd3  1  0.168568  0.337119  0.988293  1
  Nd  Nd4  1  0.662880  0.831437  0.988288  1
  Nd  Nd5  1  0.168566  0.831451  0.988295  1
  Nd  Nd6  1  0.666666  0.333329  0.167672  1
  Nd  Nd7  1  0.333334  0.666671  0.667672  1
  Nd  Nd8  1  0.536953  0.073907  0.795958  1
  Nd  Nd9  1  0.926091  0.463044  0.795968  1
  Nd  Nd10  1  0.536950  0.463042  0.795959  1
  Nd  Nd11  1  0.463047  0.926093  0.295958  1
  Nd  Nd12  1  0.073909  0.536956  0.295968  1
  Nd  Nd13  1  0.463050  0.536958  0.295959  1
  Nd  Nd14  1  0.000001  0.000002  0.768422  1
  Nd  Nd15  1  0.999999  0.999998  0.268422  1
  Ga  Ga16  1  0.834421  0.668840  0.042373  1
  Ga  Ga17  1  0.331161  0.165582  0.042372  1
  Ga  Ga18  1  0.834422  0.165580  0.042383  1
  Ga  Ga19  1  0.165579  0.331160  0.542373  1
  Ga  Ga20  1  0.668839  0.834418  0.542372  1
  Ga  Ga21  1  0.165578  0.834420  0.542383  1
  Tc  Tc22  1  0.666665  0.333332  0.547139  1
  Tc  Tc23  1  0.333335  0.666668  0.047139  1
