# generated using pymatgen
data_Pr4Al4Ir2PdRh
_symmetry_space_group_name_H-M   'P 1'
_cell_length_a   4.37959800
_cell_length_b   7.12551601
_cell_length_c   8.11663911
_cell_angle_alpha   90.00600195
_cell_angle_beta   90.00000000
_cell_angle_gamma   90.00000000
_symmetry_Int_Tables_number   1
_chemical_formula_structural   Pr4Al4Ir2PdRh
_chemical_formula_sum   'Pr4 Al4 Ir2 Pd1 Rh1'
_cell_volume   253.29510843
_cell_formula_units_Z   1
loop_
 _symmetry_equiv_pos_site_id
 _symmetry_equiv_pos_as_xyz
  1  'x, y, z'
loop_
 _atom_site_type_symbol
 _atom_site_label
 _atom_site_symmetry_multiplicity
 _atom_site_fract_x
 _atom_site_fract_y
 _atom_site_fract_z
 _atom_site_occupancy
  Pr  Pr0  1  0.250000  0.531529  0.184047  1
  Pr  Pr1  1  0.750000  0.458036  0.818138  1
  Pr  Pr2  1  0.750000  0.968188  0.677107  1
  Pr  Pr3  1  0.250000  0.036688  0.318413  1
  Al  Al4  1  0.250000  0.631873  0.558940  1
  Al  Al5  1  0.750000  0.363458  0.437099  1
  Al  Al6  1  0.750000  0.867329  0.064296  1
  Al  Al7  1  0.250000  0.141484  0.937613  1
  Ir  Ir8  1  0.750000  0.225943  0.117735  1
  Ir  Ir9  1  0.250000  0.272328  0.618972  1
  Pd  Pd10  1  0.250000  0.776039  0.883150  1
  Rh  Rh11  1  0.750000  0.727105  0.384485  1
