# generated using pymatgen
data_Sm2Ta3Ni9P7
_symmetry_space_group_name_H-M   'P 1'
_cell_length_a   9.35466200
_cell_length_b   9.35466169
_cell_length_c   3.73338700
_cell_angle_alpha   90.00000000
_cell_angle_beta   90.00000000
_cell_angle_gamma   120.00000817
_symmetry_Int_Tables_number   1
_chemical_formula_structural   Sm2Ta3Ni9P7
_chemical_formula_sum   'Sm2 Ta3 Ni9 P7'
_cell_volume   282.93703172
_cell_formula_units_Z   1
loop_
 _symmetry_equiv_pos_site_id
 _symmetry_equiv_pos_as_xyz
  1  'x, y, z'
loop_
 _atom_site_type_symbol
 _atom_site_label
 _atom_site_symmetry_multiplicity
 _atom_site_fract_x
 _atom_site_fract_y
 _atom_site_fract_z
 _atom_site_occupancy
  Sm  Sm0  1  0.333333  0.666667  0.000000  1
  Sm  Sm1  1  0.666667  0.333333  0.500000  1
  Ta  Ta2  1  0.224170  0.118030  0.500000  1
  Ta  Ta3  1  0.881970  0.106140  0.500000  1
  Ta  Ta4  1  0.893860  0.775830  0.500000  1
  Ni  Ni5  1  0.128640  0.281743  0.000000  1
  Ni  Ni6  1  0.718257  0.846897  0.000000  1
  Ni  Ni7  1  0.153103  0.871360  0.000000  1
  Ni  Ni8  1  0.430547  0.367319  0.000000  1
  Ni  Ni9  1  0.632681  0.063229  0.000000  1
  Ni  Ni10  1  0.936771  0.569453  0.000000  1
  Ni  Ni11  1  0.056484  0.440977  0.500000  1
  Ni  Ni12  1  0.559023  0.615507  0.500000  1
  Ni  Ni13  1  0.384493  0.943516  0.500000  1
  P  P14  1  0.292029  0.408240  0.500000  1
  P  P15  1  0.591760  0.883789  0.500000  1
  P  P16  1  0.116211  0.707971  0.500000  1
  P  P17  1  0.413289  0.108008  0.000000  1
  P  P18  1  0.891992  0.305281  0.000000  1
  P  P19  1  0.694719  0.586711  0.000000  1
  P  P20  1  0.000000  0.000000  0.000000  1
