# generated using pymatgen
data_SmTh3(ReC2)2
_symmetry_space_group_name_H-M   'P 1'
_cell_length_a   5.35478100
_cell_length_b   6.69658271
_cell_length_c   10.07528373
_cell_angle_alpha   89.91685525
_cell_angle_beta   90.00000000
_cell_angle_gamma   90.00000000
_symmetry_Int_Tables_number   1
_chemical_formula_structural   SmTh3(ReC2)2
_chemical_formula_sum   'Sm2 Th6 Re4 C8'
_cell_volume   361.28653753
_cell_formula_units_Z   2
loop_
 _symmetry_equiv_pos_site_id
 _symmetry_equiv_pos_as_xyz
  1  'x, y, z'
loop_
 _atom_site_type_symbol
 _atom_site_label
 _atom_site_symmetry_multiplicity
 _atom_site_fract_x
 _atom_site_fract_y
 _atom_site_fract_z
 _atom_site_occupancy
  Sm  Sm0  1  0.750000  0.316039  0.449947  1
  Sm  Sm1  1  0.250000  0.683961  0.550053  1
  Th  Th2  1  0.750000  0.474521  0.776923  1
  Th  Th3  1  0.250000  0.026504  0.283388  1
  Th  Th4  1  0.750000  0.973496  0.716612  1
  Th  Th5  1  0.250000  0.525479  0.223077  1
  Th  Th6  1  0.750000  0.810150  0.048460  1
  Th  Th7  1  0.250000  0.189850  0.951540  1
  Re  Re8  1  0.750000  0.771093  0.363077  1
  Re  Re9  1  0.250000  0.726226  0.861258  1
  Re  Re10  1  0.250000  0.228907  0.636923  1
  Re  Re11  1  0.750000  0.273774  0.138742  1
  C  C12  1  0.250000  0.963905  0.741787  1
  C  C13  1  0.750000  0.533517  0.243873  1
  C  C14  1  0.250000  0.466483  0.756127  1
  C  C15  1  0.750000  0.036095  0.258213  1
  C  C16  1  0.250000  0.322674  0.450410  1
  C  C17  1  0.750000  0.165509  0.947611  1
  C  C18  1  0.250000  0.834491  0.052389  1
  C  C19  1  0.750000  0.677326  0.549590  1
