# generated using pymatgen
data_Pr3Si2GeIr6
_symmetry_space_group_name_H-M   'P 1'
_cell_length_a   5.70176100
_cell_length_b   5.70175999
_cell_length_c   15.34684100
_cell_angle_alpha   90.00000000
_cell_angle_beta   90.00000000
_cell_angle_gamma   120.00000003
_symmetry_Int_Tables_number   1
_chemical_formula_structural   Pr3Si2GeIr6
_chemical_formula_sum   'Pr6 Si4 Ge2 Ir12'
_cell_volume   432.08338520
_cell_formula_units_Z   2
loop_
 _symmetry_equiv_pos_site_id
 _symmetry_equiv_pos_as_xyz
  1  'x, y, z'
loop_
 _atom_site_type_symbol
 _atom_site_label
 _atom_site_symmetry_multiplicity
 _atom_site_fract_x
 _atom_site_fract_y
 _atom_site_fract_z
 _atom_site_occupancy
  Pr  Pr0  1  0.666667  0.333333  0.961230  1
  Pr  Pr1  1  0.666667  0.333333  0.538770  1
  Pr  Pr2  1  0.333333  0.666667  0.038770  1
  Pr  Pr3  1  0.666667  0.333333  0.750000  1
  Pr  Pr4  1  0.333333  0.666667  0.461230  1
  Pr  Pr5  1  0.333333  0.666667  0.250000  1
  Si  Si6  1  0.666667  0.333333  0.250000  1
  Si  Si7  1  0.000000  0.000000  0.250000  1
  Si  Si8  1  0.000000  0.000000  0.750000  1
  Si  Si9  1  0.333333  0.666667  0.750000  1
  Ge  Ge10  1  0.000000  0.000000  0.500000  1
  Ge  Ge11  1  0.000000  0.000000  0.000000  1
  Ir  Ir12  1  0.167032  0.334065  0.864819  1
  Ir  Ir13  1  0.167032  0.334065  0.635181  1
  Ir  Ir14  1  0.665935  0.832968  0.864819  1
  Ir  Ir15  1  0.334065  0.167032  0.364819  1
  Ir  Ir16  1  0.832968  0.665935  0.364819  1
  Ir  Ir17  1  0.832968  0.167032  0.364819  1
  Ir  Ir18  1  0.832968  0.167032  0.135181  1
  Ir  Ir19  1  0.334065  0.167032  0.135181  1
  Ir  Ir20  1  0.665935  0.832968  0.635181  1
  Ir  Ir21  1  0.167032  0.832968  0.635181  1
  Ir  Ir22  1  0.832968  0.665935  0.135181  1
  Ir  Ir23  1  0.167032  0.832968  0.864819  1
