# generated using pymatgen
data_SmDyFe6(CoB4)2
_symmetry_space_group_name_H-M   'P 1'
_cell_length_a   6.98486146
_cell_length_b   6.97275542
_cell_length_c   3.80214700
_cell_angle_alpha   90.00000000
_cell_angle_beta   90.00000000
_cell_angle_gamma   90.29121864
_symmetry_Int_Tables_number   1
_chemical_formula_structural   SmDyFe6(CoB4)2
_chemical_formula_sum   'Sm1 Dy1 Fe6 Co2 B8'
_cell_volume   185.17635134
_cell_formula_units_Z   1
loop_
 _symmetry_equiv_pos_site_id
 _symmetry_equiv_pos_as_xyz
  1  'x, y, z'
loop_
 _atom_site_type_symbol
 _atom_site_label
 _atom_site_symmetry_multiplicity
 _atom_site_fract_x
 _atom_site_fract_y
 _atom_site_fract_z
 _atom_site_occupancy
  Sm  Sm0  1  0.500000  0.500000  0.502165  1
  Dy  Dy1  1  0.000000  0.000000  0.002611  1
  Fe  Fe2  1  0.385467  0.131245  0.893122  1
  Fe  Fe3  1  0.614533  0.868755  0.893122  1
  Fe  Fe4  1  0.366074  0.885811  0.393294  1
  Fe  Fe5  1  0.633926  0.114189  0.393294  1
  Fe  Fe6  1  0.114067  0.366615  0.606630  1
  Fe  Fe7  1  0.885933  0.633385  0.606630  1
  Co  Co8  1  0.134943  0.614816  0.107671  1
  Co  Co9  1  0.865057  0.385184  0.107671  1
  B  B10  1  0.798007  0.668256  0.103825  1
  B  B11  1  0.201993  0.331744  0.103825  1
  B  B12  1  0.838005  0.295058  0.604828  1
  B  B13  1  0.161995  0.704942  0.604828  1
  B  B14  1  0.703435  0.835579  0.394269  1
  B  B15  1  0.296565  0.164421  0.394269  1
  B  B16  1  0.666841  0.195822  0.893973  1
  B  B17  1  0.333159  0.804178  0.893973  1
