# generated using pymatgen
data_TbYEr8(In2Pt)4
_symmetry_space_group_name_H-M   'P 1'
_cell_length_a   3.59447500
_cell_length_b   8.14540307
_cell_length_c   18.20904215
_cell_angle_alpha   89.98535544
_cell_angle_beta   90.00000000
_cell_angle_gamma   90.00000000
_symmetry_Int_Tables_number   1
_chemical_formula_structural   TbYEr8(In2Pt)4
_chemical_formula_sum   'Tb1 Y1 Er8 In8 Pt4'
_cell_volume   533.13247058
_cell_formula_units_Z   1
loop_
 _symmetry_equiv_pos_site_id
 _symmetry_equiv_pos_as_xyz
  1  'x, y, z'
loop_
 _atom_site_type_symbol
 _atom_site_label
 _atom_site_symmetry_multiplicity
 _atom_site_fract_x
 _atom_site_fract_y
 _atom_site_fract_z
 _atom_site_occupancy
  Tb  Tb0  1  0.000000  0.000000  0.000000  1
  Y  Y1  1  0.000000  0.500000  0.500000  1
  Er  Er2  1  0.000000  0.116619  0.414145  1
  Er  Er3  1  0.000000  0.883381  0.585855  1
  Er  Er4  1  0.000000  0.383245  0.914171  1
  Er  Er5  1  0.000000  0.616755  0.085829  1
  Er  Er6  1  0.000000  0.243274  0.220202  1
  Er  Er7  1  0.000000  0.756726  0.779798  1
  Er  Er8  1  0.000000  0.256646  0.720234  1
  Er  Er9  1  0.000000  0.743354  0.279766  1
  In  In10  1  0.500000  0.423360  0.350611  1
  In  In11  1  0.500000  0.576640  0.649389  1
  In  In12  1  0.500000  0.076657  0.850572  1
  In  In13  1  0.500000  0.923343  0.149428  1
  In  In14  1  0.500000  0.293112  0.066702  1
  In  In15  1  0.500000  0.706888  0.933298  1
  In  In16  1  0.500000  0.206957  0.566678  1
  In  In17  1  0.500000  0.793043  0.433322  1
  Pt  Pt18  1  0.500000  0.024640  0.303265  1
  Pt  Pt19  1  0.500000  0.975360  0.696735  1
  Pt  Pt20  1  0.500000  0.475355  0.803248  1
  Pt  Pt21  1  0.500000  0.524645  0.196752  1
