# generated using pymatgen
data_Yb2Eu7Pt6
_symmetry_space_group_name_H-M   'P 1'
_cell_length_a   7.75887691
_cell_length_b   7.75887646
_cell_length_c   7.75887783
_cell_angle_alpha   70.48040142
_cell_angle_beta   70.48039899
_cell_angle_gamma   70.48041168
_symmetry_Int_Tables_number   1
_chemical_formula_structural   Yb2Eu7Pt6
_chemical_formula_sum   'Yb2 Eu7 Pt6'
_cell_volume   401.71516699
_cell_formula_units_Z   1
loop_
 _symmetry_equiv_pos_site_id
 _symmetry_equiv_pos_as_xyz
  1  'x, y, z'
loop_
 _atom_site_type_symbol
 _atom_site_label
 _atom_site_symmetry_multiplicity
 _atom_site_fract_x
 _atom_site_fract_y
 _atom_site_fract_z
 _atom_site_occupancy
  Yb  Yb0  1  0.999715  0.999715  0.999715  1
  Yb  Yb1  1  0.803537  0.803537  0.803537  1
  Eu  Eu2  1  0.198526  0.198526  0.198526  1
  Eu  Eu3  1  0.330990  0.605087  0.844890  1
  Eu  Eu4  1  0.844890  0.330990  0.605087  1
  Eu  Eu5  1  0.605087  0.844890  0.330990  1
  Eu  Eu6  1  0.669392  0.397328  0.151855  1
  Eu  Eu7  1  0.151855  0.669392  0.397328  1
  Eu  Eu8  1  0.397328  0.151855  0.669392  1
  Pt  Pt9  1  0.155149  0.956215  0.594949  1
  Pt  Pt10  1  0.594949  0.155149  0.956215  1
  Pt  Pt11  1  0.956215  0.594949  0.155149  1
  Pt  Pt12  1  0.839161  0.040457  0.412749  1
  Pt  Pt13  1  0.412749  0.839161  0.040457  1
  Pt  Pt14  1  0.040457  0.412749  0.839161  1
