# generated using pymatgen
data_TiZn3(IO6)2
_symmetry_space_group_name_H-M   'P 1'
_cell_length_a   4.70339200
_cell_length_b   4.70170814
_cell_length_c   9.36566900
_cell_angle_alpha   90.00000000
_cell_angle_beta   90.00000000
_cell_angle_gamma   90.23674125
_symmetry_Int_Tables_number   1
_chemical_formula_structural   TiZn3(IO6)2
_chemical_formula_sum   'Ti1 Zn3 I2 O12'
_cell_volume   207.11041554
_cell_formula_units_Z   1
loop_
 _symmetry_equiv_pos_site_id
 _symmetry_equiv_pos_as_xyz
  1  'x, y, z'
loop_
 _atom_site_type_symbol
 _atom_site_label
 _atom_site_symmetry_multiplicity
 _atom_site_fract_x
 _atom_site_fract_y
 _atom_site_fract_z
 _atom_site_occupancy
  Ti  Ti0  1  0.000000  0.000000  0.335286  1
  Zn  Zn1  1  0.500000  0.500000  0.162048  1
  Zn  Zn2  1  0.000000  0.000000  0.670188  1
  Zn  Zn3  1  0.500000  0.500000  0.836943  1
  I  I4  1  0.500000  0.500000  0.498580  1
  I  I5  1  0.000000  0.000000  0.999034  1
  O  O6  1  0.690199  0.690473  0.646527  1
  O  O7  1  0.309801  0.309527  0.646527  1
  O  O8  1  0.808597  0.191565  0.849459  1
  O  O9  1  0.191403  0.808435  0.849459  1
  O  O10  1  0.305274  0.305043  0.345099  1
  O  O11  1  0.694726  0.694957  0.345099  1
  O  O12  1  0.181847  0.818002  0.168451  1
  O  O13  1  0.818153  0.181998  0.168451  1
  O  O14  1  0.715643  0.715750  0.005313  1
  O  O15  1  0.284357  0.284250  0.005313  1
  O  O16  1  0.790483  0.209766  0.484111  1
  O  O17  1  0.209517  0.790234  0.484111  1
