# generated using pymatgen
data_Zr4Nb5WN12
_symmetry_space_group_name_H-M   'P 1'
_cell_length_a   5.33371200
_cell_length_b   5.31000100
_cell_length_c   10.69350100
_cell_angle_alpha   90.00000000
_cell_angle_beta   90.00000000
_cell_angle_gamma   120.14783523
_symmetry_Int_Tables_number   1
_chemical_formula_structural   Zr4Nb5WN12
_chemical_formula_sum   'Zr4 Nb5 W1 N12'
_cell_volume   261.89416301
_cell_formula_units_Z   1
loop_
 _symmetry_equiv_pos_site_id
 _symmetry_equiv_pos_as_xyz
  1  'x, y, z'
loop_
 _atom_site_type_symbol
 _atom_site_label
 _atom_site_symmetry_multiplicity
 _atom_site_fract_x
 _atom_site_fract_y
 _atom_site_fract_z
 _atom_site_occupancy
  Zr  Zr0  1  0.330960  0.664527  0.498887  1
  Zr  Zr1  1  0.666434  0.335473  0.001113  1
  Zr  Zr2  1  0.666434  0.335473  0.498887  1
  Zr  Zr3  1  0.330960  0.664527  0.001113  1
  Nb  Nb4  1  0.677765  0.677823  0.250000  1
  Nb  Nb5  1  0.999942  0.322177  0.250000  1
  Nb  Nb6  1  0.999622  0.674923  0.750000  1
  Nb  Nb7  1  0.324700  0.325077  0.750000  1
  Nb  Nb8  1  0.323233  0.000000  0.250000  1
  W  W9  1  0.676433  0.000000  0.750000  1
  N  N10  1  0.342221  0.342004  0.372799  1
  N  N11  1  0.656294  0.000000  0.373466  1
  N  N12  1  0.000217  0.657996  0.372799  1
  N  N13  1  0.994245  0.334877  0.870906  1
  N  N14  1  0.656294  0.000000  0.126534  1
  N  N15  1  0.659368  0.665123  0.870906  1
  N  N16  1  0.349413  0.000000  0.870211  1
  N  N17  1  0.659368  0.665123  0.629094  1
  N  N18  1  0.994245  0.334877  0.629094  1
  N  N19  1  0.000217  0.657996  0.127201  1
  N  N20  1  0.349413  0.000000  0.629789  1
  N  N21  1  0.342221  0.342004  0.127201  1
