# generated using pymatgen
data_Er2TmTh(Ga3Rh)6
_symmetry_space_group_name_H-M   'P 1'
_cell_length_a   7.60150400
_cell_length_b   7.60527043
_cell_length_c   9.50474100
_cell_angle_alpha   90.00000000
_cell_angle_beta   90.00000000
_cell_angle_gamma   119.80986968
_symmetry_Int_Tables_number   1
_chemical_formula_structural   Er2TmTh(Ga3Rh)6
_chemical_formula_sum   'Er2 Tm1 Th1 Ga18 Rh6'
_cell_volume   476.77555499
_cell_formula_units_Z   1
loop_
 _symmetry_equiv_pos_site_id
 _symmetry_equiv_pos_as_xyz
  1  'x, y, z'
loop_
 _atom_site_type_symbol
 _atom_site_label
 _atom_site_symmetry_multiplicity
 _atom_site_fract_x
 _atom_site_fract_y
 _atom_site_fract_z
 _atom_site_occupancy
  Er  Er0  1  0.003249  0.331415  0.750000  1
  Er  Er1  1  0.669522  0.997128  0.250000  1
  Tm  Tm2  1  0.330859  0.002678  0.750000  1
  Th  Th3  1  0.996841  0.668468  0.250000  1
  Ga  Ga4  1  0.127758  0.130564  0.250000  1
  Ga  Ga5  1  0.875422  0.876865  0.750000  1
  Ga  Ga6  1  0.998776  0.328034  0.076611  1
  Ga  Ga7  1  0.000815  0.665456  0.913950  1
  Ga  Ga8  1  0.000815  0.665456  0.586050  1
  Ga  Ga9  1  0.340710  0.004997  0.423360  1
  Ga  Ga10  1  0.998776  0.328034  0.423389  1
  Ga  Ga11  1  0.665546  0.001483  0.580647  1
  Ga  Ga12  1  0.665546  0.001483  0.919353  1
  Ga  Ga13  1  0.340710  0.004997  0.076640  1
  Ga  Ga14  1  0.331819  0.331744  0.567255  1
  Ga  Ga15  1  0.662254  0.668037  0.438813  1
  Ga  Ga16  1  0.662254  0.668037  0.061187  1
  Ga  Ga17  1  0.331819  0.331744  0.932745  1
  Ga  Ga18  1  0.341904  0.546713  0.250000  1
  Ga  Ga19  1  0.660471  0.450553  0.750000  1
  Ga  Ga20  1  0.542142  0.335055  0.250000  1
  Ga  Ga21  1  0.451422  0.661609  0.750000  1
  Rh  Rh22  1  0.673479  0.330798  0.000158  1
  Rh  Rh23  1  0.326013  0.670924  0.000262  1
  Rh  Rh24  1  0.326013  0.670924  0.499738  1
  Rh  Rh25  1  0.673479  0.330798  0.499842  1
  Rh  Rh26  1  0.000793  0.998004  0.000240  1
  Rh  Rh27  1  0.000793  0.998004  0.499760  1
