# generated using pymatgen
data_Ho16Tm4Si15As
_symmetry_space_group_name_H-M   'P 1'
_cell_length_a   7.44820164
_cell_length_b   7.60535150
_cell_length_c   14.53777424
_cell_angle_alpha   89.87679460
_cell_angle_beta   85.99356081
_cell_angle_gamma   89.98016339
_symmetry_Int_Tables_number   1
_chemical_formula_structural   Ho16Tm4Si15As
_chemical_formula_sum   'Ho16 Tm4 Si15 As1'
_cell_volume   821.49514008
_cell_formula_units_Z   1
loop_
 _symmetry_equiv_pos_site_id
 _symmetry_equiv_pos_as_xyz
  1  'x, y, z'
loop_
 _atom_site_type_symbol
 _atom_site_label
 _atom_site_symmetry_multiplicity
 _atom_site_fract_x
 _atom_site_fract_y
 _atom_site_fract_z
 _atom_site_occupancy
  Ho  Ho0  1  0.006629  0.824074  0.101062  1
  Ho  Ho1  1  0.473660  0.685024  0.398161  1
  Ho  Ho2  1  0.491490  0.318076  0.899376  1
  Ho  Ho3  1  0.026106  0.184308  0.601801  1
  Ho  Ho4  1  0.996859  0.177820  0.899850  1
  Ho  Ho5  1  0.525644  0.314875  0.601484  1
  Ho  Ho6  1  0.502451  0.683383  0.101074  1
  Ho  Ho7  1  0.973343  0.814333  0.398394  1
  Ho  Ho8  1  0.643437  0.836625  0.879656  1
  Ho  Ho9  1  0.176074  0.675848  0.622626  1
  Ho  Ho10  1  0.856958  0.335271  0.118863  1
  Ho  Ho11  1  0.324364  0.176510  0.377848  1
  Ho  Ho12  1  0.355837  0.165326  0.120171  1
  Ho  Ho13  1  0.824529  0.323699  0.377835  1
  Ho  Ho14  1  0.145318  0.665067  0.881077  1
  Ho  Ho15  1  0.675832  0.823473  0.622728  1
  Tm  Tm16  1  0.670191  0.994945  0.245883  1
  Tm  Tm17  1  0.169400  0.505341  0.245425  1
  Tm  Tm18  1  0.830975  0.494294  0.751508  1
  Tm  Tm19  1  0.329629  0.004958  0.753655  1
  Si  Si20  1  0.785634  0.630354  0.251261  1
  Si  Si21  1  0.285100  0.869803  0.251989  1
  Si  Si22  1  0.713221  0.131556  0.748569  1
  Si  Si23  1  0.212765  0.368822  0.748915  1
  Si  Si24  1  0.042066  0.109004  0.252009  1
  Si  Si25  1  0.542957  0.391859  0.251249  1
  Si  Si26  1  0.458199  0.608251  0.749373  1
  Si  Si27  1  0.958106  0.890349  0.748984  1
  Si  Si28  1  0.355736  0.971841  0.542803  1
  Si  Si29  1  0.705240  0.034135  0.042655  1
  Si  Si30  1  0.145277  0.471664  0.457915  1
  Si  Si31  1  0.209914  0.467223  0.043689  1
  Si  Si32  1  0.644976  0.027469  0.457412  1
  Si  Si33  1  0.296375  0.965753  0.956758  1
  Si  Si34  1  0.855320  0.527115  0.542781  1
  As  As35  1  0.790384  0.531549  0.955160  1
