# generated using pymatgen
data_Zr5Nb5Si6N
_symmetry_space_group_name_H-M   'P 1'
_cell_length_a   7.80851537
_cell_length_b   7.79326596
_cell_length_c   5.38785777
_cell_angle_alpha   89.84257041
_cell_angle_beta   90.31423811
_cell_angle_gamma   120.06474120
_symmetry_Int_Tables_number   1
_chemical_formula_structural   Zr5Nb5Si6N
_chemical_formula_sum   'Zr5 Nb5 Si6 N1'
_cell_volume   283.75563658
_cell_formula_units_Z   1
loop_
 _symmetry_equiv_pos_site_id
 _symmetry_equiv_pos_as_xyz
  1  'x, y, z'
loop_
 _atom_site_type_symbol
 _atom_site_label
 _atom_site_symmetry_multiplicity
 _atom_site_fract_x
 _atom_site_fract_y
 _atom_site_fract_z
 _atom_site_occupancy
  Zr  Zr0  1  0.001285  0.760349  0.255653  1
  Zr  Zr1  1  0.240936  0.239651  0.255653  1
  Zr  Zr2  1  0.757954  0.000000  0.260951  1
  Zr  Zr3  1  0.000518  0.241364  0.746005  1
  Zr  Zr4  1  0.759153  0.758636  0.746005  1
  Nb  Nb5  1  0.242678  0.000000  0.736107  1
  Nb  Nb6  1  0.332721  0.665913  0.000458  1
  Nb  Nb7  1  0.666809  0.334087  0.000458  1
  Nb  Nb8  1  0.666183  0.332924  0.498461  1
  Nb  Nb9  1  0.333259  0.667076  0.498461  1
  Si  Si10  1  0.999367  0.402481  0.243685  1
  Si  Si11  1  0.596886  0.597519  0.243685  1
  Si  Si12  1  0.403679  0.000000  0.238288  1
  Si  Si13  1  0.001914  0.600884  0.756487  1
  Si  Si14  1  0.401030  0.399116  0.756487  1
  Si  Si15  1  0.592137  0.000000  0.759304  1
  N  N16  1  0.003491  0.000000  0.503854  1
