# generated using pymatgen
data_Th4Zn4PtRh3
_symmetry_space_group_name_H-M   'P 1'
_cell_length_a   3.96606300
_cell_length_b   7.54660900
_cell_length_c   16.60191300
_cell_angle_alpha   90.00000000
_cell_angle_beta   90.00000000
_cell_angle_gamma   90.00000000
_symmetry_Int_Tables_number   1
_chemical_formula_structural   Th4Zn4PtRh3
_chemical_formula_sum   'Th8 Zn8 Pt2 Rh6'
_cell_volume   496.90068044
_cell_formula_units_Z   2
loop_
 _symmetry_equiv_pos_site_id
 _symmetry_equiv_pos_as_xyz
  1  'x, y, z'
loop_
 _atom_site_type_symbol
 _atom_site_label
 _atom_site_symmetry_multiplicity
 _atom_site_fract_x
 _atom_site_fract_y
 _atom_site_fract_z
 _atom_site_occupancy
  Th  Th0  1  0.750000  0.329559  0.442924  1
  Th  Th1  1  0.250000  0.057796  0.713241  1
  Th  Th2  1  0.250000  0.567389  0.785118  1
  Th  Th3  1  0.250000  0.674637  0.559561  1
  Th  Th4  1  0.750000  0.825363  0.059561  1
  Th  Th5  1  0.250000  0.170441  0.942924  1
  Th  Th6  1  0.750000  0.442204  0.213241  1
  Th  Th7  1  0.750000  0.932611  0.285118  1
  Zn  Zn8  1  0.250000  0.109849  0.152916  1
  Zn  Zn9  1  0.250000  0.996558  0.441776  1
  Zn  Zn10  1  0.750000  0.887160  0.846892  1
  Zn  Zn11  1  0.750000  0.003791  0.558272  1
  Zn  Zn12  1  0.250000  0.496209  0.058272  1
  Zn  Zn13  1  0.750000  0.390151  0.652916  1
  Zn  Zn14  1  0.750000  0.503442  0.941776  1
  Zn  Zn15  1  0.250000  0.612840  0.346892  1
  Pt  Pt16  1  0.750000  0.264208  0.814394  1
  Pt  Pt17  1  0.250000  0.235792  0.314394  1
  Rh  Rh18  1  0.250000  0.756183  0.937695  1
  Rh  Rh19  1  0.250000  0.257270  0.563066  1
  Rh  Rh20  1  0.250000  0.734947  0.184146  1
  Rh  Rh21  1  0.750000  0.743817  0.437695  1
  Rh  Rh22  1  0.750000  0.242730  0.063066  1
  Rh  Rh23  1  0.750000  0.765053  0.684146  1
