# generated using pymatgen
data_Y5Lu3(Nb3Si4)4
_symmetry_space_group_name_H-M   'P 1'
_cell_length_a   7.05707139
_cell_length_b   7.05614997
_cell_length_c   13.01470209
_cell_angle_alpha   90.01086328
_cell_angle_beta   89.94693180
_cell_angle_gamma   89.97767321
_symmetry_Int_Tables_number   1
_chemical_formula_structural   Y5Lu3(Nb3Si4)4
_chemical_formula_sum   'Y5 Lu3 Nb12 Si16'
_cell_volume   648.07656587
_cell_formula_units_Z   1
loop_
 _symmetry_equiv_pos_site_id
 _symmetry_equiv_pos_as_xyz
  1  'x, y, z'
loop_
 _atom_site_type_symbol
 _atom_site_label
 _atom_site_symmetry_multiplicity
 _atom_site_fract_x
 _atom_site_fract_y
 _atom_site_fract_z
 _atom_site_occupancy
  Y  Y0  1  0.501877  0.840205  0.032161  1
  Y  Y1  1  0.840166  0.502124  0.968036  1
  Y  Y2  1  0.498362  0.159308  0.531957  1
  Y  Y3  1  0.340171  0.999161  0.781560  1
  Y  Y4  1  0.659238  0.001390  0.282424  1
  Lu  Lu5  1  0.000534  0.340721  0.218578  1
  Lu  Lu6  1  0.000043  0.658802  0.717657  1
  Lu  Lu7  1  0.158454  0.499738  0.468169  1
  Nb  Nb8  1  0.170271  0.171343  0.000103  1
  Nb  Nb9  1  0.830184  0.828142  0.500065  1
  Nb  Nb10  1  0.328325  0.669554  0.250419  1
  Nb  Nb11  1  0.671052  0.330273  0.749653  1
  Nb  Nb12  1  0.153483  0.991957  0.376208  1
  Nb  Nb13  1  0.846821  0.007996  0.875983  1
  Nb  Nb14  1  0.507677  0.653359  0.625445  1
  Nb  Nb15  1  0.345594  0.493644  0.873481  1
  Nb  Nb16  1  0.491822  0.346186  0.126561  1
  Nb  Nb17  1  0.654101  0.505734  0.374082  1
  Nb  Nb18  1  0.994276  0.154582  0.623091  1
  Nb  Nb19  1  0.006920  0.846081  0.124080  1
  Si  Si20  1  0.292573  0.045674  0.186594  1
  Si  Si21  1  0.707842  0.954747  0.686214  1
  Si  Si22  1  0.453759  0.792027  0.436421  1
  Si  Si23  1  0.204564  0.543913  0.064268  1
  Si  Si24  1  0.544924  0.206771  0.936417  1
  Si  Si25  1  0.797274  0.456174  0.563798  1
  Si  Si26  1  0.044277  0.296601  0.812819  1
  Si  Si27  1  0.956377  0.702429  0.313939  1
  Si  Si28  1  0.364327  0.296266  0.318806  1
  Si  Si29  1  0.633753  0.705229  0.816993  1
  Si  Si30  1  0.203288  0.864196  0.568494  1
  Si  Si31  1  0.131963  0.794733  0.931447  1
  Si  Si32  1  0.796319  0.134157  0.069071  1
  Si  Si33  1  0.869586  0.206622  0.431268  1
  Si  Si34  1  0.293237  0.369976  0.681162  1
  Si  Si35  1  0.706567  0.630187  0.182573  1
