# generated using pymatgen
data_Ba2PrUS6
_symmetry_space_group_name_H-M   'P 1'
_cell_length_a   7.17218842
_cell_length_b   7.57428000
_cell_length_c   12.62957400
_cell_angle_alpha   90.00000000
_cell_angle_beta   125.03339597
_cell_angle_gamma   90.00000000
_symmetry_Int_Tables_number   1
_chemical_formula_structural   Ba2PrUS6
_chemical_formula_sum   'Ba4 Pr2 U2 S12'
_cell_volume   561.78340872
_cell_formula_units_Z   2
loop_
 _symmetry_equiv_pos_site_id
 _symmetry_equiv_pos_as_xyz
  1  'x, y, z'
loop_
 _atom_site_type_symbol
 _atom_site_label
 _atom_site_symmetry_multiplicity
 _atom_site_fract_x
 _atom_site_fract_y
 _atom_site_fract_z
 _atom_site_occupancy
  Ba  Ba0  1  0.231715  0.068992  0.250992  1
  Ba  Ba1  1  0.768324  0.568992  0.248994  1
  Ba  Ba2  1  0.231677  0.431007  0.751006  1
  Ba  Ba3  1  0.768286  0.931007  0.749009  1
  Pr  Pr4  1  0.500000  0.000000  0.000000  1
  Pr  Pr5  1  0.500001  0.500000  0.500000  1
  U  U6  1  0.000000  0.500001  0.000000  1
  U  U7  1  0.000002  0.000001  0.500001  1
  S  S8  1  0.867388  0.790791  0.051581  1
  S  S9  1  0.752561  0.311724  0.047611  1
  S  S10  1  0.337596  0.473056  0.240827  1
  S  S11  1  0.662294  0.973028  0.259110  1
  S  S12  1  0.247464  0.811749  0.452316  1
  S  S13  1  0.132650  0.290822  0.448418  1
  S  S14  1  0.867350  0.709180  0.551582  1
  S  S15  1  0.752536  0.188251  0.547684  1
  S  S16  1  0.337703  0.026973  0.740889  1
  S  S17  1  0.662404  0.526945  0.759174  1
  S  S18  1  0.247439  0.688275  0.952390  1
  S  S19  1  0.132613  0.209210  0.948419  1
