# generated using pymatgen
data_Y3Er2Tm5Cd3Ru
_symmetry_space_group_name_H-M   'P 1'
_cell_length_a   9.54513803
_cell_length_b   9.54513825
_cell_length_c   9.74858304
_cell_angle_alpha   89.99150381
_cell_angle_beta   90.00849326
_cell_angle_gamma   120.00425823
_symmetry_Int_Tables_number   1
_chemical_formula_structural   Y3Er2Tm5Cd3Ru
_chemical_formula_sum   'Y6 Er4 Tm10 Cd6 Ru2'
_cell_volume   769.16217759
_cell_formula_units_Z   2
loop_
 _symmetry_equiv_pos_site_id
 _symmetry_equiv_pos_as_xyz
  1  'x, y, z'
loop_
 _atom_site_type_symbol
 _atom_site_label
 _atom_site_symmetry_multiplicity
 _atom_site_fract_x
 _atom_site_fract_y
 _atom_site_fract_z
 _atom_site_occupancy
  Y  Y0  1  0.540526  0.459474  0.249886  1
  Y  Y1  1  0.540459  0.081024  0.249822  1
  Y  Y2  1  0.918976  0.459541  0.249822  1
  Y  Y3  1  0.459587  0.540413  0.750133  1
  Y  Y4  1  0.459486  0.919072  0.750205  1
  Y  Y5  1  0.080928  0.540514  0.750205  1
  Er  Er6  1  0.209761  0.790239  0.440054  1
  Er  Er7  1  0.209841  0.419515  0.440051  1
  Er  Er8  1  0.580485  0.790159  0.440051  1
  Er  Er9  1  0.790092  0.209908  0.560053  1
  Tm  Tm10  1  0.000042  0.999958  0.500029  1
  Tm  Tm11  1  0.999997  0.000003  0.000035  1
  Tm  Tm12  1  0.790006  0.580128  0.560036  1
  Tm  Tm13  1  0.419872  0.209994  0.560036  1
  Tm  Tm14  1  0.790061  0.209939  0.940078  1
  Tm  Tm15  1  0.790008  0.580078  0.940011  1
  Tm  Tm16  1  0.419922  0.209992  0.940011  1
  Tm  Tm17  1  0.209935  0.790065  0.059917  1
  Tm  Tm18  1  0.209941  0.419887  0.059900  1
  Tm  Tm19  1  0.580113  0.790059  0.059900  1
  Cd  Cd20  1  0.885886  0.114114  0.249915  1
  Cd  Cd21  1  0.885853  0.771741  0.249946  1
  Cd  Cd22  1  0.228259  0.114147  0.249946  1
  Cd  Cd23  1  0.114114  0.885886  0.750068  1
  Cd  Cd24  1  0.114152  0.228238  0.750087  1
  Cd  Cd25  1  0.771762  0.885848  0.750087  1
  Ru  Ru26  1  0.333332  0.666668  0.249648  1
  Ru  Ru27  1  0.666603  0.333397  0.750071  1
