# generated using pymatgen
data_Nd4Al4Ni3Ru
_symmetry_space_group_name_H-M   'P 1'
_cell_length_a   4.30903300
_cell_length_b   6.91294363
_cell_length_c   7.92813329
_cell_angle_alpha   90.00895150
_cell_angle_beta   90.00000000
_cell_angle_gamma   90.00000000
_symmetry_Int_Tables_number   1
_chemical_formula_structural   Nd4Al4Ni3Ru
_chemical_formula_sum   'Nd4 Al4 Ni3 Ru1'
_cell_volume   236.16404200
_cell_formula_units_Z   1
loop_
 _symmetry_equiv_pos_site_id
 _symmetry_equiv_pos_as_xyz
  1  'x, y, z'
loop_
 _atom_site_type_symbol
 _atom_site_label
 _atom_site_symmetry_multiplicity
 _atom_site_fract_x
 _atom_site_fract_y
 _atom_site_fract_z
 _atom_site_occupancy
  Nd  Nd0  1  0.250000  0.539479  0.177942  1
  Nd  Nd1  1  0.750000  0.460858  0.825035  1
  Nd  Nd2  1  0.750000  0.960641  0.676038  1
  Nd  Nd3  1  0.250000  0.037240  0.321705  1
  Al  Al4  1  0.250000  0.634890  0.558701  1
  Al  Al5  1  0.750000  0.367744  0.439048  1
  Al  Al6  1  0.750000  0.867980  0.058367  1
  Al  Al7  1  0.250000  0.134415  0.942800  1
  Ni  Ni8  1  0.250000  0.780240  0.880631  1
  Ni  Ni9  1  0.750000  0.224117  0.124041  1
  Ni  Ni10  1  0.750000  0.724888  0.375026  1
  Ru  Ru11  1  0.250000  0.267507  0.620667  1
