# generated using pymatgen
data_Tb3Al3Zn2Pt
_symmetry_space_group_name_H-M   'P 1'
_cell_length_a   7.01808000
_cell_length_b   7.01807988
_cell_length_c   4.29615800
_cell_angle_alpha   90.00000000
_cell_angle_beta   90.00000000
_cell_angle_gamma   119.99999116
_symmetry_Int_Tables_number   1
_chemical_formula_structural   Tb3Al3Zn2Pt
_chemical_formula_sum   'Tb3 Al3 Zn2 Pt1'
_cell_volume   183.25149937
_cell_formula_units_Z   1
loop_
 _symmetry_equiv_pos_site_id
 _symmetry_equiv_pos_as_xyz
  1  'x, y, z'
loop_
 _atom_site_type_symbol
 _atom_site_label
 _atom_site_symmetry_multiplicity
 _atom_site_fract_x
 _atom_site_fract_y
 _atom_site_fract_z
 _atom_site_occupancy
  Tb  Tb0  1  0.416215  0.416215  0.500000  1
  Tb  Tb1  1  0.583785  0.000000  0.500000  1
  Tb  Tb2  1  0.000000  0.583785  0.500000  1
  Al  Al3  1  0.767874  0.767874  0.000000  1
  Al  Al4  1  0.232126  0.000000  0.000000  1
  Al  Al5  1  0.000000  0.232126  0.000000  1
  Zn  Zn6  1  0.666667  0.333333  0.000000  1
  Zn  Zn7  1  0.333333  0.666667  0.000000  1
  Pt  Pt8  1  0.000000  0.000000  0.500000  1
