# generated using pymatgen
data_Sm3Dy5(HgIr)2
_symmetry_space_group_name_H-M   'P 1'
_cell_length_a   9.62812899
_cell_length_b   9.62812961
_cell_length_c   9.62812900
_cell_angle_alpha   59.99999865
_cell_angle_beta   59.99999652
_cell_angle_gamma   60.00000179
_symmetry_Int_Tables_number   1
_chemical_formula_structural   Sm3Dy5(HgIr)2
_chemical_formula_sum   'Sm6 Dy10 Hg4 Ir4'
_cell_volume   631.11822294
_cell_formula_units_Z   2
loop_
 _symmetry_equiv_pos_site_id
 _symmetry_equiv_pos_as_xyz
  1  'x, y, z'
loop_
 _atom_site_type_symbol
 _atom_site_label
 _atom_site_symmetry_multiplicity
 _atom_site_fract_x
 _atom_site_fract_y
 _atom_site_fract_z
 _atom_site_occupancy
  Sm  Sm0  1  0.190469  0.809531  0.809531  1
  Sm  Sm1  1  0.809531  0.190469  0.190469  1
  Sm  Sm2  1  0.809531  0.190469  0.809531  1
  Sm  Sm3  1  0.190469  0.809531  0.190469  1
  Sm  Sm4  1  0.809531  0.809531  0.190469  1
  Sm  Sm5  1  0.190469  0.190469  0.809531  1
  Dy  Dy6  1  0.600622  0.600622  0.600622  1
  Dy  Dy7  1  0.600622  0.600622  0.198137  1
  Dy  Dy8  1  0.600622  0.198137  0.600622  1
  Dy  Dy9  1  0.198137  0.600622  0.600622  1
  Dy  Dy10  1  0.060616  0.439384  0.439384  1
  Dy  Dy11  1  0.439384  0.060616  0.060616  1
  Dy  Dy12  1  0.439384  0.060616  0.439384  1
  Dy  Dy13  1  0.060616  0.439384  0.060616  1
  Dy  Dy14  1  0.439384  0.439384  0.060616  1
  Dy  Dy15  1  0.060616  0.060616  0.439384  1
  Hg  Hg16  1  0.833726  0.833726  0.833726  1
  Hg  Hg17  1  0.833726  0.833726  0.498822  1
  Hg  Hg18  1  0.833726  0.498822  0.833726  1
  Hg  Hg19  1  0.498822  0.833726  0.833726  1
  Ir  Ir20  1  0.391847  0.391847  0.391847  1
  Ir  Ir21  1  0.391847  0.391847  0.824460  1
  Ir  Ir22  1  0.391847  0.824460  0.391847  1
  Ir  Ir23  1  0.824460  0.391847  0.391847  1
