# generated using pymatgen
data_Nb12AlGa4Pt3N4
_symmetry_space_group_name_H-M   'P 1'
_cell_length_a   7.06844552
_cell_length_b   7.06844661
_cell_length_c   7.06844601
_cell_angle_alpha   90.22220182
_cell_angle_beta   90.22219823
_cell_angle_gamma   90.22220430
_symmetry_Int_Tables_number   1
_chemical_formula_structural   Nb12AlGa4Pt3N4
_chemical_formula_sum   'Nb12 Al1 Ga4 Pt3 N4'
_cell_volume   353.15228368
_cell_formula_units_Z   1
loop_
 _symmetry_equiv_pos_site_id
 _symmetry_equiv_pos_as_xyz
  1  'x, y, z'
loop_
 _atom_site_type_symbol
 _atom_site_label
 _atom_site_symmetry_multiplicity
 _atom_site_fract_x
 _atom_site_fract_y
 _atom_site_fract_z
 _atom_site_occupancy
  Nb  Nb0  1  0.788438  0.956801  0.379613  1
  Nb  Nb1  1  0.709795  0.043555  0.873973  1
  Nb  Nb2  1  0.210783  0.455245  0.123591  1
  Nb  Nb3  1  0.290382  0.544385  0.622712  1
  Nb  Nb4  1  0.956801  0.379613  0.788438  1
  Nb  Nb5  1  0.043555  0.873973  0.709795  1
  Nb  Nb6  1  0.455245  0.123591  0.210783  1
  Nb  Nb7  1  0.544385  0.622712  0.290382  1
  Nb  Nb8  1  0.379613  0.788438  0.956801  1
  Nb  Nb9  1  0.873973  0.709795  0.043555  1
  Nb  Nb10  1  0.123591  0.210783  0.455245  1
  Nb  Nb11  1  0.622712  0.290382  0.544385  1
  Al  Al12  1  0.072480  0.072480  0.072480  1
  Ga  Ga13  1  0.677722  0.677722  0.677722  1
  Ga  Ga14  1  0.569988  0.423512  0.933234  1
  Ga  Ga15  1  0.423512  0.933234  0.569988  1
  Ga  Ga16  1  0.933234  0.569988  0.423512  1
  Pt  Pt17  1  0.177724  0.824288  0.315421  1
  Pt  Pt18  1  0.315421  0.177724  0.824288  1
  Pt  Pt19  1  0.824288  0.315421  0.177724  1
  N  N20  1  0.878487  0.127106  0.625406  1
  N  N21  1  0.625406  0.878487  0.127106  1
  N  N22  1  0.127106  0.625406  0.878487  1
  N  N23  1  0.375357  0.375357  0.375357  1
