# generated using pymatgen
data_BaTa4Hg3O14
_symmetry_space_group_name_H-M   'P 1'
_cell_length_a   7.52415223
_cell_length_b   7.52415307
_cell_length_c   7.62116822
_cell_angle_alpha   60.42021077
_cell_angle_beta   60.42020910
_cell_angle_gamma   60.00000129
_symmetry_Int_Tables_number   1
_chemical_formula_structural   BaTa4Hg3O14
_chemical_formula_sum   'Ba1 Ta4 Hg3 O14'
_cell_volume   307.00903342
_cell_formula_units_Z   1
loop_
 _symmetry_equiv_pos_site_id
 _symmetry_equiv_pos_as_xyz
  1  'x, y, z'
loop_
 _atom_site_type_symbol
 _atom_site_label
 _atom_site_symmetry_multiplicity
 _atom_site_fract_x
 _atom_site_fract_y
 _atom_site_fract_z
 _atom_site_occupancy
  Ba  Ba0  1  0.125000  0.125000  0.625000  1
  Ta  Ta1  1  0.625000  0.625000  0.625000  1
  Ta  Ta2  1  0.125000  0.625000  0.625000  1
  Ta  Ta3  1  0.625000  0.625000  0.125000  1
  Ta  Ta4  1  0.625000  0.125000  0.625000  1
  Hg  Hg5  1  0.125000  0.125000  0.125000  1
  Hg  Hg6  1  0.625000  0.125000  0.125000  1
  Hg  Hg7  1  0.125000  0.625000  0.125000  1
  O  O8  1  0.565206  0.565206  0.933310  1
  O  O9  1  0.313186  0.313186  0.683490  1
  O  O10  1  0.936278  0.565206  0.933310  1
  O  O11  1  0.936814  0.559861  0.566510  1
  O  O12  1  0.565206  0.936278  0.933310  1
  O  O13  1  0.559861  0.936814  0.566510  1
  O  O14  1  0.313722  0.684794  0.316690  1
  O  O15  1  0.690139  0.313186  0.683490  1
  O  O16  1  0.268669  0.268669  0.193994  1
  O  O17  1  0.981331  0.981331  0.056006  1
  O  O18  1  0.936814  0.936814  0.566510  1
  O  O19  1  0.684794  0.313722  0.316690  1
  O  O20  1  0.313186  0.690139  0.683490  1
  O  O21  1  0.684794  0.684794  0.316690  1
