# generated using pymatgen
data_AsOsSe4
_symmetry_space_group_name_H-M   'P 1'
_cell_length_a   7.42753469
_cell_length_b   6.95163359
_cell_length_c   6.70218318
_cell_angle_alpha   91.06053777
_cell_angle_beta   105.79663828
_cell_angle_gamma   117.93955429
_symmetry_Int_Tables_number   1
_chemical_formula_structural   AsOsSe4
_chemical_formula_sum   'As2 Os2 Se8'
_cell_volume   289.80104605
_cell_formula_units_Z   2
loop_
 _symmetry_equiv_pos_site_id
 _symmetry_equiv_pos_as_xyz
  1  'x, y, z'
loop_
 _atom_site_type_symbol
 _atom_site_label
 _atom_site_symmetry_multiplicity
 _atom_site_fract_x
 _atom_site_fract_y
 _atom_site_fract_z
 _atom_site_occupancy
  As  As0  1  0.479458  0.239981  0.495563  1
  As  As1  1  0.520542  0.760019  0.504437  1
  Os  Os2  1  0.999881  0.287349  0.500253  1
  Os  Os3  1  0.000119  0.712651  0.499747  1
  Se  Se4  1  0.234397  0.379274  0.269257  1
  Se  Se5  1  0.765603  0.620726  0.730743  1
  Se  Se6  1  0.734348  0.362656  0.260019  1
  Se  Se7  1  0.265652  0.637344  0.739981  1
  Se  Se8  1  0.212129  0.109865  0.704260  1
  Se  Se9  1  0.787871  0.890135  0.295740  1
  Se  Se10  1  0.764313  0.152558  0.730724  1
  Se  Se11  1  0.235687  0.847442  0.269276  1
