# generated using pymatgen
data_BaPrEu2F10
_symmetry_space_group_name_H-M   'P 1'
_cell_length_a   8.63689880
_cell_length_b   8.64940358
_cell_length_c   8.64940303
_cell_angle_alpha   59.90437857
_cell_angle_beta   60.04781338
_cell_angle_gamma   60.04781144
_symmetry_Int_Tables_number   1
_chemical_formula_structural   BaPrEu2F10
_chemical_formula_sum   'Ba2 Pr2 Eu4 F20'
_cell_volume   456.89176147
_cell_formula_units_Z   2
loop_
 _symmetry_equiv_pos_site_id
 _symmetry_equiv_pos_as_xyz
  1  'x, y, z'
loop_
 _atom_site_type_symbol
 _atom_site_label
 _atom_site_symmetry_multiplicity
 _atom_site_fract_x
 _atom_site_fract_y
 _atom_site_fract_z
 _atom_site_occupancy
  Ba  Ba0  1  0.250000  0.250000  0.250000  1
  Ba  Ba1  1  0.750000  0.750000  0.750000  1
  Pr  Pr2  1  0.761517  0.238483  0.238483  1
  Pr  Pr3  1  0.238483  0.761517  0.761517  1
  Eu  Eu4  1  0.241297  0.758703  0.241297  1
  Eu  Eu5  1  0.758703  0.241297  0.758703  1
  Eu  Eu6  1  0.241297  0.241297  0.758703  1
  Eu  Eu7  1  0.758703  0.758703  0.241297  1
  F  F8  1  0.835983  0.500000  0.500000  1
  F  F9  1  0.164017  0.500000  0.500000  1
  F  F10  1  0.500000  0.835983  0.164017  1
  F  F11  1  0.500000  0.164017  0.835983  1
  F  F12  1  0.497938  0.836971  0.502062  1
  F  F13  1  0.163029  0.502062  0.836971  1
  F  F14  1  0.502062  0.163029  0.497938  1
  F  F15  1  0.836971  0.497938  0.163029  1
  F  F16  1  0.497938  0.502062  0.836971  1
  F  F17  1  0.502062  0.497938  0.163029  1
  F  F18  1  0.163029  0.836971  0.502062  1
  F  F19  1  0.836971  0.163029  0.497938  1
  F  F20  1  0.114142  0.118062  0.118062  1
  F  F21  1  0.885858  0.881938  0.881938  1
  F  F22  1  0.118062  0.114142  0.649733  1
  F  F23  1  0.118062  0.649733  0.114142  1
  F  F24  1  0.881938  0.885858  0.350267  1
  F  F25  1  0.881938  0.350267  0.885858  1
  F  F26  1  0.649733  0.118062  0.118062  1
  F  F27  1  0.350267  0.881938  0.881938  1
