# generated using pymatgen
data_Ba4NaW2N7
_symmetry_space_group_name_H-M   'P 1'
_cell_length_a   6.55527700
_cell_length_b   10.46506800
_cell_length_c   17.46720500
_cell_angle_alpha   62.70280811
_cell_angle_beta   90.00000000
_cell_angle_gamma   90.00000000
_symmetry_Int_Tables_number   1
_chemical_formula_structural   Ba4NaW2N7
_chemical_formula_sum   'Ba16 Na4 W8 N28'
_cell_volume   1064.83480160
_cell_formula_units_Z   4
loop_
 _symmetry_equiv_pos_site_id
 _symmetry_equiv_pos_as_xyz
  1  'x, y, z'
loop_
 _atom_site_type_symbol
 _atom_site_label
 _atom_site_symmetry_multiplicity
 _atom_site_fract_x
 _atom_site_fract_y
 _atom_site_fract_z
 _atom_site_occupancy
  Ba  Ba0  1  0.864457  0.302768  0.620128  1
  Ba  Ba1  1  0.864457  0.697232  0.879872  1
  Ba  Ba2  1  0.135543  0.697232  0.379872  1
  Ba  Ba3  1  0.135543  0.302768  0.120128  1
  Ba  Ba4  1  0.288006  0.256943  0.485158  1
  Ba  Ba5  1  0.288006  0.743057  0.014842  1
  Ba  Ba6  1  0.711994  0.743057  0.514842  1
  Ba  Ba7  1  0.711994  0.256943  0.985158  1
  Ba  Ba8  1  0.782898  0.152606  0.428196  1
  Ba  Ba9  1  0.782898  0.847394  0.071804  1
  Ba  Ba10  1  0.217102  0.847394  0.571804  1
  Ba  Ba11  1  0.217102  0.152606  0.928196  1
  Ba  Ba12  1  0.969327  0.500000  0.250000  1
  Ba  Ba13  1  0.030673  0.500000  0.750000  1
  Ba  Ba14  1  0.680130  0.000000  0.250000  1
  Ba  Ba15  1  0.319870  0.000000  0.750000  1
  Na  Na16  1  0.528833  0.335542  0.761600  1
  Na  Na17  1  0.471167  0.335542  0.261600  1
  Na  Na18  1  0.471167  0.664458  0.238400  1
  Na  Na19  1  0.528833  0.664458  0.738400  1
  W  W20  1  0.785450  0.953380  0.654365  1
  W  W21  1  0.785450  0.046620  0.845635  1
  W  W22  1  0.214550  0.046620  0.345635  1
  W  W23  1  0.214550  0.953380  0.154365  1
  W  W24  1  0.679696  0.514938  0.407551  1
  W  W25  1  0.679696  0.485062  0.092449  1
  W  W26  1  0.320304  0.485062  0.592449  1
  W  W27  1  0.320304  0.514938  0.907551  1
  N  N28  1  0.144946  0.761382  0.188848  1
  N  N29  1  0.144946  0.238618  0.311152  1
  N  N30  1  0.855054  0.238618  0.811152  1
  N  N31  1  0.855054  0.761382  0.688848  1
  N  N32  1  0.548052  0.422327  0.354068  1
  N  N33  1  0.548052  0.577673  0.145932  1
  N  N34  1  0.451948  0.577673  0.645932  1
  N  N35  1  0.451948  0.422327  0.854068  1
  N  N36  1  0.464031  0.002671  0.096495  1
  N  N37  1  0.464031  0.997329  0.403505  1
  N  N38  1  0.535969  0.997329  0.903505  1
  N  N39  1  0.535969  0.002671  0.596495  1
  N  N40  1  0.726062  0.292097  0.168629  1
  N  N41  1  0.273938  0.292097  0.668629  1
  N  N42  1  0.273938  0.707903  0.831371  1
  N  N43  1  0.726062  0.707903  0.331371  1
  N  N44  1  0.934738  0.575169  0.061351  1
  N  N45  1  0.934738  0.424831  0.438649  1
  N  N46  1  0.065262  0.424831  0.938649  1
  N  N47  1  0.065262  0.575169  0.561351  1
  N  N48  1  0.990051  0.066209  0.580382  1
  N  N49  1  0.990051  0.933791  0.919618  1
  N  N50  1  0.009949  0.933791  0.419618  1
  N  N51  1  0.009949  0.066209  0.080382  1
  N  N52  1  0.500000  0.500000  0.000000  1
  N  N53  1  0.500000  0.500000  0.500000  1
  N  N54  1  0.765083  0.000000  0.750000  1
  N  N55  1  0.234917  0.000000  0.250000  1
