# generated using pymatgen
data_CeDy3(Al8Pt3)3
_symmetry_space_group_name_H-M   'P 1'
_cell_length_a   7.53334228
_cell_length_b   7.54147320
_cell_length_c   13.15353800
_cell_angle_alpha   84.52289858
_cell_angle_beta   78.98161714
_cell_angle_gamma   59.91562737
_symmetry_Int_Tables_number   1
_chemical_formula_structural   CeDy3(Al8Pt3)3
_chemical_formula_sum   'Ce1 Dy3 Al24 Pt9'
_cell_volume   634.69733470
_cell_formula_units_Z   1
loop_
 _symmetry_equiv_pos_site_id
 _symmetry_equiv_pos_as_xyz
  1  'x, y, z'
loop_
 _atom_site_type_symbol
 _atom_site_label
 _atom_site_symmetry_multiplicity
 _atom_site_fract_x
 _atom_site_fract_y
 _atom_site_fract_z
 _atom_site_occupancy
  Ce  Ce0  1  0.393912  0.167883  0.807454  1
  Dy  Dy1  1  0.606259  0.831850  0.192132  1
  Dy  Dy2  1  0.733373  0.498742  0.808020  1
  Dy  Dy3  1  0.266425  0.501425  0.192130  1
  Al  Al4  1  0.685296  0.832536  0.945391  1
  Al  Al5  1  0.315164  0.166161  0.056019  1
  Al  Al6  1  0.146683  0.832705  0.560814  1
  Al  Al7  1  0.853931  0.167210  0.438429  1
  Al  Al8  1  0.480166  0.166808  0.558159  1
  Al  Al9  1  0.519921  0.832661  0.441212  1
  Al  Al10  1  0.217593  0.165402  0.330559  1
  Al  Al11  1  0.784166  0.833254  0.668621  1
  Al  Al12  1  0.437779  0.507744  0.668889  1
  Al  Al13  1  0.562613  0.493612  0.330142  1
  Al  Al14  1  0.108678  0.160076  0.667639  1
  Al  Al15  1  0.890391  0.839878  0.331253  1
  Al  Al16  1  0.352360  0.500536  0.945175  1
  Al  Al17  1  0.647437  0.500374  0.055702  1
  Al  Al18  1  0.014250  0.167458  0.954127  1
  Al  Al19  1  0.984533  0.832798  0.046992  1
  Al  Al20  1  0.186132  0.499974  0.441231  1
  Al  Al21  1  0.813473  0.500671  0.558264  1
  Al  Al22  1  0.734439  0.164017  0.183875  1
  Al  Al23  1  0.264784  0.834869  0.816557  1
  Al  Al24  1  0.060094  0.633062  0.815361  1
  Al  Al25  1  0.938468  0.369038  0.184954  1
  Al  Al26  1  0.857276  0.041084  0.816245  1
  Al  Al27  1  0.144411  0.958192  0.184178  1
  Pt  Pt28  1  0.119681  0.492892  0.638367  1
  Pt  Pt29  1  0.879831  0.507961  0.361483  1
  Pt  Pt30  1  0.657270  0.171303  0.000172  1
  Pt  Pt31  1  0.342929  0.828159  0.000166  1
  Pt  Pt32  1  0.537745  0.166658  0.361911  1
  Pt  Pt33  1  0.462021  0.832596  0.638276  1
  Pt  Pt34  1  0.779903  0.174780  0.637115  1
  Pt  Pt35  1  0.220945  0.825123  0.362765  1
  Pt  Pt36  1  0.999664  0.500509  0.000223  1
