# generated using pymatgen
data_CePaFe9Ni3P7
_symmetry_space_group_name_H-M   'P 1'
_cell_length_a   9.03955800
_cell_length_b   9.03955762
_cell_length_c   3.68221200
_cell_angle_alpha   90.00000000
_cell_angle_beta   90.00000000
_cell_angle_gamma   120.00000043
_symmetry_Int_Tables_number   1
_chemical_formula_structural   CePaFe9Ni3P7
_chemical_formula_sum   'Ce1 Pa1 Fe9 Ni3 P7'
_cell_volume   260.57562711
_cell_formula_units_Z   1
loop_
 _symmetry_equiv_pos_site_id
 _symmetry_equiv_pos_as_xyz
  1  'x, y, z'
loop_
 _atom_site_type_symbol
 _atom_site_label
 _atom_site_symmetry_multiplicity
 _atom_site_fract_x
 _atom_site_fract_y
 _atom_site_fract_z
 _atom_site_occupancy
  Ce  Ce0  1  0.666667  0.333333  0.500000  1
  Pa  Pa1  1  0.333333  0.666667  0.000000  1
  Fe  Fe2  1  0.382837  0.437342  0.500000  1
  Fe  Fe3  1  0.152847  0.274219  0.000000  1
  Fe  Fe4  1  0.121374  0.847153  0.000000  1
  Fe  Fe5  1  0.725781  0.878626  0.000000  1
  Fe  Fe6  1  0.882075  0.783804  0.500000  1
  Fe  Fe7  1  0.901730  0.117925  0.500000  1
  Fe  Fe8  1  0.054506  0.617163  0.500000  1
  Fe  Fe9  1  0.216196  0.098270  0.500000  1
  Fe  Fe10  1  0.562658  0.945494  0.500000  1
  Ni  Ni11  1  0.936579  0.369290  0.000000  1
  Ni  Ni12  1  0.630710  0.567290  0.000000  1
  Ni  Ni13  1  0.432710  0.063421  0.000000  1
  P  P14  1  0.602521  0.713817  0.500000  1
  P  P15  1  0.111294  0.397479  0.500000  1
  P  P16  1  0.897473  0.597308  0.000000  1
  P  P17  1  0.286183  0.888706  0.500000  1
  P  P18  1  0.000000  0.000000  0.000000  1
  P  P19  1  0.699833  0.102527  0.000000  1
  P  P20  1  0.402692  0.300167  0.000000  1
