# generated using pymatgen
data_Li2HoSi(PPd4)5
_symmetry_space_group_name_H-M   'P 1'
_cell_length_a   8.60260261
_cell_length_b   8.60113398
_cell_length_c   8.60113312
_cell_angle_alpha   59.98166231
_cell_angle_beta   59.99434608
_cell_angle_gamma   59.99435119
_symmetry_Int_Tables_number   1
_chemical_formula_structural   Li2HoSi(PPd4)5
_chemical_formula_sum   'Li2 Ho1 Si1 P5 Pd20'
_cell_volume   449.91340148
_cell_formula_units_Z   1
loop_
 _symmetry_equiv_pos_site_id
 _symmetry_equiv_pos_as_xyz
  1  'x, y, z'
loop_
 _atom_site_type_symbol
 _atom_site_label
 _atom_site_symmetry_multiplicity
 _atom_site_fract_x
 _atom_site_fract_y
 _atom_site_fract_z
 _atom_site_occupancy
  Li  Li0  1  0.250163  0.249837  0.249837  1
  Li  Li1  1  0.999729  0.000271  0.000271  1
  Ho  Ho2  1  0.750460  0.749540  0.749540  1
  Si  Si3  1  0.736551  0.263449  0.263449  1
  P  P4  1  0.262289  0.737711  0.737711  1
  P  P5  1  0.263321  0.736336  0.262238  1
  P  P6  1  0.738105  0.262238  0.736336  1
  P  P7  1  0.263321  0.262238  0.736336  1
  P  P8  1  0.738105  0.736336  0.262238  1
  Pd  Pd9  1  0.380803  0.382361  0.382361  1
  Pd  Pd10  1  0.614448  0.614483  0.614483  1
  Pd  Pd11  1  0.382247  0.382220  0.853288  1
  Pd  Pd12  1  0.382247  0.853288  0.382220  1
  Pd  Pd13  1  0.614090  0.616412  0.155409  1
  Pd  Pd14  1  0.614090  0.155409  0.616412  1
  Pd  Pd15  1  0.854477  0.382361  0.382361  1
  Pd  Pd16  1  0.156585  0.614483  0.614483  1
  Pd  Pd17  1  0.344077  0.999434  0.999434  1
  Pd  Pd18  1  0.657055  0.999434  0.999434  1
  Pd  Pd19  1  0.998175  0.345464  0.658185  1
  Pd  Pd20  1  0.998175  0.658185  0.345464  1
  Pd  Pd21  1  0.000631  0.345988  0.996979  1
  Pd  Pd22  1  0.656401  0.996979  0.345988  1
  Pd  Pd23  1  0.998253  0.657726  0.998561  1
  Pd  Pd24  1  0.345459  0.998561  0.657726  1
  Pd  Pd25  1  0.000631  0.996979  0.345988  1
  Pd  Pd26  1  0.998253  0.998561  0.657726  1
  Pd  Pd27  1  0.656401  0.345988  0.996979  1
  Pd  Pd28  1  0.345459  0.657726  0.998561  1
