# generated using pymatgen
data_Ca5HgIrAu
_symmetry_space_group_name_H-M   'P 1'
_cell_length_a   9.17303366
_cell_length_b   9.17303345
_cell_length_c   9.23687800
_cell_angle_alpha   129.91051248
_cell_angle_beta   129.91050325
_cell_angle_gamma   73.01559283
_symmetry_Int_Tables_number   1
_chemical_formula_structural   Ca5HgIrAu
_chemical_formula_sum   'Ca10 Hg2 Ir2 Au2'
_cell_volume   447.75836792
_cell_formula_units_Z   2
loop_
 _symmetry_equiv_pos_site_id
 _symmetry_equiv_pos_as_xyz
  1  'x, y, z'
loop_
 _atom_site_type_symbol
 _atom_site_label
 _atom_site_symmetry_multiplicity
 _atom_site_fract_x
 _atom_site_fract_y
 _atom_site_fract_z
 _atom_site_occupancy
  Ca  Ca0  1  0.526395  0.026395  0.823358  1
  Ca  Ca1  1  0.203037  0.703037  0.176642  1
  Ca  Ca2  1  0.045252  0.184319  0.500000  1
  Ca  Ca3  1  0.684319  0.545252  0.500000  1
  Ca  Ca4  1  0.473605  0.973605  0.176642  1
  Ca  Ca5  1  0.796963  0.296963  0.823358  1
  Ca  Ca6  1  0.954748  0.815681  0.500000  1
  Ca  Ca7  1  0.315681  0.454748  0.500000  1
  Ca  Ca8  1  0.500000  0.500000  0.000000  1
  Ca  Ca9  1  0.000000  0.000000  0.000000  1
  Hg  Hg10  1  0.250000  0.250000  0.000000  1
  Hg  Hg11  1  0.750000  0.750000  0.000000  1
  Ir  Ir12  1  0.623288  0.876712  0.500000  1
  Ir  Ir13  1  0.376712  0.123288  0.500000  1
  Au  Au14  1  0.128284  0.628284  0.756566  1
  Au  Au15  1  0.871716  0.371716  0.243434  1
