# generated using pymatgen
data_Tm4Fe8MoP12Ir11
_symmetry_space_group_name_H-M   'P 1'
_cell_length_a   3.85011300
_cell_length_b   10.47663733
_cell_length_c   12.30475456
_cell_angle_alpha   90.27979157
_cell_angle_beta   90.00000000
_cell_angle_gamma   90.00000000
_symmetry_Int_Tables_number   1
_chemical_formula_structural   Tm4Fe8MoP12Ir11
_chemical_formula_sum   'Tm4 Fe8 Mo1 P12 Ir11'
_cell_volume   496.32158546
_cell_formula_units_Z   1
loop_
 _symmetry_equiv_pos_site_id
 _symmetry_equiv_pos_as_xyz
  1  'x, y, z'
loop_
 _atom_site_type_symbol
 _atom_site_label
 _atom_site_symmetry_multiplicity
 _atom_site_fract_x
 _atom_site_fract_y
 _atom_site_fract_z
 _atom_site_occupancy
  Tm  Tm0  1  0.250000  0.580832  0.714907  1
  Tm  Tm1  1  0.250000  0.919372  0.210611  1
  Tm  Tm2  1  0.750000  0.421437  0.288891  1
  Tm  Tm3  1  0.750000  0.075684  0.787510  1
  Fe  Fe4  1  0.250000  0.877637  0.694495  1
  Fe  Fe5  1  0.250000  0.624974  0.199231  1
  Fe  Fe6  1  0.750000  0.125475  0.301818  1
  Fe  Fe7  1  0.750000  0.378452  0.803545  1
  Fe  Fe8  1  0.250000  0.455050  0.939502  1
  Fe  Fe9  1  0.250000  0.044046  0.435844  1
  Fe  Fe10  1  0.750000  0.534030  0.065924  1
  Fe  Fe11  1  0.750000  0.957995  0.560791  1
  Mo  Mo12  1  0.250000  0.707844  0.988394  1
  P  P13  1  0.250000  0.441325  0.116221  1
  P  P14  1  0.250000  0.059509  0.611971  1
  P  P15  1  0.750000  0.563323  0.891277  1
  P  P16  1  0.750000  0.942285  0.385431  1
  P  P17  1  0.250000  0.270273  0.861136  1
  P  P18  1  0.250000  0.229436  0.362517  1
  P  P19  1  0.750000  0.726949  0.134634  1
  P  P20  1  0.750000  0.773184  0.636979  1
  P  P21  1  0.250000  0.599653  0.377582  1
  P  P22  1  0.250000  0.896488  0.879219  1
  P  P23  1  0.750000  0.401962  0.624281  1
  P  P24  1  0.750000  0.099359  0.121081  1
  Ir  Ir25  1  0.250000  0.784169  0.488103  1
  Ir  Ir26  1  0.750000  0.286738  0.011008  1
  Ir  Ir27  1  0.750000  0.218014  0.510429  1
  Ir  Ir28  1  0.250000  0.409517  0.475252  1
  Ir  Ir29  1  0.250000  0.092843  0.973027  1
  Ir  Ir30  1  0.750000  0.591698  0.526107  1
  Ir  Ir31  1  0.750000  0.907175  0.024942  1
  Ir  Ir32  1  0.250000  0.231784  0.174127  1
  Ir  Ir33  1  0.250000  0.269435  0.673796  1
  Ir  Ir34  1  0.750000  0.769081  0.824517  1
  Ir  Ir35  1  0.750000  0.732972  0.324899  1
