# generated using pymatgen
data_TbPr7(GeO5)4
_symmetry_space_group_name_H-M   'P 1'
_cell_length_a   8.46066110
_cell_length_b   8.49044383
_cell_length_c   11.03759436
_cell_angle_alpha   61.57283687
_cell_angle_beta   61.27689102
_cell_angle_gamma   49.89126124
_symmetry_Int_Tables_number   1
_chemical_formula_structural   TbPr7(GeO5)4
_chemical_formula_sum   'Tb1 Pr7 Ge4 O20'
_cell_volume   515.16432095
_cell_formula_units_Z   1
loop_
 _symmetry_equiv_pos_site_id
 _symmetry_equiv_pos_as_xyz
  1  'x, y, z'
loop_
 _atom_site_type_symbol
 _atom_site_label
 _atom_site_symmetry_multiplicity
 _atom_site_fract_x
 _atom_site_fract_y
 _atom_site_fract_z
 _atom_site_occupancy
  Tb  Tb0  1  0.745882  0.973958  0.336613  1
  Pr  Pr1  1  0.715634  0.211434  0.965844  1
  Pr  Pr2  1  0.790070  0.274399  0.538320  1
  Pr  Pr3  1  0.276719  0.795142  0.035329  1
  Pr  Pr4  1  0.208922  0.718513  0.463355  1
  Pr  Pr5  1  0.988778  0.732729  0.836363  1
  Pr  Pr6  1  0.269132  0.020236  0.657726  1
  Pr  Pr7  1  0.005273  0.269401  0.168512  1
  Ge  Ge8  1  0.776544  0.593073  0.688221  1
  Ge  Ge9  1  0.406391  0.225477  0.810179  1
  Ge  Ge10  1  0.229598  0.405179  0.305043  1
  Ge  Ge11  1  0.589609  0.778457  0.195673  1
  O  O12  1  0.770053  0.639236  0.059585  1
  O  O13  1  0.389368  0.221716  0.428378  1
  O  O14  1  0.224819  0.365139  0.945452  1
  O  O15  1  0.639730  0.779290  0.552257  1
  O  O16  1  0.591605  0.581918  0.359765  1
  O  O17  1  0.398785  0.424893  0.130148  1
  O  O18  1  0.409012  0.414390  0.642991  1
  O  O19  1  0.586348  0.589151  0.856077  1
  O  O20  1  0.954305  0.645343  0.675598  1
  O  O21  1  0.348164  0.051139  0.825783  1
  O  O22  1  0.054685  0.339290  0.330981  1
  O  O23  1  0.649854  0.949959  0.183351  1
  O  O24  1  0.884749  0.070311  0.399131  1
  O  O25  1  0.913314  0.107123  0.112516  1
  O  O26  1  0.111767  0.921915  0.602862  1
  O  O27  1  0.075742  0.897833  0.893400  1
  O  O28  1  0.088794  0.670939  0.320996  1
  O  O29  1  0.323037  0.910232  0.185259  1
  O  O30  1  0.909902  0.329488  0.674486  1
  O  O31  1  0.673414  0.092696  0.819803  1
