# generated using pymatgen
data_Y5ZnP11Ir19
_symmetry_space_group_name_H-M   'P 1'
_cell_length_a   12.73607165
_cell_length_b   12.79299767
_cell_length_c   3.98788000
_cell_angle_alpha   90.00000000
_cell_angle_beta   90.00000000
_cell_angle_gamma   120.14796808
_symmetry_Int_Tables_number   1
_chemical_formula_structural   Y5ZnP11Ir19
_chemical_formula_sum   'Y5 Zn1 P11 Ir19'
_cell_volume   561.86379831
_cell_formula_units_Z   1
loop_
 _symmetry_equiv_pos_site_id
 _symmetry_equiv_pos_as_xyz
  1  'x, y, z'
loop_
 _atom_site_type_symbol
 _atom_site_label
 _atom_site_symmetry_multiplicity
 _atom_site_fract_x
 _atom_site_fract_y
 _atom_site_fract_z
 _atom_site_occupancy
  Y  Y0  1  0.329639  0.664369  0.500000  1
  Y  Y1  1  0.670361  0.334730  0.500000  1
  Y  Y2  1  0.000000  0.818822  0.000000  1
  Y  Y3  1  0.185478  0.182758  0.000000  1
  Y  Y4  1  0.814522  0.997280  0.000000  1
  Zn  Zn5  1  0.000000  0.646666  0.500000  1
  P  P6  1  0.356832  0.356443  0.500000  1
  P  P7  1  0.643168  0.999611  0.500000  1
  P  P8  1  0.513775  0.689306  0.000000  1
  P  P9  1  0.308677  0.824123  0.000000  1
  P  P10  1  0.164185  0.479837  0.000000  1
  P  P11  1  0.486225  0.175529  0.000000  1
  P  P12  1  0.691323  0.515447  0.000000  1
  P  P13  1  0.835815  0.315652  0.000000  1
  P  P14  1  0.000000  0.173435  0.500000  1
  P  P15  1  0.817895  0.818589  0.500000  1
  P  P16  1  0.182105  0.000694  0.500000  1
  Ir  Ir17  1  0.506877  0.871987  0.000000  1
  Ir  Ir18  1  0.130575  0.637010  0.000000  1
  Ir  Ir19  1  0.354718  0.493909  0.000000  1
  Ir  Ir20  1  0.493123  0.365109  0.000000  1
  Ir  Ir21  1  0.869425  0.506434  0.000000  1
  Ir  Ir22  1  0.645282  0.139190  0.000000  1
  Ir  Ir23  1  0.000000  0.446533  0.500000  1
  Ir  Ir24  1  0.529790  0.540152  0.500000  1
  Ir  Ir25  1  0.470210  0.010362  0.500000  1
  Ir  Ir26  1  0.000000  0.280295  0.000000  1
  Ir  Ir27  1  0.711193  0.716892  0.000000  1
  Ir  Ir28  1  0.288807  0.005699  0.000000  1
  Ir  Ir29  1  0.620900  0.805406  0.500000  1
  Ir  Ir30  1  0.215896  0.831963  0.500000  1
  Ir  Ir31  1  0.178962  0.369221  0.500000  1
  Ir  Ir32  1  0.379100  0.184506  0.500000  1
  Ir  Ir33  1  0.784104  0.616067  0.500000  1
  Ir  Ir34  1  0.821038  0.190258  0.500000  1
  Ir  Ir35  1  0.000000  0.995718  0.500000  1
