# generated using pymatgen
data_Yb8SbRhO12
_symmetry_space_group_name_H-M   'P 1'
_cell_length_a   6.51357738
_cell_length_b   6.51357657
_cell_length_c   6.51357684
_cell_angle_alpha   90.62711196
_cell_angle_beta   90.62711129
_cell_angle_gamma   90.62712565
_symmetry_Int_Tables_number   1
_chemical_formula_structural   Yb8SbRhO12
_chemical_formula_sum   'Yb8 Sb1 Rh1 O12'
_cell_volume   276.29944882
_cell_formula_units_Z   1
loop_
 _symmetry_equiv_pos_site_id
 _symmetry_equiv_pos_as_xyz
  1  'x, y, z'
loop_
 _atom_site_type_symbol
 _atom_site_label
 _atom_site_symmetry_multiplicity
 _atom_site_fract_x
 _atom_site_fract_y
 _atom_site_fract_z
 _atom_site_occupancy
  Yb  Yb0  1  0.878731  0.604264  0.261600  1
  Yb  Yb1  1  0.121269  0.395736  0.738400  1
  Yb  Yb2  1  0.261600  0.878731  0.604264  1
  Yb  Yb3  1  0.604264  0.261600  0.878731  1
  Yb  Yb4  1  0.740554  0.740554  0.740554  1
  Yb  Yb5  1  0.395736  0.738400  0.121269  1
  Yb  Yb6  1  0.259446  0.259446  0.259446  1
  Yb  Yb7  1  0.738400  0.121269  0.395736  1
  Sb  Sb8  1  0.000000  0.000000  0.000000  1
  Rh  Rh9  1  0.500000  0.500000  0.500000  1
  O  O10  1  0.439738  0.579475  0.803135  1
  O  O11  1  0.579475  0.803135  0.439738  1
  O  O12  1  0.947875  0.295447  0.073008  1
  O  O13  1  0.560262  0.420525  0.196865  1
  O  O14  1  0.196865  0.560262  0.420525  1
  O  O15  1  0.052125  0.704553  0.926992  1
  O  O16  1  0.803135  0.439738  0.579475  1
  O  O17  1  0.704553  0.926992  0.052125  1
  O  O18  1  0.073008  0.947875  0.295447  1
  O  O19  1  0.926992  0.052125  0.704553  1
  O  O20  1  0.420525  0.196865  0.560262  1
  O  O21  1  0.295447  0.073008  0.947875  1
