# generated using pymatgen
data_Mg2ScAl(B4Ru5)2
_symmetry_space_group_name_H-M   'P 1'
_cell_length_a   2.97394100
_cell_length_b   8.39513855
_cell_length_c   10.07583482
_cell_angle_alpha   89.60679970
_cell_angle_beta   90.00000000
_cell_angle_gamma   90.00000000
_symmetry_Int_Tables_number   1
_chemical_formula_structural   Mg2ScAl(B4Ru5)2
_chemical_formula_sum   'Mg2 Sc1 Al1 B8 Ru10'
_cell_volume   251.55388482
_cell_formula_units_Z   1
loop_
 _symmetry_equiv_pos_site_id
 _symmetry_equiv_pos_as_xyz
  1  'x, y, z'
loop_
 _atom_site_type_symbol
 _atom_site_label
 _atom_site_symmetry_multiplicity
 _atom_site_fract_x
 _atom_site_fract_y
 _atom_site_fract_z
 _atom_site_occupancy
  Mg  Mg0  1  0.500000  0.151696  0.672395  1
  Mg  Mg1  1  0.500000  0.855135  0.306826  1
  Sc  Sc2  1  0.500000  0.651295  0.822500  1
  Al  Al3  1  0.500000  0.363020  0.196981  1
  B  B4  1  0.500000  0.853861  0.599498  1
  B  B5  1  0.500000  0.147424  0.395658  1
  B  B6  1  0.500000  0.344727  0.897130  1
  B  B7  1  0.500000  0.644840  0.103217  1
  B  B8  1  0.500000  0.959392  0.908212  1
  B  B9  1  0.500000  0.040465  0.086717  1
  B  B10  1  0.500000  0.460545  0.592431  1
  B  B11  1  0.500000  0.540854  0.416331  1
  Ru  Ru12  1  0.000000  0.395158  0.741427  1
  Ru  Ru13  1  0.000000  0.599302  0.265206  1
  Ru  Ru14  1  0.000000  0.901346  0.758674  1
  Ru  Ru15  1  0.000000  0.124344  0.231416  1
  Ru  Ru16  1  0.000000  0.996749  0.491950  1
  Ru  Ru17  1  0.000000  0.483040  0.010155  1
  Ru  Ru18  1  0.000000  0.656149  0.551404  1
  Ru  Ru19  1  0.000000  0.343322  0.455605  1
  Ru  Ru20  1  0.000000  0.150126  0.949521  1
  Ru  Ru21  1  0.000000  0.837211  0.046749  1
