# generated using pymatgen
data_Mn12Si19Ge
_symmetry_space_group_name_H-M   'P 1'
_cell_length_a   5.47683804
_cell_length_b   5.47869414
_cell_length_c   13.01961988
_cell_angle_alpha   90.00904713
_cell_angle_beta   90.13891796
_cell_angle_gamma   90.14062536
_symmetry_Int_Tables_number   1
_chemical_formula_structural   Mn12Si19Ge
_chemical_formula_sum   'Mn12 Si19 Ge1'
_cell_volume   390.66334854
_cell_formula_units_Z   1
loop_
 _symmetry_equiv_pos_site_id
 _symmetry_equiv_pos_as_xyz
  1  'x, y, z'
loop_
 _atom_site_type_symbol
 _atom_site_label
 _atom_site_symmetry_multiplicity
 _atom_site_fract_x
 _atom_site_fract_y
 _atom_site_fract_z
 _atom_site_occupancy
  Mn  Mn0  1  0.498857  0.000377  0.753327  1
  Mn  Mn1  1  0.001470  0.500663  0.253968  1
  Mn  Mn2  1  0.999841  0.000261  0.001527  1
  Mn  Mn3  1  0.501743  0.503945  0.500476  1
  Mn  Mn4  1  0.500403  0.000087  0.087422  1
  Mn  Mn5  1  0.999458  0.500473  0.914706  1
  Mn  Mn6  1  0.997776  0.504619  0.587101  1
  Mn  Mn7  1  0.504176  0.999169  0.411086  1
  Mn  Mn8  1  0.001883  0.000630  0.325002  1
  Mn  Mn9  1  0.994556  0.999922  0.679472  1
  Mn  Mn10  1  0.499060  0.499693  0.825320  1
  Mn  Mn11  1  0.500903  0.500293  0.176624  1
  Si  Si12  1  0.669169  0.163275  0.247938  1
  Si  Si13  1  0.833317  0.664631  0.751771  1
  Si  Si14  1  0.334573  0.837741  0.248097  1
  Si  Si15  1  0.161801  0.336890  0.752172  1
  Si  Si16  1  0.155507  0.189508  0.154136  1
  Si  Si17  1  0.814502  0.156871  0.848327  1
  Si  Si18  1  0.845976  0.810989  0.154130  1
  Si  Si19  1  0.182988  0.843759  0.847873  1
  Si  Si20  1  0.345950  0.683184  0.655804  1
  Si  Si21  1  0.680767  0.657561  0.343556  1
  Si  Si22  1  0.657126  0.315024  0.655617  1
  Si  Si23  1  0.323961  0.342320  0.342802  1
  Si  Si24  1  0.349170  0.221704  0.945619  1
  Si  Si25  1  0.773605  0.349884  0.054905  1
  Si  Si26  1  0.649756  0.778350  0.945666  1
  Si  Si27  1  0.226321  0.650632  0.055125  1
  Si  Si28  1  0.147855  0.704373  0.437671  1
  Si  Si29  1  0.733510  0.849693  0.551440  1
  Si  Si30  1  0.848387  0.289156  0.440125  1
  Ge  Ge31  1  0.265633  0.144329  0.551194  1
