# generated using pymatgen
data_K2EuBr4
_symmetry_space_group_name_H-M   'P 1'
_cell_length_a   8.23280500
_cell_length_b   9.18410600
_cell_length_c   13.86921200
_cell_angle_alpha   90.00000000
_cell_angle_beta   90.00000000
_cell_angle_gamma   90.00000000
_symmetry_Int_Tables_number   1
_chemical_formula_structural   K2EuBr4
_chemical_formula_sum   'K8 Eu4 Br16'
_cell_volume   1048.66434774
_cell_formula_units_Z   4
loop_
 _symmetry_equiv_pos_site_id
 _symmetry_equiv_pos_as_xyz
  1  'x, y, z'
loop_
 _atom_site_type_symbol
 _atom_site_label
 _atom_site_symmetry_multiplicity
 _atom_site_fract_x
 _atom_site_fract_y
 _atom_site_fract_z
 _atom_site_occupancy
  K  K0  1  0.580297  0.500000  0.188550  1
  K  K1  1  0.080297  0.500000  0.311451  1
  K  K2  1  0.919703  0.000000  0.688549  1
  K  K3  1  0.419703  0.000000  0.811450  1
  K  K4  1  0.576179  0.000000  0.178670  1
  K  K5  1  0.076177  0.000000  0.321331  1
  K  K6  1  0.923823  0.500000  0.678669  1
  K  K7  1  0.423823  0.500000  0.821330  1
  Eu  Eu8  1  0.000000  0.250000  0.000000  1
  Eu  Eu9  1  0.000000  0.750000  0.000000  1
  Eu  Eu10  1  0.500000  0.250000  0.500000  1
  Eu  Eu11  1  0.500000  0.750000  0.500000  1
  Br  Br12  1  0.233144  0.000000  0.048185  1
  Br  Br13  1  0.234345  0.500000  0.050471  1
  Br  Br14  1  0.862511  0.247535  0.200900  1
  Br  Br15  1  0.862511  0.752465  0.200900  1
  Br  Br16  1  0.362511  0.247535  0.299099  1
  Br  Br17  1  0.362511  0.752465  0.299099  1
  Br  Br18  1  0.734345  0.500000  0.449529  1
  Br  Br19  1  0.733145  0.000000  0.451815  1
  Br  Br20  1  0.266855  0.500000  0.548185  1
  Br  Br21  1  0.265657  0.000000  0.550470  1
  Br  Br22  1  0.637490  0.252465  0.700901  1
  Br  Br23  1  0.637490  0.747536  0.700901  1
  Br  Br24  1  0.137489  0.252465  0.799099  1
  Br  Br25  1  0.137489  0.747536  0.799099  1
  Br  Br26  1  0.765657  0.000000  0.949529  1
  Br  Br27  1  0.766855  0.500000  0.951815  1
