# generated using pymatgen
data_YTa8MoS16
_symmetry_space_group_name_H-M   'P 1'
_cell_length_a   6.67874600
_cell_length_b   6.67874589
_cell_length_c   13.13585900
_cell_angle_alpha   90.00000000
_cell_angle_beta   90.00000000
_cell_angle_gamma   120.00001044
_symmetry_Int_Tables_number   1
_chemical_formula_structural   YTa8MoS16
_chemical_formula_sum   'Y1 Ta8 Mo1 S16'
_cell_volume   507.43323826
_cell_formula_units_Z   1
loop_
 _symmetry_equiv_pos_site_id
 _symmetry_equiv_pos_as_xyz
  1  'x, y, z'
loop_
 _atom_site_type_symbol
 _atom_site_label
 _atom_site_symmetry_multiplicity
 _atom_site_fract_x
 _atom_site_fract_y
 _atom_site_fract_z
 _atom_site_occupancy
  Y  Y0  1  0.000000  0.000000  0.500000  1
  Ta  Ta1  1  0.505338  0.494662  0.764758  1
  Ta  Ta2  1  0.010674  0.505338  0.235242  1
  Ta  Ta3  1  0.494662  0.989326  0.235242  1
  Ta  Ta4  1  0.505338  0.010674  0.764758  1
  Ta  Ta5  1  0.989326  0.494662  0.764758  1
  Ta  Ta6  1  0.494662  0.505338  0.235242  1
  Ta  Ta7  1  0.000000  0.000000  0.763118  1
  Ta  Ta8  1  0.000000  0.000000  0.236882  1
  Mo  Mo9  1  0.000000  0.000000  0.000000  1
  S  S10  1  0.830469  0.169531  0.355730  1
  S  S11  1  0.830469  0.660936  0.355730  1
  S  S12  1  0.339064  0.169531  0.355730  1
  S  S13  1  0.665928  0.832964  0.883012  1
  S  S14  1  0.169531  0.339064  0.644270  1
  S  S15  1  0.167036  0.832964  0.883012  1
  S  S16  1  0.167036  0.334072  0.883012  1
  S  S17  1  0.832964  0.167036  0.116988  1
  S  S18  1  0.334072  0.167036  0.116988  1
  S  S19  1  0.660936  0.830469  0.644270  1
  S  S20  1  0.333333  0.666667  0.113444  1
  S  S21  1  0.666667  0.333333  0.641616  1
  S  S22  1  0.666667  0.333333  0.886556  1
  S  S23  1  0.333333  0.666667  0.358384  1
  S  S24  1  0.832964  0.665928  0.116988  1
  S  S25  1  0.169531  0.830469  0.644270  1
