# generated using pymatgen
data_Lu16ZnIn6Os
_symmetry_space_group_name_H-M   'P 1'
_cell_length_a   10.31515400
_cell_length_b   10.31515451
_cell_length_c   6.79829900
_cell_angle_alpha   90.00000000
_cell_angle_beta   90.00000000
_cell_angle_gamma   119.99999836
_symmetry_Int_Tables_number   1
_chemical_formula_structural   Lu16ZnIn6Os
_chemical_formula_sum   'Lu16 Zn1 In6 Os1'
_cell_volume   626.44414488
_cell_formula_units_Z   1
loop_
 _symmetry_equiv_pos_site_id
 _symmetry_equiv_pos_as_xyz
  1  'x, y, z'
loop_
 _atom_site_type_symbol
 _atom_site_label
 _atom_site_symmetry_multiplicity
 _atom_site_fract_x
 _atom_site_fract_y
 _atom_site_fract_z
 _atom_site_occupancy
  Lu  Lu0  1  0.467796  0.532204  0.480635  1
  Lu  Lu1  1  0.064408  0.532204  0.480635  1
  Lu  Lu2  1  0.467796  0.935592  0.480635  1
  Lu  Lu3  1  0.522512  0.477488  0.975399  1
  Lu  Lu4  1  0.954976  0.477488  0.975399  1
  Lu  Lu5  1  0.522512  0.045024  0.975399  1
  Lu  Lu6  1  0.826162  0.173838  0.270743  1
  Lu  Lu7  1  0.347676  0.173838  0.270743  1
  Lu  Lu8  1  0.826162  0.652324  0.270743  1
  Lu  Lu9  1  0.177414  0.822586  0.771198  1
  Lu  Lu10  1  0.645171  0.822586  0.771198  1
  Lu  Lu11  1  0.177414  0.354829  0.771198  1
  Lu  Lu12  1  0.333333  0.666667  0.104780  1
  Lu  Lu13  1  0.666667  0.333333  0.619964  1
  Lu  Lu14  1  0.000000  0.000000  0.494939  1
  Lu  Lu15  1  0.000000  0.000000  0.000891  1
  Zn  Zn16  1  0.666667  0.333333  0.197463  1
  In  In17  1  0.162086  0.837914  0.237296  1
  In  In18  1  0.675828  0.837914  0.237296  1
  In  In19  1  0.162086  0.324172  0.237296  1
  In  In20  1  0.835447  0.164553  0.739124  1
  In  In21  1  0.329104  0.164553  0.739124  1
  In  In22  1  0.835447  0.670896  0.739124  1
  Os  Os23  1  0.333333  0.666667  0.703334  1
