# generated using pymatgen
data_LiLa6ReBr12
_symmetry_space_group_name_H-M   'P 1'
_cell_length_a   10.02214797
_cell_length_b   9.63638655
_cell_length_c   9.66286725
_cell_angle_alpha   107.43510371
_cell_angle_beta   108.90814760
_cell_angle_gamma   108.01650657
_symmetry_Int_Tables_number   1
_chemical_formula_structural   LiLa6ReBr12
_chemical_formula_sum   'Li1 La6 Re1 Br12'
_cell_volume   752.08753455
_cell_formula_units_Z   1
loop_
 _symmetry_equiv_pos_site_id
 _symmetry_equiv_pos_as_xyz
  1  'x, y, z'
loop_
 _atom_site_type_symbol
 _atom_site_label
 _atom_site_symmetry_multiplicity
 _atom_site_fract_x
 _atom_site_fract_y
 _atom_site_fract_z
 _atom_site_occupancy
  Li  Li0  1  0.500000  0.500000  0.500000  1
  La  La1  1  0.342242  0.134534  0.037287  1
  La  La2  1  0.033420  0.312352  0.117462  1
  La  La3  1  0.120541  0.034362  0.315251  1
  La  La4  1  0.879459  0.965638  0.684750  1
  La  La5  1  0.966580  0.687649  0.882539  1
  La  La6  1  0.657759  0.865466  0.962714  1
  Re  Re7  1  0.000000  0.000000  0.000000  1
  Br  Br8  1  0.686937  0.208909  0.066825  1
  Br  Br9  1  0.380509  0.471226  0.183978  1
  Br  Br10  1  0.066946  0.682601  0.212289  1
  Br  Br11  1  0.795159  0.935054  0.318845  1
  Br  Br12  1  0.465976  0.181820  0.382194  1
  Br  Br13  1  0.185102  0.384226  0.470054  1
  Br  Br14  1  0.814898  0.615775  0.529946  1
  Br  Br15  1  0.534024  0.818181  0.617806  1
  Br  Br16  1  0.204842  0.064947  0.681155  1
  Br  Br17  1  0.933054  0.317399  0.787712  1
  Br  Br18  1  0.619492  0.528774  0.816022  1
  Br  Br19  1  0.313064  0.791091  0.933175  1
