# generated using pymatgen
data_Cs3K9Al(GaSe4)3
_symmetry_space_group_name_H-M   'P 1'
_cell_length_a   13.88694573
_cell_length_b   8.30754281
_cell_length_c   10.59240101
_cell_angle_alpha   53.22985866
_cell_angle_beta   89.58577637
_cell_angle_gamma   89.61065416
_symmetry_Int_Tables_number   1
_chemical_formula_structural   Cs3K9Al(GaSe4)3
_chemical_formula_sum   'Cs3 K9 Al1 Ga3 Se12'
_cell_volume   978.85056082
_cell_formula_units_Z   1
loop_
 _symmetry_equiv_pos_site_id
 _symmetry_equiv_pos_as_xyz
  1  'x, y, z'
loop_
 _atom_site_type_symbol
 _atom_site_label
 _atom_site_symmetry_multiplicity
 _atom_site_fract_x
 _atom_site_fract_y
 _atom_site_fract_z
 _atom_site_occupancy
  Cs  Cs0  1  0.309889  0.171034  0.058419  1
  Cs  Cs1  1  0.684676  0.832912  0.941645  1
  Cs  Cs2  1  0.814620  0.833644  0.443663  1
  K  K3  1  0.901907  0.317201  0.404445  1
  K  K4  1  0.612204  0.362923  0.474327  1
  K  K5  1  0.114983  0.632434  0.026165  1
  K  K6  1  0.385070  0.639648  0.526467  1
  K  K7  1  0.890887  0.367415  0.972282  1
  K  K8  1  0.607797  0.311498  0.905808  1
  K  K9  1  0.106886  0.685711  0.594743  1
  K  K10  1  0.391591  0.690810  0.093275  1
  K  K11  1  0.187430  0.159783  0.570381  1
  Al  Al12  1  0.939039  0.046891  0.843037  1
  Ga  Ga13  1  0.066247  0.941297  0.158217  1
  Ga  Ga14  1  0.561774  0.049789  0.342363  1
  Ga  Ga15  1  0.430985  0.959560  0.655183  1
  Se  Se16  1  0.408459  0.193074  0.361893  1
  Se  Se17  1  0.911346  0.813754  0.132070  1
  Se  Se18  1  0.583352  0.813003  0.637165  1
  Se  Se19  1  0.092243  0.177239  0.861983  1
  Se  Se20  1  0.687582  0.302251  0.209597  1
  Se  Se21  1  0.186992  0.676553  0.298572  1
  Se  Se22  1  0.302732  0.713666  0.784098  1
  Se  Se23  1  0.815802  0.300478  0.710796  1
  Se  Se24  1  0.545184  0.861760  0.237739  1
  Se  Se25  1  0.052389  0.134665  0.259213  1
  Se  Se26  1  0.450461  0.144236  0.761945  1
  Se  Se27  1  0.957475  0.866772  0.734506  1
