# generated using pymatgen
data_ZnFeRhO4
_symmetry_space_group_name_H-M   'P 1'
_cell_length_a   6.06864604
_cell_length_b   6.06864541
_cell_length_c   6.06864619
_cell_angle_alpha   120.52970001
_cell_angle_beta   119.25870065
_cell_angle_gamma   90.18686132
_symmetry_Int_Tables_number   1
_chemical_formula_structural   ZnFeRhO4
_chemical_formula_sum   'Zn2 Fe2 Rh2 O8'
_cell_volume   158.26515829
_cell_formula_units_Z   2
loop_
 _symmetry_equiv_pos_site_id
 _symmetry_equiv_pos_as_xyz
  1  'x, y, z'
loop_
 _atom_site_type_symbol
 _atom_site_label
 _atom_site_symmetry_multiplicity
 _atom_site_fract_x
 _atom_site_fract_y
 _atom_site_fract_z
 _atom_site_occupancy
  Zn  Zn0  1  0.118844  0.868844  0.250000  1
  Zn  Zn1  1  0.881156  0.131156  0.750000  1
  Fe  Fe2  1  0.500000  0.500000  0.500000  1
  Fe  Fe3  1  0.500000  0.000000  0.000000  1
  Rh  Rh4  1  0.500000  0.500000  0.000000  1
  Rh  Rh5  1  0.000000  0.500000  0.500000  1
  O  O6  1  0.739163  0.257576  0.018413  1
  O  O7  1  0.739163  0.720750  0.481587  1
  O  O8  1  0.733159  0.256620  0.476538  1
  O  O9  1  0.280082  0.256620  0.023462  1
  O  O10  1  0.260837  0.742424  0.981587  1
  O  O11  1  0.260837  0.279250  0.518413  1
  O  O12  1  0.266841  0.743380  0.523462  1
  O  O13  1  0.719918  0.743380  0.976538  1
