# generated using pymatgen
data_LiTb12Dy4In3Rh4
_symmetry_space_group_name_H-M   'P 1'
_cell_length_a   9.68831135
_cell_length_b   9.68741513
_cell_length_c   9.68661727
_cell_angle_alpha   60.02290113
_cell_angle_beta   60.01054056
_cell_angle_gamma   59.99341698
_symmetry_Int_Tables_number   1
_chemical_formula_structural   LiTb12Dy4In3Rh4
_chemical_formula_sum   'Li1 Tb12 Dy4 In3 Rh4'
_cell_volume   642.98556553
_cell_formula_units_Z   1
loop_
 _symmetry_equiv_pos_site_id
 _symmetry_equiv_pos_as_xyz
  1  'x, y, z'
loop_
 _atom_site_type_symbol
 _atom_site_label
 _atom_site_symmetry_multiplicity
 _atom_site_fract_x
 _atom_site_fract_y
 _atom_site_fract_z
 _atom_site_occupancy
  Li  Li0  1  0.428144  0.427918  0.428353  1
  Tb  Tb1  1  0.061274  0.061662  0.438279  1
  Tb  Tb2  1  0.437008  0.436432  0.063105  1
  Tb  Tb3  1  0.650630  0.650240  0.650311  1
  Tb  Tb4  1  0.813770  0.187136  0.186982  1
  Tb  Tb5  1  0.191016  0.809081  0.808607  1
  Tb  Tb6  1  0.047294  0.649959  0.650359  1
  Tb  Tb7  1  0.438374  0.061574  0.061253  1
  Tb  Tb8  1  0.436983  0.062911  0.436969  1
  Tb  Tb9  1  0.061643  0.437850  0.061733  1
  Tb  Tb10  1  0.650345  0.650255  0.047405  1
  Tb  Tb11  1  0.187093  0.813913  0.187037  1
  Tb  Tb12  1  0.063068  0.436452  0.437007  1
  Dy  Dy13  1  0.808390  0.808720  0.191242  1
  Dy  Dy14  1  0.808648  0.191263  0.808518  1
  Dy  Dy15  1  0.187250  0.187359  0.813549  1
  Dy  Dy16  1  0.650147  0.047272  0.650459  1
  In  In17  1  0.417839  0.417515  0.745659  1
  In  In18  1  0.417925  0.745602  0.417843  1
  In  In19  1  0.745589  0.417696  0.417926  1
  Rh  Rh20  1  0.857912  0.425509  0.857323  1
  Rh  Rh21  1  0.856338  0.857543  0.856859  1
  Rh  Rh22  1  0.857050  0.857776  0.426201  1
  Rh  Rh23  1  0.426270  0.858361  0.857020  1
