# generated using pymatgen
data_MgCl30
_symmetry_space_group_name_H-M   'P 1'
_cell_length_a   13.36945279
_cell_length_b   13.36945336
_cell_length_c   15.54665667
_cell_angle_alpha   82.56181545
_cell_angle_beta   82.56181616
_cell_angle_gamma   119.78820331
_symmetry_Int_Tables_number   1
_chemical_formula_structural   MgCl30
_chemical_formula_sum   'Mg1 Cl30'
_cell_volume   2329.96638561
_cell_formula_units_Z   1
loop_
 _symmetry_equiv_pos_site_id
 _symmetry_equiv_pos_as_xyz
  1  'x, y, z'
loop_
 _atom_site_type_symbol
 _atom_site_label
 _atom_site_symmetry_multiplicity
 _atom_site_fract_x
 _atom_site_fract_y
 _atom_site_fract_z
 _atom_site_occupancy
  Mg  Mg0  1  0.000000  0.000000  0.000000  1
  Cl  Cl1  1  0.949291  0.949291  0.150371  1
  Cl  Cl2  1  0.050709  0.050709  0.849629  1
  Cl  Cl3  1  0.153415  0.240022  0.006782  1
  Cl  Cl4  1  0.846585  0.759978  0.993218  1
  Cl  Cl5  1  0.240022  0.153415  0.006782  1
  Cl  Cl6  1  0.759978  0.846585  0.993218  1
  Cl  Cl7  1  0.202751  0.739172  0.066747  1
  Cl  Cl8  1  0.797249  0.260828  0.933253  1
  Cl  Cl9  1  0.688826  0.083114  0.265026  1
  Cl  Cl10  1  0.260828  0.797249  0.933253  1
  Cl  Cl11  1  0.311174  0.916886  0.734974  1
  Cl  Cl12  1  0.739172  0.202751  0.066747  1
  Cl  Cl13  1  0.976062  0.204758  0.777936  1
  Cl  Cl14  1  0.916886  0.311174  0.734974  1
  Cl  Cl15  1  0.023938  0.795242  0.222064  1
  Cl  Cl16  1  0.083114  0.688826  0.265026  1
  Cl  Cl17  1  0.795242  0.023938  0.222064  1
  Cl  Cl18  1  0.204758  0.976062  0.777936  1
  Cl  Cl19  1  0.465046  0.551343  0.259975  1
  Cl  Cl20  1  0.534954  0.448657  0.740025  1
  Cl  Cl21  1  0.510181  0.203061  0.450761  1
  Cl  Cl22  1  0.448657  0.534954  0.740025  1
  Cl  Cl23  1  0.489819  0.796939  0.549239  1
  Cl  Cl24  1  0.551343  0.465046  0.259975  1
  Cl  Cl25  1  0.240448  0.428416  0.546416  1
  Cl  Cl26  1  0.796939  0.489819  0.549239  1
  Cl  Cl27  1  0.759552  0.571584  0.453584  1
  Cl  Cl28  1  0.203061  0.510181  0.450761  1
  Cl  Cl29  1  0.571584  0.759552  0.453584  1
  Cl  Cl30  1  0.428416  0.240448  0.546416  1
