# generated using pymatgen
data_La(Si2Ir3)2
_symmetry_space_group_name_H-M   'P 1'
_cell_length_a   7.07057100
_cell_length_b   7.07057116
_cell_length_c   3.88758100
_cell_angle_alpha   90.00000000
_cell_angle_beta   90.00000000
_cell_angle_gamma   120.00000394
_symmetry_Int_Tables_number   1
_chemical_formula_structural   La(Si2Ir3)2
_chemical_formula_sum   'La1 Si4 Ir6'
_cell_volume   168.31353852
_cell_formula_units_Z   1
loop_
 _symmetry_equiv_pos_site_id
 _symmetry_equiv_pos_as_xyz
  1  'x, y, z'
loop_
 _atom_site_type_symbol
 _atom_site_label
 _atom_site_symmetry_multiplicity
 _atom_site_fract_x
 _atom_site_fract_y
 _atom_site_fract_z
 _atom_site_occupancy
  La  La0  1  0.000000  0.000000  0.000000  1
  Si  Si1  1  0.666667  0.333333  0.000000  1
  Si  Si2  1  0.199632  0.399264  0.500000  1
  Si  Si3  1  0.600736  0.800368  0.500000  1
  Si  Si4  1  0.199632  0.800368  0.500000  1
  Ir  Ir5  1  0.467275  0.934550  0.000000  1
  Ir  Ir6  1  0.065450  0.532725  0.000000  1
  Ir  Ir7  1  0.467275  0.532725  0.000000  1
  Ir  Ir8  1  0.800330  0.600660  0.500000  1
  Ir  Ir9  1  0.399340  0.199670  0.500000  1
  Ir  Ir10  1  0.800330  0.199670  0.500000  1
