# generated using pymatgen
data_Tb9Nd6Ho(CdPt)4
_symmetry_space_group_name_H-M   'P 1'
_cell_length_a   9.81974001
_cell_length_b   9.81973983
_cell_length_c   9.80467600
_cell_angle_alpha   60.05073252
_cell_angle_beta   60.05073314
_cell_angle_gamma   60.06491884
_symmetry_Int_Tables_number   1
_chemical_formula_structural   Tb9Nd6Ho(CdPt)4
_chemical_formula_sum   'Tb9 Nd6 Ho1 Cd4 Pt4'
_cell_volume   669.36618981
_cell_formula_units_Z   1
loop_
 _symmetry_equiv_pos_site_id
 _symmetry_equiv_pos_as_xyz
  1  'x, y, z'
loop_
 _atom_site_type_symbol
 _atom_site_label
 _atom_site_symmetry_multiplicity
 _atom_site_fract_x
 _atom_site_fract_y
 _atom_site_fract_z
 _atom_site_occupancy
  Tb  Tb0  1  0.350619  0.350619  0.350261  1
  Tb  Tb1  1  0.350619  0.350619  0.948500  1
  Tb  Tb2  1  0.351731  0.946888  0.350690  1
  Tb  Tb3  1  0.946888  0.351731  0.350690  1
  Tb  Tb4  1  0.811722  0.187950  0.188863  1
  Tb  Tb5  1  0.187950  0.811722  0.811465  1
  Tb  Tb6  1  0.187950  0.811722  0.188863  1
  Tb  Tb7  1  0.811722  0.187950  0.811465  1
  Tb  Tb8  1  0.188601  0.188601  0.811399  1
  Nd  Nd9  1  0.938409  0.561774  0.562023  1
  Nd  Nd10  1  0.561774  0.938409  0.937794  1
  Nd  Nd11  1  0.561774  0.938409  0.562023  1
  Nd  Nd12  1  0.938409  0.561774  0.937794  1
  Nd  Nd13  1  0.561935  0.561935  0.938065  1
  Nd  Nd14  1  0.938125  0.938125  0.561875  1
  Ho  Ho15  1  0.811479  0.811479  0.188521  1
  Cd  Cd16  1  0.579961  0.579961  0.579648  1
  Cd  Cd17  1  0.579961  0.579961  0.260432  1
  Cd  Cd18  1  0.579971  0.260167  0.579932  1
  Cd  Cd19  1  0.260167  0.579971  0.579932  1
  Pt  Pt20  1  0.143169  0.143169  0.143196  1
  Pt  Pt21  1  0.143169  0.143169  0.570467  1
  Pt  Pt22  1  0.141877  0.572020  0.143052  1
  Pt  Pt23  1  0.572020  0.141877  0.143052  1
