# generated using pymatgen
data_DyU(AsSe)2
_symmetry_space_group_name_H-M   'P 1'
_cell_length_a   3.96205600
_cell_length_b   3.96205600
_cell_length_c   8.62313800
_cell_angle_alpha   90.00000000
_cell_angle_beta   90.00000000
_cell_angle_gamma   90.00000000
_symmetry_Int_Tables_number   1
_chemical_formula_structural   DyU(AsSe)2
_chemical_formula_sum   'Dy1 U1 As2 Se2'
_cell_volume   135.36505235
_cell_formula_units_Z   1
loop_
 _symmetry_equiv_pos_site_id
 _symmetry_equiv_pos_as_xyz
  1  'x, y, z'
loop_
 _atom_site_type_symbol
 _atom_site_label
 _atom_site_symmetry_multiplicity
 _atom_site_fract_x
 _atom_site_fract_y
 _atom_site_fract_z
 _atom_site_occupancy
  Dy  Dy0  1  0.000000  0.500000  0.729377  1
  U  U1  1  0.500000  0.000000  0.271274  1
  As  As2  1  0.000000  0.000000  0.002814  1
  As  As3  1  0.500000  0.500000  0.002814  1
  Se  Se4  1  0.500000  0.000000  0.626514  1
  Se  Se5  1  0.000000  0.500000  0.367207  1
