# generated using pymatgen
data_Yb10CdCuHgPt3
_symmetry_space_group_name_H-M   'P 1'
_cell_length_a   8.98832536
_cell_length_b   8.98832543
_cell_length_c   9.03159621
_cell_angle_alpha   128.93414176
_cell_angle_beta   128.93414848
_cell_angle_gamma   74.78227458
_symmetry_Int_Tables_number   1
_chemical_formula_structural   Yb10CdCuHgPt3
_chemical_formula_sum   'Yb10 Cd1 Cu1 Hg1 Pt3'
_cell_volume   430.79965394
_cell_formula_units_Z   1
loop_
 _symmetry_equiv_pos_site_id
 _symmetry_equiv_pos_as_xyz
  1  'x, y, z'
loop_
 _atom_site_type_symbol
 _atom_site_label
 _atom_site_symmetry_multiplicity
 _atom_site_fract_x
 _atom_site_fract_y
 _atom_site_fract_z
 _atom_site_occupancy
  Yb  Yb0  1  0.501276  0.503568  0.005578  1
  Yb  Yb1  1  0.996432  0.998724  0.994422  1
  Yb  Yb2  1  0.535444  0.034400  0.836418  1
  Yb  Yb3  1  0.201551  0.695359  0.163507  1
  Yb  Yb4  1  0.032815  0.206049  0.502201  1
  Yb  Yb5  1  0.700759  0.535180  0.497710  1
  Yb  Yb6  1  0.465600  0.964556  0.163582  1
  Yb  Yb7  1  0.804641  0.298449  0.836493  1
  Yb  Yb8  1  0.964820  0.799241  0.502290  1
  Yb  Yb9  1  0.293951  0.467185  0.497799  1
  Cd  Cd10  1  0.750776  0.749224  0.000000  1
  Cu  Cu11  1  0.377761  0.122239  0.500000  1
  Hg  Hg12  1  0.250555  0.249445  0.000000  1
  Pt  Pt13  1  0.134220  0.633646  0.767873  1
  Pt  Pt14  1  0.866354  0.365780  0.232127  1
  Pt  Pt15  1  0.623046  0.876954  0.500000  1
