# generated using pymatgen
data_Sm3Lu6ThPt8
_symmetry_space_group_name_H-M   'P 1'
_cell_length_a   7.45866400
_cell_length_b   7.51968609
_cell_length_c   14.58696800
_cell_angle_alpha   90.00903665
_cell_angle_beta   90.00000000
_cell_angle_gamma   90.00000000
_symmetry_Int_Tables_number   1
_chemical_formula_structural   Sm3Lu6ThPt8
_chemical_formula_sum   'Sm6 Lu12 Th2 Pt16'
_cell_volume   818.13652106
_cell_formula_units_Z   2
loop_
 _symmetry_equiv_pos_site_id
 _symmetry_equiv_pos_as_xyz
  1  'x, y, z'
loop_
 _atom_site_type_symbol
 _atom_site_label
 _atom_site_symmetry_multiplicity
 _atom_site_fract_x
 _atom_site_fract_y
 _atom_site_fract_z
 _atom_site_occupancy
  Sm  Sm0  1  0.500359  0.676337  0.593986  1
  Sm  Sm1  1  0.000359  0.823663  0.906014  1
  Sm  Sm2  1  0.500093  0.323175  0.094096  1
  Sm  Sm3  1  0.000093  0.176825  0.405904  1
  Sm  Sm4  1  0.500023  0.323238  0.405997  1
  Sm  Sm5  1  0.000023  0.176762  0.094003  1
  Lu  Lu6  1  0.656095  0.168010  0.623294  1
  Lu  Lu7  1  0.156095  0.331990  0.876706  1
  Lu  Lu8  1  0.341975  0.833469  0.124910  1
  Lu  Lu9  1  0.841975  0.666531  0.375090  1
  Lu  Lu10  1  0.344502  0.833155  0.376336  1
  Lu  Lu11  1  0.844502  0.666845  0.123664  1
  Lu  Lu12  1  0.656895  0.167211  0.876794  1
  Lu  Lu13  1  0.156895  0.332789  0.623206  1
  Lu  Lu14  1  0.821222  0.505347  0.749628  1
  Lu  Lu15  1  0.321222  0.994653  0.750372  1
  Lu  Lu16  1  0.179566  0.492662  0.250325  1
  Lu  Lu17  1  0.679566  0.007338  0.249675  1
  Th  Th18  1  0.500288  0.679211  0.906326  1
  Th  Th19  1  0.000288  0.820789  0.593674  1
  Pt  Pt20  1  0.683287  0.962160  0.459481  1
  Pt  Pt21  1  0.183287  0.537840  0.040519  1
  Pt  Pt22  1  0.321852  0.034111  0.957135  1
  Pt  Pt23  1  0.821852  0.465889  0.542865  1
  Pt  Pt24  1  0.316195  0.034514  0.542585  1
  Pt  Pt25  1  0.816195  0.465486  0.957415  1
  Pt  Pt26  1  0.678215  0.959902  0.041749  1
  Pt  Pt27  1  0.178215  0.540098  0.458251  1
  Pt  Pt28  1  0.454347  0.379087  0.751280  1
  Pt  Pt29  1  0.954347  0.120913  0.748720  1
  Pt  Pt30  1  0.545112  0.621644  0.249706  1
  Pt  Pt31  1  0.045112  0.878356  0.250294  1
  Pt  Pt32  1  0.683965  0.857475  0.751677  1
  Pt  Pt33  1  0.183965  0.642525  0.748323  1
  Pt  Pt34  1  0.316006  0.140697  0.250105  1
  Pt  Pt35  1  0.816006  0.359303  0.249895  1
