# generated using pymatgen
data_Nd4AlGePd28
_symmetry_space_group_name_H-M   'P 1'
_cell_length_a   8.98789500
_cell_length_b   8.98789500
_cell_length_c   7.22424300
_cell_angle_alpha   90.00000000
_cell_angle_beta   90.00000000
_cell_angle_gamma   90.00000000
_symmetry_Int_Tables_number   1
_chemical_formula_structural   Nd4AlGePd28
_chemical_formula_sum   'Nd4 Al1 Ge1 Pd28'
_cell_volume   583.59065127
_cell_formula_units_Z   1
loop_
 _symmetry_equiv_pos_site_id
 _symmetry_equiv_pos_as_xyz
  1  'x, y, z'
loop_
 _atom_site_type_symbol
 _atom_site_label
 _atom_site_symmetry_multiplicity
 _atom_site_fract_x
 _atom_site_fract_y
 _atom_site_fract_z
 _atom_site_occupancy
  Nd  Nd0  1  0.500000  0.000000  0.936406  1
  Nd  Nd1  1  0.000000  0.500000  0.063210  1
  Nd  Nd2  1  0.000000  0.000000  0.499854  1
  Nd  Nd3  1  0.500000  0.500000  0.499854  1
  Al  Al4  1  0.500000  0.000000  0.449249  1
  Ge  Ge5  1  0.000000  0.500000  0.550997  1
  Pd  Pd6  1  0.330590  0.830590  0.621007  1
  Pd  Pd7  1  0.330590  0.169410  0.621007  1
  Pd  Pd8  1  0.669410  0.830590  0.621007  1
  Pd  Pd9  1  0.669410  0.169410  0.621007  1
  Pd  Pd10  1  0.169505  0.669505  0.378780  1
  Pd  Pd11  1  0.169505  0.330495  0.378780  1
  Pd  Pd12  1  0.830495  0.669505  0.378780  1
  Pd  Pd13  1  0.830495  0.330495  0.378780  1
  Pd  Pd14  1  0.500000  0.766734  0.253629  1
  Pd  Pd15  1  0.500000  0.233266  0.253629  1
  Pd  Pd16  1  0.266734  0.000000  0.253629  1
  Pd  Pd17  1  0.733266  0.000000  0.253629  1
  Pd  Pd18  1  0.000000  0.733326  0.746709  1
  Pd  Pd19  1  0.000000  0.266674  0.746709  1
  Pd  Pd20  1  0.233326  0.500000  0.746709  1
  Pd  Pd21  1  0.766674  0.500000  0.746709  1
  Pd  Pd22  1  0.500000  0.348775  0.856895  1
  Pd  Pd23  1  0.500000  0.651225  0.856895  1
  Pd  Pd24  1  0.848775  0.000000  0.856895  1
  Pd  Pd25  1  0.151225  0.000000  0.856895  1
  Pd  Pd26  1  0.000000  0.151355  0.142891  1
  Pd  Pd27  1  0.000000  0.848645  0.142891  1
  Pd  Pd28  1  0.651355  0.500000  0.142891  1
  Pd  Pd29  1  0.348645  0.500000  0.142891  1
  Pd  Pd30  1  0.250099  0.750099  0.000197  1
  Pd  Pd31  1  0.250099  0.249901  0.000197  1
  Pd  Pd32  1  0.749901  0.750099  0.000197  1
  Pd  Pd33  1  0.749901  0.249901  0.000197  1
