# generated using pymatgen
data_Hf3Ta2B4SbRu10
_symmetry_space_group_name_H-M   'P 1'
_cell_length_a   9.47345897
_cell_length_b   9.48517539
_cell_length_c   3.08664900
_cell_angle_alpha   90.00000000
_cell_angle_beta   90.00000000
_cell_angle_gamma   90.08099968
_symmetry_Int_Tables_number   1
_chemical_formula_structural   Hf3Ta2B4SbRu10
_chemical_formula_sum   'Hf3 Ta2 B4 Sb1 Ru10'
_cell_volume   277.35803787
_cell_formula_units_Z   1
loop_
 _symmetry_equiv_pos_site_id
 _symmetry_equiv_pos_as_xyz
  1  'x, y, z'
loop_
 _atom_site_type_symbol
 _atom_site_label
 _atom_site_symmetry_multiplicity
 _atom_site_fract_x
 _atom_site_fract_y
 _atom_site_fract_z
 _atom_site_occupancy
  Hf  Hf0  1  0.825742  0.677274  0.000000  1
  Hf  Hf1  1  0.175148  0.323405  0.000000  1
  Hf  Hf2  1  0.322955  0.825561  0.000000  1
  Ta  Ta3  1  0.678317  0.174138  0.000000  1
  Ta  Ta4  1  0.000700  0.999771  0.000000  1
  B  B5  1  0.620711  0.878784  0.000000  1
  B  B6  1  0.379470  0.122109  0.000000  1
  B  B7  1  0.120885  0.620370  0.000000  1
  B  B8  1  0.877615  0.378835  0.000000  1
  Sb  Sb9  1  0.499243  0.501389  0.000000  1
  Ru  Ru10  1  0.572723  0.720458  0.500000  1
  Ru  Ru11  1  0.432964  0.279770  0.500000  1
  Ru  Ru12  1  0.068953  0.781509  0.500000  1
  Ru  Ru13  1  0.926231  0.216585  0.500000  1
  Ru  Ru14  1  0.279878  0.571629  0.500000  1
  Ru  Ru15  1  0.716989  0.422341  0.500000  1
  Ru  Ru16  1  0.218847  0.070793  0.500000  1
  Ru  Ru17  1  0.781112  0.933554  0.500000  1
  Ru  Ru18  1  0.502909  0.002848  0.500000  1
  Ru  Ru19  1  0.998610  0.498877  0.500000  1
