# generated using pymatgen
data_HoLu2Sc2(In2Rh)2
_symmetry_space_group_name_H-M   'P 1'
_cell_length_a   3.49791300
_cell_length_b   7.84715100
_cell_length_c   17.88724400
_cell_angle_alpha   90.00000000
_cell_angle_beta   90.00000000
_cell_angle_gamma   90.00000000
_symmetry_Int_Tables_number   1
_chemical_formula_structural   HoLu2Sc2(In2Rh)2
_chemical_formula_sum   'Ho2 Lu4 Sc4 In8 Rh4'
_cell_volume   490.98072678
_cell_formula_units_Z   2
loop_
 _symmetry_equiv_pos_site_id
 _symmetry_equiv_pos_as_xyz
  1  'x, y, z'
loop_
 _atom_site_type_symbol
 _atom_site_label
 _atom_site_symmetry_multiplicity
 _atom_site_fract_x
 _atom_site_fract_y
 _atom_site_fract_z
 _atom_site_occupancy
  Ho  Ho0  1  0.000000  0.000000  0.000000  1
  Ho  Ho1  1  0.000000  0.500000  0.500000  1
  Lu  Lu2  1  0.000000  0.748888  0.782464  1
  Lu  Lu3  1  0.000000  0.251112  0.217536  1
  Lu  Lu4  1  0.000000  0.248888  0.717536  1
  Lu  Lu5  1  0.000000  0.751112  0.282464  1
  Sc  Sc6  1  0.000000  0.876927  0.589397  1
  Sc  Sc7  1  0.000000  0.123073  0.410603  1
  Sc  Sc8  1  0.000000  0.376927  0.910603  1
  Sc  Sc9  1  0.000000  0.623073  0.089397  1
  In  In10  1  0.500000  0.810521  0.438059  1
  In  In11  1  0.500000  0.189479  0.561941  1
  In  In12  1  0.500000  0.310521  0.061941  1
  In  In13  1  0.500000  0.689479  0.938059  1
  In  In14  1  0.500000  0.925387  0.150194  1
  In  In15  1  0.500000  0.074613  0.849806  1
  In  In16  1  0.500000  0.425387  0.349806  1
  In  In17  1  0.500000  0.574613  0.650194  1
  Rh  Rh18  1  0.500000  0.963993  0.693906  1
  Rh  Rh19  1  0.500000  0.036007  0.306094  1
  Rh  Rh20  1  0.500000  0.463993  0.806094  1
  Rh  Rh21  1  0.500000  0.536007  0.193906  1
