# generated using pymatgen
data_EuHo3Tl2(SbO7)2
_symmetry_space_group_name_H-M   'P 1'
_cell_length_a   6.47084671
_cell_length_b   6.47084616
_cell_length_c   7.69066000
_cell_angle_alpha   90.03924325
_cell_angle_beta   89.96075586
_cell_angle_gamma   110.85297515
_symmetry_Int_Tables_number   1
_chemical_formula_structural   EuHo3Tl2(SbO7)2
_chemical_formula_sum   'Eu1 Ho3 Tl2 Sb2 O14'
_cell_volume   300.92864893
_cell_formula_units_Z   1
loop_
 _symmetry_equiv_pos_site_id
 _symmetry_equiv_pos_as_xyz
  1  'x, y, z'
loop_
 _atom_site_type_symbol
 _atom_site_label
 _atom_site_symmetry_multiplicity
 _atom_site_fract_x
 _atom_site_fract_y
 _atom_site_fract_z
 _atom_site_occupancy
  Eu  Eu0  1  0.504189  0.504189  0.000000  1
  Ho  Ho1  1  0.504385  0.504385  0.500000  1
  Ho  Ho2  1  0.462182  0.997372  0.251213  1
  Ho  Ho3  1  0.997372  0.462182  0.748787  1
  Tl  Tl4  1  0.513184  0.995695  0.747503  1
  Tl  Tl5  1  0.995695  0.513184  0.252497  1
  Sb  Sb6  1  0.998030  0.998030  0.500000  1
  Sb  Sb7  1  0.998296  0.998296  0.000000  1
  O  O8  1  0.676330  0.920691  0.460407  1
  O  O9  1  0.920691  0.676330  0.539593  1
  O  O10  1  0.677582  0.926774  0.039817  1
  O  O11  1  0.926774  0.677582  0.960183  1
  O  O12  1  0.327211  0.080566  0.516756  1
  O  O13  1  0.080566  0.327211  0.483244  1
  O  O14  1  0.326792  0.075765  0.982199  1
  O  O15  1  0.075765  0.326792  0.017801  1
  O  O16  1  0.946301  0.071159  0.750135  1
  O  O17  1  0.071159  0.946301  0.249865  1
  O  O18  1  0.375533  0.637279  0.741805  1
  O  O19  1  0.637279  0.375533  0.258195  1
  O  O20  1  0.631065  0.353622  0.743634  1
  O  O21  1  0.353622  0.631065  0.256366  1
