# generated using pymatgen
data_Tb2HoPaCo3
_symmetry_space_group_name_H-M   'P 1'
_cell_length_a   5.88739494
_cell_length_b   5.88739430
_cell_length_c   14.04648300
_cell_angle_alpha   90.00000000
_cell_angle_beta   90.00000000
_cell_angle_gamma   143.50735095
_symmetry_Int_Tables_number   1
_chemical_formula_structural   Tb2HoPaCo3
_chemical_formula_sum   'Tb4 Ho2 Pa2 Co6'
_cell_volume   289.55173976
_cell_formula_units_Z   2
loop_
 _symmetry_equiv_pos_site_id
 _symmetry_equiv_pos_as_xyz
  1  'x, y, z'
loop_
 _atom_site_type_symbol
 _atom_site_label
 _atom_site_symmetry_multiplicity
 _atom_site_fract_x
 _atom_site_fract_y
 _atom_site_fract_z
 _atom_site_occupancy
  Tb  Tb0  1  0.781235  0.218765  0.385213  1
  Tb  Tb1  1  0.218765  0.781235  0.614787  1
  Tb  Tb2  1  0.781235  0.218765  0.114787  1
  Tb  Tb3  1  0.218765  0.781235  0.885213  1
  Ho  Ho4  1  0.508141  0.491859  0.250000  1
  Ho  Ho5  1  0.491859  0.508141  0.750000  1
  Pa  Pa6  1  0.500000  0.500000  0.500000  1
  Pa  Pa7  1  0.500000  0.500000  0.000000  1
  Co  Co8  1  0.079826  0.920174  0.399393  1
  Co  Co9  1  0.920174  0.079826  0.600607  1
  Co  Co10  1  0.079826  0.920174  0.100607  1
  Co  Co11  1  0.920174  0.079826  0.899393  1
  Co  Co12  1  0.202935  0.797065  0.250000  1
  Co  Co13  1  0.797065  0.202935  0.750000  1
