# generated using pymatgen
data_Zr6As2Se
_symmetry_space_group_name_H-M   'P 1'
_cell_length_a   3.72698300
_cell_length_b   12.70391900
_cell_length_c   15.68197600
_cell_angle_alpha   90.00000000
_cell_angle_beta   90.00000000
_cell_angle_gamma   90.00000000
_symmetry_Int_Tables_number   1
_chemical_formula_structural   Zr6As2Se
_chemical_formula_sum   'Zr24 As8 Se4'
_cell_volume   742.49906774
_cell_formula_units_Z   4
loop_
 _symmetry_equiv_pos_site_id
 _symmetry_equiv_pos_as_xyz
  1  'x, y, z'
loop_
 _atom_site_type_symbol
 _atom_site_label
 _atom_site_symmetry_multiplicity
 _atom_site_fract_x
 _atom_site_fract_y
 _atom_site_fract_z
 _atom_site_occupancy
  Zr  Zr0  1  0.000000  0.847803  0.979197  1
  Zr  Zr1  1  0.000000  0.152197  0.020803  1
  Zr  Zr2  1  0.500000  0.347803  0.520803  1
  Zr  Zr3  1  0.500000  0.652197  0.479197  1
  Zr  Zr4  1  0.000000  0.908979  0.743193  1
  Zr  Zr5  1  0.000000  0.091021  0.256807  1
  Zr  Zr6  1  0.500000  0.408979  0.756807  1
  Zr  Zr7  1  0.500000  0.591021  0.243193  1
  Zr  Zr8  1  0.000000  0.415388  0.924407  1
  Zr  Zr9  1  0.000000  0.584612  0.075593  1
  Zr  Zr10  1  0.500000  0.915388  0.575593  1
  Zr  Zr11  1  0.500000  0.084612  0.424407  1
  Zr  Zr12  1  0.000000  0.529216  0.608878  1
  Zr  Zr13  1  0.000000  0.470784  0.391122  1
  Zr  Zr14  1  0.500000  0.029216  0.891122  1
  Zr  Zr15  1  0.500000  0.970784  0.108878  1
  Zr  Zr16  1  0.000000  0.190023  0.793047  1
  Zr  Zr17  1  0.000000  0.809977  0.206953  1
  Zr  Zr18  1  0.500000  0.690023  0.706953  1
  Zr  Zr19  1  0.500000  0.309977  0.293047  1
  Zr  Zr20  1  0.000000  0.118272  0.580773  1
  Zr  Zr21  1  0.000000  0.881728  0.419227  1
  Zr  Zr22  1  0.500000  0.618272  0.919227  1
  Zr  Zr23  1  0.500000  0.381728  0.080773  1
  As  As24  1  0.000000  0.564338  0.791438  1
  As  As25  1  0.000000  0.435662  0.208562  1
  As  As26  1  0.500000  0.064338  0.708562  1
  As  As27  1  0.500000  0.935662  0.291438  1
  As  As28  1  0.000000  0.755848  0.587567  1
  As  As29  1  0.000000  0.244152  0.412433  1
  As  As30  1  0.500000  0.255848  0.912433  1
  As  As31  1  0.500000  0.744152  0.087567  1
  Se  Se32  1  0.000000  0.314354  0.650423  1
  Se  Se33  1  0.000000  0.685646  0.349577  1
  Se  Se34  1  0.500000  0.814354  0.849577  1
  Se  Se35  1  0.500000  0.185646  0.150423  1
