# generated using pymatgen
data_Tb5InBiSb
_symmetry_space_group_name_H-M   'P 1'
_cell_length_a   9.08635353
_cell_length_b   9.06269648
_cell_length_c   6.54315300
_cell_angle_alpha   90.00000000
_cell_angle_beta   90.00000000
_cell_angle_gamma   119.91391023
_symmetry_Int_Tables_number   1
_chemical_formula_structural   Tb5InBiSb
_chemical_formula_sum   'Tb10 In2 Bi2 Sb2'
_cell_volume   467.02579559
_cell_formula_units_Z   2
loop_
 _symmetry_equiv_pos_site_id
 _symmetry_equiv_pos_as_xyz
  1  'x, y, z'
loop_
 _atom_site_type_symbol
 _atom_site_label
 _atom_site_symmetry_multiplicity
 _atom_site_fract_x
 _atom_site_fract_y
 _atom_site_fract_z
 _atom_site_occupancy
  Tb  Tb0  1  0.002150  0.764814  0.750000  1
  Tb  Tb1  1  0.002150  0.237336  0.250000  1
  Tb  Tb2  1  0.755404  0.760300  0.250000  1
  Tb  Tb3  1  0.755404  0.995104  0.750000  1
  Tb  Tb4  1  0.244445  0.237119  0.750000  1
  Tb  Tb5  1  0.244445  0.007327  0.250000  1
  Tb  Tb6  1  0.339888  0.669944  0.500000  1
  Tb  Tb7  1  0.656242  0.328120  0.000000  1
  Tb  Tb8  1  0.656242  0.328120  0.500000  1
  Tb  Tb9  1  0.339888  0.669944  0.000000  1
  In  In10  1  0.392806  0.996015  0.750000  1
  In  In11  1  0.392806  0.396791  0.250000  1
  Bi  Bi12  1  0.999038  0.608643  0.250000  1
  Bi  Bi13  1  0.999038  0.390396  0.750000  1
  Sb  Sb14  1  0.610028  0.607552  0.750000  1
  Sb  Sb15  1  0.610028  0.002476  0.250000  1
