# generated using pymatgen
data_MnRu2F9
_symmetry_space_group_name_H-M   'P 1'
_cell_length_a   5.61627500
_cell_length_b   5.61625937
_cell_length_c   7.07511200
_cell_angle_alpha   90.00001173
_cell_angle_beta   89.99933132
_cell_angle_gamma   120.00149532
_symmetry_Int_Tables_number   1
_chemical_formula_structural   MnRu2F9
_chemical_formula_sum   'Mn1 Ru2 F9'
_cell_volume   193.26487391
_cell_formula_units_Z   1
loop_
 _symmetry_equiv_pos_site_id
 _symmetry_equiv_pos_as_xyz
  1  'x, y, z'
loop_
 _atom_site_type_symbol
 _atom_site_label
 _atom_site_symmetry_multiplicity
 _atom_site_fract_x
 _atom_site_fract_y
 _atom_site_fract_z
 _atom_site_occupancy
  Mn  Mn0  1  0.333403  0.666715  0.666310  1
  Ru  Ru1  1  0.000025  0.000029  0.005546  1
  Ru  Ru2  1  0.666691  0.333352  0.328149  1
  F  F3  1  0.780117  0.113662  0.166656  1
  F  F4  1  0.333547  0.219838  0.166681  1
  F  F5  1  0.886279  0.666448  0.166647  1
  F  F6  1  0.461039  0.010106  0.488137  1
  F  F7  1  0.989911  0.450955  0.488155  1
  F  F8  1  0.549023  0.538937  0.488126  1
  F  F9  1  0.122412  0.323946  0.845182  1
  F  F10  1  0.201491  0.877554  0.845193  1
  F  F11  1  0.676064  0.798455  0.845218  1
