# generated using pymatgen
data_YSi(PRh2)3
_symmetry_space_group_name_H-M   'P 1'
_cell_length_a   7.05119100
_cell_length_b   7.05119115
_cell_length_c   3.74605600
_cell_angle_alpha   90.00000000
_cell_angle_beta   90.00000000
_cell_angle_gamma   119.99999458
_symmetry_Int_Tables_number   1
_chemical_formula_structural   YSi(PRh2)3
_chemical_formula_sum   'Y1 Si1 P3 Rh6'
_cell_volume   161.29833632
_cell_formula_units_Z   1
loop_
 _symmetry_equiv_pos_site_id
 _symmetry_equiv_pos_as_xyz
  1  'x, y, z'
loop_
 _atom_site_type_symbol
 _atom_site_label
 _atom_site_symmetry_multiplicity
 _atom_site_fract_x
 _atom_site_fract_y
 _atom_site_fract_z
 _atom_site_occupancy
  Y  Y0  1  0.000000  0.000000  0.500000  1
  Si  Si1  1  0.666667  0.333333  0.500000  1
  P  P2  1  0.198166  0.376698  0.000000  1
  P  P3  1  0.178533  0.801834  0.000000  1
  P  P4  1  0.623302  0.821467  0.000000  1
  Rh  Rh5  1  0.494257  0.929639  0.500000  1
  Rh  Rh6  1  0.435381  0.505743  0.500000  1
  Rh  Rh7  1  0.070361  0.564619  0.500000  1
  Rh  Rh8  1  0.786277  0.606686  0.000000  1
  Rh  Rh9  1  0.820409  0.213723  0.000000  1
  Rh  Rh10  1  0.393314  0.179591  0.000000  1
