# generated using pymatgen
data_Tb2CeIn3Pd2Rh
_symmetry_space_group_name_H-M   'P 1'
_cell_length_a   7.77750744
_cell_length_b   7.82462474
_cell_length_c   3.82409800
_cell_angle_alpha   90.00000000
_cell_angle_beta   90.00000000
_cell_angle_gamma   120.61035107
_symmetry_Int_Tables_number   1
_chemical_formula_structural   Tb2CeIn3Pd2Rh
_chemical_formula_sum   'Tb2 Ce1 In3 Pd2 Rh1'
_cell_volume   200.29013784
_cell_formula_units_Z   1
loop_
 _symmetry_equiv_pos_site_id
 _symmetry_equiv_pos_as_xyz
  1  'x, y, z'
loop_
 _atom_site_type_symbol
 _atom_site_label
 _atom_site_symmetry_multiplicity
 _atom_site_fract_x
 _atom_site_fract_y
 _atom_site_fract_z
 _atom_site_occupancy
  Tb  Tb0  1  0.411392  0.405787  0.000000  1
  Tb  Tb1  1  0.596350  0.011208  0.000000  1
  Ce  Ce2  1  0.984314  0.577265  0.000000  1
  In  In3  1  0.731015  0.740862  0.500000  1
  In  In4  1  0.266227  0.003669  0.500000  1
  In  In5  1  0.001204  0.253158  0.500000  1
  Pd  Pd6  1  0.001068  0.994727  0.000000  1
  Pd  Pd7  1  0.323980  0.664926  0.500000  1
  Rh  Rh8  1  0.684452  0.348397  0.500000  1
