# generated using pymatgen
data_TmZr3MnTc7
_symmetry_space_group_name_H-M   'P 1'
_cell_length_a   5.25748900
_cell_length_b   5.25748922
_cell_length_c   8.68909700
_cell_angle_alpha   90.00000000
_cell_angle_beta   90.00000000
_cell_angle_gamma   120.00000490
_symmetry_Int_Tables_number   1
_chemical_formula_structural   TmZr3MnTc7
_chemical_formula_sum   'Tm1 Zr3 Mn1 Tc7'
_cell_volume   207.99936989
_cell_formula_units_Z   1
loop_
 _symmetry_equiv_pos_site_id
 _symmetry_equiv_pos_as_xyz
  1  'x, y, z'
loop_
 _atom_site_type_symbol
 _atom_site_label
 _atom_site_symmetry_multiplicity
 _atom_site_fract_x
 _atom_site_fract_y
 _atom_site_fract_z
 _atom_site_occupancy
  Tm  Tm0  1  0.333333  0.666667  0.062411  1
  Zr  Zr1  1  0.333333  0.666667  0.435566  1
  Zr  Zr2  1  0.666667  0.333333  0.564521  1
  Zr  Zr3  1  0.666667  0.333333  0.934868  1
  Mn  Mn4  1  0.000000  0.000000  0.501778  1
  Tc  Tc5  1  0.000000  0.000000  0.999517  1
  Tc  Tc6  1  0.830267  0.169733  0.256546  1
  Tc  Tc7  1  0.830267  0.660533  0.256546  1
  Tc  Tc8  1  0.339467  0.169733  0.256546  1
  Tc  Tc9  1  0.169919  0.830081  0.743901  1
  Tc  Tc10  1  0.169919  0.339838  0.743901  1
  Tc  Tc11  1  0.660162  0.830081  0.743901  1
