# generated using pymatgen
data_Tb2LuCd3Ga2Ag
_symmetry_space_group_name_H-M   'P 1'
_cell_length_a   7.35359915
_cell_length_b   7.35359851
_cell_length_c   4.32964100
_cell_angle_alpha   90.00000000
_cell_angle_beta   90.00000000
_cell_angle_gamma   119.90834653
_symmetry_Int_Tables_number   1
_chemical_formula_structural   Tb2LuCd3Ga2Ag
_chemical_formula_sum   'Tb2 Lu1 Cd3 Ga2 Ag1'
_cell_volume   202.94705021
_cell_formula_units_Z   1
loop_
 _symmetry_equiv_pos_site_id
 _symmetry_equiv_pos_as_xyz
  1  'x, y, z'
loop_
 _atom_site_type_symbol
 _atom_site_label
 _atom_site_symmetry_multiplicity
 _atom_site_fract_x
 _atom_site_fract_y
 _atom_site_fract_z
 _atom_site_occupancy
  Tb  Tb0  1  0.577747  0.999335  0.500000  1
  Tb  Tb1  1  0.999335  0.577747  0.500000  1
  Lu  Lu2  1  0.420896  0.420896  0.500000  1
  Cd  Cd3  1  0.747809  0.747809  0.000000  1
  Cd  Cd4  1  0.251848  0.000045  0.000000  1
  Cd  Cd5  1  0.000045  0.251848  0.000000  1
  Ga  Ga6  1  0.664160  0.334252  0.000000  1
  Ga  Ga7  1  0.334252  0.664160  0.000000  1
  Ag  Ag8  1  0.003909  0.003909  0.500000  1
