# generated using pymatgen
data_Nd5Sn3(BRh6)2
_symmetry_space_group_name_H-M   'P 1'
_cell_length_a   5.91621400
_cell_length_b   5.91621296
_cell_length_c   13.71012600
_cell_angle_alpha   90.00000000
_cell_angle_beta   90.00000000
_cell_angle_gamma   119.99999461
_symmetry_Int_Tables_number   1
_chemical_formula_structural   Nd5Sn3(BRh6)2
_chemical_formula_sum   'Nd5 Sn3 B2 Rh12'
_cell_volume   415.58491497
_cell_formula_units_Z   1
loop_
 _symmetry_equiv_pos_site_id
 _symmetry_equiv_pos_as_xyz
  1  'x, y, z'
loop_
 _atom_site_type_symbol
 _atom_site_label
 _atom_site_symmetry_multiplicity
 _atom_site_fract_x
 _atom_site_fract_y
 _atom_site_fract_z
 _atom_site_occupancy
  Nd  Nd0  1  0.000000  0.000000  0.750000  1
  Nd  Nd1  1  0.333333  0.666667  0.400459  1
  Nd  Nd2  1  0.666667  0.333333  0.909363  1
  Nd  Nd3  1  0.666667  0.333333  0.590637  1
  Nd  Nd4  1  0.333333  0.666667  0.099541  1
  Sn  Sn5  1  0.000000  0.000000  0.250000  1
  Sn  Sn6  1  0.333333  0.666667  0.750000  1
  Sn  Sn7  1  0.666667  0.333333  0.250000  1
  B  B8  1  0.000000  0.000000  0.498075  1
  B  B9  1  0.000000  0.000000  0.001925  1
  Rh  Rh10  1  0.337684  0.168843  0.406153  1
  Rh  Rh11  1  0.831157  0.168843  0.406153  1
  Rh  Rh12  1  0.831157  0.662316  0.406153  1
  Rh  Rh13  1  0.172892  0.345782  0.917568  1
  Rh  Rh14  1  0.654218  0.827108  0.582432  1
  Rh  Rh15  1  0.654218  0.827108  0.917568  1
  Rh  Rh16  1  0.337684  0.168843  0.093847  1
  Rh  Rh17  1  0.172892  0.345782  0.582432  1
  Rh  Rh18  1  0.172892  0.827108  0.582432  1
  Rh  Rh19  1  0.831157  0.168843  0.093847  1
  Rh  Rh20  1  0.831157  0.662316  0.093847  1
  Rh  Rh21  1  0.172892  0.827108  0.917568  1
