# generated using pymatgen
data_Al3CuIr
_symmetry_space_group_name_H-M   'P 1'
_cell_length_a   4.21622000
_cell_length_b   4.21622032
_cell_length_c   5.08611200
_cell_angle_alpha   90.00000000
_cell_angle_beta   90.00000000
_cell_angle_gamma   119.99999747
_symmetry_Int_Tables_number   1
_chemical_formula_structural   Al3CuIr
_chemical_formula_sum   'Al3 Cu1 Ir1'
_cell_volume   78.30024545
_cell_formula_units_Z   1
loop_
 _symmetry_equiv_pos_site_id
 _symmetry_equiv_pos_as_xyz
  1  'x, y, z'
loop_
 _atom_site_type_symbol
 _atom_site_label
 _atom_site_symmetry_multiplicity
 _atom_site_fract_x
 _atom_site_fract_y
 _atom_site_fract_z
 _atom_site_occupancy
  Al  Al0  1  0.000000  0.000000  0.957714  1
  Al  Al1  1  0.333333  0.666667  0.365783  1
  Al  Al2  1  0.666667  0.333333  0.652122  1
  Cu  Cu3  1  0.666667  0.333333  0.161480  1
  Ir  Ir4  1  0.333333  0.666667  0.862900  1
