# generated using pymatgen
data_Pr2Cr3O12
_symmetry_space_group_name_H-M   'P 1'
_cell_length_a   5.22358318
_cell_length_b   7.05672069
_cell_length_c   14.61548035
_cell_angle_alpha   84.12670760
_cell_angle_beta   79.74685484
_cell_angle_gamma   68.78196286
_symmetry_Int_Tables_number   1
_chemical_formula_structural   Pr2Cr3O12
_chemical_formula_sum   'Pr4 Cr6 O24'
_cell_volume   493.78267871
_cell_formula_units_Z   2
loop_
 _symmetry_equiv_pos_site_id
 _symmetry_equiv_pos_as_xyz
  1  'x, y, z'
loop_
 _atom_site_type_symbol
 _atom_site_label
 _atom_site_symmetry_multiplicity
 _atom_site_fract_x
 _atom_site_fract_y
 _atom_site_fract_z
 _atom_site_occupancy
  Pr  Pr0  1  0.357971  0.132691  0.126885  1
  Pr  Pr1  1  0.381410  0.793648  0.449317  1
  Pr  Pr2  1  0.642029  0.867309  0.873115  1
  Pr  Pr3  1  0.618590  0.206352  0.550683  1
  Cr  Cr4  1  0.910911  0.272799  0.952730  1
  Cr  Cr5  1  0.846693  0.979662  0.299189  1
  Cr  Cr6  1  0.868728  0.624135  0.619726  1
  Cr  Cr7  1  0.153307  0.020338  0.700811  1
  Cr  Cr8  1  0.089089  0.727201  0.047270  1
  Cr  Cr9  1  0.131272  0.375865  0.380274  1
  O  O10  1  0.845459  0.188839  0.683399  1
  O  O11  1  0.748247  0.855648  0.034052  1
  O  O12  1  0.832759  0.558237  0.371976  1
  O  O13  1  0.867556  0.506129  0.909031  1
  O  O14  1  0.901979  0.178340  0.243809  1
  O  O15  1  0.938295  0.823067  0.557395  1
  O  O16  1  0.330787  0.101272  0.761428  1
  O  O17  1  0.188826  0.852593  0.114686  1
  O  O18  1  0.328743  0.453524  0.438859  1
  O  O19  1  0.701077  0.691410  0.723493  1
  O  O20  1  0.723855  0.276523  0.057270  1
  O  O21  1  0.651313  0.024049  0.408302  1
  O  O22  1  0.276145  0.723477  0.942730  1
  O  O23  1  0.298923  0.308590  0.276507  1
  O  O24  1  0.348687  0.975951  0.591698  1
  O  O25  1  0.098021  0.821660  0.756191  1
  O  O26  1  0.132444  0.493871  0.090969  1
  O  O27  1  0.061705  0.176933  0.442605  1
  O  O28  1  0.251753  0.144352  0.965948  1
  O  O29  1  0.154541  0.811161  0.316601  1
  O  O30  1  0.167241  0.441763  0.628024  1
  O  O31  1  0.811174  0.147407  0.885314  1
  O  O32  1  0.669213  0.898728  0.238572  1
  O  O33  1  0.671257  0.546476  0.561141  1
