# generated using pymatgen
data_LiTm(TlCl3)2
_symmetry_space_group_name_H-M   'P 1'
_cell_length_a   7.22271303
_cell_length_b   7.28611700
_cell_length_c   12.61942500
_cell_angle_alpha   90.00000000
_cell_angle_beta   124.77761653
_cell_angle_gamma   90.00000000
_symmetry_Int_Tables_number   1
_chemical_formula_structural   LiTm(TlCl3)2
_chemical_formula_sum   'Li2 Tm2 Tl4 Cl12'
_cell_volume   545.47646429
_cell_formula_units_Z   2
loop_
 _symmetry_equiv_pos_site_id
 _symmetry_equiv_pos_as_xyz
  1  'x, y, z'
loop_
 _atom_site_type_symbol
 _atom_site_label
 _atom_site_symmetry_multiplicity
 _atom_site_fract_x
 _atom_site_fract_y
 _atom_site_fract_z
 _atom_site_occupancy
  Li  Li0  1  0.000000  0.000000  0.000000  1
  Li  Li1  1  0.000000  0.500000  0.500000  1
  Tm  Tm2  1  0.499999  0.500000  0.000000  1
  Tm  Tm3  1  0.500000  0.000000  0.500000  1
  Tl  Tl4  1  0.757015  0.035056  0.249631  1
  Tl  Tl5  1  0.242985  0.535057  0.250369  1
  Tl  Tl6  1  0.757016  0.464943  0.749632  1
  Tl  Tl7  1  0.242985  0.964943  0.750368  1
  Cl  Cl8  1  0.735385  0.785435  0.021082  1
  Cl  Cl9  1  0.808605  0.285813  0.022459  1
  Cl  Cl10  1  0.705637  0.496769  0.249211  1
  Cl  Cl11  1  0.294362  0.996770  0.250789  1
  Cl  Cl12  1  0.191396  0.785814  0.477541  1
  Cl  Cl13  1  0.264616  0.285436  0.478919  1
  Cl  Cl14  1  0.735383  0.714565  0.521081  1
  Cl  Cl15  1  0.808605  0.214187  0.522460  1
  Cl  Cl16  1  0.705637  0.003230  0.749211  1
  Cl  Cl17  1  0.294362  0.503230  0.750788  1
  Cl  Cl18  1  0.191395  0.714186  0.977540  1
  Cl  Cl19  1  0.264617  0.214565  0.978919  1
