# generated using pymatgen
data_Pr2CdIn3Rh2
_symmetry_space_group_name_H-M   'P 1'
_cell_length_a   5.54484117
_cell_length_b   5.54484086
_cell_length_c   8.64417650
_cell_angle_alpha   90.07997721
_cell_angle_beta   89.92002431
_cell_angle_gamma   135.56118004
_symmetry_Int_Tables_number   1
_chemical_formula_structural   Pr2CdIn3Rh2
_chemical_formula_sum   'Pr2 Cd1 In3 Rh2'
_cell_volume   186.07615470
_cell_formula_units_Z   1
loop_
 _symmetry_equiv_pos_site_id
 _symmetry_equiv_pos_as_xyz
  1  'x, y, z'
loop_
 _atom_site_type_symbol
 _atom_site_label
 _atom_site_symmetry_multiplicity
 _atom_site_fract_x
 _atom_site_fract_y
 _atom_site_fract_z
 _atom_site_occupancy
  Pr  Pr0  1  0.565009  0.434991  0.244529  1
  Pr  Pr1  1  0.434370  0.565630  0.752192  1
  Cd  Cd2  1  0.855831  0.144169  0.047666  1
  In  In3  1  0.150039  0.849961  0.954510  1
  In  In4  1  0.146264  0.853736  0.549557  1
  In  In5  1  0.852392  0.147608  0.448880  1
  Rh  Rh6  1  0.273443  0.726557  0.255625  1
  Rh  Rh7  1  0.722652  0.277348  0.747041  1
