# generated using pymatgen
data_Eu3Sn7Ru2
_symmetry_space_group_name_H-M   'P 1'
_cell_length_a   14.13982770
_cell_length_b   14.13982684
_cell_length_c   4.66535900
_cell_angle_alpha   90.00000000
_cell_angle_beta   90.00000000
_cell_angle_gamma   160.05564277
_symmetry_Int_Tables_number   1
_chemical_formula_structural   Eu3Sn7Ru2
_chemical_formula_sum   'Eu3 Sn7 Ru2'
_cell_volume   318.17380228
_cell_formula_units_Z   1
loop_
 _symmetry_equiv_pos_site_id
 _symmetry_equiv_pos_as_xyz
  1  'x, y, z'
loop_
 _atom_site_type_symbol
 _atom_site_label
 _atom_site_symmetry_multiplicity
 _atom_site_fract_x
 _atom_site_fract_y
 _atom_site_fract_z
 _atom_site_occupancy
  Eu  Eu0  1  0.000000  0.000000  0.000000  1
  Eu  Eu1  1  0.684587  0.315414  0.500001  1
  Eu  Eu2  1  0.315414  0.684587  0.500001  1
  Sn  Sn3  1  0.779715  0.220286  0.000000  1
  Sn  Sn4  1  0.588789  0.411212  0.000000  1
  Sn  Sn5  1  0.411212  0.588789  0.000000  1
  Sn  Sn6  1  0.220286  0.779715  0.000000  1
  Sn  Sn7  1  0.917100  0.082901  0.500001  1
  Sn  Sn8  1  0.500000  0.500000  0.500001  1
  Sn  Sn9  1  0.082901  0.917100  0.500001  1
  Ru  Ru10  1  0.873602  0.126399  0.000000  1
  Ru  Ru11  1  0.126399  0.873602  0.000000  1
