# generated using pymatgen
data_Ba4NaGa(ReN4)2
_symmetry_space_group_name_H-M   'P 1'
_cell_length_a   6.00431500
_cell_length_b   7.12822053
_cell_length_c   8.47363519
_cell_angle_alpha   59.68399497
_cell_angle_beta   90.00000000
_cell_angle_gamma   90.00000000
_symmetry_Int_Tables_number   1
_chemical_formula_structural   Ba4NaGa(ReN4)2
_chemical_formula_sum   'Ba4 Na1 Ga1 Re2 N8'
_cell_volume   313.07850397
_cell_formula_units_Z   1
loop_
 _symmetry_equiv_pos_site_id
 _symmetry_equiv_pos_as_xyz
  1  'x, y, z'
loop_
 _atom_site_type_symbol
 _atom_site_label
 _atom_site_symmetry_multiplicity
 _atom_site_fract_x
 _atom_site_fract_y
 _atom_site_fract_z
 _atom_site_occupancy
  Ba  Ba0  1  0.250000  0.234306  0.092651  1
  Ba  Ba1  1  0.750000  0.761147  0.908849  1
  Ba  Ba2  1  0.750000  0.716949  0.375659  1
  Ba  Ba3  1  0.250000  0.252115  0.623183  1
  Na  Na4  1  0.750000  0.237986  0.362747  1
  Ga  Ga5  1  0.250000  0.740344  0.617454  1
  Re  Re6  1  0.250000  0.683180  0.184138  1
  Re  Re7  1  0.750000  0.325037  0.821003  1
  N  N8  1  0.497339  0.499202  0.757718  1
  N  N9  1  0.005139  0.515332  0.217938  1
  N  N10  1  0.494861  0.515332  0.217938  1
  N  N11  1  0.002661  0.499202  0.757718  1
  N  N12  1  0.750000  0.196889  0.680332  1
  N  N13  1  0.250000  0.772890  0.357862  1
  N  N14  1  0.750000  0.129660  0.066485  1
  N  N15  1  0.250000  0.920427  0.958325  1
