# generated using pymatgen
data_Zr8Fe8Si13P
_symmetry_space_group_name_H-M   'P 1'
_cell_length_a   5.05271060
_cell_length_b   9.55832965
_cell_length_c   9.55832981
_cell_angle_alpha   94.00590861
_cell_angle_beta   74.67407370
_cell_angle_gamma   105.32591596
_symmetry_Int_Tables_number   1
_chemical_formula_structural   Zr8Fe8Si13P
_chemical_formula_sum   'Zr8 Fe8 Si13 P1'
_cell_volume   429.37525779
_cell_formula_units_Z   1
loop_
 _symmetry_equiv_pos_site_id
 _symmetry_equiv_pos_as_xyz
  1  'x, y, z'
loop_
 _atom_site_type_symbol
 _atom_site_label
 _atom_site_symmetry_multiplicity
 _atom_site_fract_x
 _atom_site_fract_y
 _atom_site_fract_z
 _atom_site_occupancy
  Zr  Zr0  1  0.137430  0.273841  0.000000  1
  Zr  Zr1  1  0.863588  0.726159  0.000000  1
  Zr  Zr2  1  0.499873  0.195428  0.195428  1
  Zr  Zr3  1  0.304445  0.804572  0.195428  1
  Zr  Zr4  1  0.863588  0.000000  0.273841  1
  Zr  Zr5  1  0.137429  0.000000  0.726159  1
  Zr  Zr6  1  0.695300  0.195428  0.804572  1
  Zr  Zr7  1  0.499873  0.804572  0.804572  1
  Fe  Fe8  1  0.398139  0.500364  0.204032  1
  Fe  Fe9  1  0.897774  0.499636  0.204032  1
  Fe  Fe10  1  0.101807  0.204032  0.500364  1
  Fe  Fe11  1  0.602169  0.204032  0.499636  1
  Fe  Fe12  1  0.398139  0.795968  0.499636  1
  Fe  Fe13  1  0.897774  0.795968  0.500364  1
  Fe  Fe14  1  0.101807  0.499636  0.795968  1
  Fe  Fe15  1  0.602169  0.500364  0.795968  1
  Si  Si16  1  0.748852  0.000000  0.000000  1
  Si  Si17  1  0.711027  0.421692  0.000000  1
  Si  Si18  1  0.289336  0.578309  0.000000  1
  Si  Si19  1  0.699173  0.698994  0.301006  1
  Si  Si20  1  0.000180  0.301007  0.301007  1
  Si  Si21  1  0.499716  0.408526  0.408526  1
  Si  Si22  1  0.091189  0.591473  0.408526  1
  Si  Si23  1  0.289335  0.000000  0.421692  1
  Si  Si24  1  0.711026  0.000000  0.578309  1
  Si  Si25  1  0.908243  0.408526  0.591473  1
  Si  Si26  1  0.499716  0.591473  0.591473  1
  Si  Si27  1  0.000180  0.698994  0.698994  1
  Si  Si28  1  0.301186  0.301006  0.698994  1
  P  P29  1  0.249530  0.000000  0.000000  1
