# generated using pymatgen
data_Th8Ni2Ru5Pt
_symmetry_space_group_name_H-M   'P 1'
_cell_length_a   4.08659400
_cell_length_b   6.01495034
_cell_length_c   14.81898426
_cell_angle_alpha   90.42061301
_cell_angle_beta   90.00000000
_cell_angle_gamma   90.00000000
_symmetry_Int_Tables_number   1
_chemical_formula_structural   Th8Ni2Ru5Pt
_chemical_formula_sum   'Th8 Ni2 Ru5 Pt1'
_cell_volume   364.25059821
_cell_formula_units_Z   1
loop_
 _symmetry_equiv_pos_site_id
 _symmetry_equiv_pos_as_xyz
  1  'x, y, z'
loop_
 _atom_site_type_symbol
 _atom_site_label
 _atom_site_symmetry_multiplicity
 _atom_site_fract_x
 _atom_site_fract_y
 _atom_site_fract_z
 _atom_site_occupancy
  Th  Th0  1  0.250000  0.552372  0.292603  1
  Th  Th1  1  0.750000  0.449401  0.715535  1
  Th  Th2  1  0.250000  0.952527  0.783349  1
  Th  Th3  1  0.250000  0.756470  0.537056  1
  Th  Th4  1  0.250000  0.752190  0.028609  1
  Th  Th5  1  0.750000  0.256646  0.960638  1
  Th  Th6  1  0.750000  0.048812  0.217319  1
  Th  Th7  1  0.750000  0.242219  0.464720  1
  Ni  Ni8  1  0.250000  0.230685  0.100202  1
  Ni  Ni9  1  0.250000  0.262110  0.601839  1
  Ru  Ru10  1  0.250000  0.068199  0.347753  1
  Ru  Ru11  1  0.750000  0.719835  0.406496  1
  Ru  Ru12  1  0.250000  0.435776  0.847819  1
  Ru  Ru13  1  0.750000  0.946650  0.646839  1
  Ru  Ru14  1  0.750000  0.786375  0.902877  1
  Pt  Pt15  1  0.750000  0.539733  0.146343  1
