# generated using pymatgen
data_MnAl11Cr2Os
_symmetry_space_group_name_H-M   'P 1'
_cell_length_a   5.07398449
_cell_length_b   5.11981569
_cell_length_c   8.89899850
_cell_angle_alpha   105.39008013
_cell_angle_beta   89.93481508
_cell_angle_gamma   100.37151778
_symmetry_Int_Tables_number   1
_chemical_formula_structural   MnAl11Cr2Os
_chemical_formula_sum   'Mn1 Al11 Cr2 Os1'
_cell_volume   218.98027147
_cell_formula_units_Z   1
loop_
 _symmetry_equiv_pos_site_id
 _symmetry_equiv_pos_as_xyz
  1  'x, y, z'
loop_
 _atom_site_type_symbol
 _atom_site_label
 _atom_site_symmetry_multiplicity
 _atom_site_fract_x
 _atom_site_fract_y
 _atom_site_fract_z
 _atom_site_occupancy
  Mn  Mn0  1  0.337882  0.389712  0.132246  1
  Al  Al1  1  0.006210  0.008720  0.005081  1
  Al  Al2  1  0.945281  0.819170  0.671799  1
  Al  Al3  1  0.057710  0.183013  0.324024  1
  Al  Al4  1  0.811954  0.268722  0.629453  1
  Al  Al5  1  0.844646  0.529523  0.130824  1
  Al  Al6  1  0.149304  0.459403  0.874436  1
  Al  Al7  1  0.490708  0.897748  0.129954  1
  Al  Al8  1  0.499075  0.100757  0.875044  1
  Al  Al9  1  0.574218  0.331530  0.374124  1
  Al  Al10  1  0.423846  0.671145  0.621639  1
  Al  Al11  1  0.194031  0.728809  0.363968  1
  Cr  Cr12  1  0.291683  0.147747  0.597848  1
  Cr  Cr13  1  0.710213  0.852141  0.401060  1
  Os  Os14  1  0.663239  0.611860  0.868498  1
