# generated using pymatgen
data_Zr6Fe6Co17
_symmetry_space_group_name_H-M   'P 1'
_cell_length_a   8.17890374
_cell_length_b   8.15756615
_cell_length_c   8.17897267
_cell_angle_alpha   119.91881517
_cell_angle_beta   90.23422043
_cell_angle_gamma   119.90800146
_symmetry_Int_Tables_number   1
_chemical_formula_structural   Zr6Fe6Co17
_chemical_formula_sum   'Zr6 Fe6 Co17'
_cell_volume   386.08672533
_cell_formula_units_Z   1
loop_
 _symmetry_equiv_pos_site_id
 _symmetry_equiv_pos_as_xyz
  1  'x, y, z'
loop_
 _atom_site_type_symbol
 _atom_site_label
 _atom_site_symmetry_multiplicity
 _atom_site_fract_x
 _atom_site_fract_y
 _atom_site_fract_z
 _atom_site_occupancy
  Zr  Zr0  1  0.710569  0.000008  0.289439  1
  Zr  Zr1  1  0.289569  0.003283  0.289527  1
  Zr  Zr2  1  0.289562  0.575809  0.289526  1
  Zr  Zr3  1  0.289405  0.000004  0.710603  1
  Zr  Zr4  1  0.710476  0.996729  0.710440  1
  Zr  Zr5  1  0.710475  0.424183  0.710432  1
  Fe  Fe6  1  0.000041  0.000011  0.999970  1
  Fe  Fe7  1  0.499999  0.999987  0.999985  1
  Fe  Fe8  1  0.999982  0.500002  0.000013  1
  Fe  Fe9  1  0.500012  0.500006  0.000000  1
  Fe  Fe10  1  0.000001  0.999993  0.499998  1
  Fe  Fe11  1  0.000006  0.500013  0.499999  1
  Co  Co12  1  0.674782  0.349119  0.023466  1
  Co  Co13  1  0.878456  0.757065  0.121543  1
  Co  Co14  1  0.365900  0.243386  0.120869  1
  Co  Co15  1  0.878458  0.242931  0.121542  1
  Co  Co16  1  0.674211  0.349355  0.325790  1
  Co  Co17  1  0.674204  0.650644  0.325793  1
  Co  Co18  1  0.976527  0.650865  0.325214  1
  Co  Co19  1  0.120882  0.243393  0.365907  1
  Co  Co20  1  0.500000  0.500004  0.500005  1
  Co  Co21  1  0.879128  0.756615  0.634101  1
  Co  Co22  1  0.023457  0.349140  0.674821  1
  Co  Co23  1  0.325778  0.349334  0.674212  1
  Co  Co24  1  0.325775  0.650655  0.674219  1
  Co  Co25  1  0.121543  0.242924  0.878461  1
  Co  Co26  1  0.121540  0.757081  0.878463  1
  Co  Co27  1  0.634086  0.756600  0.879115  1
  Co  Co28  1  0.325173  0.650860  0.976545  1
