# generated using pymatgen
data_Dy2Al9TcRu4
_symmetry_space_group_name_H-M   'P 1'
_cell_length_a   7.97610248
_cell_length_b   7.97610231
_cell_length_c   7.97610378
_cell_angle_alpha   134.20767484
_cell_angle_beta   134.20767829
_cell_angle_gamma   66.76382098
_symmetry_Int_Tables_number   1
_chemical_formula_structural   Dy2Al9TcRu4
_chemical_formula_sum   'Dy2 Al9 Tc1 Ru4'
_cell_volume   256.54769165
_cell_formula_units_Z   1
loop_
 _symmetry_equiv_pos_site_id
 _symmetry_equiv_pos_as_xyz
  1  'x, y, z'
loop_
 _atom_site_type_symbol
 _atom_site_label
 _atom_site_symmetry_multiplicity
 _atom_site_fract_x
 _atom_site_fract_y
 _atom_site_fract_z
 _atom_site_occupancy
  Dy  Dy0  1  0.000275  0.500275  0.500000  1
  Dy  Dy1  1  0.500275  0.000275  0.500000  1
  Al  Al2  1  0.438780  0.861187  0.000000  1
  Al  Al3  1  0.138516  0.138516  0.578723  1
  Al  Al4  1  0.861187  0.438780  0.000000  1
  Al  Al5  1  0.861187  0.861187  0.422405  1
  Al  Al6  1  0.559792  0.138516  0.000000  1
  Al  Al7  1  0.138516  0.559792  0.000000  1
  Al  Al8  1  0.559792  0.559792  0.421277  1
  Al  Al9  1  0.000366  0.000366  0.000000  1
  Al  Al10  1  0.438780  0.438780  0.577595  1
  Tc  Tc11  1  0.184393  0.184393  0.000000  1
  Ru  Ru12  1  0.816977  0.816977  0.000000  1
  Ru  Ru13  1  0.250376  0.750376  0.500000  1
  Ru  Ru14  1  0.750376  0.250376  0.500000  1
  Ru  Ru15  1  0.500413  0.500413  0.000000  1
