# generated using pymatgen
data_Nd3Mg3SiGeIr
_symmetry_space_group_name_H-M   'P 1'
_cell_length_a   7.31426800
_cell_length_b   7.31426759
_cell_length_c   4.45851500
_cell_angle_alpha   90.00000000
_cell_angle_beta   90.00000000
_cell_angle_gamma   119.99999282
_symmetry_Int_Tables_number   1
_chemical_formula_structural   Nd3Mg3SiGeIr
_chemical_formula_sum   'Nd3 Mg3 Si1 Ge1 Ir1'
_cell_volume   206.56779282
_cell_formula_units_Z   1
loop_
 _symmetry_equiv_pos_site_id
 _symmetry_equiv_pos_as_xyz
  1  'x, y, z'
loop_
 _atom_site_type_symbol
 _atom_site_label
 _atom_site_symmetry_multiplicity
 _atom_site_fract_x
 _atom_site_fract_y
 _atom_site_fract_z
 _atom_site_occupancy
  Nd  Nd0  1  0.594218  0.001788  0.000000  1
  Nd  Nd1  1  0.998212  0.592430  0.000000  1
  Nd  Nd2  1  0.407570  0.405782  0.000000  1
  Mg  Mg3  1  0.236976  0.001519  0.500000  1
  Mg  Mg4  1  0.998481  0.235456  0.500000  1
  Mg  Mg5  1  0.764544  0.763024  0.500000  1
  Si  Si6  1  0.666667  0.333333  0.500000  1
  Ge  Ge7  1  0.333333  0.666667  0.500000  1
  Ir  Ir8  1  0.000000  0.000000  0.000000  1
