# generated using pymatgen
data_La2Pr(CuSn)4
_symmetry_space_group_name_H-M   'P 1'
_cell_length_a   8.70554152
_cell_length_b   8.70554168
_cell_length_c   8.70554225
_cell_angle_alpha   148.83911718
_cell_angle_beta   132.27065947
_cell_angle_gamma   58.10586461
_symmetry_Int_Tables_number   1
_chemical_formula_structural   La2Pr(CuSn)4
_chemical_formula_sum   'La2 Pr1 Cu4 Sn4'
_cell_volume   250.69029357
_cell_formula_units_Z   1
loop_
 _symmetry_equiv_pos_site_id
 _symmetry_equiv_pos_as_xyz
  1  'x, y, z'
loop_
 _atom_site_type_symbol
 _atom_site_label
 _atom_site_symmetry_multiplicity
 _atom_site_fract_x
 _atom_site_fract_y
 _atom_site_fract_z
 _atom_site_occupancy
  La  La0  1  0.134796  0.134796  0.000000  1
  La  La1  1  0.865204  0.865204  0.000000  1
  Pr  Pr2  1  0.500000  0.000000  0.500000  1
  Cu  Cu3  1  0.484412  0.667341  0.817071  1
  Cu  Cu4  1  0.850269  0.667341  0.182929  1
  Cu  Cu5  1  0.149731  0.332659  0.817071  1
  Cu  Cu6  1  0.515588  0.332659  0.182929  1
  Sn  Sn7  1  0.201564  0.500000  0.701564  1
  Sn  Sn8  1  0.798436  0.500000  0.298436  1
  Sn  Sn9  1  0.715882  0.215882  0.500000  1
  Sn  Sn10  1  0.284118  0.784118  0.500000  1
