# generated using pymatgen
data_Li8Dy3Y3Er2Sn7Sb
_symmetry_space_group_name_H-M   'P 1'
_cell_length_a   9.38191108
_cell_length_b   9.37622352
_cell_length_c   7.26023801
_cell_angle_alpha   90.07934162
_cell_angle_beta   90.00136129
_cell_angle_gamma   120.00550043
_symmetry_Int_Tables_number   1
_chemical_formula_structural   Li8Dy3Y3Er2Sn7Sb
_chemical_formula_sum   'Li8 Dy3 Y3 Er2 Sn7 Sb1'
_cell_volume   553.06492349
_cell_formula_units_Z   1
loop_
 _symmetry_equiv_pos_site_id
 _symmetry_equiv_pos_as_xyz
  1  'x, y, z'
loop_
 _atom_site_type_symbol
 _atom_site_label
 _atom_site_symmetry_multiplicity
 _atom_site_fract_x
 _atom_site_fract_y
 _atom_site_fract_z
 _atom_site_occupancy
  Li  Li0  1  0.166841  0.333527  0.287655  1
  Li  Li1  1  0.167232  0.833358  0.287906  1
  Li  Li2  1  0.666041  0.833154  0.287967  1
  Li  Li3  1  0.833107  0.666527  0.788512  1
  Li  Li4  1  0.832061  0.166174  0.789741  1
  Li  Li5  1  0.334149  0.166398  0.790101  1
  Li  Li6  1  0.333857  0.667430  0.671565  1
  Li  Li7  1  0.666317  0.333090  0.171663  1
  Dy  Dy8  1  0.022365  0.512567  0.995004  1
  Dy  Dy9  1  0.998937  0.997960  0.498221  1
  Dy  Dy10  1  0.999046  0.998090  0.001137  1
  Y  Y11  1  0.512145  0.024506  0.493593  1
  Y  Y12  1  0.514379  0.489503  0.492028  1
  Y  Y13  1  0.975136  0.489591  0.492029  1
  Er  Er14  1  0.487767  0.975504  0.993916  1
  Er  Er15  1  0.490424  0.512886  0.995155  1
  Sn  Sn16  1  0.166947  0.833289  0.730818  1
  Sn  Sn17  1  0.666294  0.832923  0.731307  1
  Sn  Sn18  1  0.832839  0.666272  0.229975  1
  Sn  Sn19  1  0.833253  0.166910  0.229328  1
  Sn  Sn20  1  0.333982  0.167607  0.228300  1
  Sn  Sn21  1  0.333233  0.665583  0.259250  1
  Sn  Sn22  1  0.666378  0.333483  0.763553  1
  Sb  Sb23  1  0.167266  0.333669  0.733271  1
