# generated using pymatgen
data_TmHfP7Ru12
_symmetry_space_group_name_H-M   'P 1'
_cell_length_a   9.38680300
_cell_length_b   9.38680237
_cell_length_c   3.91475800
_cell_angle_alpha   90.00000000
_cell_angle_beta   90.00000000
_cell_angle_gamma   119.99999774
_symmetry_Int_Tables_number   1
_chemical_formula_structural   TmHfP7Ru12
_chemical_formula_sum   'Tm1 Hf1 P7 Ru12'
_cell_volume   298.72456663
_cell_formula_units_Z   1
loop_
 _symmetry_equiv_pos_site_id
 _symmetry_equiv_pos_as_xyz
  1  'x, y, z'
loop_
 _atom_site_type_symbol
 _atom_site_label
 _atom_site_symmetry_multiplicity
 _atom_site_fract_x
 _atom_site_fract_y
 _atom_site_fract_z
 _atom_site_occupancy
  Tm  Tm0  1  0.333333  0.666667  0.000000  1
  Hf  Hf1  1  0.666667  0.333333  0.500000  1
  P  P2  1  0.598624  0.719274  0.500000  1
  P  P3  1  0.000000  0.000000  0.000000  1
  P  P4  1  0.280726  0.879351  0.500000  1
  P  P5  1  0.120649  0.401376  0.500000  1
  P  P6  1  0.884682  0.573268  0.000000  1
  P  P7  1  0.426732  0.311414  0.000000  1
  P  P8  1  0.688586  0.115318  0.000000  1
  Ru  Ru9  1  0.556380  0.952855  0.500000  1
  Ru  Ru10  1  0.396476  0.443620  0.500000  1
  Ru  Ru11  1  0.913490  0.122925  0.500000  1
  Ru  Ru12  1  0.209435  0.086510  0.500000  1
  Ru  Ru13  1  0.877075  0.790565  0.500000  1
  Ru  Ru14  1  0.726128  0.889759  0.000000  1
  Ru  Ru15  1  0.110241  0.836367  0.000000  1
  Ru  Ru16  1  0.163633  0.273872  0.000000  1
  Ru  Ru17  1  0.429093  0.073951  0.000000  1
  Ru  Ru18  1  0.926049  0.355144  0.000000  1
  Ru  Ru19  1  0.644856  0.570907  0.000000  1
  Ru  Ru20  1  0.047145  0.603524  0.500000  1
