# generated using pymatgen
data_Ho5Er15CoBi8Os3
_symmetry_space_group_name_H-M   'P 1'
_cell_length_a   7.90864962
_cell_length_b   8.96905100
_cell_length_c   12.37696668
_cell_angle_alpha   90.00000000
_cell_angle_beta   89.78652108
_cell_angle_gamma   90.00000000
_symmetry_Int_Tables_number   1
_chemical_formula_structural   Ho5Er15CoBi8Os3
_chemical_formula_sum   'Ho5 Er15 Co1 Bi8 Os3'
_cell_volume   877.93029588
_cell_formula_units_Z   1
loop_
 _symmetry_equiv_pos_site_id
 _symmetry_equiv_pos_as_xyz
  1  'x, y, z'
loop_
 _atom_site_type_symbol
 _atom_site_label
 _atom_site_symmetry_multiplicity
 _atom_site_fract_x
 _atom_site_fract_y
 _atom_site_fract_z
 _atom_site_occupancy
  Ho  Ho0  1  0.156349  0.750000  0.206856  1
  Ho  Ho1  1  0.879484  0.750000  0.806061  1
  Ho  Ho2  1  0.616523  0.750000  0.312705  1
  Ho  Ho3  1  0.056230  0.750000  0.497036  1
  Ho  Ho4  1  0.442382  0.750000  0.995726  1
  Er  Er5  1  0.344546  0.750000  0.701478  1
  Er  Er6  1  0.658272  0.250000  0.292449  1
  Er  Er7  1  0.842219  0.250000  0.791305  1
  Er  Er8  1  0.119631  0.250000  0.193328  1
  Er  Er9  1  0.378938  0.250000  0.692723  1
  Er  Er10  1  0.674535  0.541916  0.563616  1
  Er  Er11  1  0.325844  0.460214  0.437068  1
  Er  Er12  1  0.174201  0.457288  0.936142  1
  Er  Er13  1  0.325844  0.039786  0.437068  1
  Er  Er14  1  0.824977  0.542872  0.064145  1
  Er  Er15  1  0.674535  0.958084  0.563616  1
  Er  Er16  1  0.824977  0.957128  0.064145  1
  Er  Er17  1  0.174201  0.042712  0.936142  1
  Er  Er18  1  0.944401  0.250000  0.503078  1
  Er  Er19  1  0.558464  0.250000  0.003500  1
  Co  Co20  1  0.429657  0.750000  0.491511  1
  Bi  Bi21  1  0.569749  0.508402  0.827149  1
  Bi  Bi22  1  0.429943  0.491808  0.173006  1
  Bi  Bi23  1  0.071304  0.491718  0.671909  1
  Bi  Bi24  1  0.429943  0.008192  0.173006  1
  Bi  Bi25  1  0.929537  0.508501  0.328508  1
  Bi  Bi26  1  0.569749  0.991598  0.827149  1
  Bi  Bi27  1  0.929537  0.991499  0.328508  1
  Bi  Bi28  1  0.071304  0.008282  0.671909  1
  Os  Os29  1  0.075037  0.750000  0.989366  1
  Os  Os30  1  0.924172  0.250000  0.009971  1
  Os  Os31  1  0.573514  0.250000  0.509821  1
