# generated using pymatgen
data_TbHo7Re(B8Os)3
_symmetry_space_group_name_H-M   'P 1'
_cell_length_a   3.65704200
_cell_length_b   9.14351088
_cell_length_c   11.52795301
_cell_angle_alpha   90.09029183
_cell_angle_beta   90.00000000
_cell_angle_gamma   90.00000000
_symmetry_Int_Tables_number   1
_chemical_formula_structural   TbHo7Re(B8Os)3
_chemical_formula_sum   'Tb1 Ho7 Re1 B24 Os3'
_cell_volume   385.47355764
_cell_formula_units_Z   1
loop_
 _symmetry_equiv_pos_site_id
 _symmetry_equiv_pos_as_xyz
  1  'x, y, z'
loop_
 _atom_site_type_symbol
 _atom_site_label
 _atom_site_symmetry_multiplicity
 _atom_site_fract_x
 _atom_site_fract_y
 _atom_site_fract_z
 _atom_site_occupancy
  Tb  Tb0  1  0.000000  0.322515  0.414762  1
  Ho  Ho1  1  0.000000  0.680078  0.588224  1
  Ho  Ho2  1  0.000000  0.822663  0.083645  1
  Ho  Ho3  1  0.000000  0.176314  0.913187  1
  Ho  Ho4  1  0.000000  0.943230  0.371905  1
  Ho  Ho5  1  0.000000  0.055740  0.627779  1
  Ho  Ho6  1  0.000000  0.443026  0.127663  1
  Ho  Ho7  1  0.000000  0.556538  0.872862  1
  Re  Re8  1  0.000000  0.862510  0.821264  1
  B  B9  1  0.500000  0.554088  0.433219  1
  B  B10  1  0.500000  0.446573  0.567354  1
  B  B11  1  0.500000  0.053454  0.067166  1
  B  B12  1  0.500000  0.947227  0.933211  1
  B  B13  1  0.500000  0.748390  0.419566  1
  B  B14  1  0.500000  0.251729  0.580746  1
  B  B15  1  0.500000  0.247967  0.080497  1
  B  B16  1  0.500000  0.751687  0.919407  1
  B  B17  1  0.500000  0.790554  0.266083  1
  B  B18  1  0.500000  0.209071  0.733289  1
  B  B19  1  0.500000  0.290732  0.233549  1
  B  B20  1  0.500000  0.708458  0.766121  1
  B  B21  1  0.500000  0.631183  0.185316  1
  B  B22  1  0.500000  0.368467  0.814275  1
  B  B23  1  0.500000  0.131357  0.314503  1
  B  B24  1  0.500000  0.868611  0.685577  1
  B  B25  1  0.500000  0.983039  0.212618  1
  B  B26  1  0.500000  0.017849  0.787254  1
  B  B27  1  0.500000  0.483341  0.287504  1
  B  B28  1  0.500000  0.517184  0.712884  1
  B  B29  1  0.500000  0.605998  0.030033  1
  B  B30  1  0.500000  0.392493  0.970555  1
  B  B31  1  0.500000  0.106614  0.470105  1
  B  B32  1  0.500000  0.893291  0.529044  1
  Os  Os33  1  0.000000  0.637670  0.321225  1
  Os  Os34  1  0.000000  0.362758  0.678512  1
  Os  Os35  1  0.000000  0.137602  0.179097  1
