# generated using pymatgen
data_Lu12Fe2TcPb2
_symmetry_space_group_name_H-M   'P 1'
_cell_length_a   8.25260641
_cell_length_b   8.25260724
_cell_length_c   8.25260638
_cell_angle_alpha   108.62113810
_cell_angle_beta   108.62113668
_cell_angle_gamma   111.18509533
_symmetry_Int_Tables_number   1
_chemical_formula_structural   Lu12Fe2TcPb2
_chemical_formula_sum   'Lu12 Fe2 Tc1 Pb2'
_cell_volume   432.37348851
_cell_formula_units_Z   1
loop_
 _symmetry_equiv_pos_site_id
 _symmetry_equiv_pos_as_xyz
  1  'x, y, z'
loop_
 _atom_site_type_symbol
 _atom_site_label
 _atom_site_symmetry_multiplicity
 _atom_site_fract_x
 _atom_site_fract_y
 _atom_site_fract_z
 _atom_site_occupancy
  Lu  Lu0  1  0.308570  0.308570  0.617142  1
  Lu  Lu1  1  0.691430  0.691430  0.382858  1
  Lu  Lu2  1  0.691430  0.308570  0.000000  1
  Lu  Lu3  1  0.308570  0.691430  0.000000  1
  Lu  Lu4  1  0.194116  0.429343  0.235227  1
  Lu  Lu5  1  0.805884  0.570657  0.764773  1
  Lu  Lu6  1  0.194116  0.958888  0.764773  1
  Lu  Lu7  1  0.958888  0.194116  0.764773  1
  Lu  Lu8  1  0.805884  0.041112  0.235227  1
  Lu  Lu9  1  0.041112  0.805884  0.235227  1
  Lu  Lu10  1  0.429343  0.194116  0.235227  1
  Lu  Lu11  1  0.570657  0.805884  0.764773  1
  Fe  Fe12  1  0.384514  0.384514  0.000000  1
  Fe  Fe13  1  0.615486  0.615486  0.000000  1
  Tc  Tc14  1  0.000000  0.000000  0.000000  1
  Pb  Pb15  1  0.000000  0.500000  0.500000  1
  Pb  Pb16  1  0.500000  0.000000  0.500000  1
