# generated using pymatgen
data_Lu5BeTe4
_symmetry_space_group_name_H-M   'P 1'
_cell_length_a   7.44674203
_cell_length_b   7.44674144
_cell_length_c   10.54537106
_cell_angle_alpha   60.96633037
_cell_angle_beta   60.96633355
_cell_angle_gamma   31.85931878
_symmetry_Int_Tables_number   1
_chemical_formula_structural   Lu5BeTe4
_chemical_formula_sum   'Lu5 Be1 Te4'
_cell_volume   266.47151471
_cell_formula_units_Z   1
loop_
 _symmetry_equiv_pos_site_id
 _symmetry_equiv_pos_as_xyz
  1  'x, y, z'
loop_
 _atom_site_type_symbol
 _atom_site_label
 _atom_site_symmetry_multiplicity
 _atom_site_fract_x
 _atom_site_fract_y
 _atom_site_fract_z
 _atom_site_occupancy
  Lu  Lu0  1  0.000000  0.000000  0.500000  1
  Lu  Lu1  1  0.581449  0.581449  0.086716  1
  Lu  Lu2  1  0.178046  0.178046  0.739513  1
  Lu  Lu3  1  0.821954  0.821954  0.260487  1
  Lu  Lu4  1  0.418551  0.418551  0.913284  1
  Be  Be5  1  0.000000  0.000000  0.000000  1
  Te  Te6  1  0.611916  0.611916  0.583719  1
  Te  Te7  1  0.191602  0.191602  0.194491  1
  Te  Te8  1  0.808398  0.808398  0.805509  1
  Te  Te9  1  0.388084  0.388084  0.416281  1
