# generated using pymatgen
data_Pr4Hf3NbF28
_symmetry_space_group_name_H-M   'P 1'
_cell_length_a   5.83454283
_cell_length_b   9.35778622
_cell_length_c   12.57157847
_cell_angle_alpha   62.15489930
_cell_angle_beta   89.98710055
_cell_angle_gamma   89.84614814
_symmetry_Int_Tables_number   1
_chemical_formula_structural   Pr4Hf3NbF28
_chemical_formula_sum   'Pr4 Hf3 Nb1 F28'
_cell_volume   606.91110460
_cell_formula_units_Z   1
loop_
 _symmetry_equiv_pos_site_id
 _symmetry_equiv_pos_as_xyz
  1  'x, y, z'
loop_
 _atom_site_type_symbol
 _atom_site_label
 _atom_site_symmetry_multiplicity
 _atom_site_fract_x
 _atom_site_fract_y
 _atom_site_fract_z
 _atom_site_occupancy
  Pr  Pr0  1  0.758116  0.810192  0.766568  1
  Pr  Pr1  1  0.255303  0.188452  0.732853  1
  Pr  Pr2  1  0.242193  0.189331  0.236051  1
  Pr  Pr3  1  0.743601  0.814472  0.264995  1
  Hf  Hf4  1  0.753891  0.273882  0.957016  1
  Hf  Hf5  1  0.255808  0.725555  0.543102  1
  Hf  Hf6  1  0.245978  0.726325  0.043379  1
  Nb  Nb7  1  0.744611  0.274072  0.456606  1
  F  F8  1  0.453422  0.711135  0.921731  1
  F  F9  1  0.941850  0.289711  0.584569  1
  F  F10  1  0.543744  0.288039  0.077912  1
  F  F11  1  0.048050  0.711771  0.420937  1
  F  F12  1  0.452650  0.278994  0.545149  1
  F  F13  1  0.961108  0.719022  0.954258  1
  F  F14  1  0.540165  0.716244  0.454447  1
  F  F15  1  0.036217  0.280944  0.047542  1
  F  F16  1  0.768561  0.515975  0.862752  1
  F  F17  1  0.268430  0.484002  0.637938  1
  F  F18  1  0.230251  0.484824  0.137422  1
  F  F19  1  0.737157  0.511751  0.362715  1
  F  F20  1  0.760715  0.032178  0.055710  1
  F  F21  1  0.262441  0.966812  0.445984  1
  F  F22  1  0.239158  0.967115  0.943686  1
  F  F23  1  0.735983  0.037502  0.550383  1
  F  F24  1  0.983211  0.733070  0.638361  1
  F  F25  1  0.485325  0.267476  0.859420  1
  F  F26  1  0.026633  0.270832  0.362847  1
  F  F27  1  0.517231  0.731267  0.140299  1
  F  F28  1  0.045483  0.745061  0.167430  1
  F  F29  1  0.551217  0.255956  0.327670  1
  F  F30  1  0.957871  0.255542  0.834452  1
  F  F31  1  0.456523  0.744332  0.667178  1
  F  F32  1  0.413320  0.967986  0.232816  1
  F  F33  1  0.913499  0.031465  0.270236  1
  F  F34  1  0.585684  0.030789  0.766565  1
  F  F35  1  0.084600  0.967924  0.729024  1
