# generated using pymatgen
data_K3Ag(SbAu)2
_symmetry_space_group_name_H-M   'P 1'
_cell_length_a   8.35883919
_cell_length_b   8.11587518
_cell_length_c   8.35883853
_cell_angle_alpha   44.67830520
_cell_angle_beta   45.57618308
_cell_angle_gamma   44.67830200
_symmetry_Int_Tables_number   1
_chemical_formula_structural   K3Ag(SbAu)2
_chemical_formula_sum   'K3 Ag1 Sb2 Au2'
_cell_volume   257.77542977
_cell_formula_units_Z   1
loop_
 _symmetry_equiv_pos_site_id
 _symmetry_equiv_pos_as_xyz
  1  'x, y, z'
loop_
 _atom_site_type_symbol
 _atom_site_label
 _atom_site_symmetry_multiplicity
 _atom_site_fract_x
 _atom_site_fract_y
 _atom_site_fract_z
 _atom_site_occupancy
  K  K0  1  0.500000  0.500000  0.500000  1
  K  K1  1  0.916780  0.919096  0.916780  1
  K  K2  1  0.083220  0.080904  0.083220  1
  Ag  Ag3  1  0.500000  0.000000  0.500000  1
  Sb  Sb4  1  0.241664  0.245074  0.241664  1
  Sb  Sb5  1  0.758336  0.754926  0.758336  1
  Au  Au6  1  0.000000  0.500000  0.500000  1
  Au  Au7  1  0.500000  0.500000  0.000000  1
