# generated using pymatgen
data_NdDy5CoBr10
_symmetry_space_group_name_H-M   'P 1'
_cell_length_a   7.38345841
_cell_length_b   9.15863377
_cell_length_c   9.28520381
_cell_angle_alpha   108.41608622
_cell_angle_beta   97.05358806
_cell_angle_gamma   104.91884830
_symmetry_Int_Tables_number   1
_chemical_formula_structural   NdDy5CoBr10
_chemical_formula_sum   'Nd1 Dy5 Co1 Br10'
_cell_volume   561.20039060
_cell_formula_units_Z   1
loop_
 _symmetry_equiv_pos_site_id
 _symmetry_equiv_pos_as_xyz
  1  'x, y, z'
loop_
 _atom_site_type_symbol
 _atom_site_label
 _atom_site_symmetry_multiplicity
 _atom_site_fract_x
 _atom_site_fract_y
 _atom_site_fract_z
 _atom_site_occupancy
  Nd  Nd0  1  0.030632  0.709790  0.409821  1
  Dy  Dy1  1  0.969675  0.281873  0.587937  1
  Dy  Dy2  1  0.879091  0.955257  0.743993  1
  Dy  Dy3  1  0.122546  0.044995  0.256715  1
  Dy  Dy4  1  0.356197  0.134339  0.677930  1
  Dy  Dy5  1  0.643802  0.869321  0.322760  1
  Co  Co6  1  0.000836  0.999130  0.499971  1
  Br  Br7  1  0.459539  0.825437  0.586875  1
  Br  Br8  1  0.547984  0.179851  0.418054  1
  Br  Br9  1  0.910819  0.629711  0.678956  1
  Br  Br10  1  0.085947  0.363884  0.328620  1
  Br  Br11  1  0.251275  0.085450  0.956766  1
  Br  Br12  1  0.750300  0.916077  0.043339  1
  Br  Br13  1  0.348252  0.452573  0.770444  1
  Br  Br14  1  0.635423  0.546801  0.224478  1
  Br  Br15  1  0.786974  0.256872  0.844865  1
  Br  Br16  1  0.220709  0.748638  0.148474  1
