# generated using pymatgen
data_Tm7Sc(Si4W3)4
_symmetry_space_group_name_H-M   'P 1'
_cell_length_a   6.69802263
_cell_length_b   6.88160376
_cell_length_c   12.81182914
_cell_angle_alpha   90.07221644
_cell_angle_beta   89.97060783
_cell_angle_gamma   90.02126094
_symmetry_Int_Tables_number   1
_chemical_formula_structural   Tm7Sc(Si4W3)4
_chemical_formula_sum   'Tm7 Sc1 Si16 W12'
_cell_volume   590.53681806
_cell_formula_units_Z   1
loop_
 _symmetry_equiv_pos_site_id
 _symmetry_equiv_pos_as_xyz
  1  'x, y, z'
loop_
 _atom_site_type_symbol
 _atom_site_label
 _atom_site_symmetry_multiplicity
 _atom_site_fract_x
 _atom_site_fract_y
 _atom_site_fract_z
 _atom_site_occupancy
  Tm  Tm0  1  0.494674  0.668733  0.592688  1
  Tm  Tm1  1  0.994926  0.831652  0.907311  1
  Tm  Tm2  1  0.505122  0.331759  0.092951  1
  Tm  Tm3  1  0.004998  0.167705  0.408474  1
  Tm  Tm4  1  0.504860  0.331415  0.407997  1
  Tm  Tm5  1  0.005135  0.168320  0.092885  1
  Tm  Tm6  1  0.494857  0.668831  0.906046  1
  Sc  Sc7  1  0.992981  0.830346  0.594219  1
  Si  Si8  1  0.664664  0.959245  0.454840  1
  Si  Si9  1  0.163269  0.540204  0.046390  1
  Si  Si10  1  0.337387  0.040757  0.953123  1
  Si  Si11  1  0.838411  0.462893  0.546995  1
  Si  Si12  1  0.331609  0.037491  0.546882  1
  Si  Si13  1  0.836612  0.459216  0.953229  1
  Si  Si14  1  0.662956  0.959431  0.046442  1
  Si  Si15  1  0.162611  0.542762  0.454796  1
  Si  Si16  1  0.464389  0.373438  0.749993  1
  Si  Si17  1  0.964949  0.124141  0.748302  1
  Si  Si18  1  0.536200  0.626596  0.250169  1
  Si  Si19  1  0.035817  0.873542  0.250158  1
  Si  Si20  1  0.699938  0.863303  0.748490  1
  Si  Si21  1  0.194508  0.638723  0.748139  1
  Si  Si22  1  0.302979  0.136640  0.250369  1
  Si  Si23  1  0.803388  0.363616  0.250598  1
  W  W24  1  0.668255  0.163185  0.625072  1
  W  W25  1  0.167814  0.335897  0.873954  1
  W  W26  1  0.331772  0.836751  0.124907  1
  W  W27  1  0.832315  0.664394  0.375744  1
  W  W28  1  0.332133  0.836140  0.374674  1
  W  W29  1  0.831763  0.663737  0.125317  1
  W  W30  1  0.669217  0.162639  0.874499  1
  W  W31  1  0.169061  0.336638  0.624946  1
  W  W32  1  0.832958  0.501875  0.749490  1
  W  W33  1  0.332828  0.997712  0.748876  1
  W  W34  1  0.167439  0.498794  0.250218  1
  W  W35  1  0.667208  0.001481  0.250815  1
