# generated using pymatgen
data_Ce2Dy10CuOs3
_symmetry_space_group_name_H-M   'P 1'
_cell_length_a   6.37897158
_cell_length_b   7.20716494
_cell_length_c   9.37363400
_cell_angle_alpha   90.00000000
_cell_angle_beta   90.00000000
_cell_angle_gamma   89.77351619
_symmetry_Int_Tables_number   1
_chemical_formula_structural   Ce2Dy10CuOs3
_chemical_formula_sum   'Ce2 Dy10 Cu1 Os3'
_cell_volume   430.94289788
_cell_formula_units_Z   1
loop_
 _symmetry_equiv_pos_site_id
 _symmetry_equiv_pos_as_xyz
  1  'x, y, z'
loop_
 _atom_site_type_symbol
 _atom_site_label
 _atom_site_symmetry_multiplicity
 _atom_site_fract_x
 _atom_site_fract_y
 _atom_site_fract_z
 _atom_site_occupancy
  Ce  Ce0  1  0.859278  0.549539  0.250000  1
  Ce  Ce1  1  0.645353  0.047224  0.250000  1
  Dy  Dy2  1  0.334379  0.677892  0.061800  1
  Dy  Dy3  1  0.171102  0.175731  0.432285  1
  Dy  Dy4  1  0.664092  0.326413  0.562676  1
  Dy  Dy5  1  0.825517  0.820197  0.937846  1
  Dy  Dy6  1  0.664092  0.326413  0.937324  1
  Dy  Dy7  1  0.825517  0.820197  0.562154  1
  Dy  Dy8  1  0.334379  0.677892  0.438200  1
  Dy  Dy9  1  0.171102  0.175731  0.067715  1
  Dy  Dy10  1  0.136318  0.471767  0.750000  1
  Dy  Dy11  1  0.368051  0.959672  0.750000  1
  Cu  Cu12  1  0.948765  0.112957  0.750000  1
  Os  Os13  1  0.028188  0.871732  0.250000  1
  Os  Os14  1  0.475183  0.371024  0.250000  1
  Os  Os15  1  0.548684  0.615613  0.750000  1
