# generated using pymatgen
data_Sr3Cd(Hg3Pb)2
_symmetry_space_group_name_H-M   'P 1'
_cell_length_a   5.48968300
_cell_length_b   7.58915000
_cell_length_c   16.61716900
_cell_angle_alpha   90.00001445
_cell_angle_beta   90.00128479
_cell_angle_gamma   90.00000000
_symmetry_Int_Tables_number   1
_chemical_formula_structural   Sr3Cd(Hg3Pb)2
_chemical_formula_sum   'Sr6 Cd2 Hg12 Pb4'
_cell_volume   692.30495574
_cell_formula_units_Z   2
loop_
 _symmetry_equiv_pos_site_id
 _symmetry_equiv_pos_as_xyz
  1  'x, y, z'
loop_
 _atom_site_type_symbol
 _atom_site_label
 _atom_site_symmetry_multiplicity
 _atom_site_fract_x
 _atom_site_fract_y
 _atom_site_fract_z
 _atom_site_occupancy
  Sr  Sr0  1  0.999991  0.999999  0.998207  1
  Sr  Sr1  1  0.500000  0.500000  0.166382  1
  Sr  Sr2  1  0.999974  0.999999  0.333622  1
  Sr  Sr3  1  0.499992  0.499999  0.501790  1
  Sr  Sr4  1  0.000035  0.000001  0.666897  1
  Sr  Sr5  1  0.500000  0.500000  0.833100  1
  Cd  Cd6  1  0.000010  0.500000  0.662548  1
  Cd  Cd7  1  0.500014  0.000000  0.837450  1
  Hg  Hg8  1  0.499992  0.243387  0.995127  1
  Hg  Hg9  1  0.499992  0.756612  0.995127  1
  Hg  Hg10  1  0.999998  0.250567  0.165867  1
  Hg  Hg11  1  0.999998  0.749435  0.165867  1
  Hg  Hg12  1  0.499993  0.249441  0.334138  1
  Hg  Hg13  1  0.499993  0.750560  0.334138  1
  Hg  Hg14  1  0.999992  0.256609  0.504879  1
  Hg  Hg15  1  0.999992  0.743391  0.504879  1
  Hg  Hg16  1  0.500028  0.247720  0.670150  1
  Hg  Hg17  1  0.500028  0.752280  0.670150  1
  Hg  Hg18  1  0.000014  0.252276  0.829845  1
  Hg  Hg19  1  0.000013  0.747725  0.829845  1
  Pb  Pb20  1  0.999971  0.500000  0.999783  1
  Pb  Pb21  1  0.499990  0.000000  0.165868  1
  Pb  Pb22  1  0.999996  0.500000  0.334149  1
  Pb  Pb23  1  0.499998  0.000000  0.500191  1
