# generated using pymatgen
data_Y2Sc3Tl4
_symmetry_space_group_name_H-M   'P 1'
_cell_length_a   7.72576100
_cell_length_b   7.96906100
_cell_length_c   15.24120500
_cell_angle_alpha   90.00000000
_cell_angle_beta   90.00000000
_cell_angle_gamma   90.00000000
_symmetry_Int_Tables_number   1
_chemical_formula_structural   Y2Sc3Tl4
_chemical_formula_sum   'Y8 Sc12 Tl16'
_cell_volume   938.35619308
_cell_formula_units_Z   4
loop_
 _symmetry_equiv_pos_site_id
 _symmetry_equiv_pos_as_xyz
  1  'x, y, z'
loop_
 _atom_site_type_symbol
 _atom_site_label
 _atom_site_symmetry_multiplicity
 _atom_site_fract_x
 _atom_site_fract_y
 _atom_site_fract_z
 _atom_site_occupancy
  Y  Y0  1  0.497030  0.320746  0.094893  1
  Y  Y1  1  0.997030  0.179254  0.405107  1
  Y  Y2  1  0.502970  0.679254  0.594893  1
  Y  Y3  1  0.002970  0.820746  0.905107  1
  Y  Y4  1  0.502970  0.679254  0.905107  1
  Y  Y5  1  0.002970  0.820746  0.594893  1
  Y  Y6  1  0.497030  0.320746  0.405107  1
  Y  Y7  1  0.997030  0.179254  0.094893  1
  Sc  Sc8  1  0.670994  0.003291  0.750000  1
  Sc  Sc9  1  0.170994  0.496709  0.750000  1
  Sc  Sc10  1  0.329006  0.996709  0.250000  1
  Sc  Sc11  1  0.829006  0.503291  0.250000  1
  Sc  Sc12  1  0.838972  0.336308  0.625360  1
  Sc  Sc13  1  0.338972  0.163692  0.874640  1
  Sc  Sc14  1  0.161028  0.663692  0.125360  1
  Sc  Sc15  1  0.661028  0.836308  0.374640  1
  Sc  Sc16  1  0.161028  0.663692  0.374640  1
  Sc  Sc17  1  0.661028  0.836308  0.125360  1
  Sc  Sc18  1  0.838972  0.336308  0.874640  1
  Sc  Sc19  1  0.338972  0.163692  0.625360  1
  Tl  Tl20  1  0.805675  0.642876  0.750000  1
  Tl  Tl21  1  0.305675  0.857124  0.750000  1
  Tl  Tl22  1  0.194325  0.357124  0.250000  1
  Tl  Tl23  1  0.694325  0.142876  0.250000  1
  Tl  Tl24  1  0.532699  0.375213  0.750000  1
  Tl  Tl25  1  0.032699  0.124787  0.750000  1
  Tl  Tl26  1  0.467301  0.624787  0.250000  1
  Tl  Tl27  1  0.967301  0.875213  0.250000  1
  Tl  Tl28  1  0.680599  0.040639  0.541025  1
  Tl  Tl29  1  0.180599  0.459361  0.958975  1
  Tl  Tl30  1  0.319401  0.959361  0.041025  1
  Tl  Tl31  1  0.819401  0.540639  0.458975  1
  Tl  Tl32  1  0.319401  0.959361  0.458975  1
  Tl  Tl33  1  0.819401  0.540639  0.041025  1
  Tl  Tl34  1  0.680599  0.040639  0.958975  1
  Tl  Tl35  1  0.180599  0.459361  0.541025  1
