# generated using pymatgen
data_La2ThSn3Ir2Rh
_symmetry_space_group_name_H-M   'P 1'
_cell_length_a   7.60362307
_cell_length_b   7.66588264
_cell_length_c   4.15799300
_cell_angle_alpha   90.00000000
_cell_angle_beta   90.00000000
_cell_angle_gamma   120.27122822
_symmetry_Int_Tables_number   1
_chemical_formula_structural   La2ThSn3Ir2Rh
_chemical_formula_sum   'La2 Th1 Sn3 Ir2 Rh1'
_cell_volume   209.31659997
_cell_formula_units_Z   1
loop_
 _symmetry_equiv_pos_site_id
 _symmetry_equiv_pos_as_xyz
  1  'x, y, z'
loop_
 _atom_site_type_symbol
 _atom_site_label
 _atom_site_symmetry_multiplicity
 _atom_site_fract_x
 _atom_site_fract_y
 _atom_site_fract_z
 _atom_site_occupancy
  La  La0  1  0.413868  0.413927  0.500000  1
  La  La1  1  0.586132  0.000059  0.500000  1
  Th  Th2  1  0.000000  0.584384  0.500000  1
  Sn  Sn3  1  0.746761  0.750939  0.000000  1
  Sn  Sn4  1  0.253239  0.004177  0.000000  1
  Sn  Sn5  1  0.000000  0.243650  0.000000  1
  Ir  Ir6  1  0.687610  0.351329  0.000000  1
  Ir  Ir7  1  0.312390  0.663720  0.000000  1
  Rh  Rh8  1  0.000000  0.987816  0.500000  1
