# generated using pymatgen
data_Ta2Be9Mo
_symmetry_space_group_name_H-M   'P 1'
_cell_length_a   7.43775368
_cell_length_b   7.43775334
_cell_length_c   7.43775372
_cell_angle_alpha   35.24494163
_cell_angle_beta   35.24494505
_cell_angle_gamma   35.24494473
_symmetry_Int_Tables_number   1
_chemical_formula_structural   Ta2Be9Mo
_chemical_formula_sum   'Ta2 Be9 Mo1'
_cell_volume   122.39475471
_cell_formula_units_Z   1
loop_
 _symmetry_equiv_pos_site_id
 _symmetry_equiv_pos_as_xyz
  1  'x, y, z'
loop_
 _atom_site_type_symbol
 _atom_site_label
 _atom_site_symmetry_multiplicity
 _atom_site_fract_x
 _atom_site_fract_y
 _atom_site_fract_z
 _atom_site_occupancy
  Ta  Ta0  1  0.857635  0.857635  0.857634  1
  Ta  Ta1  1  0.001067  0.001067  0.001067  1
  Be  Be2  1  0.333992  0.333992  0.333991  1
  Be  Be3  1  0.665404  0.665404  0.665403  1
  Be  Be4  1  0.499895  0.499895  0.499895  1
  Be  Be5  1  0.583214  0.078038  0.583211  1
  Be  Be6  1  0.583214  0.583214  0.078035  1
  Be  Be7  1  0.078038  0.583214  0.583211  1
  Be  Be8  1  0.924741  0.415543  0.415544  1
  Be  Be9  1  0.415543  0.415543  0.924743  1
  Be  Be10  1  0.415543  0.924741  0.415544  1
  Mo  Mo11  1  0.141719  0.141719  0.141719  1
