# generated using pymatgen
data_SmHoTc2C3
_symmetry_space_group_name_H-M   'P 1'
_cell_length_a   6.11559355
_cell_length_b   6.11559552
_cell_length_c   5.73605230
_cell_angle_alpha   66.37834991
_cell_angle_beta   66.37834024
_cell_angle_gamma   31.91718519
_symmetry_Int_Tables_number   1
_chemical_formula_structural   SmHoTc2C3
_chemical_formula_sum   'Sm1 Ho1 Tc2 C3'
_cell_volume   103.10185200
_cell_formula_units_Z   1
loop_
 _symmetry_equiv_pos_site_id
 _symmetry_equiv_pos_as_xyz
  1  'x, y, z'
loop_
 _atom_site_type_symbol
 _atom_site_label
 _atom_site_symmetry_multiplicity
 _atom_site_fract_x
 _atom_site_fract_y
 _atom_site_fract_z
 _atom_site_occupancy
  Sm  Sm0  1  0.393693  0.393693  0.815332  1
  Ho  Ho1  1  0.610438  0.610438  0.175008  1
  Tc  Tc2  1  0.158726  0.158726  0.680921  1
  Tc  Tc3  1  0.840482  0.840482  0.320409  1
  C  C4  1  0.750121  0.750121  0.727841  1
  C  C5  1  0.245066  0.245066  0.273845  1
  C  C6  1  0.001475  0.001475  0.006644  1
