# generated using pymatgen
data_LiTi3(PRh5)2
_symmetry_space_group_name_H-M   'P 1'
_cell_length_a   3.92111900
_cell_length_b   5.39596531
_cell_length_c   10.39669385
_cell_angle_alpha   88.81673819
_cell_angle_beta   90.00000000
_cell_angle_gamma   90.00000000
_symmetry_Int_Tables_number   1
_chemical_formula_structural   LiTi3(PRh5)2
_chemical_formula_sum   'Li1 Ti3 P2 Rh10'
_cell_volume   219.92864974
_cell_formula_units_Z   1
loop_
 _symmetry_equiv_pos_site_id
 _symmetry_equiv_pos_as_xyz
  1  'x, y, z'
loop_
 _atom_site_type_symbol
 _atom_site_label
 _atom_site_symmetry_multiplicity
 _atom_site_fract_x
 _atom_site_fract_y
 _atom_site_fract_z
 _atom_site_occupancy
  Li  Li0  1  0.500000  0.838001  0.143489  1
  Ti  Ti1  1  0.500000  0.340902  0.349651  1
  Ti  Ti2  1  0.500000  0.663255  0.641633  1
  Ti  Ti3  1  0.500000  0.153163  0.865755  1
  P  P4  1  0.000000  0.003316  0.499509  1
  P  P5  1  0.000000  0.512154  0.003254  1
  Rh  Rh6  1  0.500000  0.323275  0.099804  1
  Rh  Rh7  1  0.500000  0.671910  0.894703  1
  Rh  Rh8  1  0.500000  0.825713  0.401369  1
  Rh  Rh9  1  0.500000  0.180588  0.602035  1
  Rh  Rh10  1  0.000000  0.918534  0.737244  1
  Rh  Rh11  1  0.000000  0.085708  0.264077  1
  Rh  Rh12  1  0.000000  0.415849  0.762364  1
  Rh  Rh13  1  0.000000  0.586836  0.233725  1
  Rh  Rh14  1  0.000000  0.499188  0.498550  1
  Rh  Rh15  1  0.000000  0.981607  0.002837  1
