# generated using pymatgen
data_RbEr2LuSe5
_symmetry_space_group_name_H-M   'P 1'
_cell_length_a   4.11474700
_cell_length_b   12.28674900
_cell_length_c   21.95033600
_cell_angle_alpha   90.00000000
_cell_angle_beta   90.00000000
_cell_angle_gamma   90.00000000
_symmetry_Int_Tables_number   1
_chemical_formula_structural   RbEr2LuSe5
_chemical_formula_sum   'Rb4 Er8 Lu4 Se20'
_cell_volume   1109.74014285
_cell_formula_units_Z   4
loop_
 _symmetry_equiv_pos_site_id
 _symmetry_equiv_pos_as_xyz
  1  'x, y, z'
loop_
 _atom_site_type_symbol
 _atom_site_label
 _atom_site_symmetry_multiplicity
 _atom_site_fract_x
 _atom_site_fract_y
 _atom_site_fract_z
 _atom_site_occupancy
  Rb  Rb0  1  0.250000  0.851631  0.093256  1
  Rb  Rb1  1  0.750000  0.148369  0.906744  1
  Rb  Rb2  1  0.750000  0.351631  0.406744  1
  Rb  Rb3  1  0.250000  0.648369  0.593256  1
  Er  Er4  1  0.750000  0.798572  0.826316  1
  Er  Er5  1  0.250000  0.201428  0.173684  1
  Er  Er6  1  0.250000  0.298572  0.673684  1
  Er  Er7  1  0.750000  0.701428  0.326316  1
  Er  Er8  1  0.250000  0.956117  0.697708  1
  Er  Er9  1  0.750000  0.043883  0.302292  1
  Er  Er10  1  0.750000  0.456117  0.802292  1
  Er  Er11  1  0.250000  0.543883  0.197708  1
  Lu  Lu12  1  0.750000  0.391702  0.053721  1
  Lu  Lu13  1  0.250000  0.608298  0.946279  1
  Lu  Lu14  1  0.250000  0.891702  0.446279  1
  Lu  Lu15  1  0.750000  0.108298  0.553721  1
  Se  Se16  1  0.250000  0.948697  0.568363  1
  Se  Se17  1  0.750000  0.051303  0.431637  1
  Se  Se18  1  0.750000  0.448697  0.931637  1
  Se  Se19  1  0.250000  0.551303  0.068363  1
  Se  Se20  1  0.750000  0.763645  0.954280  1
  Se  Se21  1  0.250000  0.236355  0.045720  1
  Se  Se22  1  0.250000  0.263645  0.545720  1
  Se  Se23  1  0.750000  0.736355  0.454280  1
  Se  Se24  1  0.250000  0.953283  0.826827  1
  Se  Se25  1  0.750000  0.046717  0.173173  1
  Se  Se26  1  0.750000  0.453283  0.673173  1
  Se  Se27  1  0.250000  0.546717  0.326827  1
  Se  Se28  1  0.750000  0.126343  0.683842  1
  Se  Se29  1  0.250000  0.873657  0.316158  1
  Se  Se30  1  0.250000  0.626343  0.816158  1
  Se  Se31  1  0.750000  0.373657  0.183842  1
  Se  Se32  1  0.750000  0.696766  0.197216  1
  Se  Se33  1  0.250000  0.303234  0.802784  1
  Se  Se34  1  0.250000  0.196766  0.302784  1
  Se  Se35  1  0.750000  0.803234  0.697216  1
