# generated using pymatgen
data_LuZr2Sc(Al3Ir)6
_symmetry_space_group_name_H-M   'P 1'
_cell_length_a   7.49237506
_cell_length_b   7.48604206
_cell_length_c   9.31091000
_cell_angle_alpha   90.00000000
_cell_angle_beta   90.00000000
_cell_angle_gamma   119.75971700
_symmetry_Int_Tables_number   1
_chemical_formula_structural   LuZr2Sc(Al3Ir)6
_chemical_formula_sum   'Lu1 Zr2 Sc1 Al18 Ir6'
_cell_volume   453.35768747
_cell_formula_units_Z   1
loop_
 _symmetry_equiv_pos_site_id
 _symmetry_equiv_pos_as_xyz
  1  'x, y, z'
loop_
 _atom_site_type_symbol
 _atom_site_label
 _atom_site_symmetry_multiplicity
 _atom_site_fract_x
 _atom_site_fract_y
 _atom_site_fract_z
 _atom_site_occupancy
  Lu  Lu0  1  0.329324  0.006004  0.750000  1
  Zr  Zr1  1  0.995243  0.671639  0.250000  1
  Zr  Zr2  1  0.004789  0.328309  0.750000  1
  Sc  Sc3  1  0.671070  0.994293  0.250000  1
  Al  Al4  1  0.123047  0.123091  0.250000  1
  Al  Al5  1  0.873560  0.875446  0.750000  1
  Al  Al6  1  0.997009  0.334026  0.077141  1
  Al  Al7  1  0.000486  0.663525  0.924490  1
  Al  Al8  1  0.000486  0.663525  0.575510  1
  Al  Al9  1  0.335402  0.998764  0.420289  1
  Al  Al10  1  0.997009  0.334026  0.422859  1
  Al  Al11  1  0.666907  0.001179  0.575854  1
  Al  Al12  1  0.666907  0.001179  0.924146  1
  Al  Al13  1  0.335402  0.998764  0.079711  1
  Al  Al14  1  0.331557  0.333304  0.556960  1
  Al  Al15  1  0.668604  0.668882  0.441037  1
  Al  Al16  1  0.668604  0.668882  0.058963  1
  Al  Al17  1  0.331557  0.333304  0.943040  1
  Al  Al18  1  0.337234  0.552066  0.250000  1
  Al  Al19  1  0.664607  0.451355  0.750000  1
  Al  Al20  1  0.554994  0.341628  0.250000  1
  Al  Al21  1  0.446314  0.657233  0.750000  1
  Ir  Ir22  1  0.671983  0.327449  0.999277  1
  Ir  Ir23  1  0.327433  0.672602  0.000540  1
  Ir  Ir24  1  0.327433  0.672602  0.499460  1
  Ir  Ir25  1  0.671983  0.327449  0.500723  1
  Ir  Ir26  1  0.000528  0.999738  0.999855  1
  Ir  Ir27  1  0.000528  0.999738  0.500145  1
