# generated using pymatgen
data_Rb3SiPSe7
_symmetry_space_group_name_H-M   'P 1'
_cell_length_a   7.45248240
_cell_length_b   10.16557814
_cell_length_c   12.24436942
_cell_angle_alpha   101.92521803
_cell_angle_beta   89.92468714
_cell_angle_gamma   111.78972134
_symmetry_Int_Tables_number   1
_chemical_formula_structural   Rb3SiPSe7
_chemical_formula_sum   'Rb6 Si2 P2 Se14'
_cell_volume   839.84666465
_cell_formula_units_Z   2
loop_
 _symmetry_equiv_pos_site_id
 _symmetry_equiv_pos_as_xyz
  1  'x, y, z'
loop_
 _atom_site_type_symbol
 _atom_site_label
 _atom_site_symmetry_multiplicity
 _atom_site_fract_x
 _atom_site_fract_y
 _atom_site_fract_z
 _atom_site_occupancy
  Rb  Rb0  1  0.946592  0.484797  0.216224  1
  Rb  Rb1  1  0.053408  0.515203  0.783776  1
  Rb  Rb2  1  0.321146  0.129263  0.605232  1
  Rb  Rb3  1  0.678854  0.870737  0.394768  1
  Rb  Rb4  1  0.385900  0.188264  0.993645  1
  Rb  Rb5  1  0.614100  0.811736  0.006355  1
  Si  Si6  1  0.595692  0.561155  0.622740  1
  Si  Si7  1  0.404308  0.438845  0.377260  1
  P  P8  1  0.767598  0.068884  0.777764  1
  P  P9  1  0.232402  0.931116  0.222236  1
  Se  Se10  1  0.900437  0.221466  0.940019  1
  Se  Se11  1  0.099563  0.778534  0.059981  1
  Se  Se12  1  0.943882  0.928135  0.799628  1
  Se  Se13  1  0.056118  0.071865  0.200372  1
  Se  Se14  1  0.896177  0.751149  0.627739  1
  Se  Se15  1  0.103823  0.248851  0.372261  1
  Se  Se16  1  0.648809  0.400668  0.470602  1
  Se  Se17  1  0.351191  0.599332  0.529398  1
  Se  Se18  1  0.529475  0.490711  0.782123  1
  Se  Se19  1  0.470525  0.509289  0.217877  1
  Se  Se20  1  0.540479  0.063161  0.223814  1
  Se  Se21  1  0.459521  0.936839  0.776186  1
  Se  Se22  1  0.842681  0.161572  0.630267  1
  Se  Se23  1  0.157319  0.838428  0.369733  1
