# generated using pymatgen
data_Sm3Tl4
_symmetry_space_group_name_H-M   'P 1'
_cell_length_a   8.67962371
_cell_length_b   8.67962345
_cell_length_c   8.67962300
_cell_angle_alpha   113.77704319
_cell_angle_beta   113.77704965
_cell_angle_gamma   113.77704186
_symmetry_Int_Tables_number   1
_chemical_formula_structural   Sm3Tl4
_chemical_formula_sum   'Sm6 Tl8'
_cell_volume   403.75330908
_cell_formula_units_Z   2
loop_
 _symmetry_equiv_pos_site_id
 _symmetry_equiv_pos_as_xyz
  1  'x, y, z'
loop_
 _atom_site_type_symbol
 _atom_site_label
 _atom_site_symmetry_multiplicity
 _atom_site_fract_x
 _atom_site_fract_y
 _atom_site_fract_z
 _atom_site_occupancy
  Sm  Sm0  1  0.986978  0.599434  0.726496  1
  Sm  Sm1  1  0.726496  0.986978  0.599434  1
  Sm  Sm2  1  0.599434  0.726496  0.986978  1
  Sm  Sm3  1  0.013022  0.400566  0.273504  1
  Sm  Sm4  1  0.273504  0.013022  0.400566  1
  Sm  Sm5  1  0.400566  0.273504  0.013022  1
  Tl  Tl6  1  0.000000  0.000000  0.000000  1
  Tl  Tl7  1  0.500000  0.500000  0.500000  1
  Tl  Tl8  1  0.914852  0.757776  0.446911  1
  Tl  Tl9  1  0.446911  0.914852  0.757776  1
  Tl  Tl10  1  0.757776  0.446911  0.914852  1
  Tl  Tl11  1  0.085148  0.242224  0.553089  1
  Tl  Tl12  1  0.553089  0.085148  0.242224  1
  Tl  Tl13  1  0.242224  0.553089  0.085148  1
