# generated using pymatgen
data_Nd3Er3Ga2(SiRh3)4
_symmetry_space_group_name_H-M   'P 1'
_cell_length_a   5.62809900
_cell_length_b   5.62809677
_cell_length_c   15.24377600
_cell_angle_alpha   90.00000000
_cell_angle_beta   90.00000000
_cell_angle_gamma   119.99999547
_symmetry_Int_Tables_number   1
_chemical_formula_structural   Nd3Er3Ga2(SiRh3)4
_chemical_formula_sum   'Nd3 Er3 Ga2 Si4 Rh12'
_cell_volume   418.16385828
_cell_formula_units_Z   1
loop_
 _symmetry_equiv_pos_site_id
 _symmetry_equiv_pos_as_xyz
  1  'x, y, z'
loop_
 _atom_site_type_symbol
 _atom_site_label
 _atom_site_symmetry_multiplicity
 _atom_site_fract_x
 _atom_site_fract_y
 _atom_site_fract_z
 _atom_site_occupancy
  Nd  Nd0  1  0.333333  0.666667  0.538217  1
  Nd  Nd1  1  0.333333  0.666667  0.751414  1
  Nd  Nd2  1  0.666667  0.333333  0.248941  1
  Er  Er3  1  0.666667  0.333333  0.462237  1
  Er  Er4  1  0.666667  0.333333  0.035584  1
  Er  Er5  1  0.333333  0.666667  0.964998  1
  Ga  Ga6  1  0.000000  0.000000  0.000163  1
  Ga  Ga7  1  0.000000  0.000000  0.499433  1
  Si  Si8  1  0.000000  0.000000  0.248293  1
  Si  Si9  1  0.000000  0.000000  0.751535  1
  Si  Si10  1  0.333333  0.666667  0.249159  1
  Si  Si11  1  0.666667  0.333333  0.750867  1
  Rh  Rh12  1  0.168125  0.336251  0.132018  1
  Rh  Rh13  1  0.831789  0.663579  0.868184  1
  Rh  Rh14  1  0.663749  0.831875  0.132018  1
  Rh  Rh15  1  0.832290  0.664580  0.634097  1
  Rh  Rh16  1  0.336421  0.168211  0.868184  1
  Rh  Rh17  1  0.166949  0.333898  0.365420  1
  Rh  Rh18  1  0.168125  0.831875  0.132018  1
  Rh  Rh19  1  0.335420  0.167710  0.634097  1
  Rh  Rh20  1  0.831789  0.168211  0.868184  1
  Rh  Rh21  1  0.666102  0.833051  0.365420  1
  Rh  Rh22  1  0.832290  0.167710  0.634097  1
  Rh  Rh23  1  0.166949  0.833051  0.365420  1
