# generated using pymatgen
data_Er12TlNi3Ru2
_symmetry_space_group_name_H-M   'P 1'
_cell_length_a   8.32898956
_cell_length_b   8.32898921
_cell_length_c   8.32898800
_cell_angle_alpha   110.17232486
_cell_angle_beta   112.03863469
_cell_angle_gamma   106.25563195
_symmetry_Int_Tables_number   1
_chemical_formula_structural   Er12TlNi3Ru2
_chemical_formula_sum   'Er12 Tl1 Ni3 Ru2'
_cell_volume   443.62169445
_cell_formula_units_Z   1
loop_
 _symmetry_equiv_pos_site_id
 _symmetry_equiv_pos_as_xyz
  1  'x, y, z'
loop_
 _atom_site_type_symbol
 _atom_site_label
 _atom_site_symmetry_multiplicity
 _atom_site_fract_x
 _atom_site_fract_y
 _atom_site_fract_z
 _atom_site_occupancy
  Er  Er0  1  0.273773  0.181243  0.454820  1
  Er  Er1  1  0.722566  0.824104  0.546493  1
  Er  Er2  1  0.277610  0.824104  0.101538  1
  Er  Er3  1  0.726423  0.181243  0.907470  1
  Er  Er4  1  0.634854  0.322154  0.308783  1
  Er  Er5  1  0.365198  0.673898  0.687431  1
  Er  Er6  1  0.013373  0.322154  0.687300  1
  Er  Er7  1  0.986466  0.673898  0.308702  1
  Er  Er8  1  0.227742  0.412994  0.185253  1
  Er  Er9  1  0.776677  0.586932  0.810254  1
  Er  Er10  1  0.223434  0.033765  0.810332  1
  Er  Er11  1  0.772374  0.957556  0.185182  1
  Tl  Tl12  1  0.499908  0.497718  0.997811  1
  Ni  Ni13  1  0.000078  0.654627  0.654549  1
  Ni  Ni14  1  0.383366  0.886962  0.503597  1
  Ni  Ni15  1  0.615902  0.119738  0.503836  1
  Ru  Ru16  1  0.000017  0.347283  0.347266  1
  Ru  Ru17  1  0.000239  0.999626  0.999387  1
