# generated using pymatgen
data_LuHfZrPd9
_symmetry_space_group_name_H-M   'P 1'
_cell_length_a   4.05612100
_cell_length_b   4.05612100
_cell_length_c   12.18079900
_cell_angle_alpha   90.00000000
_cell_angle_beta   90.00000000
_cell_angle_gamma   90.00000000
_symmetry_Int_Tables_number   1
_chemical_formula_structural   LuHfZrPd9
_chemical_formula_sum   'Lu1 Hf1 Zr1 Pd9'
_cell_volume   200.39993720
_cell_formula_units_Z   1
loop_
 _symmetry_equiv_pos_site_id
 _symmetry_equiv_pos_as_xyz
  1  'x, y, z'
loop_
 _atom_site_type_symbol
 _atom_site_label
 _atom_site_symmetry_multiplicity
 _atom_site_fract_x
 _atom_site_fract_y
 _atom_site_fract_z
 _atom_site_occupancy
  Lu  Lu0  1  0.000000  0.000000  0.665711  1
  Hf  Hf1  1  0.000000  0.000000  0.333847  1
  Zr  Zr2  1  0.000000  0.000000  0.000378  1
  Pd  Pd3  1  0.500000  0.500000  0.004049  1
  Pd  Pd4  1  0.500000  0.500000  0.330261  1
  Pd  Pd5  1  0.500000  0.500000  0.665787  1
  Pd  Pd6  1  0.500000  0.000000  0.168327  1
  Pd  Pd7  1  0.500000  0.000000  0.492609  1
  Pd  Pd8  1  0.500000  0.000000  0.839049  1
  Pd  Pd9  1  0.000000  0.500000  0.168327  1
  Pd  Pd10  1  0.000000  0.500000  0.492609  1
  Pd  Pd11  1  0.000000  0.500000  0.839049  1
