# generated using pymatgen
data_Ta3Zn2AsRu6
_symmetry_space_group_name_H-M   'P 1'
_cell_length_a   4.39999100
_cell_length_b   6.19992000
_cell_length_c   13.12570100
_cell_angle_alpha   89.99890475
_cell_angle_beta   89.99974319
_cell_angle_gamma   90.00000000
_symmetry_Int_Tables_number   1
_chemical_formula_structural   Ta3Zn2AsRu6
_chemical_formula_sum   'Ta6 Zn4 As2 Ru12'
_cell_volume   358.06377059
_cell_formula_units_Z   2
loop_
 _symmetry_equiv_pos_site_id
 _symmetry_equiv_pos_as_xyz
  1  'x, y, z'
loop_
 _atom_site_type_symbol
 _atom_site_label
 _atom_site_symmetry_multiplicity
 _atom_site_fract_x
 _atom_site_fract_y
 _atom_site_fract_z
 _atom_site_occupancy
  Ta  Ta0  1  0.000004  0.500002  0.993800  1
  Ta  Ta1  1  0.499789  0.000010  0.172866  1
  Ta  Ta2  1  0.999804  0.499996  0.341283  1
  Ta  Ta3  1  0.499994  0.000003  0.501880  1
  Ta  Ta4  1  0.000197  0.500000  0.664803  1
  Ta  Ta5  1  0.500198  0.999994  0.825393  1
  Zn  Zn6  1  0.999763  0.999994  0.334047  1
  Zn  Zn7  1  0.499989  0.500003  0.500559  1
  Zn  Zn8  1  0.000226  0.000000  0.666139  1
  Zn  Zn9  1  0.500211  0.500000  0.832619  1
  As  As10  1  0.999987  0.999991  0.998413  1
  As  As11  1  0.499811  0.500024  0.168208  1
  Ru  Ru12  1  0.499994  0.250985  0.003549  1
  Ru  Ru13  1  0.499993  0.749014  0.003548  1
  Ru  Ru14  1  0.999818  0.249020  0.163115  1
  Ru  Ru15  1  0.999815  0.750988  0.163113  1
  Ru  Ru16  1  0.499788  0.253050  0.329310  1
  Ru  Ru17  1  0.499787  0.746947  0.329310  1
  Ru  Ru18  1  0.000006  0.249616  0.499138  1
  Ru  Ru19  1  0.999992  0.750378  0.499138  1
  Ru  Ru20  1  0.500217  0.250387  0.667509  1
  Ru  Ru21  1  0.500215  0.749613  0.667509  1
  Ru  Ru22  1  0.000201  0.246932  0.837378  1
  Ru  Ru23  1  0.000195  0.753052  0.837374  1
