# generated using pymatgen
data_Zr3Ga3Pd2Ru
_symmetry_space_group_name_H-M   'P 1'
_cell_length_a   7.38841000
_cell_length_b   7.38840885
_cell_length_c   6.70456700
_cell_angle_alpha   90.00000000
_cell_angle_beta   90.00000000
_cell_angle_gamma   119.99999621
_symmetry_Int_Tables_number   1
_chemical_formula_structural   Zr3Ga3Pd2Ru
_chemical_formula_sum   'Zr6 Ga6 Pd4 Ru2'
_cell_volume   316.95914783
_cell_formula_units_Z   2
loop_
 _symmetry_equiv_pos_site_id
 _symmetry_equiv_pos_as_xyz
  1  'x, y, z'
loop_
 _atom_site_type_symbol
 _atom_site_label
 _atom_site_symmetry_multiplicity
 _atom_site_fract_x
 _atom_site_fract_y
 _atom_site_fract_z
 _atom_site_occupancy
  Zr  Zr0  1  0.735006  0.053362  0.000000  1
  Zr  Zr1  1  0.318357  0.264994  0.000000  1
  Zr  Zr2  1  0.946638  0.681643  0.000000  1
  Zr  Zr3  1  0.320609  0.265280  0.500000  1
  Zr  Zr4  1  0.734720  0.055329  0.500000  1
  Zr  Zr5  1  0.944671  0.679391  0.500000  1
  Ga  Ga6  1  0.605752  0.662705  0.749864  1
  Ga  Ga7  1  0.056954  0.394248  0.749864  1
  Ga  Ga8  1  0.337295  0.943046  0.749864  1
  Ga  Ga9  1  0.605752  0.662705  0.250136  1
  Ga  Ga10  1  0.056954  0.394248  0.250136  1
  Ga  Ga11  1  0.337295  0.943046  0.250136  1
  Pd  Pd12  1  0.333333  0.666667  0.000000  1
  Pd  Pd13  1  0.333333  0.666667  0.500000  1
  Pd  Pd14  1  0.666667  0.333333  0.752943  1
  Pd  Pd15  1  0.666667  0.333333  0.247057  1
  Ru  Ru16  1  0.000000  0.000000  0.250736  1
  Ru  Ru17  1  0.000000  0.000000  0.749264  1
