# generated using pymatgen
data_Ho3CoNiSn3Ir
_symmetry_space_group_name_H-M   'P 1'
_cell_length_a   7.44568300
_cell_length_b   7.44568171
_cell_length_c   3.78971700
_cell_angle_alpha   90.00000000
_cell_angle_beta   90.00000000
_cell_angle_gamma   119.99999241
_symmetry_Int_Tables_number   1
_chemical_formula_structural   Ho3CoNiSn3Ir
_chemical_formula_sum   'Ho3 Co1 Ni1 Sn3 Ir1'
_cell_volume   181.94765129
_cell_formula_units_Z   1
loop_
 _symmetry_equiv_pos_site_id
 _symmetry_equiv_pos_as_xyz
  1  'x, y, z'
loop_
 _atom_site_type_symbol
 _atom_site_label
 _atom_site_symmetry_multiplicity
 _atom_site_fract_x
 _atom_site_fract_y
 _atom_site_fract_z
 _atom_site_occupancy
  Ho  Ho0  1  0.407816  0.402310  0.500000  1
  Ho  Ho1  1  0.597690  0.005506  0.500000  1
  Ho  Ho2  1  0.994494  0.592184  0.500000  1
  Co  Co3  1  0.000000  0.000000  0.500000  1
  Ni  Ni4  1  0.333333  0.666667  0.000000  1
  Sn  Sn5  1  0.741205  0.747903  0.000000  1
  Sn  Sn6  1  0.252097  0.993302  0.000000  1
  Sn  Sn7  1  0.006698  0.258795  0.000000  1
  Ir  Ir8  1  0.666667  0.333333  0.000000  1
