# generated using pymatgen
data_YHo9(GaCo5)2
_symmetry_space_group_name_H-M   'P 1'
_cell_length_a   5.45984056
_cell_length_b   5.45983904
_cell_length_c   20.50032204
_cell_angle_alpha   90.04674936
_cell_angle_beta   89.95325090
_cell_angle_gamma   136.75375423
_symmetry_Int_Tables_number   1
_chemical_formula_structural   YHo9(GaCo5)2
_chemical_formula_sum   'Y1 Ho9 Ga2 Co10'
_cell_volume   418.69390340
_cell_formula_units_Z   1
loop_
 _symmetry_equiv_pos_site_id
 _symmetry_equiv_pos_as_xyz
  1  'x, y, z'
loop_
 _atom_site_type_symbol
 _atom_site_label
 _atom_site_symmetry_multiplicity
 _atom_site_fract_x
 _atom_site_fract_y
 _atom_site_fract_z
 _atom_site_occupancy
  Y  Y0  1  0.292213  0.707787  0.434204  1
  Ho  Ho1  1  0.288871  0.711129  0.249468  1
  Ho  Ho2  1  0.291555  0.708445  0.065799  1
  Ho  Ho3  1  0.997391  0.002609  0.843028  1
  Ho  Ho4  1  0.711047  0.288953  0.750275  1
  Ho  Ho5  1  0.708424  0.291576  0.566453  1
  Ho  Ho6  1  0.002690  0.997310  0.342269  1
  Ho  Ho7  1  0.997712  0.002288  0.657496  1
  Ho  Ho8  1  0.708387  0.291613  0.934231  1
  Ho  Ho9  1  0.002457  0.997543  0.156911  1
  Ga  Ga10  1  0.000622  0.999378  0.500257  1
  Ga  Ga11  1  0.999991  0.000009  0.000005  1
  Co  Co12  1  0.294253  0.705747  0.654772  1
  Co  Co13  1  0.582574  0.417426  0.441303  1
  Co  Co14  1  0.413622  0.586378  0.750158  1
  Co  Co15  1  0.417369  0.582631  0.941438  1
  Co  Co16  1  0.585361  0.414639  0.249386  1
  Co  Co17  1  0.418580  0.581420  0.559619  1
  Co  Co18  1  0.704228  0.295772  0.344599  1
  Co  Co19  1  0.706008  0.293992  0.154277  1
  Co  Co20  1  0.582577  0.417423  0.058430  1
  Co  Co21  1  0.294068  0.705932  0.845623  1
