# generated using pymatgen
data_LaHg4S2Cl5
_symmetry_space_group_name_H-M   'P 1'
_cell_length_a   8.35149877
_cell_length_b   10.97224200
_cell_length_c   9.12113874
_cell_angle_alpha   90.00000000
_cell_angle_beta   113.51877522
_cell_angle_gamma   90.00000000
_symmetry_Int_Tables_number   1
_chemical_formula_structural   LaHg4S2Cl5
_chemical_formula_sum   'La2 Hg8 S4 Cl10'
_cell_volume   766.38101838
_cell_formula_units_Z   2
loop_
 _symmetry_equiv_pos_site_id
 _symmetry_equiv_pos_as_xyz
  1  'x, y, z'
loop_
 _atom_site_type_symbol
 _atom_site_label
 _atom_site_symmetry_multiplicity
 _atom_site_fract_x
 _atom_site_fract_y
 _atom_site_fract_z
 _atom_site_occupancy
  La  La0  1  0.503859  0.433575  0.509766  1
  La  La1  1  0.496141  0.933575  0.490234  1
  Hg  Hg2  1  0.923721  0.185005  0.329014  1
  Hg  Hg3  1  0.076279  0.685005  0.670986  1
  Hg  Hg4  1  0.947126  0.665171  0.356585  1
  Hg  Hg5  1  0.052874  0.165171  0.643415  1
  Hg  Hg6  1  0.497611  0.181313  0.987042  1
  Hg  Hg7  1  0.502389  0.681313  0.012958  1
  Hg  Hg8  1  0.803381  0.431698  0.023139  1
  Hg  Hg9  1  0.196619  0.931698  0.976861  1
  S  S10  1  0.799714  0.207821  0.029903  1
  S  S11  1  0.200286  0.707821  0.970097  1
  S  S12  1  0.196184  0.153735  0.942749  1
  S  S13  1  0.803816  0.653735  0.057251  1
  Cl  Cl14  1  0.848083  0.924300  0.691119  1
  Cl  Cl15  1  0.151917  0.424300  0.308881  1
  Cl  Cl16  1  0.856599  0.438254  0.717158  1
  Cl  Cl17  1  0.143401  0.938254  0.282842  1
  Cl  Cl18  1  0.405663  0.456767  0.769883  1
  Cl  Cl19  1  0.594337  0.956767  0.230117  1
  Cl  Cl20  1  0.595644  0.394374  0.255200  1
  Cl  Cl21  1  0.404356  0.894374  0.744800  1
  Cl  Cl22  1  0.497428  0.181587  0.568899  1
  Cl  Cl23  1  0.502572  0.681587  0.431101  1
