# generated using pymatgen
data_Pr3Si2Ir3
_symmetry_space_group_name_H-M   'P 1'
_cell_length_a   5.76897900
_cell_length_b   7.79875100
_cell_length_c   15.10838400
_cell_angle_alpha   90.00000000
_cell_angle_beta   90.00000000
_cell_angle_gamma   90.00000000
_symmetry_Int_Tables_number   1
_chemical_formula_structural   Pr3Si2Ir3
_chemical_formula_sum   'Pr12 Si8 Ir12'
_cell_volume   679.73874738
_cell_formula_units_Z   4
loop_
 _symmetry_equiv_pos_site_id
 _symmetry_equiv_pos_as_xyz
  1  'x, y, z'
loop_
 _atom_site_type_symbol
 _atom_site_label
 _atom_site_symmetry_multiplicity
 _atom_site_fract_x
 _atom_site_fract_y
 _atom_site_fract_z
 _atom_site_occupancy
  Pr  Pr0  1  0.135518  0.475101  0.890692  1
  Pr  Pr1  1  0.364482  0.975101  0.890692  1
  Pr  Pr2  1  0.600858  0.330905  0.750000  1
  Pr  Pr3  1  0.399142  0.669095  0.250000  1
  Pr  Pr4  1  0.635518  0.024899  0.390692  1
  Pr  Pr5  1  0.864482  0.524899  0.109308  1
  Pr  Pr6  1  0.864482  0.524899  0.390692  1
  Pr  Pr7  1  0.364482  0.975101  0.609308  1
  Pr  Pr8  1  0.899142  0.830905  0.750000  1
  Pr  Pr9  1  0.135518  0.475101  0.609308  1
  Pr  Pr10  1  0.635518  0.024899  0.109308  1
  Pr  Pr11  1  0.100858  0.169095  0.250000  1
  Si  Si12  1  0.373885  0.371403  0.097949  1
  Si  Si13  1  0.626115  0.628597  0.902051  1
  Si  Si14  1  0.873885  0.128597  0.902051  1
  Si  Si15  1  0.373885  0.371403  0.402051  1
  Si  Si16  1  0.873885  0.128597  0.597949  1
  Si  Si17  1  0.626115  0.628597  0.597949  1
  Si  Si18  1  0.126115  0.871403  0.402051  1
  Si  Si19  1  0.126115  0.871403  0.097949  1
  Ir  Ir20  1  0.606203  0.337962  0.960425  1
  Ir  Ir21  1  0.393797  0.662038  0.039575  1
  Ir  Ir22  1  0.569246  0.320271  0.250000  1
  Ir  Ir23  1  0.393797  0.662038  0.460425  1
  Ir  Ir24  1  0.069246  0.179729  0.750000  1
  Ir  Ir25  1  0.106203  0.162038  0.460425  1
  Ir  Ir26  1  0.430754  0.679729  0.750000  1
  Ir  Ir27  1  0.930754  0.820271  0.250000  1
  Ir  Ir28  1  0.106203  0.162038  0.039575  1
  Ir  Ir29  1  0.606203  0.337962  0.539575  1
  Ir  Ir30  1  0.893797  0.837962  0.539575  1
  Ir  Ir31  1  0.893797  0.837962  0.960425  1
