# generated using pymatgen
data_CeLuB6Ru
_symmetry_space_group_name_H-M   'P 1'
_cell_length_a   3.67133800
_cell_length_b   9.12194600
_cell_length_c   11.50427100
_cell_angle_alpha   90.00000000
_cell_angle_beta   90.00000000
_cell_angle_gamma   90.00000000
_symmetry_Int_Tables_number   1
_chemical_formula_structural   CeLuB6Ru
_chemical_formula_sum   'Ce4 Lu4 B24 Ru4'
_cell_volume   385.27512502
_cell_formula_units_Z   4
loop_
 _symmetry_equiv_pos_site_id
 _symmetry_equiv_pos_as_xyz
  1  'x, y, z'
loop_
 _atom_site_type_symbol
 _atom_site_label
 _atom_site_symmetry_multiplicity
 _atom_site_fract_x
 _atom_site_fract_y
 _atom_site_fract_z
 _atom_site_occupancy
  Ce  Ce0  1  0.000000  0.322158  0.413956  1
  Ce  Ce1  1  0.000000  0.677842  0.586044  1
  Ce  Ce2  1  0.000000  0.822158  0.086044  1
  Ce  Ce3  1  0.000000  0.177842  0.913956  1
  Lu  Lu4  1  0.000000  0.944260  0.373575  1
  Lu  Lu5  1  0.000000  0.055740  0.626425  1
  Lu  Lu6  1  0.000000  0.444260  0.126425  1
  Lu  Lu7  1  0.000000  0.555740  0.873575  1
  B  B8  1  0.500000  0.554618  0.432159  1
  B  B9  1  0.500000  0.445382  0.567841  1
  B  B10  1  0.500000  0.054618  0.067841  1
  B  B11  1  0.500000  0.945382  0.932159  1
  B  B12  1  0.500000  0.750596  0.418644  1
  B  B13  1  0.500000  0.249404  0.581356  1
  B  B14  1  0.500000  0.250596  0.081356  1
  B  B15  1  0.500000  0.749404  0.918644  1
  B  B16  1  0.500000  0.792207  0.266121  1
  B  B17  1  0.500000  0.207793  0.733879  1
  B  B18  1  0.500000  0.292207  0.233879  1
  B  B19  1  0.500000  0.707793  0.766121  1
  B  B20  1  0.500000  0.630704  0.184201  1
  B  B21  1  0.500000  0.369296  0.815799  1
  B  B22  1  0.500000  0.130704  0.315799  1
  B  B23  1  0.500000  0.869296  0.684201  1
  B  B24  1  0.500000  0.983604  0.214240  1
  B  B25  1  0.500000  0.016396  0.785760  1
  B  B26  1  0.500000  0.483604  0.285760  1
  B  B27  1  0.500000  0.516396  0.714240  1
  B  B28  1  0.500000  0.603751  0.028382  1
  B  B29  1  0.500000  0.396249  0.971618  1
  B  B30  1  0.500000  0.103751  0.471618  1
  B  B31  1  0.500000  0.896249  0.528382  1
  Ru  Ru32  1  0.000000  0.639332  0.319710  1
  Ru  Ru33  1  0.000000  0.360668  0.680290  1
  Ru  Ru34  1  0.000000  0.139332  0.180290  1
  Ru  Ru35  1  0.000000  0.860668  0.819710  1
