# generated using pymatgen
data_HfZr9Si2(SnSb)3
_symmetry_space_group_name_H-M   'P 1'
_cell_length_a   8.68242000
_cell_length_b   8.68241925
_cell_length_c   5.85307500
_cell_angle_alpha   90.00000000
_cell_angle_beta   90.00000000
_cell_angle_gamma   119.99999523
_symmetry_Int_Tables_number   1
_chemical_formula_structural   HfZr9Si2(SnSb)3
_chemical_formula_sum   'Hf1 Zr9 Si2 Sn3 Sb3'
_cell_volume   382.11693456
_cell_formula_units_Z   1
loop_
 _symmetry_equiv_pos_site_id
 _symmetry_equiv_pos_as_xyz
  1  'x, y, z'
loop_
 _atom_site_type_symbol
 _atom_site_label
 _atom_site_symmetry_multiplicity
 _atom_site_fract_x
 _atom_site_fract_y
 _atom_site_fract_z
 _atom_site_occupancy
  Hf  Hf0  1  0.666667  0.333333  0.997121  1
  Zr  Zr1  1  0.735960  0.735890  0.750233  1
  Zr  Zr2  1  0.264110  0.000070  0.750233  1
  Zr  Zr3  1  0.999930  0.264040  0.750233  1
  Zr  Zr4  1  0.254748  0.254530  0.250034  1
  Zr  Zr5  1  0.745470  0.000217  0.250034  1
  Zr  Zr6  1  0.999783  0.745252  0.250034  1
  Zr  Zr7  1  0.333333  0.666667  0.998296  1
  Zr  Zr8  1  0.333333  0.666667  0.501858  1
  Zr  Zr9  1  0.666667  0.333333  0.501392  1
  Si  Si10  1  0.000000  0.000000  0.990338  1
  Si  Si11  1  0.000000  0.000000  0.509824  1
  Sn  Sn12  1  0.391356  0.390700  0.750937  1
  Sn  Sn13  1  0.609300  0.000656  0.750937  1
  Sn  Sn14  1  0.999344  0.608644  0.750937  1
  Sb  Sb15  1  0.601741  0.601033  0.249186  1
  Sb  Sb16  1  0.398967  0.000709  0.249186  1
  Sb  Sb17  1  0.999291  0.398259  0.249186  1
