# generated using pymatgen
data_Ca3Pu2(NiO6)2
_symmetry_space_group_name_H-M   'P 1'
_cell_length_a   5.54734464
_cell_length_b   5.68090024
_cell_length_c   7.88697922
_cell_angle_alpha   89.56181628
_cell_angle_beta   90.61299751
_cell_angle_gamma   89.54123876
_symmetry_Int_Tables_number   1
_chemical_formula_structural   Ca3Pu2(NiO6)2
_chemical_formula_sum   'Ca3 Pu2 Ni2 O12'
_cell_volume   248.51994039
_cell_formula_units_Z   1
loop_
 _symmetry_equiv_pos_site_id
 _symmetry_equiv_pos_as_xyz
  1  'x, y, z'
loop_
 _atom_site_type_symbol
 _atom_site_label
 _atom_site_symmetry_multiplicity
 _atom_site_fract_x
 _atom_site_fract_y
 _atom_site_fract_z
 _atom_site_occupancy
  Ca  Ca0  1  0.991350  0.951277  0.751106  1
  Ca  Ca1  1  0.516995  0.442439  0.743864  1
  Ca  Ca2  1  0.012866  0.052970  0.245271  1
  Pu  Pu3  1  0.498797  0.989685  0.004271  1
  Pu  Pu4  1  0.001742  0.504922  0.495908  1
  Ni  Ni5  1  0.001051  0.500313  0.003149  1
  Ni  Ni6  1  0.500669  0.993353  0.494501  1
  O  O7  1  0.921100  0.473351  0.253938  1
  O  O8  1  0.597858  0.969973  0.246203  1
  O  O9  1  0.100727  0.525296  0.746327  1
  O  O10  1  0.408877  0.029088  0.754264  1
  O  O11  1  0.294880  0.269323  0.046429  1
  O  O12  1  0.182983  0.811642  0.462233  1
  O  O13  1  0.704223  0.712739  0.936791  1
  O  O14  1  0.797046  0.212277  0.551837  1
  O  O15  1  0.792937  0.198451  0.953480  1
  O  O16  1  0.716447  0.707944  0.559239  1
  O  O17  1  0.189735  0.806575  0.035238  1
  O  O18  1  0.282555  0.295121  0.463184  1
