# generated using pymatgen
data_AcAl5Pt3
_symmetry_space_group_name_H-M   'P 1'
_cell_length_a   4.20533900
_cell_length_b   7.48508000
_cell_length_c   20.99106600
_cell_angle_alpha   90.00000000
_cell_angle_beta   90.00000000
_cell_angle_gamma   90.00000000
_symmetry_Int_Tables_number   1
_chemical_formula_structural   AcAl5Pt3
_chemical_formula_sum   'Ac4 Al20 Pt12'
_cell_volume   660.74205750
_cell_formula_units_Z   4
loop_
 _symmetry_equiv_pos_site_id
 _symmetry_equiv_pos_as_xyz
  1  'x, y, z'
loop_
 _atom_site_type_symbol
 _atom_site_label
 _atom_site_symmetry_multiplicity
 _atom_site_fract_x
 _atom_site_fract_y
 _atom_site_fract_z
 _atom_site_occupancy
  Ac  Ac0  1  0.250000  0.117630  0.639970  1
  Ac  Ac1  1  0.750000  0.882370  0.360030  1
  Ac  Ac2  1  0.250000  0.382370  0.139970  1
  Ac  Ac3  1  0.750000  0.617630  0.860030  1
  Al  Al4  1  0.750000  0.357286  0.383281  1
  Al  Al5  1  0.750000  0.888727  0.983397  1
  Al  Al6  1  0.750000  0.690597  0.200962  1
  Al  Al7  1  0.250000  0.868147  0.492792  1
  Al  Al8  1  0.250000  0.631853  0.992792  1
  Al  Al9  1  0.250000  0.309403  0.799038  1
  Al  Al10  1  0.750000  0.073739  0.208671  1
  Al  Al11  1  0.250000  0.642714  0.616719  1
  Al  Al12  1  0.250000  0.573739  0.291329  1
  Al  Al13  1  0.250000  0.190597  0.299038  1
  Al  Al14  1  0.750000  0.142714  0.883281  1
  Al  Al15  1  0.250000  0.926261  0.791329  1
  Al  Al16  1  0.750000  0.368147  0.007208  1
  Al  Al17  1  0.750000  0.611273  0.483397  1
  Al  Al18  1  0.750000  0.131853  0.507208  1
  Al  Al19  1  0.250000  0.111273  0.016603  1
  Al  Al20  1  0.250000  0.857286  0.116719  1
  Al  Al21  1  0.250000  0.388727  0.516603  1
  Al  Al22  1  0.750000  0.426261  0.708671  1
  Al  Al23  1  0.750000  0.809403  0.700962  1
  Pt  Pt24  1  0.750000  0.383797  0.263631  1
  Pt  Pt25  1  0.250000  0.883797  0.236369  1
  Pt  Pt26  1  0.250000  0.616203  0.736369  1
  Pt  Pt27  1  0.750000  0.116203  0.763631  1
  Pt  Pt28  1  0.250000  0.163882  0.428880  1
  Pt  Pt29  1  0.750000  0.423727  0.583691  1
  Pt  Pt30  1  0.750000  0.076273  0.083691  1
  Pt  Pt31  1  0.250000  0.923727  0.916309  1
  Pt  Pt32  1  0.750000  0.836118  0.571120  1
  Pt  Pt33  1  0.250000  0.336118  0.928880  1
  Pt  Pt34  1  0.750000  0.663882  0.071120  1
  Pt  Pt35  1  0.250000  0.576273  0.416309  1
