# generated using pymatgen
data_Pr4In3Au10
_symmetry_space_group_name_H-M   'P 1'
_cell_length_a   8.82130922
_cell_length_b   8.82135641
_cell_length_c   10.44951000
_cell_angle_alpha   90.00000000
_cell_angle_beta   90.00000000
_cell_angle_gamma   108.56889298
_symmetry_Int_Tables_number   1
_chemical_formula_structural   Pr4In3Au10
_chemical_formula_sum   'Pr8 In6 Au20'
_cell_volume   770.80735497
_cell_formula_units_Z   2
loop_
 _symmetry_equiv_pos_site_id
 _symmetry_equiv_pos_as_xyz
  1  'x, y, z'
loop_
 _atom_site_type_symbol
 _atom_site_label
 _atom_site_symmetry_multiplicity
 _atom_site_fract_x
 _atom_site_fract_y
 _atom_site_fract_z
 _atom_site_occupancy
  Pr  Pr0  1  0.701895  0.298104  0.000000  1
  Pr  Pr1  1  0.201895  0.798104  0.500000  1
  Pr  Pr2  1  0.800825  0.800833  0.297757  1
  Pr  Pr3  1  0.300825  0.300833  0.202243  1
  Pr  Pr4  1  0.798105  0.201896  0.500000  1
  Pr  Pr5  1  0.298105  0.701896  0.000000  1
  Pr  Pr6  1  0.699175  0.699167  0.797757  1
  Pr  Pr7  1  0.199175  0.199167  0.702243  1
  In  In8  1  0.517397  0.017399  0.250000  1
  In  In9  1  0.982603  0.482601  0.750000  1
  In  In10  1  0.000000  0.000000  0.000000  1
  In  In11  1  0.017397  0.517399  0.250000  1
  In  In12  1  0.482603  0.982601  0.750000  1
  In  In13  1  0.500000  0.500000  0.500000  1
  Au  Au14  1  0.159979  0.429310  0.475057  1
  Au  Au15  1  0.905685  0.905686  0.595521  1
  Au  Au16  1  0.570691  0.840020  0.524945  1
  Au  Au17  1  0.893047  0.170722  0.210286  1
  Au  Au18  1  0.393047  0.670722  0.289714  1
  Au  Au19  1  0.670720  0.393047  0.289712  1
  Au  Au20  1  0.405685  0.405686  0.904479  1
  Au  Au21  1  0.929309  0.659980  0.024945  1
  Au  Au22  1  0.329280  0.606953  0.710288  1
  Au  Au23  1  0.340021  0.070690  0.975057  1
  Au  Au24  1  0.594315  0.594314  0.095521  1
  Au  Au25  1  0.659979  0.929310  0.024943  1
  Au  Au26  1  0.094315  0.094314  0.404479  1
  Au  Au27  1  0.606953  0.329278  0.710286  1
  Au  Au28  1  0.106953  0.829278  0.789714  1
  Au  Au29  1  0.070691  0.340020  0.975055  1
  Au  Au30  1  0.840021  0.570690  0.524943  1
  Au  Au31  1  0.170720  0.893047  0.210288  1
  Au  Au32  1  0.429309  0.159980  0.475055  1
  Au  Au33  1  0.829280  0.106953  0.789712  1
