# generated using pymatgen
data_Nd3Er2P12Ru19
_symmetry_space_group_name_H-M   'P 1'
_cell_length_a   12.58009100
_cell_length_b   12.58009128
_cell_length_c   4.00225500
_cell_angle_alpha   90.00000000
_cell_angle_beta   90.00000000
_cell_angle_gamma   119.99999663
_symmetry_Int_Tables_number   1
_chemical_formula_structural   Nd3Er2P12Ru19
_chemical_formula_sum   'Nd3 Er2 P12 Ru19'
_cell_volume   548.53327434
_cell_formula_units_Z   1
loop_
 _symmetry_equiv_pos_site_id
 _symmetry_equiv_pos_as_xyz
  1  'x, y, z'
loop_
 _atom_site_type_symbol
 _atom_site_label
 _atom_site_symmetry_multiplicity
 _atom_site_fract_x
 _atom_site_fract_y
 _atom_site_fract_z
 _atom_site_occupancy
  Nd  Nd0  1  0.000000  0.183928  0.500000  1
  Nd  Nd1  1  0.816072  0.816072  0.500000  1
  Nd  Nd2  1  0.183928  0.000000  0.500000  1
  Er  Er3  1  0.666667  0.333333  0.000000  1
  Er  Er4  1  0.333333  0.666667  0.000000  1
  P  P5  1  0.000000  0.812011  0.000000  1
  P  P6  1  0.187989  0.187989  0.000000  1
  P  P7  1  0.812011  0.000000  0.000000  1
  P  P8  1  0.694677  0.173603  0.500000  1
  P  P9  1  0.826397  0.521074  0.500000  1
  P  P10  1  0.478926  0.305323  0.500000  1
  P  P11  1  0.173603  0.694677  0.500000  1
  P  P12  1  0.521074  0.826397  0.500000  1
  P  P13  1  0.305323  0.478926  0.500000  1
  P  P14  1  0.000000  0.373899  0.000000  1
  P  P15  1  0.626101  0.626101  0.000000  1
  P  P16  1  0.373899  0.000000  0.000000  1
  Ru  Ru17  1  0.000000  0.553905  0.000000  1
  Ru  Ru18  1  0.446095  0.446095  0.000000  1
  Ru  Ru19  1  0.553905  0.000000  0.000000  1
  Ru  Ru20  1  0.000000  0.713319  0.500000  1
  Ru  Ru21  1  0.286681  0.286681  0.500000  1
  Ru  Ru22  1  0.713319  0.000000  0.500000  1
  Ru  Ru23  1  0.804386  0.185358  0.000000  1
  Ru  Ru24  1  0.814642  0.619028  0.000000  1
  Ru  Ru25  1  0.380972  0.195614  0.000000  1
  Ru  Ru26  1  0.185358  0.804386  0.000000  1
  Ru  Ru27  1  0.619028  0.814642  0.000000  1
  Ru  Ru28  1  0.195614  0.380972  0.000000  1
  Ru  Ru29  1  0.873935  0.367412  0.500000  1
  Ru  Ru30  1  0.632588  0.506523  0.500000  1
  Ru  Ru31  1  0.493477  0.126065  0.500000  1
  Ru  Ru32  1  0.367412  0.873935  0.500000  1
  Ru  Ru33  1  0.506523  0.632588  0.500000  1
  Ru  Ru34  1  0.126065  0.493477  0.500000  1
  Ru  Ru35  1  0.000000  0.000000  0.000000  1
