# generated using pymatgen
data_Tb2YHo2(In2Pd)2
_symmetry_space_group_name_H-M   'P 1'
_cell_length_a   3.62714500
_cell_length_b   8.17286000
_cell_length_c   18.28179100
_cell_angle_alpha   90.00000000
_cell_angle_beta   90.00000000
_cell_angle_gamma   90.00000000
_symmetry_Int_Tables_number   1
_chemical_formula_structural   Tb2YHo2(In2Pd)2
_chemical_formula_sum   'Tb4 Y2 Ho4 In8 Pd4'
_cell_volume   541.94812331
_cell_formula_units_Z   2
loop_
 _symmetry_equiv_pos_site_id
 _symmetry_equiv_pos_as_xyz
  1  'x, y, z'
loop_
 _atom_site_type_symbol
 _atom_site_label
 _atom_site_symmetry_multiplicity
 _atom_site_fract_x
 _atom_site_fract_y
 _atom_site_fract_z
 _atom_site_occupancy
  Tb  Tb0  1  0.000000  0.739094  0.280814  1
  Tb  Tb1  1  0.000000  0.260906  0.719186  1
  Tb  Tb2  1  0.000000  0.760906  0.780814  1
  Tb  Tb3  1  0.000000  0.239094  0.219186  1
  Y  Y4  1  0.000000  0.500000  0.500000  1
  Y  Y5  1  0.000000  0.000000  0.000000  1
  Ho  Ho6  1  0.000000  0.617273  0.083415  1
  Ho  Ho7  1  0.000000  0.382727  0.916585  1
  Ho  Ho8  1  0.000000  0.882727  0.583415  1
  Ho  Ho9  1  0.000000  0.117273  0.416585  1
  In  In10  1  0.500000  0.707517  0.932640  1
  In  In11  1  0.500000  0.292483  0.067360  1
  In  In12  1  0.500000  0.792483  0.432640  1
  In  In13  1  0.500000  0.207517  0.567360  1
  In  In14  1  0.500000  0.581017  0.650039  1
  In  In15  1  0.500000  0.418983  0.349961  1
  In  In16  1  0.500000  0.918983  0.150039  1
  In  In17  1  0.500000  0.081017  0.849961  1
  Pd  Pd18  1  0.500000  0.523168  0.195409  1
  Pd  Pd19  1  0.500000  0.476832  0.804591  1
  Pd  Pd20  1  0.500000  0.976832  0.695409  1
  Pd  Pd21  1  0.500000  0.023168  0.304591  1
