# generated using pymatgen
data_Na4PuZrSe6
_symmetry_space_group_name_H-M   'P 1'
_cell_length_a   7.12569142
_cell_length_b   7.12569055
_cell_length_c   7.32046388
_cell_angle_alpha   80.58655960
_cell_angle_beta   99.41343636
_cell_angle_gamma   60.10534441
_symmetry_Int_Tables_number   1
_chemical_formula_structural   Na4PuZrSe6
_chemical_formula_sum   'Na4 Pu1 Zr1 Se6'
_cell_volume   304.57244755
_cell_formula_units_Z   1
loop_
 _symmetry_equiv_pos_site_id
 _symmetry_equiv_pos_as_xyz
  1  'x, y, z'
loop_
 _atom_site_type_symbol
 _atom_site_label
 _atom_site_symmetry_multiplicity
 _atom_site_fract_x
 _atom_site_fract_y
 _atom_site_fract_z
 _atom_site_occupancy
  Na  Na0  1  0.500156  0.500156  0.500000  1
  Na  Na1  1  0.158364  0.158364  0.500000  1
  Na  Na2  1  0.841032  0.841032  0.500000  1
  Na  Na3  1  0.999961  0.999961  0.000000  1
  Pu  Pu4  1  0.667566  0.667566  0.000000  1
  Zr  Zr5  1  0.331501  0.331501  0.000000  1
  Se  Se6  1  0.934481  0.429257  0.772137  1
  Se  Se7  1  0.429257  0.934481  0.227863  1
  Se  Se8  1  0.086798  0.560435  0.227141  1
  Se  Se9  1  0.560435  0.086798  0.772859  1
  Se  Se10  1  0.276920  0.713525  0.773121  1
  Se  Se11  1  0.713524  0.276921  0.226878  1
