# generated using pymatgen
data_Nb6Zn6CN
_symmetry_space_group_name_H-M   'P 1'
_cell_length_a   8.33545318
_cell_length_b   8.33545249
_cell_length_c   8.31273300
_cell_angle_alpha   60.09012669
_cell_angle_beta   60.09012946
_cell_angle_gamma   60.21062364
_symmetry_Int_Tables_number   1
_chemical_formula_structural   Nb6Zn6CN
_chemical_formula_sum   'Nb12 Zn12 C2 N2'
_cell_volume   409.60565710
_cell_formula_units_Z   2
loop_
 _symmetry_equiv_pos_site_id
 _symmetry_equiv_pos_as_xyz
  1  'x, y, z'
loop_
 _atom_site_type_symbol
 _atom_site_label
 _atom_site_symmetry_multiplicity
 _atom_site_fract_x
 _atom_site_fract_y
 _atom_site_fract_z
 _atom_site_occupancy
  Nb  Nb0  1  0.678709  0.320664  0.319741  1
  Nb  Nb1  1  0.320664  0.678709  0.680886  1
  Nb  Nb2  1  0.320664  0.678709  0.319741  1
  Nb  Nb3  1  0.319071  0.319071  0.680929  1
  Nb  Nb4  1  0.678709  0.320664  0.680886  1
  Nb  Nb5  1  0.678387  0.678387  0.321613  1
  Nb  Nb6  1  0.929336  0.571291  0.930259  1
  Nb  Nb7  1  0.571291  0.929336  0.569114  1
  Nb  Nb8  1  0.571291  0.929336  0.930259  1
  Nb  Nb9  1  0.930929  0.930929  0.569071  1
  Nb  Nb10  1  0.929336  0.571291  0.569114  1
  Nb  Nb11  1  0.571613  0.571613  0.928387  1
  Zn  Zn12  1  0.125000  0.125000  0.125000  1
  Zn  Zn13  1  0.125000  0.125000  0.625000  1
  Zn  Zn14  1  0.625000  0.125000  0.125000  1
  Zn  Zn15  1  0.125000  0.625000  0.125000  1
  Zn  Zn16  1  0.917623  0.917623  0.917593  1
  Zn  Zn17  1  0.917623  0.917623  0.247164  1
  Zn  Zn18  1  0.246695  0.917989  0.917660  1
  Zn  Zn19  1  0.917989  0.246695  0.917660  1
  Zn  Zn20  1  0.332378  0.332378  0.332408  1
  Zn  Zn21  1  0.332378  0.332378  0.002836  1
  Zn  Zn22  1  0.332012  0.003305  0.332341  1
  Zn  Zn23  1  0.003305  0.332012  0.332341  1
  C  C24  1  0.124999  0.625001  0.625001  1
  C  C25  1  0.625001  0.124999  0.625001  1
  N  N26  1  0.625001  0.625001  0.625001  1
  N  N27  1  0.625001  0.625001  0.124999  1
