# generated using pymatgen
data_ErLu4(In2Co)2
_symmetry_space_group_name_H-M   'P 1'
_cell_length_a   3.50162300
_cell_length_b   7.84930000
_cell_length_c   17.77980200
_cell_angle_alpha   90.00000000
_cell_angle_beta   90.00000000
_cell_angle_gamma   90.00000000
_symmetry_Int_Tables_number   1
_chemical_formula_structural   ErLu4(In2Co)2
_chemical_formula_sum   'Er2 Lu8 In8 Co4'
_cell_volume   488.68300369
_cell_formula_units_Z   2
loop_
 _symmetry_equiv_pos_site_id
 _symmetry_equiv_pos_as_xyz
  1  'x, y, z'
loop_
 _atom_site_type_symbol
 _atom_site_label
 _atom_site_symmetry_multiplicity
 _atom_site_fract_x
 _atom_site_fract_y
 _atom_site_fract_z
 _atom_site_occupancy
  Er  Er0  1  0.000000  0.000000  0.000000  1
  Er  Er1  1  0.000000  0.500000  0.500000  1
  Lu  Lu2  1  0.000000  0.114937  0.409679  1
  Lu  Lu3  1  0.000000  0.885063  0.590321  1
  Lu  Lu4  1  0.000000  0.385063  0.909679  1
  Lu  Lu5  1  0.000000  0.614937  0.090321  1
  Lu  Lu6  1  0.000000  0.246104  0.221773  1
  Lu  Lu7  1  0.000000  0.753896  0.778227  1
  Lu  Lu8  1  0.000000  0.253896  0.721773  1
  Lu  Lu9  1  0.000000  0.746104  0.278227  1
  In  In10  1  0.500000  0.426404  0.348299  1
  In  In11  1  0.500000  0.573596  0.651701  1
  In  In12  1  0.500000  0.073596  0.848299  1
  In  In13  1  0.500000  0.926404  0.151701  1
  In  In14  1  0.500000  0.295875  0.068300  1
  In  In15  1  0.500000  0.704125  0.931700  1
  In  In16  1  0.500000  0.204125  0.568300  1
  In  In17  1  0.500000  0.795875  0.431700  1
  Co  Co18  1  0.500000  0.024104  0.303773  1
  Co  Co19  1  0.500000  0.975896  0.696227  1
  Co  Co20  1  0.500000  0.475896  0.803773  1
  Co  Co21  1  0.500000  0.524104  0.196227  1
