# generated using pymatgen
data_Y4Tm4Re(B8Ru)3
_symmetry_space_group_name_H-M   'P 1'
_cell_length_a   3.64761900
_cell_length_b   9.10960812
_cell_length_c   11.50548902
_cell_angle_alpha   90.11419706
_cell_angle_beta   90.00000000
_cell_angle_gamma   90.00000000
_symmetry_Int_Tables_number   1
_chemical_formula_structural   Y4Tm4Re(B8Ru)3
_chemical_formula_sum   'Y4 Tm4 Re1 B24 Ru3'
_cell_volume   382.30799790
_cell_formula_units_Z   1
loop_
 _symmetry_equiv_pos_site_id
 _symmetry_equiv_pos_as_xyz
  1  'x, y, z'
loop_
 _atom_site_type_symbol
 _atom_site_label
 _atom_site_symmetry_multiplicity
 _atom_site_fract_x
 _atom_site_fract_y
 _atom_site_fract_z
 _atom_site_occupancy
  Y  Y0  1  0.000000  0.322464  0.415002  1
  Y  Y1  1  0.000000  0.680436  0.587815  1
  Y  Y2  1  0.000000  0.821975  0.083667  1
  Y  Y3  1  0.000000  0.176913  0.913396  1
  Tm  Tm4  1  0.000000  0.943194  0.371202  1
  Tm  Tm5  1  0.000000  0.056368  0.627736  1
  Tm  Tm6  1  0.000000  0.442641  0.128467  1
  Tm  Tm7  1  0.000000  0.555983  0.872490  1
  Re  Re8  1  0.000000  0.861895  0.820500  1
  B  B9  1  0.500000  0.554389  0.432982  1
  B  B10  1  0.500000  0.445977  0.567381  1
  B  B11  1  0.500000  0.054081  0.067802  1
  B  B12  1  0.500000  0.946832  0.932934  1
  B  B13  1  0.500000  0.749325  0.419022  1
  B  B14  1  0.500000  0.251071  0.580695  1
  B  B15  1  0.500000  0.249039  0.081214  1
  B  B16  1  0.500000  0.750283  0.918935  1
  B  B17  1  0.500000  0.790751  0.265893  1
  B  B18  1  0.500000  0.208909  0.733096  1
  B  B19  1  0.500000  0.291220  0.234162  1
  B  B20  1  0.500000  0.707872  0.765954  1
  B  B21  1  0.500000  0.630170  0.184982  1
  B  B22  1  0.500000  0.369116  0.814667  1
  B  B23  1  0.500000  0.130952  0.315208  1
  B  B24  1  0.500000  0.869548  0.685057  1
  B  B25  1  0.500000  0.983171  0.213047  1
  B  B26  1  0.500000  0.018205  0.786737  1
  B  B27  1  0.500000  0.483049  0.287506  1
  B  B28  1  0.500000  0.516876  0.713142  1
  B  B29  1  0.500000  0.603319  0.029369  1
  B  B30  1  0.500000  0.394505  0.971491  1
  B  B31  1  0.500000  0.105218  0.470503  1
  B  B32  1  0.500000  0.895699  0.528071  1
  Ru  Ru33  1  0.000000  0.638316  0.320277  1
  Ru  Ru34  1  0.000000  0.361801  0.679306  1
  Ru  Ru35  1  0.000000  0.138436  0.180291  1
