# generated using pymatgen
data_Ce2Cd17Ru4
_symmetry_space_group_name_H-M   'P 1'
_cell_length_a   8.69743064
_cell_length_b   8.69743050
_cell_length_c   8.69743061
_cell_angle_alpha   107.01106082
_cell_angle_beta   110.71513403
_cell_angle_gamma   110.71512432
_symmetry_Int_Tables_number   1
_chemical_formula_structural   Ce2Cd17Ru4
_chemical_formula_sum   'Ce2 Cd17 Ru4'
_cell_volume   505.77030790
_cell_formula_units_Z   1
loop_
 _symmetry_equiv_pos_site_id
 _symmetry_equiv_pos_as_xyz
  1  'x, y, z'
loop_
 _atom_site_type_symbol
 _atom_site_label
 _atom_site_symmetry_multiplicity
 _atom_site_fract_x
 _atom_site_fract_y
 _atom_site_fract_z
 _atom_site_occupancy
  Ce  Ce0  1  0.000000  0.343660  0.343660  1
  Ce  Ce1  1  0.000000  0.656340  0.656340  1
  Cd  Cd2  1  0.000000  0.000000  0.000000  1
  Cd  Cd3  1  0.330422  0.500000  0.830422  1
  Cd  Cd4  1  0.669578  0.500000  0.169578  1
  Cd  Cd5  1  0.669578  0.169578  0.500000  1
  Cd  Cd6  1  0.330422  0.830422  0.500000  1
  Cd  Cd7  1  0.430753  0.148340  0.148340  1
  Cd  Cd8  1  0.569247  0.717586  0.717586  1
  Cd  Cd9  1  0.000000  0.851660  0.282414  1
  Cd  Cd10  1  0.000000  0.282414  0.851660  1
  Cd  Cd11  1  0.350183  0.239511  0.490101  1
  Cd  Cd12  1  0.649817  0.139918  0.889329  1
  Cd  Cd13  1  0.250588  0.760489  0.110671  1
  Cd  Cd14  1  0.749412  0.860082  0.509899  1
  Cd  Cd15  1  0.749412  0.509899  0.860082  1
  Cd  Cd16  1  0.250588  0.110671  0.760489  1
  Cd  Cd17  1  0.350183  0.490101  0.239511  1
  Cd  Cd18  1  0.649817  0.889329  0.139918  1
  Ru  Ru19  1  0.669743  0.502196  0.502196  1
  Ru  Ru20  1  0.330257  0.832453  0.832453  1
  Ru  Ru21  1  0.000000  0.497804  0.167547  1
  Ru  Ru22  1  0.000000  0.167547  0.497804  1
