# generated using pymatgen
data_Ta9(FeSe3)2
_symmetry_space_group_name_H-M   'P 1'
_cell_length_a   10.69593900
_cell_length_b   10.69593992
_cell_length_c   6.70417300
_cell_angle_alpha   90.00000000
_cell_angle_beta   90.00000000
_cell_angle_gamma   120.00048409
_symmetry_Int_Tables_number   1
_chemical_formula_structural   Ta9(FeSe3)2
_chemical_formula_sum   'Ta18 Fe4 Se12'
_cell_volume   664.21946415
_cell_formula_units_Z   2
loop_
 _symmetry_equiv_pos_site_id
 _symmetry_equiv_pos_as_xyz
  1  'x, y, z'
loop_
 _atom_site_type_symbol
 _atom_site_label
 _atom_site_symmetry_multiplicity
 _atom_site_fract_x
 _atom_site_fract_y
 _atom_site_fract_z
 _atom_site_occupancy
  Ta  Ta0  1  0.741131  0.222495  0.000000  1
  Ta  Ta1  1  0.481369  0.258879  0.000000  1
  Ta  Ta2  1  0.258879  0.481368  0.000000  1
  Ta  Ta3  1  0.777517  0.518644  0.000000  1
  Ta  Ta4  1  0.222495  0.741130  0.000000  1
  Ta  Ta5  1  0.518644  0.777517  0.000000  1
  Ta  Ta6  1  0.461311  0.000002  0.246693  1
  Ta  Ta7  1  0.000002  0.461311  0.246693  1
  Ta  Ta8  1  0.538696  0.538696  0.246696  1
  Ta  Ta9  1  0.728811  0.193127  0.500000  1
  Ta  Ta10  1  0.464315  0.271197  0.500000  1
  Ta  Ta11  1  0.271196  0.464314  0.500000  1
  Ta  Ta12  1  0.806883  0.535692  0.500000  1
  Ta  Ta13  1  0.193126  0.728811  0.500000  1
  Ta  Ta14  1  0.535692  0.806883  0.500000  1
  Ta  Ta15  1  0.538696  0.538696  0.753305  1
  Ta  Ta16  1  0.461311  0.000002  0.753307  1
  Ta  Ta17  1  0.000002  0.461311  0.753307  1
  Fe  Fe18  1  0.666672  0.333339  0.281257  1
  Fe  Fe19  1  0.333339  0.666672  0.281257  1
  Fe  Fe20  1  0.666672  0.333339  0.718742  1
  Fe  Fe21  1  0.333339  0.666672  0.718742  1
  Se  Se22  1  0.268844  0.000003  0.000000  1
  Se  Se23  1  0.000003  0.268844  0.000000  1
  Se  Se24  1  0.731167  0.731167  0.000000  1
  Se  Se25  1  0.709866  0.000006  0.233503  1
  Se  Se26  1  0.000006  0.709866  0.233503  1
  Se  Se27  1  0.290146  0.290146  0.233501  1
  Se  Se28  1  0.271398  0.000004  0.500000  1
  Se  Se29  1  0.000004  0.271397  0.500000  1
  Se  Se30  1  0.728612  0.728612  0.500000  1
  Se  Se31  1  0.290146  0.290146  0.766500  1
  Se  Se32  1  0.709866  0.000006  0.766496  1
  Se  Se33  1  0.000006  0.709866  0.766496  1
