# generated using pymatgen
data_Tb7(DyZn2)2
_symmetry_space_group_name_H-M   'P 1'
_cell_length_a   8.61685394
_cell_length_b   8.61686261
_cell_length_c   8.61832435
_cell_angle_alpha   94.97801887
_cell_angle_beta   94.95073632
_cell_angle_gamma   145.78132243
_symmetry_Int_Tables_number   1
_chemical_formula_structural   Tb7(DyZn2)2
_chemical_formula_sum   'Tb7 Dy2 Zn4'
_cell_volume   343.93700363
_cell_formula_units_Z   1
loop_
 _symmetry_equiv_pos_site_id
 _symmetry_equiv_pos_as_xyz
  1  'x, y, z'
loop_
 _atom_site_type_symbol
 _atom_site_label
 _atom_site_symmetry_multiplicity
 _atom_site_fract_x
 _atom_site_fract_y
 _atom_site_fract_z
 _atom_site_occupancy
  Tb  Tb0  1  0.181894  0.888048  0.069943  1
  Tb  Tb1  1  0.111907  0.181904  0.293814  1
  Tb  Tb2  1  0.881486  0.403184  0.284671  1
  Tb  Tb3  1  0.596795  0.881526  0.478322  1
  Tb  Tb4  1  0.403244  0.118516  0.521758  1
  Tb  Tb5  1  0.118544  0.596761  0.715306  1
  Tb  Tb6  1  0.888042  0.818149  0.706191  1
  Dy  Dy7  1  0.499965  0.500042  0.000010  1
  Dy  Dy8  1  0.818109  0.111932  0.930042  1
  Zn  Zn9  1  0.391038  0.734567  0.125606  1
  Zn  Zn10  1  0.734614  0.608940  0.343557  1
  Zn  Zn11  1  0.265381  0.391080  0.656460  1
  Zn  Zn12  1  0.608975  0.265342  0.874320  1
