# generated using pymatgen
data_TbDy3(Zn5Sn)2
_symmetry_space_group_name_H-M   'P 1'
_cell_length_a   8.37371940
_cell_length_b   8.37371956
_cell_length_c   9.00075347
_cell_angle_alpha   89.96435407
_cell_angle_beta   90.03564719
_cell_angle_gamma   149.74847518
_symmetry_Int_Tables_number   1
_chemical_formula_structural   TbDy3(Zn5Sn)2
_chemical_formula_sum   'Tb1 Dy3 Zn10 Sn2'
_cell_volume   317.95901325
_cell_formula_units_Z   1
loop_
 _symmetry_equiv_pos_site_id
 _symmetry_equiv_pos_as_xyz
  1  'x, y, z'
loop_
 _atom_site_type_symbol
 _atom_site_label
 _atom_site_symmetry_multiplicity
 _atom_site_fract_x
 _atom_site_fract_y
 _atom_site_fract_z
 _atom_site_occupancy
  Tb  Tb0  1  0.000000  0.000000  0.500000  1
  Dy  Dy1  1  0.202822  0.797178  0.249933  1
  Dy  Dy2  1  0.797178  0.202822  0.750067  1
  Dy  Dy3  1  0.000000  0.000000  0.000000  1
  Zn  Zn4  1  0.813197  0.186803  0.390926  1
  Zn  Zn5  1  0.186803  0.813197  0.609074  1
  Zn  Zn6  1  0.813274  0.186726  0.109147  1
  Zn  Zn7  1  0.186726  0.813274  0.890853  1
  Zn  Zn8  1  0.656141  0.343859  0.481488  1
  Zn  Zn9  1  0.343859  0.656141  0.518512  1
  Zn  Zn10  1  0.656098  0.343902  0.018461  1
  Zn  Zn11  1  0.343902  0.656098  0.981539  1
  Zn  Zn12  1  0.392073  0.607927  0.250003  1
  Zn  Zn13  1  0.607927  0.392073  0.749997  1
  Sn  Sn14  1  0.553501  0.446499  0.249760  1
  Sn  Sn15  1  0.446499  0.553501  0.750240  1
