# generated using pymatgen
data_NdHo4In2(HgPd)2
_symmetry_space_group_name_H-M   'P 1'
_cell_length_a   3.63905100
_cell_length_b   8.02179800
_cell_length_c   18.46891400
_cell_angle_alpha   90.00000000
_cell_angle_beta   90.00000000
_cell_angle_gamma   90.00000000
_symmetry_Int_Tables_number   1
_chemical_formula_structural   NdHo4In2(HgPd)2
_chemical_formula_sum   'Nd2 Ho8 In4 Hg4 Pd4'
_cell_volume   539.13958844
_cell_formula_units_Z   2
loop_
 _symmetry_equiv_pos_site_id
 _symmetry_equiv_pos_as_xyz
  1  'x, y, z'
loop_
 _atom_site_type_symbol
 _atom_site_label
 _atom_site_symmetry_multiplicity
 _atom_site_fract_x
 _atom_site_fract_y
 _atom_site_fract_z
 _atom_site_occupancy
  Nd  Nd0  1  0.000000  0.500000  0.500000  1
  Nd  Nd1  1  0.000000  0.000000  0.000000  1
  Ho  Ho2  1  0.000000  0.742686  0.283268  1
  Ho  Ho3  1  0.000000  0.257314  0.716732  1
  Ho  Ho4  1  0.000000  0.757314  0.783268  1
  Ho  Ho5  1  0.000000  0.242686  0.216732  1
  Ho  Ho6  1  0.000000  0.609261  0.084084  1
  Ho  Ho7  1  0.000000  0.390739  0.915916  1
  Ho  Ho8  1  0.000000  0.890739  0.584084  1
  Ho  Ho9  1  0.000000  0.109261  0.415916  1
  In  In10  1  0.500000  0.580829  0.651101  1
  In  In11  1  0.500000  0.419171  0.348899  1
  In  In12  1  0.500000  0.919171  0.151101  1
  In  In13  1  0.500000  0.080829  0.848899  1
  Hg  Hg14  1  0.500000  0.708317  0.931186  1
  Hg  Hg15  1  0.500000  0.291683  0.068814  1
  Hg  Hg16  1  0.500000  0.791683  0.431186  1
  Hg  Hg17  1  0.500000  0.208317  0.568814  1
  Pd  Pd18  1  0.500000  0.529571  0.197594  1
  Pd  Pd19  1  0.500000  0.470429  0.802406  1
  Pd  Pd20  1  0.500000  0.970429  0.697594  1
  Pd  Pd21  1  0.500000  0.029571  0.302406  1
