# generated using pymatgen
data_Cs4PbSe4
_symmetry_space_group_name_H-M   'P 1'
_cell_length_a   9.24918400
_cell_length_b   11.17216500
_cell_length_c   16.18787500
_cell_angle_alpha   90.00000000
_cell_angle_beta   90.00000000
_cell_angle_gamma   90.00000000
_symmetry_Int_Tables_number   1
_chemical_formula_structural   Cs4PbSe4
_chemical_formula_sum   'Cs16 Pb4 Se16'
_cell_volume   1672.74832057
_cell_formula_units_Z   4
loop_
 _symmetry_equiv_pos_site_id
 _symmetry_equiv_pos_as_xyz
  1  'x, y, z'
loop_
 _atom_site_type_symbol
 _atom_site_label
 _atom_site_symmetry_multiplicity
 _atom_site_fract_x
 _atom_site_fract_y
 _atom_site_fract_z
 _atom_site_occupancy
  Cs  Cs0  1  0.000000  0.000000  0.000000  1
  Cs  Cs1  1  0.500000  0.000000  0.500000  1
  Cs  Cs2  1  0.000000  0.500000  0.000000  1
  Cs  Cs3  1  0.500000  0.500000  0.500000  1
  Cs  Cs4  1  0.987552  0.750000  0.422690  1
  Cs  Cs5  1  0.487552  0.250000  0.077310  1
  Cs  Cs6  1  0.012448  0.250000  0.577310  1
  Cs  Cs7  1  0.512448  0.750000  0.922690  1
  Cs  Cs8  1  0.839101  0.050645  0.274018  1
  Cs  Cs9  1  0.339101  0.949355  0.225982  1
  Cs  Cs10  1  0.160899  0.550645  0.725982  1
  Cs  Cs11  1  0.660899  0.449355  0.774018  1
  Cs  Cs12  1  0.160899  0.949355  0.725982  1
  Cs  Cs13  1  0.660899  0.050645  0.774018  1
  Cs  Cs14  1  0.839101  0.449355  0.274018  1
  Cs  Cs15  1  0.339101  0.550645  0.225982  1
  Pb  Pb16  1  0.763720  0.750000  0.663785  1
  Pb  Pb17  1  0.236280  0.250000  0.336215  1
  Pb  Pb18  1  0.736280  0.750000  0.163785  1
  Pb  Pb19  1  0.263720  0.250000  0.836215  1
  Se  Se20  1  0.973510  0.250000  0.826948  1
  Se  Se21  1  0.526490  0.250000  0.326948  1
  Se  Se22  1  0.473510  0.750000  0.673052  1
  Se  Se23  1  0.026490  0.750000  0.173052  1
  Se  Se24  1  0.645310  0.554939  0.085676  1
  Se  Se25  1  0.145310  0.445061  0.414324  1
  Se  Se26  1  0.354690  0.054939  0.914324  1
  Se  Se27  1  0.854690  0.945061  0.585676  1
  Se  Se28  1  0.354690  0.445061  0.914324  1
  Se  Se29  1  0.854690  0.554939  0.585676  1
  Se  Se30  1  0.645310  0.945061  0.085676  1
  Se  Se31  1  0.145310  0.054939  0.414324  1
  Se  Se32  1  0.628344  0.750000  0.318422  1
  Se  Se33  1  0.128344  0.250000  0.181578  1
  Se  Se34  1  0.371656  0.250000  0.681578  1
  Se  Se35  1  0.871656  0.750000  0.818422  1
