# generated using pymatgen
data_Ca2Pr18Si15Ru
_symmetry_space_group_name_H-M   'P 1'
_cell_length_a   7.93280143
_cell_length_b   7.92409416
_cell_length_c   15.22343336
_cell_angle_alpha   90.15527456
_cell_angle_beta   89.76783407
_cell_angle_gamma   90.16338865
_symmetry_Int_Tables_number   1
_chemical_formula_structural   Ca2Pr18Si15Ru
_chemical_formula_sum   'Ca2 Pr18 Si15 Ru1'
_cell_volume   956.93383128
_cell_formula_units_Z   1
loop_
 _symmetry_equiv_pos_site_id
 _symmetry_equiv_pos_as_xyz
  1  'x, y, z'
loop_
 _atom_site_type_symbol
 _atom_site_label
 _atom_site_symmetry_multiplicity
 _atom_site_fract_x
 _atom_site_fract_y
 _atom_site_fract_z
 _atom_site_occupancy
  Ca  Ca0  1  0.310401  0.309555  0.999617  1
  Ca  Ca1  1  0.189835  0.810486  0.250752  1
  Pr  Pr2  1  0.824341  0.188582  0.746941  1
  Pr  Pr3  1  0.693868  0.690096  0.501826  1
  Pr  Pr4  1  0.374814  0.010794  0.448711  1
  Pr  Pr5  1  0.486299  0.878331  0.698491  1
  Pr  Pr6  1  0.510289  0.123933  0.198357  1
  Pr  Pr7  1  0.874438  0.489986  0.299842  1
  Pr  Pr8  1  0.128286  0.505016  0.799187  1
  Pr  Pr9  1  0.625853  0.990151  0.948994  1
  Pr  Pr10  1  0.006882  0.377966  0.549948  1
  Pr  Pr11  1  0.990207  0.623696  0.051704  1
  Pr  Pr12  1  0.132163  0.985940  0.873744  1
  Pr  Pr13  1  0.514456  0.627725  0.126176  1
  Pr  Pr14  1  0.470644  0.361312  0.629688  1
  Pr  Pr15  1  0.627219  0.512447  0.875214  1
  Pr  Pr16  1  0.374766  0.483629  0.373668  1
  Pr  Pr17  1  0.874838  0.018105  0.376513  1
  Pr  Pr18  1  0.986662  0.125802  0.123992  1
  Pr  Pr19  1  0.027975  0.881592  0.626582  1
  Si  Si20  1  0.333012  0.697674  0.950549  1
  Si  Si21  1  0.664377  0.301327  0.450390  1
  Si  Si22  1  0.701695  0.333764  0.051410  1
  Si  Si23  1  0.304611  0.669443  0.546981  1
  Si  Si24  1  0.800195  0.835073  0.200938  1
  Si  Si25  1  0.166370  0.201879  0.297765  1
  Si  Si26  1  0.832870  0.800380  0.800785  1
  Si  Si27  1  0.285693  0.917068  0.059393  1
  Si  Si28  1  0.581611  0.786915  0.309914  1
  Si  Si29  1  0.421871  0.207477  0.812559  1
  Si  Si30  1  0.780520  0.581267  0.691779  1
  Si  Si31  1  0.212516  0.420743  0.189472  1
  Si  Si32  1  0.702603  0.074596  0.558623  1
  Si  Si33  1  0.918991  0.286081  0.941433  1
  Si  Si34  1  0.079810  0.715261  0.440496  1
  Ru  Ru35  1  0.189020  0.175909  0.697567  1
