# generated using pymatgen
data_Yb11Pr8HoSi16
_symmetry_space_group_name_H-M   'P 1'
_cell_length_a   7.51279101
_cell_length_b   7.94848416
_cell_length_c   15.16025131
_cell_angle_alpha   89.97709236
_cell_angle_beta   90.00338921
_cell_angle_gamma   89.99926733
_symmetry_Int_Tables_number   1
_chemical_formula_structural   Yb11Pr8HoSi16
_chemical_formula_sum   'Yb11 Pr8 Ho1 Si16'
_cell_volume   905.29888532
_cell_formula_units_Z   1
loop_
 _symmetry_equiv_pos_site_id
 _symmetry_equiv_pos_as_xyz
  1  'x, y, z'
loop_
 _atom_site_type_symbol
 _atom_site_label
 _atom_site_symmetry_multiplicity
 _atom_site_fract_x
 _atom_site_fract_y
 _atom_site_fract_z
 _atom_site_occupancy
  Yb  Yb0  1  0.645103  0.002803  0.249795  1
  Yb  Yb1  1  0.144329  0.496889  0.249704  1
  Yb  Yb2  1  0.857353  0.499221  0.751573  1
  Yb  Yb3  1  0.351234  0.000474  0.751074  1
  Yb  Yb4  1  0.679259  0.818495  0.877065  1
  Yb  Yb5  1  0.179606  0.682846  0.621872  1
  Yb  Yb6  1  0.820830  0.317834  0.122758  1
  Yb  Yb7  1  0.320411  0.181030  0.378781  1
  Yb  Yb8  1  0.320698  0.182030  0.122971  1
  Yb  Yb9  1  0.820266  0.318488  0.377805  1
  Yb  Yb10  1  0.180645  0.681378  0.876983  1
  Pr  Pr11  1  0.972996  0.814086  0.098563  1
  Pr  Pr12  1  0.471826  0.685811  0.400360  1
  Pr  Pr13  1  0.526026  0.315433  0.901971  1
  Pr  Pr14  1  0.026917  0.186585  0.597332  1
  Pr  Pr15  1  0.026164  0.184708  0.901333  1
  Pr  Pr16  1  0.527555  0.315011  0.599095  1
  Pr  Pr17  1  0.472932  0.685953  0.098926  1
  Pr  Pr18  1  0.972223  0.813523  0.400621  1
  Ho  Ho19  1  0.678798  0.816794  0.623507  1
  Si  Si20  1  0.755827  0.626113  0.250404  1
  Si  Si21  1  0.256374  0.874244  0.250544  1
  Si  Si22  1  0.741317  0.121932  0.746971  1
  Si  Si23  1  0.246422  0.376702  0.749078  1
  Si  Si24  1  0.030810  0.090790  0.250428  1
  Si  Si25  1  0.530525  0.408396  0.250796  1
  Si  Si26  1  0.473287  0.595184  0.747327  1
  Si  Si27  1  0.965260  0.905016  0.745729  1
  Si  Si28  1  0.857458  0.527719  0.961998  1
  Si  Si29  1  0.363518  0.969990  0.540136  1
  Si  Si30  1  0.642902  0.028344  0.037233  1
  Si  Si31  1  0.140336  0.472410  0.463168  1
  Si  Si32  1  0.143464  0.471502  0.037082  1
  Si  Si33  1  0.648218  0.025580  0.466160  1
  Si  Si34  1  0.356725  0.972459  0.962239  1
  Si  Si35  1  0.852387  0.534228  0.538620  1
