# generated using pymatgen
data_Sc8TaSi16Tc11
_symmetry_space_group_name_H-M   'P 1'
_cell_length_a   6.69738294
_cell_length_b   6.67105682
_cell_length_c   12.32662675
_cell_angle_alpha   89.69551450
_cell_angle_beta   89.83089524
_cell_angle_gamma   89.93605460
_symmetry_Int_Tables_number   1
_chemical_formula_structural   Sc8TaSi16Tc11
_chemical_formula_sum   'Sc8 Ta1 Si16 Tc11'
_cell_volume   550.72618992
_cell_formula_units_Z   1
loop_
 _symmetry_equiv_pos_site_id
 _symmetry_equiv_pos_as_xyz
  1  'x, y, z'
loop_
 _atom_site_type_symbol
 _atom_site_label
 _atom_site_symmetry_multiplicity
 _atom_site_fract_x
 _atom_site_fract_y
 _atom_site_fract_z
 _atom_site_occupancy
  Sc  Sc0  1  0.000847  0.659135  0.027951  1
  Sc  Sc1  1  0.840440  0.497245  0.280424  1
  Sc  Sc2  1  0.156053  0.498019  0.780556  1
  Sc  Sc3  1  0.497170  0.841223  0.721060  1
  Sc  Sc4  1  0.498687  0.157064  0.218406  1
  Sc  Sc5  1  0.995228  0.336899  0.531427  1
  Sc  Sc6  1  0.656661  0.002671  0.968130  1
  Sc  Sc7  1  0.341259  0.998460  0.470163  1
  Ta  Ta8  1  0.836652  0.004016  0.375886  1
  Si  Si9  1  0.279093  0.969831  0.064889  1
  Si  Si10  1  0.530516  0.786248  0.313597  1
  Si  Si11  1  0.471084  0.224251  0.815136  1
  Si  Si12  1  0.778299  0.531473  0.685578  1
  Si  Si13  1  0.213668  0.470514  0.182024  1
  Si  Si14  1  0.712522  0.036195  0.572064  1
  Si  Si15  1  0.971947  0.280020  0.935601  1
  Si  Si16  1  0.042360  0.701427  0.436045  1
  Si  Si17  1  0.693514  0.374767  0.065434  1
  Si  Si18  1  0.135096  0.202157  0.315782  1
  Si  Si19  1  0.875975  0.809719  0.813841  1
  Si  Si20  1  0.191257  0.123945  0.684788  1
  Si  Si21  1  0.802462  0.873031  0.180034  1
  Si  Si22  1  0.308772  0.623957  0.566040  1
  Si  Si23  1  0.377092  0.691725  0.933450  1
  Si  Si24  1  0.623845  0.307039  0.434999  1
  Tc  Tc25  1  0.330389  0.327850  0.998194  1
  Tc  Tc26  1  0.166165  0.834099  0.249138  1
  Tc  Tc27  1  0.827797  0.173949  0.751457  1
  Tc  Tc28  1  0.669355  0.672628  0.500998  1
  Tc  Tc29  1  0.976134  0.178483  0.130292  1
  Tc  Tc30  1  0.331096  0.490852  0.374327  1
  Tc  Tc31  1  0.683854  0.528182  0.882351  1
  Tc  Tc32  1  0.470845  0.320733  0.622227  1
  Tc  Tc33  1  0.515369  0.668815  0.122127  1
  Tc  Tc34  1  0.022127  0.828372  0.625257  1
  Tc  Tc35  1  0.176371  0.975007  0.870325  1
