# generated using pymatgen
data_Tm11LuCdCo4Os
_symmetry_space_group_name_H-M   'P 1'
_cell_length_a   8.17295686
_cell_length_b   8.17549127
_cell_length_c   8.17549158
_cell_angle_alpha   111.62067551
_cell_angle_beta   110.79246152
_cell_angle_gamma   106.06643123
_symmetry_Int_Tables_number   1
_chemical_formula_structural   Tm11LuCdCo4Os
_chemical_formula_sum   'Tm11 Lu1 Cd1 Co4 Os1'
_cell_volume   419.32553401
_cell_formula_units_Z   1
loop_
 _symmetry_equiv_pos_site_id
 _symmetry_equiv_pos_as_xyz
  1  'x, y, z'
loop_
 _atom_site_type_symbol
 _atom_site_label
 _atom_site_symmetry_multiplicity
 _atom_site_fract_x
 _atom_site_fract_y
 _atom_site_fract_z
 _atom_site_occupancy
  Tm  Tm0  1  0.583618  0.777692  0.805927  1
  Tm  Tm1  1  0.028517  0.222336  0.806181  1
  Tm  Tm2  1  0.972128  0.777825  0.194302  1
  Tm  Tm3  1  0.181484  0.277823  0.458816  1
  Tm  Tm4  1  0.818296  0.721549  0.540273  1
  Tm  Tm5  1  0.181484  0.722668  0.903661  1
  Tm  Tm6  1  0.818296  0.278025  0.096748  1
  Tm  Tm7  1  0.314439  0.620930  0.307212  1
  Tm  Tm8  1  0.685400  0.378532  0.692295  1
  Tm  Tm9  1  0.314439  0.007227  0.693509  1
  Tm  Tm10  1  0.685400  0.993106  0.306868  1
  Lu  Lu11  1  0.416164  0.221808  0.194354  1
  Cd  Cd12  1  0.500227  0.499871  0.000355  1
  Co  Co13  1  0.373946  0.000242  0.373705  1
  Co  Co14  1  0.625767  0.999847  0.625920  1
  Co  Co15  1  0.112260  0.612316  0.499943  1
  Co  Co16  1  0.887183  0.387715  0.499468  1
  Os  Os17  1  0.000952  0.000487  0.000464  1
