# generated using pymatgen
data_Pr11In7(HgRh2)2
_symmetry_space_group_name_H-M   'P 1'
_cell_length_a   13.43591358
_cell_length_b   13.44093443
_cell_length_c   3.89873400
_cell_angle_alpha   90.00000000
_cell_angle_beta   90.00000000
_cell_angle_gamma   112.67395260
_symmetry_Int_Tables_number   1
_chemical_formula_structural   Pr11In7(HgRh2)2
_chemical_formula_sum   'Pr11 In7 Hg2 Rh4'
_cell_volume   649.66147298
_cell_formula_units_Z   1
loop_
 _symmetry_equiv_pos_site_id
 _symmetry_equiv_pos_as_xyz
  1  'x, y, z'
loop_
 _atom_site_type_symbol
 _atom_site_label
 _atom_site_symmetry_multiplicity
 _atom_site_fract_x
 _atom_site_fract_y
 _atom_site_fract_z
 _atom_site_occupancy
  Pr  Pr0  1  0.500000  0.500000  0.500000  1
  Pr  Pr1  1  0.811523  0.811763  0.500000  1
  Pr  Pr2  1  0.188477  0.188237  0.500000  1
  Pr  Pr3  1  0.580940  0.921577  0.500000  1
  Pr  Pr4  1  0.419060  0.078423  0.500000  1
  Pr  Pr5  1  0.917952  0.578495  0.500000  1
  Pr  Pr6  1  0.082048  0.421505  0.500000  1
  Pr  Pr7  1  0.127473  0.873677  0.500000  1
  Pr  Pr8  1  0.872527  0.126323  0.500000  1
  Pr  Pr9  1  0.341101  0.661601  0.500000  1
  Pr  Pr10  1  0.658899  0.338399  0.500000  1
  In  In11  1  0.865292  0.338653  0.000000  1
  In  In12  1  0.134708  0.661347  0.000000  1
  In  In13  1  0.577300  0.720149  0.000000  1
  In  In14  1  0.422700  0.279851  0.000000  1
  In  In15  1  0.719775  0.578862  0.000000  1
  In  In16  1  0.280225  0.421138  0.000000  1
  In  In17  1  0.000000  0.000000  0.000000  1
  Hg  Hg18  1  0.339928  0.862780  0.000000  1
  Hg  Hg19  1  0.660072  0.137220  0.000000  1
  Rh  Rh20  1  0.748114  0.947369  0.000000  1
  Rh  Rh21  1  0.251886  0.052631  0.000000  1
  Rh  Rh22  1  0.953419  0.748542  0.000000  1
  Rh  Rh23  1  0.046581  0.251458  0.000000  1
