# generated using pymatgen
data_Tb6Er10Cd3AgPt4
_symmetry_space_group_name_H-M   'P 1'
_cell_length_a   9.59760543
_cell_length_b   9.59760468
_cell_length_c   9.59760401
_cell_angle_alpha   60.21547559
_cell_angle_beta   60.21547980
_cell_angle_gamma   60.21548060
_symmetry_Int_Tables_number   1
_chemical_formula_structural   Tb6Er10Cd3AgPt4
_chemical_formula_sum   'Tb6 Er10 Cd3 Ag1 Pt4'
_cell_volume   628.18454206
_cell_formula_units_Z   1
loop_
 _symmetry_equiv_pos_site_id
 _symmetry_equiv_pos_as_xyz
  1  'x, y, z'
loop_
 _atom_site_type_symbol
 _atom_site_label
 _atom_site_symmetry_multiplicity
 _atom_site_fract_x
 _atom_site_fract_y
 _atom_site_fract_z
 _atom_site_occupancy
  Tb  Tb0  1  0.934338  0.563536  0.563536  1
  Tb  Tb1  1  0.561374  0.937143  0.937143  1
  Tb  Tb2  1  0.563536  0.934338  0.563536  1
  Tb  Tb3  1  0.937143  0.561374  0.937143  1
  Tb  Tb4  1  0.563536  0.563536  0.934338  1
  Tb  Tb5  1  0.937143  0.937143  0.561374  1
  Er  Er6  1  0.349967  0.349967  0.349967  1
  Er  Er7  1  0.355201  0.355201  0.938150  1
  Er  Er8  1  0.355201  0.938150  0.355201  1
  Er  Er9  1  0.938150  0.355201  0.355201  1
  Er  Er10  1  0.811611  0.190045  0.190045  1
  Er  Er11  1  0.188524  0.811256  0.811256  1
  Er  Er12  1  0.190045  0.811611  0.190045  1
  Er  Er13  1  0.811256  0.188524  0.811256  1
  Er  Er14  1  0.190045  0.190045  0.811611  1
  Er  Er15  1  0.811256  0.811256  0.188524  1
  Cd  Cd16  1  0.581000  0.581000  0.256759  1
  Cd  Cd17  1  0.581000  0.256759  0.581000  1
  Cd  Cd18  1  0.256759  0.581000  0.581000  1
  Ag  Ag19  1  0.583453  0.583453  0.583453  1
  Pt  Pt20  1  0.144995  0.144995  0.144995  1
  Pt  Pt21  1  0.142019  0.142019  0.570432  1
  Pt  Pt22  1  0.142019  0.570432  0.142019  1
  Pt  Pt23  1  0.570432  0.142019  0.142019  1
