# generated using pymatgen
data_Tm4Sc8AlNi4Sn
_symmetry_space_group_name_H-M   'P 1'
_cell_length_a   7.96201095
_cell_length_b   7.96288439
_cell_length_c   7.96162908
_cell_angle_alpha   106.41496500
_cell_angle_beta   110.56285235
_cell_angle_gamma   111.48017067
_symmetry_Int_Tables_number   1
_chemical_formula_structural   Tm4Sc8AlNi4Sn
_chemical_formula_sum   'Tm4 Sc8 Al1 Ni4 Sn1'
_cell_volume   387.72185431
_cell_formula_units_Z   1
loop_
 _symmetry_equiv_pos_site_id
 _symmetry_equiv_pos_as_xyz
  1  'x, y, z'
loop_
 _atom_site_type_symbol
 _atom_site_label
 _atom_site_symmetry_multiplicity
 _atom_site_fract_x
 _atom_site_fract_y
 _atom_site_fract_z
 _atom_site_occupancy
  Tm  Tm0  1  0.601410  0.788108  0.813359  1
  Tm  Tm1  1  0.974719  0.788079  0.186658  1
  Tm  Tm2  1  0.025255  0.211907  0.813340  1
  Tm  Tm3  1  0.398601  0.211915  0.186636  1
  Sc  Sc4  1  0.700551  0.270627  0.971166  1
  Sc  Sc5  1  0.299462  0.729410  0.028886  1
  Sc  Sc6  1  0.700532  0.729399  0.429914  1
  Sc  Sc7  1  0.299450  0.270557  0.570024  1
  Sc  Sc8  1  0.806960  0.130177  0.323227  1
  Sc  Sc9  1  0.806995  0.483765  0.676774  1
  Sc  Sc10  1  0.193034  0.869822  0.676767  1
  Sc  Sc11  1  0.192998  0.516228  0.323219  1
  Al  Al12  1  0.499942  0.499998  0.999933  1
  Ni  Ni13  1  0.849296  0.500000  0.349336  1
  Ni  Ni14  1  0.150780  0.500004  0.650740  1
  Ni  Ni15  1  0.999974  0.131039  0.131005  1
  Ni  Ni16  1  0.000035  0.868967  0.869009  1
  Sn  Sn17  1  0.500009  0.000002  0.500008  1
