# generated using pymatgen
data_LaPr(Ni2Pt3)2
_symmetry_space_group_name_H-M   'P 1'
_cell_length_a   4.09812000
_cell_length_b   5.39758200
_cell_length_c   9.31420600
_cell_angle_alpha   90.00000000
_cell_angle_beta   90.00000000
_cell_angle_gamma   90.00000000
_symmetry_Int_Tables_number   1
_chemical_formula_structural   LaPr(Ni2Pt3)2
_chemical_formula_sum   'La1 Pr1 Ni4 Pt6'
_cell_volume   206.02966619
_cell_formula_units_Z   1
loop_
 _symmetry_equiv_pos_site_id
 _symmetry_equiv_pos_as_xyz
  1  'x, y, z'
loop_
 _atom_site_type_symbol
 _atom_site_label
 _atom_site_symmetry_multiplicity
 _atom_site_fract_x
 _atom_site_fract_y
 _atom_site_fract_z
 _atom_site_occupancy
  La  La0  1  0.000000  0.000000  0.000000  1
  Pr  Pr1  1  0.000000  0.500000  0.500000  1
  Ni  Ni2  1  0.000000  0.000000  0.333054  1
  Ni  Ni3  1  0.000000  0.500000  0.833421  1
  Ni  Ni4  1  0.000000  0.500000  0.166579  1
  Ni  Ni5  1  0.000000  0.000000  0.666946  1
  Pt  Pt6  1  0.500000  0.000000  0.500000  1
  Pt  Pt7  1  0.500000  0.500000  0.000000  1
  Pt  Pt8  1  0.500000  0.250908  0.251059  1
  Pt  Pt9  1  0.500000  0.749092  0.748941  1
  Pt  Pt10  1  0.500000  0.749092  0.251059  1
  Pt  Pt11  1  0.500000  0.250908  0.748941  1
