# generated using pymatgen
data_Nd3In3Ag2Ru
_symmetry_space_group_name_H-M   'P 1'
_cell_length_a   7.87083500
_cell_length_b   7.87083470
_cell_length_c   4.10307700
_cell_angle_alpha   90.00000000
_cell_angle_beta   90.00000000
_cell_angle_gamma   119.99999706
_symmetry_Int_Tables_number   1
_chemical_formula_structural   Nd3In3Ag2Ru
_chemical_formula_sum   'Nd3 In3 Ag2 Ru1'
_cell_volume   220.13135734
_cell_formula_units_Z   1
loop_
 _symmetry_equiv_pos_site_id
 _symmetry_equiv_pos_as_xyz
  1  'x, y, z'
loop_
 _atom_site_type_symbol
 _atom_site_label
 _atom_site_symmetry_multiplicity
 _atom_site_fract_x
 _atom_site_fract_y
 _atom_site_fract_z
 _atom_site_occupancy
  Nd  Nd0  1  0.425088  0.026165  0.500000  1
  Nd  Nd1  1  0.973835  0.398923  0.500000  1
  Nd  Nd2  1  0.601076  0.574912  0.500000  1
  In  In3  1  0.743089  0.004052  0.000000  1
  In  In4  1  0.260964  0.256912  0.000000  1
  In  In5  1  0.995948  0.739037  0.000000  1
  Ag  Ag6  1  0.333333  0.666667  0.000000  1
  Ag  Ag7  1  0.000000  0.000000  0.500000  1
  Ru  Ru8  1  0.666668  0.333334  0.000000  1
