# generated using pymatgen
data_Hf18Ti2FeCuMo6
_symmetry_space_group_name_H-M   'P 1'
_cell_length_a   8.35370600
_cell_length_b   8.75822686
_cell_length_c   8.75822500
_cell_angle_alpha   119.99990778
_cell_angle_beta   90.00000000
_cell_angle_gamma   90.00000000
_symmetry_Int_Tables_number   1
_chemical_formula_structural   Hf18Ti2FeCuMo6
_chemical_formula_sum   'Hf18 Ti2 Fe1 Cu1 Mo6'
_cell_volume   554.93550284
_cell_formula_units_Z   1
loop_
 _symmetry_equiv_pos_site_id
 _symmetry_equiv_pos_as_xyz
  1  'x, y, z'
loop_
 _atom_site_type_symbol
 _atom_site_label
 _atom_site_symmetry_multiplicity
 _atom_site_fract_x
 _atom_site_fract_y
 _atom_site_fract_z
 _atom_site_occupancy
  Hf  Hf0  1  0.554274  0.802639  0.605279  1
  Hf  Hf1  1  0.554283  0.802635  0.197365  1
  Hf  Hf2  1  0.554274  0.394721  0.197361  1
  Hf  Hf3  1  0.440503  0.202987  0.405970  1
  Hf  Hf4  1  0.440493  0.202989  0.797011  1
  Hf  Hf5  1  0.440503  0.594030  0.797013  1
  Hf  Hf6  1  0.059497  0.202987  0.405970  1
  Hf  Hf7  1  0.059507  0.202989  0.797011  1
  Hf  Hf8  1  0.059497  0.594030  0.797013  1
  Hf  Hf9  1  0.945726  0.802639  0.605279  1
  Hf  Hf10  1  0.945717  0.802635  0.197365  1
  Hf  Hf11  1  0.945726  0.394721  0.197361  1
  Hf  Hf12  1  0.750000  0.458541  0.917095  1
  Hf  Hf13  1  0.750000  0.458546  0.541454  1
  Hf  Hf14  1  0.750000  0.082905  0.541459  1
  Hf  Hf15  1  0.250000  0.542076  0.084142  1
  Hf  Hf16  1  0.250000  0.542072  0.457928  1
  Hf  Hf17  1  0.250000  0.915858  0.457924  1
  Ti  Ti18  1  0.495446  0.999999  0.000001  1
  Ti  Ti19  1  0.004554  0.999999  0.000001  1
  Fe  Fe20  1  0.250000  0.333347  0.666653  1
  Cu  Cu21  1  0.750000  0.666658  0.333342  1
  Mo  Mo22  1  0.750000  0.114080  0.228173  1
  Mo  Mo23  1  0.750000  0.114082  0.885918  1
  Mo  Mo24  1  0.750000  0.771827  0.885920  1
  Mo  Mo25  1  0.250000  0.884889  0.769769  1
  Mo  Mo26  1  0.250000  0.884887  0.115113  1
  Mo  Mo27  1  0.250000  0.230231  0.115111  1
