# generated using pymatgen
data_Gd9ScSi5Hg
_symmetry_space_group_name_H-M   'P 1'
_cell_length_a   7.48395151
_cell_length_b   7.48395215
_cell_length_c   9.02078900
_cell_angle_alpha   114.50778777
_cell_angle_beta   114.50779000
_cell_angle_gamma   90.00000509
_symmetry_Int_Tables_number   1
_chemical_formula_structural   Gd9ScSi5Hg
_chemical_formula_sum   'Gd9 Sc1 Si5 Hg1'
_cell_volume   409.17586071
_cell_formula_units_Z   1
loop_
 _symmetry_equiv_pos_site_id
 _symmetry_equiv_pos_as_xyz
  1  'x, y, z'
loop_
 _atom_site_type_symbol
 _atom_site_label
 _atom_site_symmetry_multiplicity
 _atom_site_fract_x
 _atom_site_fract_y
 _atom_site_fract_z
 _atom_site_occupancy
  Gd  Gd0  1  0.975221  0.975221  0.950442  1
  Gd  Gd1  1  0.975425  0.825171  0.281967  1
  Gd  Gd2  1  0.306542  0.456794  0.281967  1
  Gd  Gd3  1  0.825171  0.306542  0.281967  1
  Gd  Gd4  1  0.456794  0.975425  0.281967  1
  Gd  Gd5  1  0.045820  0.201627  0.720184  1
  Gd  Gd6  1  0.674366  0.518557  0.720184  1
  Gd  Gd7  1  0.201627  0.674366  0.720184  1
  Gd  Gd8  1  0.518557  0.045820  0.720184  1
  Sc  Sc9  1  0.512788  0.512788  0.025577  1
  Si  Si10  1  0.251379  0.251379  0.502757  1
  Si  Si11  1  0.620268  0.876577  0.004203  1
  Si  Si12  1  0.383935  0.127626  0.004203  1
  Si  Si13  1  0.876577  0.383935  0.004203  1
  Si  Si14  1  0.127626  0.620268  0.004203  1
  Hg  Hg15  1  0.747904  0.747904  0.495806  1
