# generated using pymatgen
data_La12TbCeRh6
_symmetry_space_group_name_H-M   'P 1'
_cell_length_a   10.24066700
_cell_length_b   10.24066881
_cell_length_c   6.42873100
_cell_angle_alpha   90.00000000
_cell_angle_beta   90.00000000
_cell_angle_gamma   120.00000384
_symmetry_Int_Tables_number   1
_chemical_formula_structural   La12TbCeRh6
_chemical_formula_sum   'La12 Tb1 Ce1 Rh6'
_cell_volume   583.86498912
_cell_formula_units_Z   1
loop_
 _symmetry_equiv_pos_site_id
 _symmetry_equiv_pos_as_xyz
  1  'x, y, z'
loop_
 _atom_site_type_symbol
 _atom_site_label
 _atom_site_symmetry_multiplicity
 _atom_site_fract_x
 _atom_site_fract_y
 _atom_site_fract_z
 _atom_site_occupancy
  La  La0  1  0.873236  0.746472  0.766305  1
  La  La1  1  0.253528  0.126764  0.766305  1
  La  La2  1  0.873236  0.126764  0.766305  1
  La  La3  1  0.126794  0.253588  0.267220  1
  La  La4  1  0.746412  0.873206  0.267220  1
  La  La5  1  0.126794  0.873206  0.267220  1
  La  La6  1  0.458125  0.916251  0.590532  1
  La  La7  1  0.083749  0.541875  0.590532  1
  La  La8  1  0.458125  0.541875  0.590532  1
  La  La9  1  0.540906  0.081811  0.094923  1
  La  La10  1  0.918189  0.459094  0.094923  1
  La  La11  1  0.540906  0.459094  0.094923  1
  Tb  Tb12  1  0.666667  0.333333  0.567799  1
  Ce  Ce13  1  0.333333  0.666667  0.058457  1
  Rh  Rh14  1  0.193448  0.386896  0.858185  1
  Rh  Rh15  1  0.613104  0.806552  0.858185  1
  Rh  Rh16  1  0.193448  0.806552  0.858185  1
  Rh  Rh17  1  0.809826  0.619652  0.352432  1
  Rh  Rh18  1  0.380348  0.190174  0.352432  1
  Rh  Rh19  1  0.809826  0.190174  0.352432  1
