# generated using pymatgen
data_Er4Cd2PdPt3
_symmetry_space_group_name_H-M   'P 1'
_cell_length_a   7.69540312
_cell_length_b   7.69540312
_cell_length_c   3.69110800
_cell_angle_alpha   90.00000000
_cell_angle_beta   90.00000000
_cell_angle_gamma   89.97939098
_symmetry_Int_Tables_number   1
_chemical_formula_structural   Er4Cd2PdPt3
_chemical_formula_sum   'Er4 Cd2 Pd1 Pt3'
_cell_volume   218.58455669
_cell_formula_units_Z   1
loop_
 _symmetry_equiv_pos_site_id
 _symmetry_equiv_pos_as_xyz
  1  'x, y, z'
loop_
 _atom_site_type_symbol
 _atom_site_label
 _atom_site_symmetry_multiplicity
 _atom_site_fract_x
 _atom_site_fract_y
 _atom_site_fract_z
 _atom_site_occupancy
  Er  Er0  1  0.672376  0.164447  0.500000  1
  Er  Er1  1  0.335553  0.827624  0.500000  1
  Er  Er2  1  0.162434  0.337566  0.500000  1
  Er  Er3  1  0.830639  0.669361  0.500000  1
  Cd  Cd4  1  0.004074  0.999953  0.000000  1
  Cd  Cd5  1  0.500047  0.495926  0.000000  1
  Pd  Pd6  1  0.366054  0.133946  0.000000  1
  Pt  Pt7  1  0.132475  0.633623  0.000000  1
  Pt  Pt8  1  0.866377  0.367525  0.000000  1
  Pt  Pt9  1  0.629970  0.870030  0.000000  1
