# generated using pymatgen
data_Pr3Dy5(Si3Pt)4
_symmetry_space_group_name_H-M   'P 1'
_cell_length_a   8.19006152
_cell_length_b   8.18499510
_cell_length_c   8.37914100
_cell_angle_alpha   90.00000000
_cell_angle_beta   90.00000000
_cell_angle_gamma   119.97953294
_symmetry_Int_Tables_number   1
_chemical_formula_structural   Pr3Dy5(Si3Pt)4
_chemical_formula_sum   'Pr3 Dy5 Si12 Pt4'
_cell_volume   486.54750489
_cell_formula_units_Z   1
loop_
 _symmetry_equiv_pos_site_id
 _symmetry_equiv_pos_as_xyz
  1  'x, y, z'
loop_
 _atom_site_type_symbol
 _atom_site_label
 _atom_site_symmetry_multiplicity
 _atom_site_fract_x
 _atom_site_fract_y
 _atom_site_fract_z
 _atom_site_occupancy
  Pr  Pr0  1  0.999934  0.999967  0.250000  1
  Pr  Pr1  1  0.999999  0.000000  0.750000  1
  Pr  Pr2  1  0.001288  0.500644  0.250000  1
  Dy  Dy3  1  0.499511  0.500689  0.250000  1
  Dy  Dy4  1  0.500756  0.001528  0.750000  1
  Dy  Dy5  1  0.499511  0.998822  0.250000  1
  Dy  Dy6  1  0.500756  0.499228  0.750000  1
  Dy  Dy7  1  0.998538  0.499269  0.750000  1
  Si  Si8  1  0.167391  0.333297  0.997059  1
  Si  Si9  1  0.667319  0.833659  0.999540  1
  Si  Si10  1  0.167391  0.333297  0.502941  1
  Si  Si11  1  0.332615  0.166307  0.000770  1
  Si  Si12  1  0.167391  0.834094  0.997059  1
  Si  Si13  1  0.667319  0.833659  0.500460  1
  Si  Si14  1  0.832629  0.666697  0.998333  1
  Si  Si15  1  0.332615  0.166307  0.499230  1
  Si  Si16  1  0.167391  0.834094  0.502941  1
  Si  Si17  1  0.832629  0.666697  0.501667  1
  Si  Si18  1  0.832629  0.165932  0.998333  1
  Si  Si19  1  0.832629  0.165932  0.501667  1
  Pt  Pt20  1  0.335463  0.667732  0.993807  1
  Pt  Pt21  1  0.335463  0.667732  0.506193  1
  Pt  Pt22  1  0.664417  0.332208  0.996742  1
  Pt  Pt23  1  0.664417  0.332208  0.503258  1
