# generated using pymatgen
data_Eu2HfZrO6
_symmetry_space_group_name_H-M   'P 1'
_cell_length_a   5.75907618
_cell_length_b   5.87533100
_cell_length_c   8.19244627
_cell_angle_alpha   90.00048781
_cell_angle_beta   90.02898974
_cell_angle_gamma   90.00053811
_symmetry_Int_Tables_number   1
_chemical_formula_structural   Eu2HfZrO6
_chemical_formula_sum   'Eu4 Hf2 Zr2 O12'
_cell_volume   277.20349910
_cell_formula_units_Z   2
loop_
 _symmetry_equiv_pos_site_id
 _symmetry_equiv_pos_as_xyz
  1  'x, y, z'
loop_
 _atom_site_type_symbol
 _atom_site_label
 _atom_site_symmetry_multiplicity
 _atom_site_fract_x
 _atom_site_fract_y
 _atom_site_fract_z
 _atom_site_occupancy
  Eu  Eu0  1  0.012541  0.544717  0.249960  1
  Eu  Eu1  1  0.512549  0.955284  0.749962  1
  Eu  Eu2  1  0.487453  0.044720  0.250038  1
  Eu  Eu3  1  0.987456  0.455278  0.750039  1
  Hf  Hf4  1  0.000001  0.999996  0.000000  1
  Hf  Hf5  1  0.500000  0.500005  0.500002  1
  Zr  Zr6  1  0.000001  0.999997  0.500000  1
  Zr  Zr7  1  0.500000  0.500003  0.999998  1
  O  O8  1  0.590572  0.473656  0.252505  1
  O  O9  1  0.909479  0.973616  0.247495  1
  O  O10  1  0.409430  0.526346  0.747495  1
  O  O11  1  0.090525  0.026379  0.752504  1
  O  O12  1  0.207294  0.286414  0.048584  1
  O  O13  1  0.292667  0.786377  0.451423  1
  O  O14  1  0.787413  0.709147  0.548312  1
  O  O15  1  0.712623  0.209184  0.951697  1
  O  O16  1  0.792704  0.713585  0.951416  1
  O  O17  1  0.707332  0.213622  0.548579  1
  O  O18  1  0.212584  0.290858  0.451689  1
  O  O19  1  0.287376  0.790814  0.048303  1
