# generated using pymatgen
data_Tb8Ti2ReSi16W9
_symmetry_space_group_name_H-M   'P 1'
_cell_length_a   6.90158459
_cell_length_b   6.90158460
_cell_length_c   12.83219901
_cell_angle_alpha   89.99621129
_cell_angle_beta   90.00378646
_cell_angle_gamma   89.71470785
_symmetry_Int_Tables_number   1
_chemical_formula_structural   Tb8Ti2ReSi16W9
_chemical_formula_sum   'Tb8 Ti2 Re1 Si16 W9'
_cell_volume   611.21405412
_cell_formula_units_Z   1
loop_
 _symmetry_equiv_pos_site_id
 _symmetry_equiv_pos_as_xyz
  1  'x, y, z'
loop_
 _atom_site_type_symbol
 _atom_site_label
 _atom_site_symmetry_multiplicity
 _atom_site_fract_x
 _atom_site_fract_y
 _atom_site_fract_z
 _atom_site_occupancy
  Tb  Tb0  1  0.339144  0.999615  0.468664  1
  Tb  Tb1  1  0.500141  0.835248  0.718505  1
  Tb  Tb2  1  0.500758  0.164289  0.218838  1
  Tb  Tb3  1  0.835248  0.500141  0.281495  1
  Tb  Tb4  1  0.164289  0.500758  0.781162  1
  Tb  Tb5  1  0.661642  0.999936  0.968938  1
  Tb  Tb6  1  0.999615  0.339144  0.531336  1
  Tb  Tb7  1  0.999936  0.661642  0.031062  1
  Ti  Ti8  1  0.169074  0.830077  0.250902  1
  Ti  Ti9  1  0.830077  0.169074  0.749098  1
  Re  Re10  1  0.666376  0.666376  0.500000  1
  Si  Si11  1  0.203133  0.127420  0.684519  1
  Si  Si12  1  0.374538  0.699692  0.934170  1
  Si  Si13  1  0.623463  0.304836  0.435609  1
  Si  Si14  1  0.699692  0.374538  0.065830  1
  Si  Si15  1  0.304836  0.623463  0.564391  1
  Si  Si16  1  0.796837  0.872768  0.184666  1
  Si  Si17  1  0.127420  0.203133  0.315481  1
  Si  Si18  1  0.872768  0.796837  0.815334  1
  Si  Si19  1  0.289479  0.963067  0.062753  1
  Si  Si20  1  0.540104  0.789488  0.316640  1
  Si  Si21  1  0.461562  0.209063  0.815185  1
  Si  Si22  1  0.789488  0.540104  0.683360  1
  Si  Si23  1  0.209063  0.461562  0.184815  1
  Si  Si24  1  0.712276  0.032834  0.561038  1
  Si  Si25  1  0.963067  0.289479  0.937247  1
  Si  Si26  1  0.032834  0.712276  0.438962  1
  W  W27  1  0.333040  0.333040  0.000000  1
  W  W28  1  0.158457  0.003401  0.873694  1
  W  W29  1  0.497221  0.665685  0.125655  1
  W  W30  1  0.503179  0.330108  0.626658  1
  W  W31  1  0.665685  0.497221  0.874345  1
  W  W32  1  0.330108  0.503179  0.373342  1
  W  W33  1  0.842420  0.999630  0.372950  1
  W  W34  1  0.003401  0.158457  0.126306  1
  W  W35  1  0.999630  0.842420  0.627050  1
