# generated using pymatgen
data_Ho5Tm7(OsRh)2
_symmetry_space_group_name_H-M   'P 1'
_cell_length_a   7.26828542
_cell_length_b   8.98660316
_cell_length_c   6.33256464
_cell_angle_alpha   89.85886505
_cell_angle_beta   89.57281883
_cell_angle_gamma   90.01117206
_symmetry_Int_Tables_number   1
_chemical_formula_structural   Ho5Tm7(OsRh)2
_chemical_formula_sum   'Ho5 Tm7 Os2 Rh2'
_cell_volume   413.61260997
_cell_formula_units_Z   1
loop_
 _symmetry_equiv_pos_site_id
 _symmetry_equiv_pos_as_xyz
  1  'x, y, z'
loop_
 _atom_site_type_symbol
 _atom_site_label
 _atom_site_symmetry_multiplicity
 _atom_site_fract_x
 _atom_site_fract_y
 _atom_site_fract_z
 _atom_site_occupancy
  Ho  Ho0  1  0.037579  0.250516  0.624805  1
  Ho  Ho1  1  0.962130  0.749457  0.376004  1
  Ho  Ho2  1  0.464644  0.749629  0.127473  1
  Ho  Ho3  1  0.536565  0.249912  0.871071  1
  Ho  Ho4  1  0.173353  0.059722  0.167106  1
  Tm  Tm5  1  0.826684  0.939354  0.833260  1
  Tm  Tm6  1  0.320385  0.934546  0.674672  1
  Tm  Tm7  1  0.826094  0.560457  0.834121  1
  Tm  Tm8  1  0.679076  0.064674  0.325753  1
  Tm  Tm9  1  0.173289  0.440242  0.165740  1
  Tm  Tm10  1  0.679488  0.434654  0.325965  1
  Tm  Tm11  1  0.320759  0.565487  0.673672  1
  Os  Os12  1  0.115626  0.748159  0.963535  1
  Os  Os13  1  0.883974  0.251378  0.036442  1
  Rh  Rh14  1  0.387225  0.251403  0.455884  1
  Rh  Rh15  1  0.613130  0.750408  0.544498  1
