# generated using pymatgen
data_Yb4Ga23SiPt9
_symmetry_space_group_name_H-M   'P 1'
_cell_length_a   7.50437543
_cell_length_b   7.60170112
_cell_length_c   13.38436335
_cell_angle_alpha   85.06474024
_cell_angle_beta   100.80396005
_cell_angle_gamma   119.82622924
_symmetry_Int_Tables_number   1
_chemical_formula_structural   Yb4Ga23SiPt9
_chemical_formula_sum   'Yb4 Ga23 Si1 Pt9'
_cell_volume   650.62203160
_cell_formula_units_Z   1
loop_
 _symmetry_equiv_pos_site_id
 _symmetry_equiv_pos_as_xyz
  1  'x, y, z'
loop_
 _atom_site_type_symbol
 _atom_site_label
 _atom_site_symmetry_multiplicity
 _atom_site_fract_x
 _atom_site_fract_y
 _atom_site_fract_z
 _atom_site_occupancy
  Yb  Yb0  1  0.729878  0.999649  0.191393  1
  Yb  Yb1  1  0.266661  0.002401  0.809150  1
  Yb  Yb2  1  0.065482  0.666556  0.191597  1
  Yb  Yb3  1  0.937780  0.331360  0.808745  1
  Ga  Ga4  1  0.186323  0.125614  0.180420  1
  Ga  Ga5  1  0.981507  0.665532  0.938304  1
  Ga  Ga6  1  0.021359  0.332713  0.059830  1
  Ga  Ga7  1  0.400219  0.669685  0.817735  1
  Ga  Ga8  1  0.600349  0.333760  0.181501  1
  Ga  Ga9  1  0.886808  0.662070  0.676973  1
  Ga  Ga10  1  0.115605  0.335053  0.324619  1
  Ga  Ga11  1  0.607227  0.458595  0.816136  1
  Ga  Ga12  1  0.395859  0.541051  0.182892  1
  Ga  Ga13  1  0.231929  0.339177  0.675616  1
  Ga  Ga14  1  0.768476  0.660386  0.325909  1
  Ga  Ga15  1  0.854039  0.331256  0.557200  1
  Ga  Ga16  1  0.182304  0.997319  0.556817  1
  Ga  Ga17  1  0.816514  0.001977  0.447669  1
  Ga  Ga18  1  0.353620  0.998059  0.058955  1
  Ga  Ga19  1  0.643700  0.005316  0.938935  1
  Ga  Ga20  1  0.556717  0.997914  0.676569  1
  Ga  Ga21  1  0.440631  0.004007  0.325007  1
  Ga  Ga22  1  0.520947  0.667244  0.559452  1
  Ga  Ga23  1  0.478568  0.332418  0.440483  1
  Ga  Ga24  1  0.690714  0.671874  0.054433  1
  Ga  Ga25  1  0.314307  0.334049  0.944481  1
  Ga  Ga26  1  0.145764  0.666952  0.443390  1
  Si  Si27  1  0.806124  0.866081  0.817997  1
  Pt  Pt28  1  0.332184  0.671630  0.999832  1
  Pt  Pt29  1  0.545779  0.326428  0.635628  1
  Pt  Pt30  1  0.454784  0.675655  0.363900  1
  Pt  Pt31  1  0.886959  0.001087  0.647902  1
  Pt  Pt32  1  0.110078  0.994250  0.360516  1
  Pt  Pt33  1  0.672058  0.333055  0.998996  1
  Pt  Pt34  1  0.208274  0.666841  0.638673  1
  Pt  Pt35  1  0.793459  0.332405  0.361458  1
  Pt  Pt36  1  0.997014  0.000582  0.990893  1
