# generated using pymatgen
data_Nb4Al5GaNi2
_symmetry_space_group_name_H-M   'P 1'
_cell_length_a   5.15374800
_cell_length_b   5.14892093
_cell_length_c   7.82342200
_cell_angle_alpha   90.00000000
_cell_angle_beta   90.00000000
_cell_angle_gamma   120.03101683
_symmetry_Int_Tables_number   1
_chemical_formula_structural   Nb4Al5GaNi2
_chemical_formula_sum   'Nb4 Al5 Ga1 Ni2'
_cell_volume   179.73430163
_cell_formula_units_Z   1
loop_
 _symmetry_equiv_pos_site_id
 _symmetry_equiv_pos_as_xyz
  1  'x, y, z'
loop_
 _atom_site_type_symbol
 _atom_site_label
 _atom_site_symmetry_multiplicity
 _atom_site_fract_x
 _atom_site_fract_y
 _atom_site_fract_z
 _atom_site_occupancy
  Nb  Nb0  1  0.665769  0.331538  0.070161  1
  Nb  Nb1  1  0.665769  0.331538  0.429840  1
  Nb  Nb2  1  0.333409  0.666816  0.571469  1
  Nb  Nb3  1  0.333409  0.666816  0.928532  1
  Al  Al4  1  0.168246  0.833196  0.249999  1
  Al  Al5  1  0.664950  0.833196  0.249999  1
  Al  Al6  1  0.336320  0.167965  0.750000  1
  Al  Al7  1  0.831645  0.167965  0.750000  1
  Al  Al8  1  0.831971  0.663942  0.750000  1
  Ga  Ga9  1  0.170162  0.340324  0.249999  1
  Ni  Ni10  1  0.999176  0.998351  0.999148  1
  Ni  Ni11  1  0.999176  0.998351  0.500852  1
