# generated using pymatgen
data_TbHo15In4Pd3Rh
_symmetry_space_group_name_H-M   'P 1'
_cell_length_a   9.68204091
_cell_length_b   9.68204144
_cell_length_c   9.65914688
_cell_angle_alpha   59.94330376
_cell_angle_beta   59.94330321
_cell_angle_gamma   59.99370163
_symmetry_Int_Tables_number   1
_chemical_formula_structural   TbHo15In4Pd3Rh
_chemical_formula_sum   'Tb1 Ho15 In4 Pd3 Rh1'
_cell_volume   639.68221119
_cell_formula_units_Z   1
loop_
 _symmetry_equiv_pos_site_id
 _symmetry_equiv_pos_as_xyz
  1  'x, y, z'
loop_
 _atom_site_type_symbol
 _atom_site_label
 _atom_site_symmetry_multiplicity
 _atom_site_fract_x
 _atom_site_fract_y
 _atom_site_fract_z
 _atom_site_occupancy
  Tb  Tb0  1  0.186396  0.186396  0.815150  1
  Ho  Ho1  1  0.603030  0.603030  0.190567  1
  Ho  Ho2  1  0.440256  0.060262  0.439343  1
  Ho  Ho3  1  0.439316  0.439316  0.056897  1
  Ho  Ho4  1  0.811498  0.186362  0.814973  1
  Ho  Ho5  1  0.186876  0.812491  0.187764  1
  Ho  Ho6  1  0.439788  0.064503  0.056754  1
  Ho  Ho7  1  0.186362  0.811498  0.814973  1
  Ho  Ho8  1  0.064503  0.439788  0.056754  1
  Ho  Ho9  1  0.813141  0.813141  0.186863  1
  Ho  Ho10  1  0.195788  0.599603  0.605294  1
  Ho  Ho11  1  0.060262  0.440256  0.439343  1
  Ho  Ho12  1  0.060027  0.060027  0.439970  1
  Ho  Ho13  1  0.812491  0.186876  0.187764  1
  Ho  Ho14  1  0.599603  0.195788  0.605294  1
  Ho  Ho15  1  0.599228  0.599228  0.605192  1
  In  In16  1  0.833468  0.833468  0.833211  1
  In  In17  1  0.833137  0.833137  0.500698  1
  In  In18  1  0.500706  0.833026  0.833082  1
  In  In19  1  0.833026  0.500706  0.833082  1
  Pd  Pd20  1  0.394252  0.818887  0.392447  1
  Pd  Pd21  1  0.394497  0.394497  0.392246  1
  Pd  Pd22  1  0.818887  0.394252  0.392447  1
  Rh  Rh23  1  0.393464  0.393464  0.819893  1
