# generated using pymatgen
data_Y15Er5NiAg6Rh
_symmetry_space_group_name_H-M   'P 1'
_cell_length_a   9.50177500
_cell_length_b   9.50177602
_cell_length_c   9.63564900
_cell_angle_alpha   90.00000000
_cell_angle_beta   90.00000000
_cell_angle_gamma   119.99999296
_symmetry_Int_Tables_number   1
_chemical_formula_structural   Y15Er5NiAg6Rh
_chemical_formula_sum   'Y15 Er5 Ni1 Ag6 Rh1'
_cell_volume   753.39227900
_cell_formula_units_Z   1
loop_
 _symmetry_equiv_pos_site_id
 _symmetry_equiv_pos_as_xyz
  1  'x, y, z'
loop_
 _atom_site_type_symbol
 _atom_site_label
 _atom_site_symmetry_multiplicity
 _atom_site_fract_x
 _atom_site_fract_y
 _atom_site_fract_z
 _atom_site_occupancy
  Y  Y0  1  0.542878  0.457122  0.251979  1
  Y  Y1  1  0.542878  0.085758  0.251979  1
  Y  Y2  1  0.914242  0.457122  0.251979  1
  Y  Y3  1  0.456831  0.543169  0.749602  1
  Y  Y4  1  0.456831  0.913663  0.749602  1
  Y  Y5  1  0.086337  0.543169  0.749602  1
  Y  Y6  1  0.790992  0.209008  0.560628  1
  Y  Y7  1  0.790992  0.581981  0.560628  1
  Y  Y8  1  0.418019  0.209008  0.560628  1
  Y  Y9  1  0.789903  0.210097  0.940269  1
  Y  Y10  1  0.789903  0.579804  0.940269  1
  Y  Y11  1  0.420196  0.210097  0.940269  1
  Y  Y12  1  0.207343  0.792657  0.058974  1
  Y  Y13  1  0.207343  0.414686  0.058974  1
  Y  Y14  1  0.585314  0.792657  0.058974  1
  Er  Er15  1  0.000000  0.000000  0.496853  1
  Er  Er16  1  0.000000  0.000000  0.995418  1
  Er  Er17  1  0.208888  0.791112  0.443508  1
  Er  Er18  1  0.208888  0.417776  0.443508  1
  Er  Er19  1  0.582224  0.791112  0.443508  1
  Ni  Ni20  1  0.666667  0.333333  0.751007  1
  Ag  Ag21  1  0.884616  0.115384  0.248569  1
  Ag  Ag22  1  0.884616  0.769233  0.248569  1
  Ag  Ag23  1  0.230767  0.115384  0.248569  1
  Ag  Ag24  1  0.115005  0.884995  0.747769  1
  Ag  Ag25  1  0.115005  0.230010  0.747769  1
  Ag  Ag26  1  0.769990  0.884995  0.747769  1
  Rh  Rh27  1  0.333333  0.666667  0.252824  1
