# generated using pymatgen
data_Tl2B(Pd2Pt)2
_symmetry_space_group_name_H-M   'P 1'
_cell_length_a   5.88553836
_cell_length_b   5.88553803
_cell_length_c   5.93103400
_cell_angle_alpha   59.74396948
_cell_angle_beta   59.74397137
_cell_angle_gamma   58.21015567
_symmetry_Int_Tables_number   1
_chemical_formula_structural   Tl2B(Pd2Pt)2
_chemical_formula_sum   'Tl2 B1 Pd4 Pt2'
_cell_volume   142.66570117
_cell_formula_units_Z   1
loop_
 _symmetry_equiv_pos_site_id
 _symmetry_equiv_pos_as_xyz
  1  'x, y, z'
loop_
 _atom_site_type_symbol
 _atom_site_label
 _atom_site_symmetry_multiplicity
 _atom_site_fract_x
 _atom_site_fract_y
 _atom_site_fract_z
 _atom_site_occupancy
  Tl  Tl0  1  0.248503  0.248503  0.253727  1
  Tl  Tl1  1  0.751497  0.751497  0.750733  1
  B  B2  1  0.500000  0.500000  0.494860  1
  Pd  Pd3  1  0.754685  0.754685  0.247081  1
  Pd  Pd4  1  0.245315  0.245315  0.756450  1
  Pd  Pd5  1  0.752065  0.247935  0.755146  1
  Pd  Pd6  1  0.247935  0.752065  0.755146  1
  Pt  Pt7  1  0.755382  0.244618  0.243428  1
  Pt  Pt8  1  0.244618  0.755382  0.243428  1
