# generated using pymatgen
data_Pr8Co3Si12Au
_symmetry_space_group_name_H-M   'P 1'
_cell_length_a   8.14985100
_cell_length_b   8.14985261
_cell_length_c   8.57212200
_cell_angle_alpha   90.00000000
_cell_angle_beta   90.00000000
_cell_angle_gamma   120.00000563
_symmetry_Int_Tables_number   1
_chemical_formula_structural   Pr8Co3Si12Au
_chemical_formula_sum   'Pr8 Co3 Si12 Au1'
_cell_volume   493.08112027
_cell_formula_units_Z   1
loop_
 _symmetry_equiv_pos_site_id
 _symmetry_equiv_pos_as_xyz
  1  'x, y, z'
loop_
 _atom_site_type_symbol
 _atom_site_label
 _atom_site_symmetry_multiplicity
 _atom_site_fract_x
 _atom_site_fract_y
 _atom_site_fract_z
 _atom_site_occupancy
  Pr  Pr0  1  0.496609  0.503391  0.755482  1
  Pr  Pr1  1  0.497149  0.502851  0.244738  1
  Pr  Pr2  1  0.006782  0.503391  0.755482  1
  Pr  Pr3  1  0.005702  0.502851  0.244738  1
  Pr  Pr4  1  0.496609  0.993218  0.755482  1
  Pr  Pr5  1  0.497149  0.994298  0.244738  1
  Pr  Pr6  1  0.000000  0.000000  0.752006  1
  Pr  Pr7  1  0.000000  0.000000  0.247288  1
  Co  Co8  1  0.666667  0.333333  0.994521  1
  Co  Co9  1  0.333333  0.666667  0.005062  1
  Co  Co10  1  0.333333  0.666667  0.498310  1
  Si  Si11  1  0.827988  0.172012  0.001027  1
  Si  Si12  1  0.170711  0.829289  0.999178  1
  Si  Si13  1  0.344025  0.172012  0.001027  1
  Si  Si14  1  0.173540  0.826460  0.501067  1
  Si  Si15  1  0.658576  0.829289  0.999178  1
  Si  Si16  1  0.839834  0.160166  0.498573  1
  Si  Si17  1  0.827988  0.655975  0.001027  1
  Si  Si18  1  0.652921  0.826460  0.501067  1
  Si  Si19  1  0.170711  0.341424  0.999178  1
  Si  Si20  1  0.320332  0.160166  0.498573  1
  Si  Si21  1  0.173540  0.347079  0.501067  1
  Si  Si22  1  0.839834  0.679668  0.498573  1
  Au  Au23  1  0.666667  0.333333  0.502623  1
