# generated using pymatgen
data_Nd2Dy4CoI10
_symmetry_space_group_name_H-M   'P 1'
_cell_length_a   7.77560557
_cell_length_b   9.78659159
_cell_length_c   9.75308117
_cell_angle_alpha   106.95975608
_cell_angle_beta   96.44518907
_cell_angle_gamma   105.16736751
_symmetry_Int_Tables_number   1
_chemical_formula_structural   Nd2Dy4CoI10
_chemical_formula_sum   'Nd2 Dy4 Co1 I10'
_cell_volume   670.72481291
_cell_formula_units_Z   1
loop_
 _symmetry_equiv_pos_site_id
 _symmetry_equiv_pos_as_xyz
  1  'x, y, z'
loop_
 _atom_site_type_symbol
 _atom_site_label
 _atom_site_symmetry_multiplicity
 _atom_site_fract_x
 _atom_site_fract_y
 _atom_site_fract_z
 _atom_site_occupancy
  Nd  Nd0  1  0.887709  0.958706  0.231281  1
  Nd  Nd1  1  0.112291  0.041294  0.768719  1
  Dy  Dy2  1  0.029573  0.718559  0.915457  1
  Dy  Dy3  1  0.970427  0.281441  0.084543  1
  Dy  Dy4  1  0.656976  0.876988  0.837209  1
  Dy  Dy5  1  0.343024  0.123012  0.162791  1
  Co  Co6  1  0.000000  0.000000  0.000000  1
  I  I7  1  0.649698  0.551355  0.729237  1
  I  I8  1  0.350302  0.448645  0.270763  1
  I  I9  1  0.733684  0.910090  0.540562  1
  I  I10  1  0.266316  0.089910  0.459438  1
  I  I11  1  0.084170  0.376428  0.822449  1
  I  I12  1  0.915830  0.623572  0.177551  1
  I  I13  1  0.449133  0.815863  0.090358  1
  I  I14  1  0.550867  0.184137  0.909642  1
  I  I15  1  0.223356  0.738834  0.655882  1
  I  I16  1  0.776644  0.261166  0.344118  1
