# generated using pymatgen
data_Tm10Cd3Pd
_symmetry_space_group_name_H-M   'P 1'
_cell_length_a   9.55434100
_cell_length_b   9.55434160
_cell_length_c   9.69805200
_cell_angle_alpha   90.00000000
_cell_angle_beta   90.00000000
_cell_angle_gamma   119.99999447
_symmetry_Int_Tables_number   1
_chemical_formula_structural   Tm10Cd3Pd
_chemical_formula_sum   'Tm20 Cd6 Pd2'
_cell_volume   766.68447014
_cell_formula_units_Z   2
loop_
 _symmetry_equiv_pos_site_id
 _symmetry_equiv_pos_as_xyz
  1  'x, y, z'
loop_
 _atom_site_type_symbol
 _atom_site_label
 _atom_site_symmetry_multiplicity
 _atom_site_fract_x
 _atom_site_fract_y
 _atom_site_fract_z
 _atom_site_occupancy
  Tm  Tm0  1  0.208528  0.791472  0.943835  1
  Tm  Tm1  1  0.208528  0.417057  0.943835  1
  Tm  Tm2  1  0.582943  0.791472  0.943835  1
  Tm  Tm3  1  0.791472  0.208528  0.056165  1
  Tm  Tm4  1  0.791472  0.582943  0.056165  1
  Tm  Tm5  1  0.417057  0.208528  0.056165  1
  Tm  Tm6  1  0.791472  0.208528  0.443835  1
  Tm  Tm7  1  0.791472  0.582943  0.443835  1
  Tm  Tm8  1  0.417057  0.208528  0.443835  1
  Tm  Tm9  1  0.208528  0.791472  0.556165  1
  Tm  Tm10  1  0.208528  0.417057  0.556165  1
  Tm  Tm11  1  0.582943  0.791472  0.556165  1
  Tm  Tm12  1  0.542645  0.457355  0.750000  1
  Tm  Tm13  1  0.542645  0.085290  0.750000  1
  Tm  Tm14  1  0.914710  0.457355  0.750000  1
  Tm  Tm15  1  0.457355  0.542645  0.250000  1
  Tm  Tm16  1  0.457355  0.914710  0.250000  1
  Tm  Tm17  1  0.085290  0.542645  0.250000  1
  Tm  Tm18  1  0.000000  0.000000  0.000000  1
  Tm  Tm19  1  0.000000  0.000000  0.500000  1
  Cd  Cd20  1  0.885666  0.114334  0.750000  1
  Cd  Cd21  1  0.885666  0.771332  0.750000  1
  Cd  Cd22  1  0.228668  0.114334  0.750000  1
  Cd  Cd23  1  0.114334  0.885666  0.250000  1
  Cd  Cd24  1  0.114334  0.228668  0.250000  1
  Cd  Cd25  1  0.771332  0.885666  0.250000  1
  Pd  Pd26  1  0.333333  0.666667  0.750000  1
  Pd  Pd27  1  0.666667  0.333333  0.250000  1
