# generated using pymatgen
data_YbCu2(SO4)4
_symmetry_space_group_name_H-M   'P 1'
_cell_length_a   6.40354219
_cell_length_b   6.40354170
_cell_length_c   8.68949475
_cell_angle_alpha   73.20439926
_cell_angle_beta   73.20439942
_cell_angle_gamma   87.19695877
_symmetry_Int_Tables_number   1
_chemical_formula_structural   YbCu2(SO4)4
_chemical_formula_sum   'Yb1 Cu2 S4 O16'
_cell_volume   326.33179123
_cell_formula_units_Z   1
loop_
 _symmetry_equiv_pos_site_id
 _symmetry_equiv_pos_as_xyz
  1  'x, y, z'
loop_
 _atom_site_type_symbol
 _atom_site_label
 _atom_site_symmetry_multiplicity
 _atom_site_fract_x
 _atom_site_fract_y
 _atom_site_fract_z
 _atom_site_occupancy
  Yb  Yb0  1  0.000000  0.000000  0.000000  1
  Cu  Cu1  1  0.000000  0.000000  0.500000  1
  Cu  Cu2  1  0.500000  0.500000  0.500000  1
  S  S3  1  0.090983  0.594946  0.735835  1
  S  S4  1  0.594946  0.090983  0.735835  1
  S  S5  1  0.909017  0.405054  0.264165  1
  S  S6  1  0.405054  0.909017  0.264165  1
  O  O7  1  0.338601  0.627839  0.663817  1
  O  O8  1  0.627839  0.338601  0.663817  1
  O  O9  1  0.661399  0.372161  0.336183  1
  O  O10  1  0.372161  0.661399  0.336183  1
  O  O11  1  0.030828  0.714146  0.860478  1
  O  O12  1  0.714146  0.030828  0.860478  1
  O  O13  1  0.969172  0.285854  0.139522  1
  O  O14  1  0.285854  0.969172  0.139522  1
  O  O15  1  0.986935  0.695025  0.594108  1
  O  O16  1  0.695025  0.986935  0.594108  1
  O  O17  1  0.013065  0.304975  0.405892  1
  O  O18  1  0.304975  0.013065  0.405892  1
  O  O19  1  0.028531  0.363880  0.793456  1
  O  O20  1  0.363880  0.028531  0.793456  1
  O  O21  1  0.971469  0.636120  0.206544  1
  O  O22  1  0.636120  0.971469  0.206544  1
