# generated using pymatgen
data_Sr8Yb9Ho3Pt16
_symmetry_space_group_name_H-M   'P 1'
_cell_length_a   7.68266886
_cell_length_b   7.82192509
_cell_length_c   14.87466600
_cell_angle_alpha   90.00095225
_cell_angle_beta   89.97294311
_cell_angle_gamma   89.93466124
_symmetry_Int_Tables_number   1
_chemical_formula_structural   Sr8Yb9Ho3Pt16
_chemical_formula_sum   'Sr8 Yb9 Ho3 Pt16'
_cell_volume   893.86649429
_cell_formula_units_Z   1
loop_
 _symmetry_equiv_pos_site_id
 _symmetry_equiv_pos_as_xyz
  1  'x, y, z'
loop_
 _atom_site_type_symbol
 _atom_site_label
 _atom_site_symmetry_multiplicity
 _atom_site_fract_x
 _atom_site_fract_y
 _atom_site_fract_z
 _atom_site_occupancy
  Sr  Sr0  1  0.500790  0.325405  0.904949  1
  Sr  Sr1  1  0.000604  0.175254  0.595556  1
  Sr  Sr2  1  0.498799  0.674150  0.403328  1
  Sr  Sr3  1  0.999442  0.823631  0.095770  1
  Sr  Sr4  1  0.498750  0.674301  0.097405  1
  Sr  Sr5  1  0.000813  0.823830  0.401925  1
  Sr  Sr6  1  0.500001  0.323131  0.597179  1
  Sr  Sr7  1  0.000658  0.178127  0.904759  1
  Yb  Yb8  1  0.161171  0.334583  0.123118  1
  Yb  Yb9  1  0.661807  0.166863  0.122814  1
  Yb  Yb10  1  0.161347  0.333793  0.377132  1
  Yb  Yb11  1  0.338934  0.832931  0.622867  1
  Yb  Yb12  1  0.838439  0.667161  0.877281  1
  Yb  Yb13  1  0.177871  0.495109  0.750389  1
  Yb  Yb14  1  0.678111  0.005249  0.750704  1
  Yb  Yb15  1  0.824544  0.503741  0.248568  1
  Yb  Yb16  1  0.320824  0.996632  0.248983  1
  Ho  Ho17  1  0.338390  0.833846  0.876240  1
  Ho  Ho18  1  0.838978  0.665803  0.623905  1
  Ho  Ho19  1  0.661193  0.166718  0.375693  1
  Pt  Pt20  1  0.331832  0.036857  0.040187  1
  Pt  Pt21  1  0.829808  0.454528  0.458652  1
  Pt  Pt22  1  0.670424  0.954242  0.541633  1
  Pt  Pt23  1  0.167896  0.548201  0.956015  1
  Pt  Pt24  1  0.658859  0.959140  0.955078  1
  Pt  Pt25  1  0.156185  0.541996  0.544496  1
  Pt  Pt26  1  0.344308  0.042137  0.455736  1
  Pt  Pt27  1  0.839305  0.461090  0.042774  1
  Pt  Pt28  1  0.545389  0.636144  0.751704  1
  Pt  Pt29  1  0.045022  0.864710  0.747717  1
  Pt  Pt30  1  0.457423  0.364658  0.253297  1
  Pt  Pt31  1  0.950953  0.134207  0.252117  1
  Pt  Pt32  1  0.302813  0.120194  0.753305  1
  Pt  Pt33  1  0.803378  0.380032  0.747111  1
  Pt  Pt34  1  0.694623  0.878137  0.252120  1
  Pt  Pt35  1  0.200312  0.623470  0.249496  1
