# generated using pymatgen
data_Zr3Tc3BAs2
_symmetry_space_group_name_H-M   'P 1'
_cell_length_a   7.65744175
_cell_length_b   7.65744231
_cell_length_c   7.65744300
_cell_angle_alpha   126.72549912
_cell_angle_beta   127.43127560
_cell_angle_gamma   78.12417652
_symmetry_Int_Tables_number   1
_chemical_formula_structural   Zr3Tc3BAs2
_chemical_formula_sum   'Zr6 Tc6 B2 As4'
_cell_volume   276.86857564
_cell_formula_units_Z   2
loop_
 _symmetry_equiv_pos_site_id
 _symmetry_equiv_pos_as_xyz
  1  'x, y, z'
loop_
 _atom_site_type_symbol
 _atom_site_label
 _atom_site_symmetry_multiplicity
 _atom_site_fract_x
 _atom_site_fract_y
 _atom_site_fract_z
 _atom_site_occupancy
  Zr  Zr0  1  0.443360  0.640060  0.696699  1
  Zr  Zr1  1  0.556640  0.253339  0.196699  1
  Zr  Zr2  1  0.749945  0.866930  0.616986  1
  Zr  Zr3  1  0.250055  0.867042  0.116986  1
  Zr  Zr4  1  0.056778  0.253380  0.696602  1
  Zr  Zr5  1  0.943222  0.639823  0.196602  1
  Tc  Tc6  1  0.500000  0.489671  0.989671  1
  Tc  Tc7  1  0.000000  0.489671  0.489671  1
  Tc  Tc8  1  0.118073  0.253190  0.134863  1
  Tc  Tc9  1  0.881927  0.016790  0.135116  1
  Tc  Tc10  1  0.381673  0.016790  0.634863  1
  Tc  Tc11  1  0.618327  0.253190  0.635116  1
  B  B12  1  0.250157  0.253623  0.503468  1
  B  B13  1  0.749843  0.253311  0.003468  1
  As  As14  1  0.333246  0.586516  0.253128  1
  As  As15  1  0.666754  0.919882  0.253269  1
  As  As16  1  0.166613  0.919882  0.753128  1
  As  As17  1  0.833387  0.586516  0.753269  1
