# generated using pymatgen
data_Er12InCo4Pd
_symmetry_space_group_name_H-M   'P 1'
_cell_length_a   8.25487798
_cell_length_b   8.25487691
_cell_length_c   8.25487771
_cell_angle_alpha   110.88185003
_cell_angle_beta   110.74397827
_cell_angle_gamma   106.81995606
_symmetry_Int_Tables_number   1
_chemical_formula_structural   Er12InCo4Pd
_chemical_formula_sum   'Er12 In1 Co4 Pd1'
_cell_volume   432.33004780
_cell_formula_units_Z   1
loop_
 _symmetry_equiv_pos_site_id
 _symmetry_equiv_pos_as_xyz
  1  'x, y, z'
loop_
 _atom_site_type_symbol
 _atom_site_label
 _atom_site_symmetry_multiplicity
 _atom_site_fract_x
 _atom_site_fract_y
 _atom_site_fract_z
 _atom_site_occupancy
  Er  Er0  1  0.185889  0.288415  0.474305  1
  Er  Er1  1  0.814111  0.711585  0.525695  1
  Er  Er2  1  0.185889  0.711585  0.897474  1
  Er  Er3  1  0.814111  0.288415  0.102526  1
  Er  Er4  1  0.314686  0.618288  0.303602  1
  Er  Er5  1  0.685314  0.381712  0.696398  1
  Er  Er6  1  0.314686  0.011084  0.696398  1
  Er  Er7  1  0.685314  0.988916  0.303602  1
  Er  Er8  1  0.420280  0.219595  0.200684  1
  Er  Er9  1  0.579720  0.780405  0.799316  1
  Er  Er10  1  0.018911  0.219595  0.799316  1
  Er  Er11  1  0.981089  0.780405  0.200684  1
  In  In12  1  0.500000  0.500000  0.000000  1
  Co  Co13  1  0.112122  0.612122  0.500000  1
  Co  Co14  1  0.887878  0.387878  0.500000  1
  Co  Co15  1  0.378892  0.000000  0.378892  1
  Co  Co16  1  0.621108  0.000000  0.621108  1
  Pd  Pd17  1  0.000000  0.000000  0.000000  1
