# generated using pymatgen
data_Ta5TiSi6(Ru2W)2
_symmetry_space_group_name_H-M   'P 1'
_cell_length_a   7.51969782
_cell_length_b   7.50978946
_cell_length_c   7.51969717
_cell_angle_alpha   126.85393205
_cell_angle_beta   124.37172684
_cell_angle_gamma   80.57464706
_symmetry_Int_Tables_number   1
_chemical_formula_structural   Ta5TiSi6(Ru2W)2
_chemical_formula_sum   'Ta5 Ti1 Si6 Ru4 W2'
_cell_volume   270.45235465
_cell_formula_units_Z   1
loop_
 _symmetry_equiv_pos_site_id
 _symmetry_equiv_pos_as_xyz
  1  'x, y, z'
loop_
 _atom_site_type_symbol
 _atom_site_label
 _atom_site_symmetry_multiplicity
 _atom_site_fract_x
 _atom_site_fract_y
 _atom_site_fract_z
 _atom_site_occupancy
  Ta  Ta0  1  0.058992  0.523792  0.964798  1
  Ta  Ta1  1  0.539714  0.511992  0.472278  1
  Ta  Ta2  1  0.460690  0.933266  0.972577  1
  Ta  Ta3  1  0.747040  0.078234  0.831194  1
  Ta  Ta4  1  0.253234  0.085174  0.331939  1
  Ti  Ti5  1  0.942210  0.907635  0.465426  1
  Si  Si6  1  0.721155  0.448667  0.227513  1
  Si  Si7  1  0.279259  0.507102  0.727843  1
  Si  Si8  1  0.677341  0.180062  0.516557  1
  Si  Si9  1  0.321831  0.842219  0.506606  1
  Si  Si10  1  0.163504  0.180062  0.002720  1
  Si  Si11  1  0.835613  0.842219  0.020388  1
  Ru  Ru12  1  0.907696  0.250304  0.413309  1
  Ru  Ru13  1  0.091859  0.506006  0.343301  1
  Ru  Ru14  1  0.336994  0.250304  0.842607  1
  Ru  Ru15  1  0.662704  0.506006  0.914147  1
  W  W16  1  0.500615  0.752378  0.252829  1
  W  W17  1  0.999549  0.752378  0.751764  1
