# generated using pymatgen
data_TbErSi2Tc
_symmetry_space_group_name_H-M   'P 1'
_cell_length_a   5.80101164
_cell_length_b   5.80101160
_cell_length_c   10.08428168
_cell_angle_alpha   63.50391242
_cell_angle_beta   63.50391081
_cell_angle_gamma   42.15785254
_symmetry_Int_Tables_number   1
_chemical_formula_structural   TbErSi2Tc
_chemical_formula_sum   'Tb2 Er2 Si4 Tc2'
_cell_volume   200.04416457
_cell_formula_units_Z   2
loop_
 _symmetry_equiv_pos_site_id
 _symmetry_equiv_pos_as_xyz
  1  'x, y, z'
loop_
 _atom_site_type_symbol
 _atom_site_label
 _atom_site_symmetry_multiplicity
 _atom_site_fract_x
 _atom_site_fract_y
 _atom_site_fract_z
 _atom_site_occupancy
  Tb  Tb0  1  0.006225  0.006225  0.321799  1
  Tb  Tb1  1  0.188612  0.188612  0.890935  1
  Er  Er2  1  0.995477  0.995477  0.676810  1
  Er  Er3  1  0.812781  0.812781  0.110275  1
  Si  Si4  1  0.499867  0.499867  0.121669  1
  Si  Si5  1  0.497429  0.497429  0.877678  1
  Si  Si6  1  0.358077  0.358077  0.560277  1
  Si  Si7  1  0.642236  0.642236  0.439833  1
  Tc  Tc8  1  0.272229  0.272229  0.371188  1
  Tc  Tc9  1  0.727067  0.727067  0.629536  1
