# generated using pymatgen
data_Pr2Co2As4RuRh
_symmetry_space_group_name_H-M   'P 1'
_cell_length_a   4.25223700
_cell_length_b   4.25223700
_cell_length_c   9.64109600
_cell_angle_alpha   90.00000000
_cell_angle_beta   90.00000000
_cell_angle_gamma   90.00000000
_symmetry_Int_Tables_number   1
_chemical_formula_structural   Pr2Co2As4RuRh
_chemical_formula_sum   'Pr2 Co2 As4 Ru1 Rh1'
_cell_volume   174.32566537
_cell_formula_units_Z   1
loop_
 _symmetry_equiv_pos_site_id
 _symmetry_equiv_pos_as_xyz
  1  'x, y, z'
loop_
 _atom_site_type_symbol
 _atom_site_label
 _atom_site_symmetry_multiplicity
 _atom_site_fract_x
 _atom_site_fract_y
 _atom_site_fract_z
 _atom_site_occupancy
  Pr  Pr0  1  0.000000  0.500000  0.262274  1
  Pr  Pr1  1  0.500000  0.000000  0.737726  1
  Co  Co2  1  0.000000  0.500000  0.609743  1
  Co  Co3  1  0.500000  0.000000  0.390257  1
  As  As4  1  0.000000  0.000000  0.500000  1
  As  As5  1  0.500000  0.500000  0.500000  1
  As  As6  1  0.000000  0.500000  0.856976  1
  As  As7  1  0.500000  0.000000  0.143024  1
  Ru  Ru8  1  0.000000  0.000000  0.000000  1
  Rh  Rh9  1  0.500000  0.500000  0.000000  1
