# generated using pymatgen
data_LaNdRh2O7
_symmetry_space_group_name_H-M   'P 1'
_cell_length_a   7.41932783
_cell_length_b   7.41106642
_cell_length_c   7.41932762
_cell_angle_alpha   60.03682294
_cell_angle_beta   60.06851879
_cell_angle_gamma   60.03682375
_symmetry_Int_Tables_number   1
_chemical_formula_structural   LaNdRh2O7
_chemical_formula_sum   'La2 Nd2 Rh4 O14'
_cell_volume   288.77590392
_cell_formula_units_Z   2
loop_
 _symmetry_equiv_pos_site_id
 _symmetry_equiv_pos_as_xyz
  1  'x, y, z'
loop_
 _atom_site_type_symbol
 _atom_site_label
 _atom_site_symmetry_multiplicity
 _atom_site_fract_x
 _atom_site_fract_y
 _atom_site_fract_z
 _atom_site_occupancy
  La  La0  1  0.625000  0.125000  0.125000  1
  La  La1  1  0.125000  0.125000  0.625000  1
  Nd  Nd2  1  0.125000  0.125000  0.125000  1
  Nd  Nd3  1  0.125000  0.625000  0.125000  1
  Rh  Rh4  1  0.625000  0.625000  0.625000  1
  Rh  Rh5  1  0.625000  0.625000  0.125000  1
  Rh  Rh6  1  0.125000  0.625000  0.625000  1
  Rh  Rh7  1  0.625000  0.125000  0.625000  1
  O  O8  1  0.249034  0.250966  0.249034  1
  O  O9  1  0.293454  0.706546  0.293454  1
  O  O10  1  0.956305  0.955466  0.540396  1
  O  O11  1  0.545427  0.954573  0.545427  1
  O  O12  1  0.709604  0.702167  0.293695  1
  O  O13  1  0.956305  0.547833  0.540396  1
  O  O14  1  0.704573  0.295427  0.704573  1
  O  O15  1  0.293695  0.294534  0.709604  1
  O  O16  1  0.709604  0.294534  0.293695  1
  O  O17  1  0.293695  0.702167  0.709604  1
  O  O18  1  0.956546  0.543454  0.956546  1
  O  O19  1  0.540396  0.547833  0.956305  1
  O  O20  1  0.000966  0.999034  0.000966  1
  O  O21  1  0.540396  0.955466  0.956305  1
