# generated using pymatgen
data_RbTaSe3
_symmetry_space_group_name_H-M   'P 1'
_cell_length_a   7.67265300
_cell_length_b   7.67265376
_cell_length_c   6.17850700
_cell_angle_alpha   90.00000000
_cell_angle_beta   90.00000000
_cell_angle_gamma   120.00000104
_symmetry_Int_Tables_number   1
_chemical_formula_structural   RbTaSe3
_chemical_formula_sum   'Rb2 Ta2 Se6'
_cell_volume   314.99620970
_cell_formula_units_Z   2
loop_
 _symmetry_equiv_pos_site_id
 _symmetry_equiv_pos_as_xyz
  1  'x, y, z'
loop_
 _atom_site_type_symbol
 _atom_site_label
 _atom_site_symmetry_multiplicity
 _atom_site_fract_x
 _atom_site_fract_y
 _atom_site_fract_z
 _atom_site_occupancy
  Rb  Rb0  1  0.333333  0.666667  0.251508  1
  Rb  Rb1  1  0.666667  0.333333  0.751508  1
  Ta  Ta2  1  0.000000  0.000000  0.957976  1
  Ta  Ta3  1  0.000000  0.000000  0.457976  1
  Se  Se4  1  0.158761  0.841239  0.748635  1
  Se  Se5  1  0.158761  0.317522  0.748635  1
  Se  Se6  1  0.682478  0.841239  0.748635  1
  Se  Se7  1  0.841239  0.158761  0.248635  1
  Se  Se8  1  0.841239  0.682478  0.248635  1
  Se  Se9  1  0.317522  0.158761  0.248635  1
