# generated using pymatgen
data_DyHo4In4IrPt
_symmetry_space_group_name_H-M   'P 1'
_cell_length_a   3.62337900
_cell_length_b   8.11421395
_cell_length_c   18.23243900
_cell_angle_alpha   89.96153871
_cell_angle_beta   90.00000000
_cell_angle_gamma   90.00000000
_symmetry_Int_Tables_number   1
_chemical_formula_structural   DyHo4In4IrPt
_chemical_formula_sum   'Dy2 Ho8 In8 Ir2 Pt2'
_cell_volume   536.04949219
_cell_formula_units_Z   2
loop_
 _symmetry_equiv_pos_site_id
 _symmetry_equiv_pos_as_xyz
  1  'x, y, z'
loop_
 _atom_site_type_symbol
 _atom_site_label
 _atom_site_symmetry_multiplicity
 _atom_site_fract_x
 _atom_site_fract_y
 _atom_site_fract_z
 _atom_site_occupancy
  Dy  Dy0  1  0.000000  0.000000  0.000000  1
  Dy  Dy1  1  0.000000  0.500000  0.500000  1
  Ho  Ho2  1  0.000000  0.115125  0.411949  1
  Ho  Ho3  1  0.000000  0.884875  0.588051  1
  Ho  Ho4  1  0.000000  0.383258  0.913890  1
  Ho  Ho5  1  0.000000  0.616742  0.086110  1
  Ho  Ho6  1  0.000000  0.236456  0.221859  1
  Ho  Ho7  1  0.000000  0.763544  0.778141  1
  Ho  Ho8  1  0.000000  0.248890  0.720097  1
  Ho  Ho9  1  0.000000  0.751110  0.279903  1
  In  In10  1  0.500000  0.423698  0.350894  1
  In  In11  1  0.500000  0.576302  0.649106  1
  In  In12  1  0.500000  0.074600  0.850672  1
  In  In13  1  0.500000  0.925400  0.149328  1
  In  In14  1  0.500000  0.292721  0.066623  1
  In  In15  1  0.500000  0.707279  0.933377  1
  In  In16  1  0.500000  0.206517  0.567443  1
  In  In17  1  0.500000  0.793483  0.432557  1
  Ir  Ir18  1  0.500000  0.021683  0.303849  1
  Ir  Ir19  1  0.500000  0.978317  0.696151  1
  Pt  Pt20  1  0.500000  0.477112  0.803470  1
  Pt  Pt21  1  0.500000  0.522888  0.196530  1
