# generated using pymatgen
data_InSb12(IrOs)2
_symmetry_space_group_name_H-M   'P 1'
_cell_length_a   8.18647598
_cell_length_b   8.16610078
_cell_length_c   8.18647516
_cell_angle_alpha   109.49823842
_cell_angle_beta   109.54617984
_cell_angle_gamma   109.47015720
_symmetry_Int_Tables_number   1
_chemical_formula_structural   InSb12(IrOs)2
_chemical_formula_sum   'In1 Sb12 Ir2 Os2'
_cell_volume   420.76982146
_cell_formula_units_Z   1
loop_
 _symmetry_equiv_pos_site_id
 _symmetry_equiv_pos_as_xyz
  1  'x, y, z'
loop_
 _atom_site_type_symbol
 _atom_site_label
 _atom_site_symmetry_multiplicity
 _atom_site_fract_x
 _atom_site_fract_y
 _atom_site_fract_z
 _atom_site_occupancy
  In  In0  1  0.000000  0.000000  0.000000  1
  Sb  Sb1  1  0.842965  0.658889  0.504704  1
  Sb  Sb2  1  0.157035  0.341111  0.495296  1
  Sb  Sb3  1  0.154185  0.658889  0.815925  1
  Sb  Sb4  1  0.845815  0.341111  0.184075  1
  Sb  Sb5  1  0.661886  0.505083  0.843196  1
  Sb  Sb6  1  0.338114  0.494917  0.156804  1
  Sb  Sb7  1  0.659121  0.813538  0.154416  1
  Sb  Sb8  1  0.340879  0.186462  0.845584  1
  Sb  Sb9  1  0.504791  0.843533  0.659416  1
  Sb  Sb10  1  0.495209  0.156467  0.340584  1
  Sb  Sb11  1  0.184116  0.843533  0.338741  1
  Sb  Sb12  1  0.815884  0.156467  0.661259  1
  Ir  Ir13  1  0.500000  0.000000  0.000000  1
  Ir  Ir14  1  0.000000  0.000000  0.500000  1
  Os  Os15  1  0.500000  0.500000  0.500000  1
  Os  Os16  1  0.000000  0.500000  0.000000  1
