# generated using pymatgen
data_Mn8Mo3W
_symmetry_space_group_name_H-M   'P 1'
_cell_length_a   4.71298200
_cell_length_b   4.71298188
_cell_length_c   7.75232400
_cell_angle_alpha   90.00000000
_cell_angle_beta   90.00000000
_cell_angle_gamma   120.00000085
_symmetry_Int_Tables_number   1
_chemical_formula_structural   Mn8Mo3W
_chemical_formula_sum   'Mn8 Mo3 W1'
_cell_volume   149.12624907
_cell_formula_units_Z   1
loop_
 _symmetry_equiv_pos_site_id
 _symmetry_equiv_pos_as_xyz
  1  'x, y, z'
loop_
 _atom_site_type_symbol
 _atom_site_label
 _atom_site_symmetry_multiplicity
 _atom_site_fract_x
 _atom_site_fract_y
 _atom_site_fract_z
 _atom_site_occupancy
  Mn  Mn0  1  0.000000  0.000000  0.000545  1
  Mn  Mn1  1  0.172463  0.344926  0.249949  1
  Mn  Mn2  1  0.172462  0.827536  0.249949  1
  Mn  Mn3  1  0.655074  0.827536  0.249949  1
  Mn  Mn4  1  0.000000  0.000000  0.500436  1
  Mn  Mn5  1  0.345322  0.172660  0.749935  1
  Mn  Mn6  1  0.827339  0.172660  0.749935  1
  Mn  Mn7  1  0.827341  0.654678  0.749935  1
  Mo  Mo8  1  0.666667  0.333333  0.434042  1
  Mo  Mo9  1  0.333333  0.666666  0.566117  1
  Mo  Mo10  1  0.333333  0.666666  0.934033  1
  W  W11  1  0.666667  0.333333  0.065179  1
