# generated using pymatgen
data_UGaI6
_symmetry_space_group_name_H-M   'P 1'
_cell_length_a   8.05967617
_cell_length_b   8.05967545
_cell_length_c   15.31800431
_cell_angle_alpha   84.31568194
_cell_angle_beta   84.31568042
_cell_angle_gamma   120.15122615
_symmetry_Int_Tables_number   1
_chemical_formula_structural   UGaI6
_chemical_formula_sum   'U2 Ga2 I12'
_cell_volume   843.27756089
_cell_formula_units_Z   2
loop_
 _symmetry_equiv_pos_site_id
 _symmetry_equiv_pos_as_xyz
  1  'x, y, z'
loop_
 _atom_site_type_symbol
 _atom_site_label
 _atom_site_symmetry_multiplicity
 _atom_site_fract_x
 _atom_site_fract_y
 _atom_site_fract_z
 _atom_site_occupancy
  U  U0  1  0.666882  0.840568  0.499633  1
  U  U1  1  0.840568  0.666882  0.999633  1
  Ga  Ga2  1  0.173601  0.333551  0.997809  1
  Ga  Ga3  1  0.333551  0.173601  0.497809  1
  I  I4  1  0.579507  0.700169  0.887934  1
  I  I5  1  0.700169  0.579507  0.387934  1
  I  I6  1  0.896416  0.420830  0.885061  1
  I  I7  1  0.599497  0.081326  0.613901  1
  I  I8  1  0.420830  0.896416  0.385061  1
  I  I9  1  0.015110  0.180238  0.389855  1
  I  I10  1  0.180238  0.015110  0.889855  1
  I  I11  1  0.934475  0.817512  0.610647  1
  I  I12  1  0.081326  0.599497  0.113901  1
  I  I13  1  0.487745  0.332572  0.109760  1
  I  I14  1  0.332572  0.487745  0.609760  1
  I  I15  1  0.817512  0.934475  0.110647  1
