# generated using pymatgen
data_Yb2TmCo9(GeB2)2
_symmetry_space_group_name_H-M   'P 1'
_cell_length_a   5.14823100
_cell_length_b   5.14823140
_cell_length_c   9.35126300
_cell_angle_alpha   90.00000000
_cell_angle_beta   90.00000000
_cell_angle_gamma   120.00000388
_symmetry_Int_Tables_number   1
_chemical_formula_structural   Yb2TmCo9(GeB2)2
_chemical_formula_sum   'Yb2 Tm1 Co9 Ge2 B4'
_cell_volume   214.64311898
_cell_formula_units_Z   1
loop_
 _symmetry_equiv_pos_site_id
 _symmetry_equiv_pos_as_xyz
  1  'x, y, z'
loop_
 _atom_site_type_symbol
 _atom_site_label
 _atom_site_symmetry_multiplicity
 _atom_site_fract_x
 _atom_site_fract_y
 _atom_site_fract_z
 _atom_site_occupancy
  Yb  Yb0  1  0.000000  0.000000  0.996234  1
  Yb  Yb1  1  0.000000  0.000000  0.665171  1
  Tm  Tm2  1  0.000000  0.000000  0.341111  1
  Co  Co3  1  0.500000  0.500000  0.500474  1
  Co  Co4  1  0.500000  0.000000  0.500474  1
  Co  Co5  1  0.000000  0.500000  0.500474  1
  Co  Co6  1  0.500000  0.500000  0.793894  1
  Co  Co7  1  0.500000  0.000000  0.793894  1
  Co  Co8  1  0.000000  0.500000  0.793894  1
  Co  Co9  1  0.500000  0.500000  0.205215  1
  Co  Co10  1  0.500000  0.000000  0.205215  1
  Co  Co11  1  0.000000  0.500000  0.205215  1
  Ge  Ge12  1  0.666667  0.333333  0.999673  1
  Ge  Ge13  1  0.333333  0.666667  0.999673  1
  B  B14  1  0.666667  0.333333  0.650414  1
  B  B15  1  0.333333  0.666667  0.650414  1
  B  B16  1  0.333333  0.666667  0.349280  1
  B  B17  1  0.666667  0.333333  0.349280  1
