# generated using pymatgen
data_Zn13Ru
_symmetry_space_group_name_H-M   'P 1'
_cell_length_a   6.68817225
_cell_length_b   6.68817173
_cell_length_c   5.11038344
_cell_angle_alpha   81.91523931
_cell_angle_beta   81.91524358
_cell_angle_gamma   70.33559413
_symmetry_Int_Tables_number   1
_chemical_formula_structural   Zn13Ru
_chemical_formula_sum   'Zn13 Ru1'
_cell_volume   212.05447463
_cell_formula_units_Z   1
loop_
 _symmetry_equiv_pos_site_id
 _symmetry_equiv_pos_as_xyz
  1  'x, y, z'
loop_
 _atom_site_type_symbol
 _atom_site_label
 _atom_site_symmetry_multiplicity
 _atom_site_fract_x
 _atom_site_fract_y
 _atom_site_fract_z
 _atom_site_occupancy
  Zn  Zn0  1  0.000000  0.000000  0.000000  1
  Zn  Zn1  1  0.386258  0.386258  0.937240  1
  Zn  Zn2  1  0.613742  0.613742  0.062760  1
  Zn  Zn3  1  0.774588  0.774588  0.374000  1
  Zn  Zn4  1  0.225412  0.225412  0.626000  1
  Zn  Zn5  1  0.215657  0.628804  0.313991  1
  Zn  Zn6  1  0.371196  0.784343  0.686009  1
  Zn  Zn7  1  0.784343  0.371196  0.686009  1
  Zn  Zn8  1  0.628804  0.215657  0.313991  1
  Zn  Zn9  1  0.005824  0.639089  0.800647  1
  Zn  Zn10  1  0.360911  0.994176  0.199353  1
  Zn  Zn11  1  0.994176  0.360911  0.199353  1
  Zn  Zn12  1  0.639089  0.005824  0.800647  1
  Ru  Ru13  1  0.000000  0.000000  0.500000  1
