# generated using pymatgen
data_SrTb2(Al3Pd2)3
_symmetry_space_group_name_H-M   'P 1'
_cell_length_a   4.18961400
_cell_length_b   9.52918218
_cell_length_c   9.52525447
_cell_angle_alpha   120.01366103
_cell_angle_beta   90.00000000
_cell_angle_gamma   90.00000000
_symmetry_Int_Tables_number   1
_chemical_formula_structural   SrTb2(Al3Pd2)3
_chemical_formula_sum   'Sr1 Tb2 Al9 Pd6'
_cell_volume   329.28887643
_cell_formula_units_Z   1
loop_
 _symmetry_equiv_pos_site_id
 _symmetry_equiv_pos_as_xyz
  1  'x, y, z'
loop_
 _atom_site_type_symbol
 _atom_site_label
 _atom_site_symmetry_multiplicity
 _atom_site_fract_x
 _atom_site_fract_y
 _atom_site_fract_z
 _atom_site_occupancy
  Sr  Sr0  1  0.000000  0.999985  0.000000  1
  Tb  Tb1  1  0.500000  0.333438  0.666886  1
  Tb  Tb2  1  0.500000  0.666554  0.333114  1
  Al  Al3  1  0.500000  0.308892  0.000000  1
  Al  Al4  1  0.500000  0.691148  0.691184  1
  Al  Al5  1  0.500000  0.999964  0.308816  1
  Al  Al6  1  0.500000  0.691092  0.000000  1
  Al  Al7  1  0.500000  0.308846  0.308818  1
  Al  Al8  1  0.500000  0.000028  0.691182  1
  Al  Al9  1  0.000000  0.499992  0.000000  1
  Al  Al10  1  0.000000  0.500001  0.499997  1
  Al  Al11  1  0.000000  0.000003  0.500003  1
  Pd  Pd12  1  0.000000  0.188289  0.376582  1
  Pd  Pd13  1  0.000000  0.188124  0.811923  1
  Pd  Pd14  1  0.000000  0.623776  0.811916  1
  Pd  Pd15  1  0.000000  0.811707  0.623418  1
  Pd  Pd16  1  0.000000  0.376200  0.188077  1
  Pd  Pd17  1  0.000000  0.811862  0.188084  1
