# generated using pymatgen
data_TbNd3CS3
_symmetry_space_group_name_H-M   'P 1'
_cell_length_a   6.84868356
_cell_length_b   6.84868408
_cell_length_c   6.85958500
_cell_angle_alpha   79.64883243
_cell_angle_beta   79.64883164
_cell_angle_gamma   32.79577175
_symmetry_Int_Tables_number   1
_chemical_formula_structural   TbNd3CS3
_chemical_formula_sum   'Tb1 Nd3 C1 S3'
_cell_volume   171.18794570
_cell_formula_units_Z   1
loop_
 _symmetry_equiv_pos_site_id
 _symmetry_equiv_pos_as_xyz
  1  'x, y, z'
loop_
 _atom_site_type_symbol
 _atom_site_label
 _atom_site_symmetry_multiplicity
 _atom_site_fract_x
 _atom_site_fract_y
 _atom_site_fract_z
 _atom_site_occupancy
  Tb  Tb0  1  0.015319  0.015319  0.017326  1
  Nd  Nd1  1  0.234596  0.234596  0.234145  1
  Nd  Nd2  1  0.506702  0.506702  0.472190  1
  Nd  Nd3  1  0.744054  0.744054  0.776887  1
  C  C4  1  0.621487  0.621487  0.120715  1
  S  S5  1  0.870060  0.870060  0.370473  1
  S  S6  1  0.122794  0.122794  0.631141  1
  S  S7  1  0.384986  0.384986  0.877122  1
