# generated using pymatgen
data_Zr6Zn16Ni7S
_symmetry_space_group_name_H-M   'P 1'
_cell_length_a   8.52569877
_cell_length_b   8.52525994
_cell_length_c   8.52470207
_cell_angle_alpha   60.00353035
_cell_angle_beta   59.99842439
_cell_angle_gamma   59.99451440
_symmetry_Int_Tables_number   1
_chemical_formula_structural   Zr6Zn16Ni7S
_chemical_formula_sum   'Zr6 Zn16 Ni7 S1'
_cell_volume   438.11712699
_cell_formula_units_Z   1
loop_
 _symmetry_equiv_pos_site_id
 _symmetry_equiv_pos_as_xyz
  1  'x, y, z'
loop_
 _atom_site_type_symbol
 _atom_site_label
 _atom_site_symmetry_multiplicity
 _atom_site_fract_x
 _atom_site_fract_y
 _atom_site_fract_z
 _atom_site_occupancy
  Zr  Zr0  1  0.710266  0.289734  0.289737  1
  Zr  Zr1  1  0.289735  0.710267  0.710260  1
  Zr  Zr2  1  0.289752  0.710252  0.289749  1
  Zr  Zr3  1  0.710249  0.289748  0.710250  1
  Zr  Zr4  1  0.289789  0.289782  0.710214  1
  Zr  Zr5  1  0.710212  0.710218  0.289784  1
  Zn  Zn6  1  0.120605  0.120609  0.120571  1
  Zn  Zn7  1  0.879396  0.879392  0.879428  1
  Zn  Zn8  1  0.120609  0.120610  0.638218  1
  Zn  Zn9  1  0.120575  0.638209  0.120609  1
  Zn  Zn10  1  0.879389  0.879388  0.361790  1
  Zn  Zn11  1  0.879428  0.361787  0.879390  1
  Zn  Zn12  1  0.638210  0.120575  0.120614  1
  Zn  Zn13  1  0.361786  0.879427  0.879386  1
  Zn  Zn14  1  0.333147  0.333162  0.333175  1
  Zn  Zn15  1  0.666853  0.666837  0.666825  1
  Zn  Zn16  1  0.333155  0.333154  0.000513  1
  Zn  Zn17  1  0.333172  0.000525  0.333146  1
  Zn  Zn18  1  0.666846  0.666847  0.999480  1
  Zn  Zn19  1  0.666827  0.999479  0.666853  1
  Zn  Zn20  1  0.000522  0.333177  0.333155  1
  Zn  Zn21  1  0.999480  0.666822  0.666845  1
  Ni  Ni22  1  0.499999  0.000001  0.000000  1
  Ni  Ni23  1  0.999999  0.499999  0.500001  1
  Ni  Ni24  1  0.000001  0.500000  0.999999  1
  Ni  Ni25  1  0.499998  0.000000  0.500002  1
  Ni  Ni26  1  0.000000  0.000000  0.500002  1
  Ni  Ni27  1  0.500001  0.499999  0.999998  1
  Ni  Ni28  1  0.999998  0.999998  0.000004  1
  S  S29  1  0.500001  0.500001  0.500001  1
