# generated using pymatgen
data_Zr8Al15Os5Rh2
_symmetry_space_group_name_H-M   'P 1'
_cell_length_a   8.92515226
_cell_length_b   8.92515228
_cell_length_c   8.92515168
_cell_angle_alpha   120.04376445
_cell_angle_beta   119.74802475
_cell_angle_gamma   90.18060220
_symmetry_Int_Tables_number   1
_chemical_formula_structural   Zr8Al15Os5Rh2
_chemical_formula_sum   'Zr8 Al15 Os5 Rh2'
_cell_volume   503.51078810
_cell_formula_units_Z   1
loop_
 _symmetry_equiv_pos_site_id
 _symmetry_equiv_pos_as_xyz
  1  'x, y, z'
loop_
 _atom_site_type_symbol
 _atom_site_label
 _atom_site_symmetry_multiplicity
 _atom_site_fract_x
 _atom_site_fract_y
 _atom_site_fract_z
 _atom_site_occupancy
  Zr  Zr0  1  0.795668  0.294541  0.074891  1
  Zr  Zr1  1  0.219650  0.294541  0.498873  1
  Zr  Zr2  1  0.203027  0.703027  0.500000  1
  Zr  Zr3  1  0.219650  0.720777  0.925109  1
  Zr  Zr4  1  0.795668  0.720777  0.501127  1
  Zr  Zr5  1  0.776434  0.276434  0.500000  1
  Zr  Zr6  1  0.377814  0.118517  0.740702  1
  Zr  Zr7  1  0.377814  0.637111  0.259298  1
  Al  Al8  1  0.989414  0.489414  0.500000  1
  Al  Al9  1  0.159271  0.333749  0.174477  1
  Al  Al10  1  0.159271  0.984794  0.825523  1
  Al  Al11  1  0.153040  0.341266  0.811776  1
  Al  Al12  1  0.529489  0.341266  0.188224  1
  Al  Al13  1  0.841755  0.657778  0.816024  1
  Al  Al14  1  0.841755  0.025732  0.183976  1
  Al  Al15  1  0.836187  0.662110  0.174076  1
  Al  Al16  1  0.488034  0.662110  0.825924  1
  Al  Al17  1  0.378078  0.121854  0.256224  1
  Al  Al18  1  0.865631  0.121854  0.743776  1
  Al  Al19  1  0.622248  0.873037  0.250790  1
  Al  Al20  1  0.622248  0.371458  0.749210  1
  Al  Al21  1  0.622550  0.876645  0.745905  1
  Al  Al22  1  0.130738  0.876645  0.254095  1
  Os  Os23  1  0.995343  0.997258  0.499495  1
  Os  Os24  1  0.497762  0.997258  0.001915  1
  Os  Os25  1  0.499140  0.499140  0.000000  1
  Os  Os26  1  0.497762  0.495847  0.500505  1
  Os  Os27  1  0.995343  0.495847  0.998085  1
  Rh  Rh28  1  0.999531  0.999531  0.000000  1
  Rh  Rh29  1  0.509682  0.009682  0.500000  1
