# generated using pymatgen
data_PrPa3(GePt)4
_symmetry_space_group_name_H-M   'P 1'
_cell_length_a   4.43563500
_cell_length_b   7.18645263
_cell_length_c   7.64658900
_cell_angle_alpha   90.03699354
_cell_angle_beta   90.00000000
_cell_angle_gamma   90.00000000
_symmetry_Int_Tables_number   1
_chemical_formula_structural   PrPa3(GePt)4
_chemical_formula_sum   'Pr1 Pa3 Ge4 Pt4'
_cell_volume   243.74629689
_cell_formula_units_Z   1
loop_
 _symmetry_equiv_pos_site_id
 _symmetry_equiv_pos_as_xyz
  1  'x, y, z'
loop_
 _atom_site_type_symbol
 _atom_site_label
 _atom_site_symmetry_multiplicity
 _atom_site_fract_x
 _atom_site_fract_y
 _atom_site_fract_z
 _atom_site_occupancy
  Pr  Pr0  1  0.750000  0.505222  0.293998  1
  Pa  Pa1  1  0.250000  0.993654  0.789189  1
  Pa  Pa2  1  0.250000  0.494372  0.711330  1
  Pa  Pa3  1  0.750000  0.005142  0.208235  1
  Ge  Ge4  1  0.250000  0.803812  0.411117  1
  Ge  Ge5  1  0.250000  0.283980  0.088196  1
  Ge  Ge6  1  0.750000  0.197218  0.588515  1
  Ge  Ge7  1  0.750000  0.687878  0.909955  1
  Pt  Pt8  1  0.250000  0.206381  0.421029  1
  Pt  Pt9  1  0.250000  0.731693  0.073669  1
  Pt  Pt10  1  0.750000  0.805834  0.590420  1
  Pt  Pt11  1  0.750000  0.284812  0.914346  1
