# generated using pymatgen
data_La3Ce2Tc4(P4Ir5)3
_symmetry_space_group_name_H-M   'P 1'
_cell_length_a   12.76091783
_cell_length_b   12.77162217
_cell_length_c   4.07893700
_cell_angle_alpha   90.00000000
_cell_angle_beta   90.00000000
_cell_angle_gamma   120.36891327
_symmetry_Int_Tables_number   1
_chemical_formula_structural   La3Ce2Tc4(P4Ir5)3
_chemical_formula_sum   'La3 Ce2 Tc4 P12 Ir15'
_cell_volume   573.56034580
_cell_formula_units_Z   1
loop_
 _symmetry_equiv_pos_site_id
 _symmetry_equiv_pos_as_xyz
  1  'x, y, z'
loop_
 _atom_site_type_symbol
 _atom_site_label
 _atom_site_symmetry_multiplicity
 _atom_site_fract_x
 _atom_site_fract_y
 _atom_site_fract_z
 _atom_site_occupancy
  La  La0  1  0.999663  0.814812  0.500000  1
  La  La1  1  0.183015  0.183987  0.500000  1
  La  La2  1  0.814283  0.999111  0.500000  1
  Ce  Ce3  1  0.335493  0.669758  0.000000  1
  Ce  Ce4  1  0.666381  0.331797  0.000000  1
  Tc  Tc5  1  0.999913  0.293832  0.500000  1
  Tc  Tc6  1  0.706158  0.704347  0.500000  1
  Tc  Tc7  1  0.292052  0.999181  0.500000  1
  Tc  Tc8  1  0.511759  0.877757  0.500000  1
  P  P9  1  0.998822  0.184042  0.000000  1
  P  P10  1  0.815943  0.814264  0.000000  1
  P  P11  1  0.183504  0.999287  0.000000  1
  P  P12  1  0.520872  0.698456  0.500000  1
  P  P13  1  0.311594  0.829521  0.500000  1
  P  P14  1  0.175027  0.480975  0.500000  1
  P  P15  1  0.478111  0.172610  0.500000  1
  P  P16  1  0.694207  0.519206  0.500000  1
  P  P17  1  0.826905  0.306069  0.500000  1
  P  P18  1  0.000882  0.635052  0.000000  1
  P  P19  1  0.363499  0.365091  0.000000  1
  P  P20  1  0.627592  0.991535  0.000000  1
  Ir  Ir21  1  0.619035  0.796803  0.000000  1
  Ir  Ir22  1  0.197971  0.816444  0.000000  1
  Ir  Ir23  1  0.183343  0.383826  0.000000  1
  Ir  Ir24  1  0.380333  0.184491  0.000000  1
  Ir  Ir25  1  0.801499  0.616288  0.000000  1
  Ir  Ir26  1  0.814669  0.196092  0.000000  1
  Ir  Ir27  1  0.130240  0.635298  0.500000  1
  Ir  Ir28  1  0.367010  0.494438  0.500000  1
  Ir  Ir29  1  0.493852  0.364890  0.500000  1
  Ir  Ir30  1  0.872589  0.506327  0.500000  1
  Ir  Ir31  1  0.633933  0.131516  0.500000  1
  Ir  Ir32  1  0.999940  0.000447  0.000000  1
  Ir  Ir33  1  0.999644  0.454100  0.000000  1
  Ir  Ir34  1  0.546227  0.543468  0.000000  1
  Ir  Ir35  1  0.454044  0.004882  0.000000  1
