# generated using pymatgen
data_Yb3TcN4
_symmetry_space_group_name_H-M   'P 1'
_cell_length_a   6.37875185
_cell_length_b   6.37875074
_cell_length_c   6.37439121
_cell_angle_alpha   92.15610692
_cell_angle_beta   92.15611185
_cell_angle_gamma   76.67940467
_symmetry_Int_Tables_number   1
_chemical_formula_structural   Yb3TcN4
_chemical_formula_sum   'Yb6 Tc2 N8'
_cell_volume   252.09579906
_cell_formula_units_Z   2
loop_
 _symmetry_equiv_pos_site_id
 _symmetry_equiv_pos_as_xyz
  1  'x, y, z'
loop_
 _atom_site_type_symbol
 _atom_site_label
 _atom_site_symmetry_multiplicity
 _atom_site_fract_x
 _atom_site_fract_y
 _atom_site_fract_z
 _atom_site_occupancy
  Yb  Yb0  1  0.158824  0.605463  0.184803  1
  Yb  Yb1  1  0.841176  0.394537  0.815197  1
  Yb  Yb2  1  0.394537  0.841176  0.815197  1
  Yb  Yb3  1  0.605463  0.158824  0.184803  1
  Yb  Yb4  1  0.111545  0.111545  0.314626  1
  Yb  Yb5  1  0.888455  0.888455  0.685374  1
  Tc  Tc6  1  0.682854  0.682854  0.319727  1
  Tc  Tc7  1  0.317146  0.317146  0.680273  1
  N  N8  1  0.126100  0.126100  0.688250  1
  N  N9  1  0.873900  0.873900  0.311750  1
  N  N10  1  0.572884  0.160721  0.809261  1
  N  N11  1  0.427116  0.839279  0.190739  1
  N  N12  1  0.839279  0.427116  0.190739  1
  N  N13  1  0.160721  0.572884  0.809261  1
  N  N14  1  0.342733  0.342733  0.401268  1
  N  N15  1  0.657267  0.657267  0.598732  1
