# generated using pymatgen
data_DyTh(Tc2Ge)4
_symmetry_space_group_name_H-M   'P 1'
_cell_length_a   7.52293325
_cell_length_b   7.52293325
_cell_length_c   4.19777700
_cell_angle_alpha   90.00000000
_cell_angle_beta   90.00000000
_cell_angle_gamma   88.59525755
_symmetry_Int_Tables_number   1
_chemical_formula_structural   DyTh(Tc2Ge)4
_chemical_formula_sum   'Dy1 Th1 Tc8 Ge4'
_cell_volume   237.49979531
_cell_formula_units_Z   1
loop_
 _symmetry_equiv_pos_site_id
 _symmetry_equiv_pos_as_xyz
  1  'x, y, z'
loop_
 _atom_site_type_symbol
 _atom_site_label
 _atom_site_symmetry_multiplicity
 _atom_site_fract_x
 _atom_site_fract_y
 _atom_site_fract_z
 _atom_site_occupancy
  Dy  Dy0  1  0.000000  0.000000  0.500000  1
  Th  Th1  1  0.500000  0.500000  0.000000  1
  Tc  Tc2  1  0.853200  0.402982  0.500000  1
  Tc  Tc3  1  0.912082  0.651410  0.000000  1
  Tc  Tc4  1  0.348590  0.087918  0.000000  1
  Tc  Tc5  1  0.597018  0.146800  0.500000  1
  Tc  Tc6  1  0.402982  0.853200  0.500000  1
  Tc  Tc7  1  0.087918  0.348590  0.000000  1
  Tc  Tc8  1  0.146800  0.597018  0.500000  1
  Tc  Tc9  1  0.651410  0.912082  0.000000  1
  Ge  Ge10  1  0.715683  0.715683  0.500000  1
  Ge  Ge11  1  0.284317  0.284317  0.500000  1
  Ge  Ge12  1  0.797773  0.202227  0.000000  1
  Ge  Ge13  1  0.202227  0.797773  0.000000  1
