# generated using pymatgen
data_ZrSc3Mn8
_symmetry_space_group_name_H-M   'P 1'
_cell_length_a   4.90318200
_cell_length_b   4.90318185
_cell_length_c   8.06100400
_cell_angle_alpha   90.00000000
_cell_angle_beta   90.00000000
_cell_angle_gamma   120.00000100
_symmetry_Int_Tables_number   1
_chemical_formula_structural   ZrSc3Mn8
_chemical_formula_sum   'Zr1 Sc3 Mn8'
_cell_volume   167.83238989
_cell_formula_units_Z   1
loop_
 _symmetry_equiv_pos_site_id
 _symmetry_equiv_pos_as_xyz
  1  'x, y, z'
loop_
 _atom_site_type_symbol
 _atom_site_label
 _atom_site_symmetry_multiplicity
 _atom_site_fract_x
 _atom_site_fract_y
 _atom_site_fract_z
 _atom_site_occupancy
  Zr  Zr0  1  0.333333  0.666667  0.063647  1
  Sc  Sc1  1  0.666667  0.333333  0.562933  1
  Sc  Sc2  1  0.666667  0.333333  0.934661  1
  Sc  Sc3  1  0.333333  0.666667  0.438953  1
  Mn  Mn4  1  0.000000  0.000000  0.999455  1
  Mn  Mn5  1  0.000000  0.000000  0.499934  1
  Mn  Mn6  1  0.829120  0.658241  0.250404  1
  Mn  Mn7  1  0.170375  0.829625  0.749735  1
  Mn  Mn8  1  0.659250  0.829625  0.749735  1
  Mn  Mn9  1  0.341759  0.170880  0.250404  1
  Mn  Mn10  1  0.829120  0.170880  0.250404  1
  Mn  Mn11  1  0.170375  0.340750  0.749735  1
