# generated using pymatgen
data_HoCo3P3Rh2
_symmetry_space_group_name_H-M   'P 1'
_cell_length_a   3.73192900
_cell_length_b   10.48741800
_cell_length_c   12.07343700
_cell_angle_alpha   90.00000000
_cell_angle_beta   90.00000000
_cell_angle_gamma   90.00000000
_symmetry_Int_Tables_number   1
_chemical_formula_structural   HoCo3P3Rh2
_chemical_formula_sum   'Ho4 Co12 P12 Rh8'
_cell_volume   472.53379172
_cell_formula_units_Z   4
loop_
 _symmetry_equiv_pos_site_id
 _symmetry_equiv_pos_as_xyz
  1  'x, y, z'
loop_
 _atom_site_type_symbol
 _atom_site_label
 _atom_site_symmetry_multiplicity
 _atom_site_fract_x
 _atom_site_fract_y
 _atom_site_fract_z
 _atom_site_occupancy
  Ho  Ho0  1  0.250000  0.584398  0.709786  1
  Ho  Ho1  1  0.250000  0.915602  0.209786  1
  Ho  Ho2  1  0.750000  0.415602  0.290214  1
  Ho  Ho3  1  0.750000  0.084398  0.790214  1
  Co  Co4  1  0.250000  0.221878  0.178877  1
  Co  Co5  1  0.250000  0.278122  0.678877  1
  Co  Co6  1  0.750000  0.778122  0.821123  1
  Co  Co7  1  0.750000  0.721878  0.321123  1
  Co  Co8  1  0.250000  0.883254  0.697537  1
  Co  Co9  1  0.250000  0.616746  0.197537  1
  Co  Co10  1  0.750000  0.116746  0.302463  1
  Co  Co11  1  0.750000  0.383254  0.802463  1
  Co  Co12  1  0.250000  0.463782  0.931148  1
  Co  Co13  1  0.250000  0.036218  0.431148  1
  Co  Co14  1  0.750000  0.536218  0.068852  1
  Co  Co15  1  0.750000  0.963782  0.568852  1
  P  P16  1  0.250000  0.421839  0.111341  1
  P  P17  1  0.250000  0.078161  0.611341  1
  P  P18  1  0.750000  0.578161  0.888659  1
  P  P19  1  0.750000  0.921839  0.388659  1
  P  P20  1  0.250000  0.274618  0.862566  1
  P  P21  1  0.250000  0.225382  0.362566  1
  P  P22  1  0.750000  0.725382  0.137434  1
  P  P23  1  0.750000  0.774618  0.637434  1
  P  P24  1  0.250000  0.604082  0.379469  1
  P  P25  1  0.250000  0.895918  0.879469  1
  P  P26  1  0.750000  0.395918  0.620531  1
  P  P27  1  0.750000  0.104082  0.120531  1
  Rh  Rh28  1  0.250000  0.711937  0.987357  1
  Rh  Rh29  1  0.250000  0.788063  0.487357  1
  Rh  Rh30  1  0.750000  0.288063  0.012643  1
  Rh  Rh31  1  0.750000  0.211937  0.512643  1
  Rh  Rh32  1  0.250000  0.406432  0.480410  1
  Rh  Rh33  1  0.250000  0.093568  0.980410  1
  Rh  Rh34  1  0.750000  0.593568  0.519590  1
  Rh  Rh35  1  0.750000  0.906432  0.019590  1
