# generated using pymatgen
data_Er3In3Pt2Au
_symmetry_space_group_name_H-M   'P 1'
_cell_length_a   7.79133600
_cell_length_b   7.79133608
_cell_length_c   3.77818200
_cell_angle_alpha   90.00000000
_cell_angle_beta   90.00000000
_cell_angle_gamma   119.99999965
_symmetry_Int_Tables_number   1
_chemical_formula_structural   Er3In3Pt2Au
_chemical_formula_sum   'Er3 In3 Pt2 Au1'
_cell_volume   198.62658676
_cell_formula_units_Z   1
loop_
 _symmetry_equiv_pos_site_id
 _symmetry_equiv_pos_as_xyz
  1  'x, y, z'
loop_
 _atom_site_type_symbol
 _atom_site_label
 _atom_site_symmetry_multiplicity
 _atom_site_fract_x
 _atom_site_fract_y
 _atom_site_fract_z
 _atom_site_occupancy
  Er  Er0  1  0.604014  0.013437  0.500000  1
  Er  Er1  1  0.409424  0.395986  0.500000  1
  Er  Er2  1  0.986563  0.590576  0.500000  1
  In  In3  1  0.737091  0.737212  0.000000  1
  In  In4  1  0.000121  0.262909  0.000000  1
  In  In5  1  0.262788  0.999879  0.000000  1
  Pt  Pt6  1  0.666667  0.333333  0.000000  1
  Pt  Pt7  1  0.000000  0.000000  0.500000  1
  Au  Au8  1  0.333333  0.666667  0.000000  1
