# generated using pymatgen
data_Er9Mg(BiAu2)2
_symmetry_space_group_name_H-M   'P 1'
_cell_length_a   8.68628771
_cell_length_b   8.68628802
_cell_length_c   8.68628770
_cell_angle_alpha   125.65683908
_cell_angle_beta   125.65684376
_cell_angle_gamma   80.45287839
_symmetry_Int_Tables_number   1
_chemical_formula_structural   Er9Mg(BiAu2)2
_chemical_formula_sum   'Er9 Mg1 Bi2 Au4'
_cell_volume   417.39788552
_cell_formula_units_Z   1
loop_
 _symmetry_equiv_pos_site_id
 _symmetry_equiv_pos_as_xyz
  1  'x, y, z'
loop_
 _atom_site_type_symbol
 _atom_site_label
 _atom_site_symmetry_multiplicity
 _atom_site_fract_x
 _atom_site_fract_y
 _atom_site_fract_z
 _atom_site_occupancy
  Er  Er0  1  0.500000  0.500000  0.000000  1
  Er  Er1  1  0.008167  0.522983  0.811666  1
  Er  Er2  1  0.711317  0.196501  0.188334  1
  Er  Er3  1  0.522983  0.711317  0.514817  1
  Er  Er4  1  0.196501  0.008167  0.485183  1
  Er  Er5  1  0.991833  0.477017  0.188334  1
  Er  Er6  1  0.288683  0.803499  0.811666  1
  Er  Er7  1  0.477017  0.288683  0.485183  1
  Er  Er8  1  0.803499  0.991833  0.514817  1
  Mg  Mg9  1  0.000000  0.000000  0.000000  1
  Bi  Bi10  1  0.746002  0.746002  0.000000  1
  Bi  Bi11  1  0.253998  0.253998  0.000000  1
  Au  Au12  1  0.635049  0.141541  0.776588  1
  Au  Au13  1  0.364951  0.858459  0.223412  1
  Au  Au14  1  0.141541  0.364951  0.506492  1
  Au  Au15  1  0.858459  0.635049  0.493508  1
