# generated using pymatgen
data_Zr3GeAs2Ru3
_symmetry_space_group_name_H-M   'P 1'
_cell_length_a   6.66901800
_cell_length_b   6.66901799
_cell_length_c   3.92179300
_cell_angle_alpha   90.00000000
_cell_angle_beta   90.00000000
_cell_angle_gamma   120.00000003
_symmetry_Int_Tables_number   1
_chemical_formula_structural   Zr3GeAs2Ru3
_chemical_formula_sum   'Zr3 Ge1 As2 Ru3'
_cell_volume   151.05638161
_cell_formula_units_Z   1
loop_
 _symmetry_equiv_pos_site_id
 _symmetry_equiv_pos_as_xyz
  1  'x, y, z'
loop_
 _atom_site_type_symbol
 _atom_site_label
 _atom_site_symmetry_multiplicity
 _atom_site_fract_x
 _atom_site_fract_y
 _atom_site_fract_z
 _atom_site_occupancy
  Zr  Zr0  1  0.419966  0.419966  0.500000  1
  Zr  Zr1  1  0.580034  0.000000  0.500000  1
  Zr  Zr2  1  0.000000  0.580034  0.500000  1
  Ge  Ge3  1  0.000000  0.000000  0.500000  1
  As  As4  1  0.666667  0.333333  0.000000  1
  As  As5  1  0.333333  0.666667  0.000000  1
  Ru  Ru6  1  0.000000  0.243551  0.000000  1
  Ru  Ru7  1  0.243551  0.000000  0.000000  1
  Ru  Ru8  1  0.756449  0.756449  0.000000  1
