# generated using pymatgen
data_Sm5DyFeBr10
_symmetry_space_group_name_H-M   'P 1'
_cell_length_a   7.48028810
_cell_length_b   9.29267424
_cell_length_c   9.32913909
_cell_angle_alpha   107.95446293
_cell_angle_beta   96.58144100
_cell_angle_gamma   105.52356273
_symmetry_Int_Tables_number   1
_chemical_formula_structural   Sm5DyFeBr10
_chemical_formula_sum   'Sm5 Dy1 Fe1 Br10'
_cell_volume   580.49397963
_cell_formula_units_Z   1
loop_
 _symmetry_equiv_pos_site_id
 _symmetry_equiv_pos_as_xyz
  1  'x, y, z'
loop_
 _atom_site_type_symbol
 _atom_site_label
 _atom_site_symmetry_multiplicity
 _atom_site_fract_x
 _atom_site_fract_y
 _atom_site_fract_z
 _atom_site_occupancy
  Sm  Sm0  1  0.531758  0.712734  0.412306  1
  Sm  Sm1  1  0.470410  0.288091  0.589304  1
  Sm  Sm2  1  0.136196  0.863409  0.317893  1
  Sm  Sm3  1  0.624142  0.046990  0.261360  1
  Sm  Sm4  1  0.378780  0.954719  0.739891  1
  Dy  Dy5  1  0.858960  0.134114  0.678990  1
  Fe  Fe6  1  0.500356  0.000298  0.499884  1
  Br  Br7  1  0.412012  0.631459  0.674441  1
  Br  Br8  1  0.754185  0.086184  0.952427  1
  Br  Br9  1  0.251038  0.916453  0.044257  1
  Br  Br10  1  0.952502  0.825475  0.586524  1
  Br  Br11  1  0.283232  0.255080  0.845480  1
  Br  Br12  1  0.707499  0.742342  0.150669  1
  Br  Br13  1  0.046201  0.179184  0.419935  1
  Br  Br14  1  0.588523  0.369082  0.326355  1
  Br  Br15  1  0.854345  0.448262  0.771367  1
  Br  Br16  1  0.149860  0.546125  0.228917  1
