# generated using pymatgen
data_Yb4Ga18Co3IrPd2
_symmetry_space_group_name_H-M   'P 1'
_cell_length_a   7.44348947
_cell_length_b   7.44350106
_cell_length_c   9.55054122
_cell_angle_alpha   89.91924980
_cell_angle_beta   89.91921374
_cell_angle_gamma   119.11791962
_symmetry_Int_Tables_number   1
_chemical_formula_structural   Yb4Ga18Co3IrPd2
_chemical_formula_sum   'Yb4 Ga18 Co3 Ir1 Pd2'
_cell_volume   462.27748349
_cell_formula_units_Z   1
loop_
 _symmetry_equiv_pos_site_id
 _symmetry_equiv_pos_as_xyz
  1  'x, y, z'
loop_
 _atom_site_type_symbol
 _atom_site_label
 _atom_site_symmetry_multiplicity
 _atom_site_fract_x
 _atom_site_fract_y
 _atom_site_fract_z
 _atom_site_occupancy
  Yb  Yb0  1  0.994659  0.673431  0.249705  1
  Yb  Yb1  1  0.996126  0.320725  0.749695  1
  Yb  Yb2  1  0.679275  0.003874  0.250305  1
  Yb  Yb3  1  0.326570  0.005341  0.750295  1
  Ga  Ga4  1  0.137279  0.135921  0.248988  1
  Ga  Ga5  1  0.864080  0.862721  0.751012  1
  Ga  Ga6  1  0.000705  0.345673  0.072246  1
  Ga  Ga7  1  0.001936  0.655676  0.927032  1
  Ga  Ga8  1  0.009596  0.661738  0.576358  1
  Ga  Ga9  1  0.338263  0.990405  0.423642  1
  Ga  Ga10  1  0.012892  0.347896  0.424477  1
  Ga  Ga11  1  0.652104  0.987108  0.575523  1
  Ga  Ga12  1  0.654327  0.999295  0.927754  1
  Ga  Ga13  1  0.344324  0.998064  0.072968  1
  Ga  Ga14  1  0.337462  0.344276  0.563040  1
  Ga  Ga15  1  0.655725  0.662538  0.436960  1
  Ga  Ga16  1  0.657313  0.659036  0.059462  1
  Ga  Ga17  1  0.340964  0.342688  0.940538  1
  Ga  Ga18  1  0.336246  0.560529  0.248019  1
  Ga  Ga19  1  0.665371  0.448655  0.756301  1
  Ga  Ga20  1  0.551345  0.334629  0.243699  1
  Ga  Ga21  1  0.439472  0.663755  0.751981  1
  Co  Co22  1  0.670838  0.329163  0.000000  1
  Co  Co23  1  0.329474  0.670526  0.000000  1
  Co  Co24  1  0.330541  0.669460  0.500000  1
  Ir  Ir25  1  0.672383  0.327618  0.500000  1
  Pd  Pd26  1  0.000377  0.999617  0.999998  1
  Pd  Pd27  1  0.000354  0.999643  0.500001  1
