# generated using pymatgen
data_LuCl23
_symmetry_space_group_name_H-M   'P 1'
_cell_length_a   8.09769187
_cell_length_b   8.08909227
_cell_length_c   21.00394897
_cell_angle_alpha   98.69750598
_cell_angle_beta   98.93736881
_cell_angle_gamma   128.38893474
_symmetry_Int_Tables_number   1
_chemical_formula_structural   LuCl23
_chemical_formula_sum   'Lu1 Cl23'
_cell_volume   1009.31666601
_cell_formula_units_Z   1
loop_
 _symmetry_equiv_pos_site_id
 _symmetry_equiv_pos_as_xyz
  1  'x, y, z'
loop_
 _atom_site_type_symbol
 _atom_site_label
 _atom_site_symmetry_multiplicity
 _atom_site_fract_x
 _atom_site_fract_y
 _atom_site_fract_z
 _atom_site_occupancy
  Lu  Lu0  1  0.208328  0.791360  0.666412  1
  Cl  Cl1  1  0.167854  0.042787  0.998481  1
  Cl  Cl2  1  0.519063  0.751991  0.999833  1
  Cl  Cl3  1  0.249649  0.481148  0.333781  1
  Cl  Cl4  1  0.956523  0.831954  0.335466  1
  Cl  Cl5  1  0.844859  0.152887  0.666367  1
  Cl  Cl6  1  0.591546  0.446478  0.122358  1
  Cl  Cl7  1  0.925281  0.150000  0.125519  1
  Cl  Cl8  1  0.207258  0.744055  0.117437  1
  Cl  Cl9  1  0.257586  0.792997  0.217019  1
  Cl  Cl10  1  0.848859  0.073568  0.208352  1
  Cl  Cl11  1  0.550990  0.407695  0.211774  1
  Cl  Cl12  1  0.874935  0.488965  0.470364  1
  Cl  Cl13  1  0.189399  0.074602  0.423186  1
  Cl  Cl14  1  0.492403  0.732082  0.418935  1
  Cl  Cl15  1  0.507067  0.795300  0.622612  1
  Cl  Cl16  1  0.263234  0.048428  0.608360  1
  Cl  Cl17  1  0.875795  0.394184  0.553464  1
  Cl  Cl18  1  0.607000  0.125014  0.779145  1
  Cl  Cl19  1  0.951442  0.736295  0.724243  1
  Cl  Cl20  1  0.203393  0.491596  0.710018  1
  Cl  Cl21  1  0.268704  0.510480  0.914402  1
  Cl  Cl22  1  0.926690  0.811727  0.910300  1
  Cl  Cl23  1  0.512137  0.124409  0.862168  1
