# generated using pymatgen
data_Mn3V(FeP)4
_symmetry_space_group_name_H-M   'P 1'
_cell_length_a   3.50556800
_cell_length_b   5.85617527
_cell_length_c   6.64433825
_cell_angle_alpha   89.96677092
_cell_angle_beta   90.00000000
_cell_angle_gamma   90.00000000
_symmetry_Int_Tables_number   1
_chemical_formula_structural   Mn3V(FeP)4
_chemical_formula_sum   'Mn3 V1 Fe4 P4'
_cell_volume   136.40306300
_cell_formula_units_Z   1
loop_
 _symmetry_equiv_pos_site_id
 _symmetry_equiv_pos_as_xyz
  1  'x, y, z'
loop_
 _atom_site_type_symbol
 _atom_site_label
 _atom_site_symmetry_multiplicity
 _atom_site_fract_x
 _atom_site_fract_y
 _atom_site_fract_z
 _atom_site_occupancy
  Mn  Mn0  1  0.750000  0.969242  0.172244  1
  Mn  Mn1  1  0.250000  0.525274  0.672086  1
  Mn  Mn2  1  0.250000  0.029164  0.829056  1
  V  V3  1  0.750000  0.475960  0.327629  1
  Fe  Fe4  1  0.750000  0.358294  0.936340  1
  Fe  Fe5  1  0.750000  0.850170  0.564534  1
  Fe  Fe6  1  0.250000  0.644038  0.063002  1
  Fe  Fe7  1  0.250000  0.147275  0.436152  1
  P  P8  1  0.750000  0.732505  0.875170  1
  P  P9  1  0.750000  0.227021  0.625853  1
  P  P10  1  0.250000  0.266037  0.122125  1
  P  P11  1  0.250000  0.775020  0.375808  1
