# generated using pymatgen
data_Ti6Si5Ge(Rh2W)2
_symmetry_space_group_name_H-M   'P 1'
_cell_length_a   7.46441493
_cell_length_b   7.46273422
_cell_length_c   7.45809033
_cell_angle_alpha   126.28551395
_cell_angle_beta   124.81259738
_cell_angle_gamma   80.60347549
_symmetry_Int_Tables_number   1
_chemical_formula_structural   Ti6Si5Ge(Rh2W)2
_chemical_formula_sum   'Ti6 Si5 Ge1 Rh4 W2'
_cell_volume   265.20975902
_cell_formula_units_Z   1
loop_
 _symmetry_equiv_pos_site_id
 _symmetry_equiv_pos_as_xyz
  1  'x, y, z'
loop_
 _atom_site_type_symbol
 _atom_site_label
 _atom_site_symmetry_multiplicity
 _atom_site_fract_x
 _atom_site_fract_y
 _atom_site_fract_z
 _atom_site_occupancy
  Ti  Ti0  1  0.962869  0.726700  0.269506  1
  Ti  Ti1  1  0.040778  0.312392  0.775815  1
  Ti  Ti2  1  0.249671  0.166840  0.422054  1
  Ti  Ti3  1  0.754268  0.174446  0.916905  1
  Ti  Ti4  1  0.559763  0.348742  0.285989  1
  Ti  Ti5  1  0.436627  0.723492  0.784302  1
  Si  Si6  1  0.780182  0.802810  0.520688  1
  Si  Si7  1  0.219603  0.740675  0.020651  1
  Si  Si8  1  0.337285  0.069059  0.746070  1
  Si  Si9  1  0.662541  0.409963  0.731713  1
  Si  Si10  1  0.178054  0.407387  0.246844  1
  Ge  Ge11  1  0.823918  0.067060  0.231611  1
  Rh  Rh12  1  0.163932  0.003880  0.910874  1
  Rh  Rh13  1  0.835133  0.739164  0.830185  1
  Rh  Rh14  1  0.407232  0.745985  0.410801  1
  Rh  Rh15  1  0.587355  0.004768  0.342743  1
  W  W16  1  0.499621  0.496809  0.996707  1
  W  W17  1  0.001167  0.500233  0.496942  1
