# generated using pymatgen
data_Dy10Si16B
_symmetry_space_group_name_H-M   'P 1'
_cell_length_a   6.57759278
_cell_length_b   8.33313614
_cell_length_c   10.86706090
_cell_angle_alpha   112.54523066
_cell_angle_beta   107.61617424
_cell_angle_gamma   90.00000223
_symmetry_Int_Tables_number   1
_chemical_formula_structural   Dy10Si16B
_chemical_formula_sum   'Dy10 Si16 B1'
_cell_volume   519.75090058
_cell_formula_units_Z   1
loop_
 _symmetry_equiv_pos_site_id
 _symmetry_equiv_pos_as_xyz
  1  'x, y, z'
loop_
 _atom_site_type_symbol
 _atom_site_label
 _atom_site_symmetry_multiplicity
 _atom_site_fract_x
 _atom_site_fract_y
 _atom_site_fract_z
 _atom_site_occupancy
  Dy  Dy0  1  0.237891  0.241620  0.000000  1
  Dy  Dy1  1  0.237891  0.758380  0.000000  1
  Dy  Dy2  1  0.830731  0.350909  0.198823  1
  Dy  Dy3  1  0.830731  0.847916  0.198823  1
  Dy  Dy4  1  0.436780  0.447162  0.397221  1
  Dy  Dy5  1  0.436780  0.950058  0.397221  1
  Dy  Dy6  1  0.039559  0.049942  0.602780  1
  Dy  Dy7  1  0.039559  0.552838  0.602780  1
  Dy  Dy8  1  0.631907  0.152084  0.801176  1
  Dy  Dy9  1  0.631907  0.649092  0.801176  1
  Si  Si10  1  0.883620  0.000000  0.000000  1
  Si  Si11  1  0.616868  0.500000  0.000000  1
  Si  Si12  1  0.119241  0.579435  0.158870  1
  Si  Si13  1  0.498612  0.600341  0.200682  1
  Si  Si14  1  0.503460  0.094856  0.189713  1
  Si  Si15  1  0.159708  0.114175  0.228349  1
  Si  Si16  1  0.821679  0.198070  0.396141  1
  Si  Si17  1  0.103581  0.699530  0.399059  1
  Si  Si18  1  0.756673  0.717032  0.434064  1
  Si  Si19  1  0.322610  0.282968  0.565936  1
  Si  Si20  1  0.704521  0.300470  0.600940  1
  Si  Si21  1  0.425538  0.801930  0.603859  1
  Si  Si22  1  0.931359  0.885825  0.771651  1
  Si  Si23  1  0.313746  0.905143  0.810286  1
  Si  Si24  1  0.297931  0.399659  0.799319  1
  Si  Si25  1  0.960371  0.420565  0.841130  1
  B  B26  1  0.565250  0.000000  0.000000  1
