# generated using pymatgen
data_Cs4EuTaCl12
_symmetry_space_group_name_H-M   'P 1'
_cell_length_a   10.76623406
_cell_length_b   10.80649118
_cell_length_c   13.31814200
_cell_angle_alpha   113.93536289
_cell_angle_beta   113.84075567
_cell_angle_gamma   90.00000129
_symmetry_Int_Tables_number   1
_chemical_formula_structural   Cs4EuTaCl12
_chemical_formula_sum   'Cs8 Eu2 Ta2 Cl24'
_cell_volume   1270.24054031
_cell_formula_units_Z   2
loop_
 _symmetry_equiv_pos_site_id
 _symmetry_equiv_pos_as_xyz
  1  'x, y, z'
loop_
 _atom_site_type_symbol
 _atom_site_label
 _atom_site_symmetry_multiplicity
 _atom_site_fract_x
 _atom_site_fract_y
 _atom_site_fract_z
 _atom_site_occupancy
  Cs  Cs0  1  0.281902  0.000032  0.000026  1
  Cs  Cs1  1  0.718098  0.999968  0.999974  1
  Cs  Cs2  1  0.281902  0.499994  0.000026  1
  Cs  Cs3  1  0.718098  0.500006  0.999974  1
  Cs  Cs4  1  0.000000  0.218310  0.499999  1
  Cs  Cs5  1  0.000000  0.781689  0.499999  1
  Cs  Cs6  1  0.500000  0.218284  0.499999  1
  Cs  Cs7  1  0.500000  0.781715  0.499999  1
  Eu  Eu8  1  0.624761  0.874804  0.249608  1
  Eu  Eu9  1  0.375239  0.125196  0.750393  1
  Ta  Ta10  1  0.125076  0.375058  0.250116  1
  Ta  Ta11  1  0.874924  0.624942  0.749885  1
  Cl  Cl12  1  0.016359  0.266336  0.032673  1
  Cl  Cl13  1  0.500560  0.750635  0.001269  1
  Cl  Cl14  1  0.346153  0.375677  0.251355  1
  Cl  Cl15  1  0.905238  0.375677  0.251356  1
  Cl  Cl16  1  0.628894  0.130599  0.257809  1
  Cl  Cl17  1  0.628894  0.627209  0.257809  1
  Cl  Cl18  1  0.369387  0.871179  0.242358  1
  Cl  Cl19  1  0.872913  0.871196  0.242394  1
  Cl  Cl20  1  0.124433  0.154562  0.248763  1
  Cl  Cl21  1  0.124433  0.594201  0.248763  1
  Cl  Cl22  1  0.749227  0.999207  0.498413  1
  Cl  Cl23  1  0.233738  0.483769  0.467539  1
  Cl  Cl24  1  0.766262  0.516231  0.532461  1
  Cl  Cl25  1  0.250774  0.000794  0.501587  1
  Cl  Cl26  1  0.875567  0.405799  0.751236  1
  Cl  Cl27  1  0.875567  0.845437  0.751236  1
  Cl  Cl28  1  0.127087  0.128804  0.757607  1
  Cl  Cl29  1  0.630613  0.128821  0.757643  1
  Cl  Cl30  1  0.371106  0.372790  0.742190  1
  Cl  Cl31  1  0.371106  0.869401  0.742190  1
  Cl  Cl32  1  0.094763  0.624323  0.748644  1
  Cl  Cl33  1  0.653847  0.624323  0.748645  1
  Cl  Cl34  1  0.499440  0.249365  0.998730  1
  Cl  Cl35  1  0.983641  0.733664  0.967327  1
