# generated using pymatgen
data_Zr2Ti(Si2Tc)2
_symmetry_space_group_name_H-M   'P 1'
_cell_length_a   6.66092000
_cell_length_b   6.66092000
_cell_length_c   12.61550000
_cell_angle_alpha   90.00000000
_cell_angle_beta   90.00000000
_cell_angle_gamma   90.00000000
_symmetry_Int_Tables_number   1
_chemical_formula_structural   Zr2Ti(Si2Tc)2
_chemical_formula_sum   'Zr8 Ti4 Si16 Tc8'
_cell_volume   559.72267786
_cell_formula_units_Z   4
loop_
 _symmetry_equiv_pos_site_id
 _symmetry_equiv_pos_as_xyz
  1  'x, y, z'
loop_
 _atom_site_type_symbol
 _atom_site_label
 _atom_site_symmetry_multiplicity
 _atom_site_fract_x
 _atom_site_fract_y
 _atom_site_fract_z
 _atom_site_occupancy
  Zr  Zr0  1  0.012606  0.661444  0.033976  1
  Zr  Zr1  1  0.987394  0.338556  0.533976  1
  Zr  Zr2  1  0.661444  0.012606  0.966024  1
  Zr  Zr3  1  0.161444  0.487394  0.783976  1
  Zr  Zr4  1  0.838556  0.512606  0.283976  1
  Zr  Zr5  1  0.487394  0.161444  0.216024  1
  Zr  Zr6  1  0.512606  0.838556  0.716024  1
  Zr  Zr7  1  0.338556  0.987394  0.466024  1
  Ti  Ti8  1  0.660544  0.660544  0.500000  1
  Ti  Ti9  1  0.839456  0.160544  0.750000  1
  Ti  Ti10  1  0.160544  0.839456  0.250000  1
  Ti  Ti11  1  0.339456  0.339456  0.000000  1
  Si  Si12  1  0.024881  0.721666  0.442516  1
  Si  Si13  1  0.975119  0.278334  0.942516  1
  Si  Si14  1  0.721666  0.024881  0.557484  1
  Si  Si15  1  0.221666  0.475119  0.192516  1
  Si  Si16  1  0.778334  0.524881  0.692516  1
  Si  Si17  1  0.475119  0.221666  0.807484  1
  Si  Si18  1  0.524881  0.778334  0.307484  1
  Si  Si19  1  0.278334  0.975119  0.057484  1
  Si  Si20  1  0.879516  0.792972  0.825585  1
  Si  Si21  1  0.120484  0.207028  0.325585  1
  Si  Si22  1  0.792972  0.879516  0.174415  1
  Si  Si23  1  0.292972  0.620484  0.575585  1
  Si  Si24  1  0.707028  0.379516  0.075585  1
  Si  Si25  1  0.620484  0.292972  0.424415  1
  Si  Si26  1  0.379516  0.707028  0.924415  1
  Si  Si27  1  0.207028  0.120484  0.674415  1
  Tc  Tc28  1  0.318864  0.498003  0.386473  1
  Tc  Tc29  1  0.818864  0.001997  0.363527  1
  Tc  Tc30  1  0.998003  0.181136  0.136473  1
  Tc  Tc31  1  0.001997  0.818864  0.636473  1
  Tc  Tc32  1  0.681136  0.501997  0.886473  1
  Tc  Tc33  1  0.498003  0.318864  0.613527  1
  Tc  Tc34  1  0.501997  0.681136  0.113527  1
  Tc  Tc35  1  0.181136  0.998003  0.863527  1
