# generated using pymatgen
data_Th2Zr3Si4
_symmetry_space_group_name_H-M   'P 1'
_cell_length_a   7.43918700
_cell_length_b   7.26433651
_cell_length_c   7.44054676
_cell_angle_alpha   71.23450190
_cell_angle_beta   90.00000000
_cell_angle_gamma   90.00000000
_symmetry_Int_Tables_number   1
_chemical_formula_structural   Th2Zr3Si4
_chemical_formula_sum   'Th4 Zr6 Si8'
_cell_volume   380.71879813
_cell_formula_units_Z   2
loop_
 _symmetry_equiv_pos_site_id
 _symmetry_equiv_pos_as_xyz
  1  'x, y, z'
loop_
 _atom_site_type_symbol
 _atom_site_label
 _atom_site_symmetry_multiplicity
 _atom_site_fract_x
 _atom_site_fract_y
 _atom_site_fract_z
 _atom_site_occupancy
  Th  Th0  1  0.671324  0.930623  0.691296  1
  Th  Th1  1  0.328676  0.069377  0.308704  1
  Th  Th2  1  0.171324  0.569377  0.308704  1
  Th  Th3  1  0.828676  0.430623  0.691296  1
  Zr  Zr4  1  0.674503  0.748334  0.248106  1
  Zr  Zr5  1  0.325497  0.251666  0.751894  1
  Zr  Zr6  1  0.174503  0.751666  0.751894  1
  Zr  Zr7  1  0.825497  0.248334  0.248106  1
  Zr  Zr8  1  0.000000  0.000000  0.000000  1
  Zr  Zr9  1  0.500000  0.500000  0.000000  1
  Si  Si10  1  0.963005  0.869503  0.415776  1
  Si  Si11  1  0.036995  0.130497  0.584224  1
  Si  Si12  1  0.463005  0.630497  0.584224  1
  Si  Si13  1  0.536995  0.369503  0.415776  1
  Si  Si14  1  0.876548  0.626971  0.996955  1
  Si  Si15  1  0.123452  0.373029  0.003045  1
  Si  Si16  1  0.376548  0.873029  0.003045  1
  Si  Si17  1  0.623452  0.126971  0.996955  1
