# generated using pymatgen
data_Er3LuZn12
_symmetry_space_group_name_H-M   'P 1'
_cell_length_a   4.36309800
_cell_length_b   6.63933395
_cell_length_c   10.04011642
_cell_angle_alpha   90.06106602
_cell_angle_beta   90.00000000
_cell_angle_gamma   90.00000000
_symmetry_Int_Tables_number   1
_chemical_formula_structural   Er3LuZn12
_chemical_formula_sum   'Er3 Lu1 Zn12'
_cell_volume   290.84257649
_cell_formula_units_Z   1
loop_
 _symmetry_equiv_pos_site_id
 _symmetry_equiv_pos_as_xyz
  1  'x, y, z'
loop_
 _atom_site_type_symbol
 _atom_site_label
 _atom_site_symmetry_multiplicity
 _atom_site_fract_x
 _atom_site_fract_y
 _atom_site_fract_z
 _atom_site_occupancy
  Er  Er0  1  0.250000  0.279571  0.664229  1
  Er  Er1  1  0.250000  0.779485  0.835484  1
  Er  Er2  1  0.750000  0.720518  0.335571  1
  Lu  Lu3  1  0.750000  0.220280  0.164324  1
  Zn  Zn4  1  0.250000  0.535091  0.103811  1
  Zn  Zn5  1  0.250000  0.035474  0.396468  1
  Zn  Zn6  1  0.750000  0.463905  0.897025  1
  Zn  Zn7  1  0.750000  0.964222  0.603376  1
  Zn  Zn8  1  0.250000  0.919986  0.149562  1
  Zn  Zn9  1  0.250000  0.418542  0.350243  1
  Zn  Zn10  1  0.750000  0.081053  0.851106  1
  Zn  Zn11  1  0.750000  0.581007  0.648897  1
  Zn  Zn12  1  0.250000  0.216464  0.957777  1
  Zn  Zn13  1  0.250000  0.716617  0.542771  1
  Zn  Zn14  1  0.750000  0.784663  0.042901  1
  Zn  Zn15  1  0.750000  0.283121  0.456455  1
