# generated using pymatgen
data_K4ZrSnBr12
_symmetry_space_group_name_H-M   'P 1'
_cell_length_a   7.78727982
_cell_length_b   7.51039597
_cell_length_c   13.00137600
_cell_angle_alpha   54.95028222
_cell_angle_beta   89.90450552
_cell_angle_gamma   89.71680320
_symmetry_Int_Tables_number   1
_chemical_formula_structural   K4ZrSnBr12
_chemical_formula_sum   'K4 Zr1 Sn1 Br12'
_cell_volume   622.49029222
_cell_formula_units_Z   1
loop_
 _symmetry_equiv_pos_site_id
 _symmetry_equiv_pos_as_xyz
  1  'x, y, z'
loop_
 _atom_site_type_symbol
 _atom_site_label
 _atom_site_symmetry_multiplicity
 _atom_site_fract_x
 _atom_site_fract_y
 _atom_site_fract_z
 _atom_site_occupancy
  K  K0  1  0.577372  0.724742  0.252162  1
  K  K1  1  0.076572  0.272680  0.247946  1
  K  K2  1  0.422628  0.275258  0.747838  1
  K  K3  1  0.923428  0.727320  0.752054  1
  Zr  Zr4  1  0.000000  0.000000  0.000000  1
  Sn  Sn5  1  0.500000  0.000000  0.500000  1
  Br  Br6  1  0.993862  0.837195  0.242363  1
  Br  Br7  1  0.493946  0.159097  0.258136  1
  Br  Br8  1  0.006138  0.162805  0.757637  1
  Br  Br9  1  0.506054  0.840903  0.741864  1
  Br  Br10  1  0.691194  0.667262  0.545559  1
  Br  Br11  1  0.188051  0.330902  0.956771  1
  Br  Br12  1  0.308806  0.332738  0.454441  1
  Br  Br13  1  0.811949  0.669098  0.043229  1
  Br  Br14  1  0.713644  0.222000  0.964438  1
  Br  Br15  1  0.215598  0.776202  0.536319  1
  Br  Br16  1  0.286356  0.778000  0.035562  1
  Br  Br17  1  0.784402  0.223798  0.463681  1
