# generated using pymatgen
data_Yb6Ga6Sb(RhO8)3
_symmetry_space_group_name_H-M   'P 1'
_cell_length_a   10.78982798
_cell_length_b   10.77287463
_cell_length_c   10.77287629
_cell_angle_alpha   109.36793125
_cell_angle_beta   109.53181531
_cell_angle_gamma   109.45015038
_symmetry_Int_Tables_number   1
_chemical_formula_structural   Yb6Ga6Sb(RhO8)3
_chemical_formula_sum   'Yb12 Ga12 Sb2 Rh6 O48'
_cell_volume   964.70946177
_cell_formula_units_Z   2
loop_
 _symmetry_equiv_pos_site_id
 _symmetry_equiv_pos_as_xyz
  1  'x, y, z'
loop_
 _atom_site_type_symbol
 _atom_site_label
 _atom_site_symmetry_multiplicity
 _atom_site_fract_x
 _atom_site_fract_y
 _atom_site_fract_z
 _atom_site_occupancy
  Yb  Yb0  1  0.250000  0.377948  0.127948  1
  Yb  Yb1  1  0.373252  0.754226  0.128016  1
  Yb  Yb2  1  0.380578  0.126853  0.254538  1
  Yb  Yb3  1  0.880577  0.626041  0.253726  1
  Yb  Yb4  1  0.126748  0.254765  0.380974  1
  Yb  Yb5  1  0.750000  0.124999  0.375000  1
  Yb  Yb6  1  0.250000  0.874999  0.625000  1
  Yb  Yb7  1  0.873252  0.745235  0.619026  1
  Yb  Yb8  1  0.119421  0.373959  0.746274  1
  Yb  Yb9  1  0.619422  0.873147  0.745462  1
  Yb  Yb10  1  0.626748  0.245774  0.871982  1
  Yb  Yb11  1  0.750000  0.622052  0.872052  1
  Ga  Ga12  1  0.750000  0.876367  0.126367  1
  Ga  Ga13  1  0.873959  0.251566  0.126415  1
  Ga  Ga14  1  0.626065  0.374756  0.251934  1
  Ga  Ga15  1  0.126065  0.874131  0.251310  1
  Ga  Ga16  1  0.626041  0.752456  0.377606  1
  Ga  Ga17  1  0.250000  0.625374  0.375374  1
  Ga  Ga18  1  0.750000  0.374626  0.624626  1
  Ga  Ga19  1  0.373959  0.247544  0.622394  1
  Ga  Ga20  1  0.873935  0.125869  0.748691  1
  Ga  Ga21  1  0.373935  0.625244  0.748066  1
  Ga  Ga22  1  0.250001  0.123633  0.873633  1
  Ga  Ga23  1  0.126041  0.748435  0.873585  1
  Sb  Sb24  1  0.000000  0.000000  0.000000  1
  Sb  Sb25  1  0.500000  0.500000  0.000000  1
  Rh  Rh26  1  0.499999  0.000000  0.000000  1
  Rh  Rh27  1  0.000000  0.499999  0.000000  1
  Rh  Rh28  1  0.500000  0.000000  0.500000  1
  Rh  Rh29  1  0.000000  0.500000  0.500000  1
  Rh  Rh30  1  0.000000  0.000000  0.499999  1
  Rh  Rh31  1  0.499999  0.499999  0.499999  1
  O  O32  1  0.320861  0.906096  0.025826  1
  O  O33  1  0.202622  0.121007  0.025101  1
  O  O34  1  0.702623  0.677521  0.081615  1
  O  O35  1  0.879865  0.406677  0.084854  1
  O  O36  1  0.973659  0.679105  0.094517  1
  O  O37  1  0.620653  0.417714  0.095466  1
  O  O38  1  0.593960  0.915422  0.120817  1
  O  O39  1  0.024877  0.203065  0.120818  1
  O  O40  1  0.475122  0.595940  0.178187  1
  O  O41  1  0.203954  0.584965  0.178497  1
  O  O42  1  0.120653  0.025188  0.202939  1
  O  O43  1  0.585538  0.178428  0.204843  1
  O  O44  1  0.473659  0.379143  0.294554  1
  O  O45  1  0.321875  0.916057  0.295977  1
  O  O46  1  0.906040  0.026857  0.321462  1
  O  O47  1  0.916207  0.296128  0.322531  1
  O  O48  1  0.296046  0.474542  0.381011  1
  O  O49  1  0.583792  0.906323  0.379919  1
  O  O50  1  0.821874  0.525897  0.405816  1
  O  O51  1  0.085538  0.880695  0.407110  1
  O  O52  1  0.820861  0.795036  0.414765  1
  O  O53  1  0.094064  0.619532  0.415549  1
  O  O54  1  0.594063  0.178514  0.474530  1
  O  O55  1  0.379865  0.295012  0.473189  1
  O  O56  1  0.620135  0.704988  0.526811  1
  O  O57  1  0.405935  0.821485  0.525469  1
  O  O58  1  0.905936  0.380467  0.584451  1
  O  O59  1  0.179139  0.204964  0.585235  1
  O  O60  1  0.914462  0.119305  0.592890  1
  O  O61  1  0.178125  0.474102  0.594182  1
  O  O62  1  0.416208  0.093677  0.620080  1
  O  O63  1  0.703954  0.525458  0.618989  1
  O  O64  1  0.083792  0.703872  0.677469  1
  O  O65  1  0.093960  0.973143  0.678538  1
  O  O66  1  0.678125  0.083942  0.704023  1
  O  O67  1  0.526341  0.620857  0.705446  1
  O  O68  1  0.414462  0.821572  0.795157  1
  O  O69  1  0.879346  0.974811  0.797059  1
  O  O70  1  0.796046  0.415035  0.821503  1
  O  O71  1  0.524877  0.404058  0.821812  1
  O  O72  1  0.975122  0.796933  0.879181  1
  O  O73  1  0.406040  0.084578  0.879183  1
  O  O74  1  0.379346  0.582286  0.904534  1
  O  O75  1  0.026341  0.320895  0.905483  1
  O  O76  1  0.120135  0.593323  0.915146  1
  O  O77  1  0.297377  0.322479  0.918384  1
  O  O78  1  0.679139  0.093904  0.974174  1
  O  O79  1  0.797376  0.878992  0.974898  1
