# generated using pymatgen
data_La6In8SiBr
_symmetry_space_group_name_H-M   'P 1'
_cell_length_a   8.65761517
_cell_length_b   8.65761487
_cell_length_c   8.65761511
_cell_angle_alpha   119.04438327
_cell_angle_beta   119.04439159
_cell_angle_gamma   91.66329937
_symmetry_Int_Tables_number   1
_chemical_formula_structural   La6In8SiBr
_chemical_formula_sum   'La6 In8 Si1 Br1'
_cell_volume   465.27522815
_cell_formula_units_Z   1
loop_
 _symmetry_equiv_pos_site_id
 _symmetry_equiv_pos_as_xyz
  1  'x, y, z'
loop_
 _atom_site_type_symbol
 _atom_site_label
 _atom_site_symmetry_multiplicity
 _atom_site_fract_x
 _atom_site_fract_y
 _atom_site_fract_z
 _atom_site_occupancy
  La  La0  1  0.747468  0.747468  0.000000  1
  La  La1  1  0.252532  0.252532  0.000000  1
  La  La2  1  0.349008  0.826243  0.175249  1
  La  La3  1  0.650992  0.173757  0.824751  1
  La  La4  1  0.826243  0.650992  0.477234  1
  La  La5  1  0.173757  0.349008  0.522766  1
  In  In6  1  0.958830  0.456619  0.789232  1
  In  In7  1  0.667387  0.169599  0.210768  1
  In  In8  1  0.456619  0.667387  0.497789  1
  In  In9  1  0.169599  0.958830  0.502211  1
  In  In10  1  0.041170  0.543381  0.210768  1
  In  In11  1  0.332613  0.830401  0.789232  1
  In  In12  1  0.543381  0.332613  0.502211  1
  In  In13  1  0.830401  0.041170  0.497789  1
  Si  Si14  1  0.500000  0.500000  0.000000  1
  Br  Br15  1  0.000000  0.000000  0.000000  1
