# generated using pymatgen
data_Li8Y7HoSn7Bi
_symmetry_space_group_name_H-M   'P 1'
_cell_length_a   9.42181700
_cell_length_b   9.42147634
_cell_length_c   7.28881601
_cell_angle_alpha   90.09757919
_cell_angle_beta   89.99982668
_cell_angle_gamma   119.99685386
_symmetry_Int_Tables_number   1
_chemical_formula_structural   Li8Y7HoSn7Bi
_chemical_formula_sum   'Li8 Y7 Ho1 Sn7 Bi1'
_cell_volume   560.34328872
_cell_formula_units_Z   1
loop_
 _symmetry_equiv_pos_site_id
 _symmetry_equiv_pos_as_xyz
  1  'x, y, z'
loop_
 _atom_site_type_symbol
 _atom_site_label
 _atom_site_symmetry_multiplicity
 _atom_site_fract_x
 _atom_site_fract_y
 _atom_site_fract_z
 _atom_site_occupancy
  Li  Li0  1  0.166564  0.333213  0.284584  1
  Li  Li1  1  0.168038  0.833661  0.288344  1
  Li  Li2  1  0.665561  0.833701  0.288286  1
  Li  Li3  1  0.833429  0.666784  0.786918  1
  Li  Li4  1  0.829194  0.164772  0.791267  1
  Li  Li5  1  0.335628  0.164737  0.791216  1
  Li  Li6  1  0.335330  0.670664  0.669718  1
  Li  Li7  1  0.666011  0.332055  0.171950  1
  Y  Y8  1  0.512605  0.025119  0.493701  1
  Y  Y9  1  0.517096  0.490785  0.491066  1
  Y  Y10  1  0.973779  0.490778  0.490989  1
  Y  Y11  1  0.487419  0.974903  0.994609  1
  Y  Y12  1  0.493369  0.514442  0.996411  1
  Y  Y13  1  0.020980  0.514410  0.996352  1
  Y  Y14  1  0.997312  0.994660  0.497095  1
  Ho  Ho15  1  0.997725  0.995423  0.002461  1
  Sn  Sn16  1  0.166559  0.833002  0.730584  1
  Sn  Sn17  1  0.666491  0.833003  0.730504  1
  Sn  Sn18  1  0.833280  0.666661  0.230828  1
  Sn  Sn19  1  0.834015  0.167255  0.229933  1
  Sn  Sn20  1  0.333213  0.167232  0.229963  1
  Sn  Sn21  1  0.332675  0.665386  0.260870  1
  Sn  Sn22  1  0.667041  0.334061  0.761494  1
  Bi  Bi23  1  0.166687  0.333296  0.732827  1
