# generated using pymatgen
data_Li4CaDy3Si8
_symmetry_space_group_name_H-M   'P 1'
_cell_length_a   3.78904000
_cell_length_b   7.73064517
_cell_length_c   10.24286873
_cell_angle_alpha   89.57861032
_cell_angle_beta   90.00000000
_cell_angle_gamma   90.00000000
_symmetry_Int_Tables_number   1
_chemical_formula_structural   Li4CaDy3Si8
_chemical_formula_sum   'Li4 Ca1 Dy3 Si8'
_cell_volume   300.02316702
_cell_formula_units_Z   1
loop_
 _symmetry_equiv_pos_site_id
 _symmetry_equiv_pos_as_xyz
  1  'x, y, z'
loop_
 _atom_site_type_symbol
 _atom_site_label
 _atom_site_symmetry_multiplicity
 _atom_site_fract_x
 _atom_site_fract_y
 _atom_site_fract_z
 _atom_site_occupancy
  Li  Li0  1  0.250000  0.997139  0.393268  1
  Li  Li1  1  0.750000  0.011438  0.609115  1
  Li  Li2  1  0.250000  0.487725  0.110094  1
  Li  Li3  1  0.750000  0.510077  0.893435  1
  Ca  Ca4  1  0.750000  0.362444  0.364284  1
  Dy  Dy5  1  0.250000  0.130304  0.863219  1
  Dy  Dy6  1  0.750000  0.865667  0.133086  1
  Dy  Dy7  1  0.250000  0.633762  0.635306  1
  Si  Si8  1  0.750000  0.260704  0.061984  1
  Si  Si9  1  0.250000  0.733205  0.933009  1
  Si  Si10  1  0.750000  0.773710  0.432990  1
  Si  Si11  1  0.250000  0.236365  0.572412  1
  Si  Si12  1  0.750000  0.838242  0.817386  1
  Si  Si13  1  0.250000  0.153218  0.173629  1
  Si  Si14  1  0.750000  0.341035  0.685299  1
  Si  Si15  1  0.250000  0.664965  0.321483  1
