# generated using pymatgen
data_Er4Re3MoRu4
_symmetry_space_group_name_H-M   'P 1'
_cell_length_a   5.42857400
_cell_length_b   5.23155095
_cell_length_c   9.05820100
_cell_angle_alpha   90.00000000
_cell_angle_beta   90.00000000
_cell_angle_gamma   121.25382110
_symmetry_Int_Tables_number   1
_chemical_formula_structural   Er4Re3MoRu4
_chemical_formula_sum   'Er4 Re3 Mo1 Ru4'
_cell_volume   219.91859158
_cell_formula_units_Z   1
loop_
 _symmetry_equiv_pos_site_id
 _symmetry_equiv_pos_as_xyz
  1  'x, y, z'
loop_
 _atom_site_type_symbol
 _atom_site_label
 _atom_site_symmetry_multiplicity
 _atom_site_fract_x
 _atom_site_fract_y
 _atom_site_fract_z
 _atom_site_occupancy
  Er  Er0  1  0.332437  0.664876  0.435958  1
  Er  Er1  1  0.671346  0.342693  0.564997  1
  Er  Er2  1  0.671346  0.342693  0.935003  1
  Er  Er3  1  0.332437  0.664876  0.064042  1
  Re  Re4  1  0.342866  0.168612  0.250000  1
  Re  Re5  1  0.829571  0.659143  0.250000  1
  Re  Re6  1  0.825746  0.168612  0.250000  1
  Mo  Mo7  1  0.161056  0.322111  0.750000  1
  Ru  Ru8  1  0.173687  0.822846  0.750000  1
  Ru  Ru9  1  0.649160  0.822846  0.750000  1
  Ru  Ru10  1  0.005174  0.010347  0.999523  1
  Ru  Ru11  1  0.005174  0.010347  0.500477  1
