# generated using pymatgen
data_Tb4Tm4Hf12Si15Sn
_symmetry_space_group_name_H-M   'P 1'
_cell_length_a   7.30497650
_cell_length_b   7.32485475
_cell_length_c   13.40448410
_cell_angle_alpha   89.69110817
_cell_angle_beta   89.96117975
_cell_angle_gamma   89.82723603
_symmetry_Int_Tables_number   1
_chemical_formula_structural   Tb4Tm4Hf12Si15Sn
_chemical_formula_sum   'Tb4 Tm4 Hf12 Si15 Sn1'
_cell_volume   717.23184397
_cell_formula_units_Z   1
loop_
 _symmetry_equiv_pos_site_id
 _symmetry_equiv_pos_as_xyz
  1  'x, y, z'
loop_
 _atom_site_type_symbol
 _atom_site_label
 _atom_site_symmetry_multiplicity
 _atom_site_fract_x
 _atom_site_fract_y
 _atom_site_fract_z
 _atom_site_occupancy
  Tb  Tb0  1  0.844607  0.504395  0.964281  1
  Tb  Tb1  1  0.497694  0.154100  0.538865  1
  Tb  Tb2  1  0.343891  0.995333  0.784893  1
  Tb  Tb3  1  0.661996  0.998365  0.283046  1
  Tm  Tm4  1  0.989310  0.345869  0.212341  1
  Tm  Tm5  1  0.003683  0.654986  0.715946  1
  Tm  Tm6  1  0.147524  0.506512  0.470891  1
  Tm  Tm7  1  0.504764  0.842751  0.032846  1
  Hf  Hf8  1  0.174387  0.174763  0.999046  1
  Hf  Hf9  1  0.826386  0.825979  0.501261  1
  Hf  Hf10  1  0.326011  0.681228  0.248057  1
  Hf  Hf11  1  0.675361  0.325576  0.750331  1
  Hf  Hf12  1  0.141916  0.987333  0.373751  1
  Hf  Hf13  1  0.852277  0.003311  0.874194  1
  Hf  Hf14  1  0.503569  0.649783  0.624670  1
  Hf  Hf15  1  0.351070  0.495818  0.875779  1
  Hf  Hf16  1  0.496435  0.352085  0.118867  1
  Hf  Hf17  1  0.660061  0.514143  0.379389  1
  Hf  Hf18  1  0.995099  0.148809  0.626591  1
  Hf  Hf19  1  0.002498  0.849497  0.123925  1
  Si  Si20  1  0.638615  0.705028  0.816898  1
  Si  Si21  1  0.203152  0.861588  0.568648  1
  Si  Si22  1  0.139174  0.794492  0.932275  1
  Si  Si23  1  0.795469  0.137108  0.066546  1
  Si  Si24  1  0.862877  0.205934  0.433099  1
  Si  Si25  1  0.293684  0.364446  0.683065  1
  Si  Si26  1  0.703342  0.636649  0.181345  1
  Si  Si27  1  0.295313  0.042128  0.180116  1
  Si  Si28  1  0.706286  0.948562  0.686526  1
  Si  Si29  1  0.449276  0.796421  0.435643  1
  Si  Si30  1  0.203721  0.548777  0.064946  1
  Si  Si31  1  0.548892  0.202070  0.934210  1
  Si  Si32  1  0.796359  0.452240  0.566999  1
  Si  Si33  1  0.048831  0.296558  0.813996  1
  Si  Si34  1  0.954171  0.699930  0.313096  1
  Sn  Sn35  1  0.362298  0.297434  0.323625  1
