# generated using pymatgen
data_HoEr3Ga4Ir3Pt
_symmetry_space_group_name_H-M   'P 1'
_cell_length_a   4.38763800
_cell_length_b   6.75172570
_cell_length_c   7.70905320
_cell_angle_alpha   90.03812852
_cell_angle_beta   90.00000000
_cell_angle_gamma   90.00000000
_symmetry_Int_Tables_number   1
_chemical_formula_structural   HoEr3Ga4Ir3Pt
_chemical_formula_sum   'Ho1 Er3 Ga4 Ir3 Pt1'
_cell_volume   228.37393014
_cell_formula_units_Z   1
loop_
 _symmetry_equiv_pos_site_id
 _symmetry_equiv_pos_as_xyz
  1  'x, y, z'
loop_
 _atom_site_type_symbol
 _atom_site_label
 _atom_site_symmetry_multiplicity
 _atom_site_fract_x
 _atom_site_fract_y
 _atom_site_fract_z
 _atom_site_occupancy
  Ho  Ho0  1  0.750000  0.017914  0.689607  1
  Er  Er1  1  0.250000  0.981602  0.308045  1
  Er  Er2  1  0.250000  0.483067  0.195877  1
  Er  Er3  1  0.750000  0.522891  0.807381  1
  Ga  Ga4  1  0.250000  0.338562  0.569188  1
  Ga  Ga5  1  0.250000  0.833228  0.928358  1
  Ga  Ga6  1  0.750000  0.662367  0.427541  1
  Ga  Ga7  1  0.750000  0.161316  0.073646  1
  Ir  Ir8  1  0.250000  0.729619  0.605424  1
  Ir  Ir9  1  0.750000  0.769388  0.104530  1
  Ir  Ir10  1  0.750000  0.269875  0.394511  1
  Pt  Pt11  1  0.250000  0.230172  0.895892  1
