# generated using pymatgen
data_Hf3Cr2ReP3
_symmetry_space_group_name_H-M   'P 1'
_cell_length_a   6.73998591
_cell_length_b   3.38174900
_cell_length_c   6.69501910
_cell_angle_alpha   90.00000000
_cell_angle_beta   120.21854940
_cell_angle_gamma   90.00000000
_symmetry_Int_Tables_number   1
_chemical_formula_structural   Hf3Cr2ReP3
_chemical_formula_sum   'Hf3 Cr2 Re1 P3'
_cell_volume   131.86276185
_cell_formula_units_Z   1
loop_
 _symmetry_equiv_pos_site_id
 _symmetry_equiv_pos_as_xyz
  1  'x, y, z'
loop_
 _atom_site_type_symbol
 _atom_site_label
 _atom_site_symmetry_multiplicity
 _atom_site_fract_x
 _atom_site_fract_y
 _atom_site_fract_z
 _atom_site_occupancy
  Hf  Hf0  1  0.400443  0.500001  0.999981  1
  Hf  Hf1  1  0.000857  0.500001  0.407751  1
  Hf  Hf2  1  0.593110  0.500001  0.592221  1
  Cr  Cr3  1  0.249227  0.000000  0.250151  1
  Cr  Cr4  1  0.999042  0.000000  0.749806  1
  Re  Re5  1  0.751524  0.000000  0.000008  1
  P  P6  1  0.012639  0.500001  0.999959  1
  P  P7  1  0.664804  0.000000  0.336539  1
  P  P8  1  0.328236  0.000000  0.663436  1
