# generated using pymatgen
data_Yb3Hf(Pt2O7)2
_symmetry_space_group_name_H-M   'P 1'
_cell_length_a   7.19565299
_cell_length_b   7.19508326
_cell_length_c   7.19565300
_cell_angle_alpha   59.99737596
_cell_angle_beta   59.99999538
_cell_angle_gamma   59.99737750
_symmetry_Int_Tables_number   1
_chemical_formula_structural   Yb3Hf(Pt2O7)2
_chemical_formula_sum   'Yb3 Hf1 Pt4 O14'
_cell_volume   263.41712970
_cell_formula_units_Z   1
loop_
 _symmetry_equiv_pos_site_id
 _symmetry_equiv_pos_as_xyz
  1  'x, y, z'
loop_
 _atom_site_type_symbol
 _atom_site_label
 _atom_site_symmetry_multiplicity
 _atom_site_fract_x
 _atom_site_fract_y
 _atom_site_fract_z
 _atom_site_occupancy
  Yb  Yb0  1  0.125000  0.125000  0.125000  1
  Yb  Yb1  1  0.625000  0.125000  0.125000  1
  Yb  Yb2  1  0.125000  0.125000  0.625000  1
  Hf  Hf3  1  0.125000  0.625000  0.125000  1
  Pt  Pt4  1  0.625000  0.625000  0.625000  1
  Pt  Pt5  1  0.125000  0.625000  0.625000  1
  Pt  Pt6  1  0.625000  0.625000  0.125000  1
  Pt  Pt7  1  0.625000  0.125000  0.625000  1
  O  O8  1  0.010727  0.967819  0.010727  1
  O  O9  1  0.239273  0.282181  0.239273  1
  O  O10  1  0.518569  0.551878  0.964777  1
  O  O11  1  0.287387  0.290197  0.711208  1
  O  O12  1  0.964777  0.551878  0.964777  1
  O  O13  1  0.964777  0.551878  0.518569  1
  O  O14  1  0.538792  0.959803  0.962613  1
  O  O15  1  0.538792  0.959803  0.538792  1
  O  O16  1  0.962613  0.959803  0.538792  1
  O  O17  1  0.711208  0.290197  0.287387  1
  O  O18  1  0.285223  0.698122  0.731431  1
  O  O19  1  0.731431  0.698122  0.285223  1
  O  O20  1  0.711208  0.290197  0.711208  1
  O  O21  1  0.285223  0.698122  0.285223  1
