# generated using pymatgen
data_TaTi2(MoP)3
_symmetry_space_group_name_H-M   'P 1'
_cell_length_a   6.75009428
_cell_length_b   6.80255841
_cell_length_c   3.30881600
_cell_angle_alpha   90.00000000
_cell_angle_beta   90.00000000
_cell_angle_gamma   120.25743730
_symmetry_Int_Tables_number   1
_chemical_formula_structural   TaTi2(MoP)3
_chemical_formula_sum   'Ta1 Ti2 Mo3 P3'
_cell_volume   131.23597568
_cell_formula_units_Z   1
loop_
 _symmetry_equiv_pos_site_id
 _symmetry_equiv_pos_as_xyz
  1  'x, y, z'
loop_
 _atom_site_type_symbol
 _atom_site_label
 _atom_site_symmetry_multiplicity
 _atom_site_fract_x
 _atom_site_fract_y
 _atom_site_fract_z
 _atom_site_occupancy
  Ta  Ta0  1  0.000000  0.596998  0.500000  1
  Ti  Ti1  1  0.401448  0.403484  0.500000  1
  Ti  Ti2  1  0.598552  0.002034  0.500000  1
  Mo  Mo3  1  0.257852  0.999553  0.000000  1
  Mo  Mo4  1  0.742148  0.741701  0.000000  1
  Mo  Mo5  1  0.000000  0.256937  0.000000  1
  P  P6  1  0.663097  0.330657  0.000000  1
  P  P7  1  0.336903  0.667560  0.000000  1
  P  P8  1  0.000000  0.001076  0.500000  1
