# generated using pymatgen
data_La6SnTe7
_symmetry_space_group_name_H-M   'P 1'
_cell_length_a   8.38329235
_cell_length_b   8.38329284
_cell_length_c   8.38329322
_cell_angle_alpha   109.33313091
_cell_angle_beta   109.33312692
_cell_angle_gamma   109.33313465
_symmetry_Int_Tables_number   1
_chemical_formula_structural   La6SnTe7
_chemical_formula_sum   'La6 Sn1 Te7'
_cell_volume   455.85077939
_cell_formula_units_Z   1
loop_
 _symmetry_equiv_pos_site_id
 _symmetry_equiv_pos_as_xyz
  1  'x, y, z'
loop_
 _atom_site_type_symbol
 _atom_site_label
 _atom_site_symmetry_multiplicity
 _atom_site_fract_x
 _atom_site_fract_y
 _atom_site_fract_z
 _atom_site_occupancy
  La  La0  1  0.871172  0.119688  0.749484  1
  La  La1  1  0.379929  0.255523  0.624957  1
  La  La2  1  0.119688  0.749484  0.871172  1
  La  La3  1  0.749484  0.871172  0.119688  1
  La  La4  1  0.255523  0.624957  0.379929  1
  La  La5  1  0.624957  0.379929  0.255523  1
  Sn  Sn6  1  0.656874  0.656874  0.656874  1
  Te  Te7  1  0.499773  0.999488  0.346526  1
  Te  Te8  1  0.999488  0.346526  0.499773  1
  Te  Te9  1  0.346526  0.499773  0.999488  1
  Te  Te10  1  0.998253  0.845329  0.500059  1
  Te  Te11  1  0.845329  0.500059  0.998253  1
  Te  Te12  1  0.152944  0.152944  0.152944  1
  Te  Te13  1  0.500059  0.998253  0.845329  1
