# generated using pymatgen
data_Pr2Ho4TcBi2
_symmetry_space_group_name_H-M   'P 1'
_cell_length_a   8.42229000
_cell_length_b   8.39094757
_cell_length_c   4.35186300
_cell_angle_alpha   90.00000000
_cell_angle_beta   90.00000000
_cell_angle_gamma   120.12363086
_symmetry_Int_Tables_number   1
_chemical_formula_structural   Pr2Ho4TcBi2
_chemical_formula_sum   'Pr2 Ho4 Tc1 Bi2'
_cell_volume   266.01410067
_cell_formula_units_Z   1
loop_
 _symmetry_equiv_pos_site_id
 _symmetry_equiv_pos_as_xyz
  1  'x, y, z'
loop_
 _atom_site_type_symbol
 _atom_site_label
 _atom_site_symmetry_multiplicity
 _atom_site_fract_x
 _atom_site_fract_y
 _atom_site_fract_z
 _atom_site_occupancy
  Pr  Pr0  1  0.001682  0.605830  0.500000  1
  Pr  Pr1  1  0.395853  0.394170  0.500000  1
  Ho  Ho2  1  0.227168  0.000000  0.000000  1
  Ho  Ho3  1  0.768454  0.770357  0.000000  1
  Ho  Ho4  1  0.998098  0.229643  0.000000  1
  Ho  Ho5  1  0.610968  0.000000  0.500000  1
  Tc  Tc6  1  0.992646  0.000000  0.500000  1
  Bi  Bi7  1  0.339537  0.673943  0.000000  1
  Bi  Bi8  1  0.665595  0.326057  0.000000  1
