# generated using pymatgen
data_Nb2VGaFe2
_symmetry_space_group_name_H-M   'P 1'
_cell_length_a   4.89027653
_cell_length_b   4.90866114
_cell_length_c   8.21161300
_cell_angle_alpha   90.00000000
_cell_angle_beta   90.00000000
_cell_angle_gamma   120.12444434
_symmetry_Int_Tables_number   1
_chemical_formula_structural   Nb2VGaFe2
_chemical_formula_sum   'Nb4 V2 Ga2 Fe4'
_cell_volume   170.49420058
_cell_formula_units_Z   2
loop_
 _symmetry_equiv_pos_site_id
 _symmetry_equiv_pos_as_xyz
  1  'x, y, z'
loop_
 _atom_site_type_symbol
 _atom_site_label
 _atom_site_symmetry_multiplicity
 _atom_site_fract_x
 _atom_site_fract_y
 _atom_site_fract_z
 _atom_site_occupancy
  Nb  Nb0  1  0.331462  0.665732  0.438200  1
  Nb  Nb1  1  0.667859  0.333929  0.569031  1
  Nb  Nb2  1  0.667859  0.333929  0.930969  1
  Nb  Nb3  1  0.331462  0.665732  0.061800  1
  V  V4  1  0.825442  0.174180  0.250000  1
  V  V5  1  0.825442  0.651262  0.250000  1
  Ga  Ga6  1  0.005761  0.002881  0.505584  1
  Ga  Ga7  1  0.005761  0.002881  0.994416  1
  Fe  Fe8  1  0.341905  0.170952  0.250000  1
  Fe  Fe9  1  0.171655  0.826142  0.750000  1
  Fe  Fe10  1  0.171655  0.345513  0.750000  1
  Fe  Fe11  1  0.653737  0.826868  0.750000  1
