# generated using pymatgen
data_Li2Ho7Er9(InRh2)2
_symmetry_space_group_name_H-M   'P 1'
_cell_length_a   9.62399491
_cell_length_b   9.57027341
_cell_length_c   9.57707985
_cell_angle_alpha   60.12697668
_cell_angle_beta   59.76365972
_cell_angle_gamma   59.77101699
_symmetry_Int_Tables_number   1
_chemical_formula_structural   Li2Ho7Er9(InRh2)2
_chemical_formula_sum   'Li2 Ho7 Er9 In2 Rh4'
_cell_volume   622.11924785
_cell_formula_units_Z   1
loop_
 _symmetry_equiv_pos_site_id
 _symmetry_equiv_pos_as_xyz
  1  'x, y, z'
loop_
 _atom_site_type_symbol
 _atom_site_label
 _atom_site_symmetry_multiplicity
 _atom_site_fract_x
 _atom_site_fract_y
 _atom_site_fract_z
 _atom_site_occupancy
  Li  Li0  1  0.428849  0.718289  0.426448  1
  Li  Li1  1  0.429091  0.426909  0.717850  1
  Ho  Ho2  1  0.187016  0.189091  0.811912  1
  Ho  Ho3  1  0.438803  0.059276  0.058855  1
  Ho  Ho4  1  0.432076  0.064536  0.434573  1
  Ho  Ho5  1  0.062231  0.437641  0.063119  1
  Ho  Ho6  1  0.652349  0.051663  0.643779  1
  Ho  Ho7  1  0.184730  0.816311  0.817148  1
  Ho  Ho8  1  0.062131  0.063241  0.437302  1
  Er  Er9  1  0.806108  0.191216  0.191418  1
  Er  Er10  1  0.812761  0.811356  0.189726  1
  Er  Er11  1  0.651871  0.644564  0.052043  1
  Er  Er12  1  0.654128  0.655129  0.654909  1
  Er  Er13  1  0.061762  0.436985  0.436286  1
  Er  Er14  1  0.041065  0.651284  0.651168  1
  Er  Er15  1  0.812527  0.189624  0.811786  1
  Er  Er16  1  0.432816  0.435451  0.064323  1
  Er  Er17  1  0.187778  0.811313  0.189357  1
  In  In18  1  0.746162  0.421593  0.421365  1
  In  In19  1  0.415911  0.419468  0.418499  1
  Rh  Rh20  1  0.857255  0.426971  0.859604  1
  Rh  Rh21  1  0.859022  0.858323  0.426283  1
  Rh  Rh22  1  0.428484  0.861266  0.862231  1
  Rh  Rh23  1  0.855076  0.858500  0.860018  1
