# generated using pymatgen
data_Mn6HgSe7
_symmetry_space_group_name_H-M   'P 1'
_cell_length_a   9.24168529
_cell_length_b   9.24168602
_cell_length_c   9.24168584
_cell_angle_alpha   62.05969504
_cell_angle_beta   62.05968895
_cell_angle_gamma   62.05969678
_symmetry_Int_Tables_number   1
_chemical_formula_structural   Mn6HgSe7
_chemical_formula_sum   'Mn12 Hg2 Se14'
_cell_volume   583.83641851
_cell_formula_units_Z   2
loop_
 _symmetry_equiv_pos_site_id
 _symmetry_equiv_pos_as_xyz
  1  'x, y, z'
loop_
 _atom_site_type_symbol
 _atom_site_label
 _atom_site_symmetry_multiplicity
 _atom_site_fract_x
 _atom_site_fract_y
 _atom_site_fract_z
 _atom_site_occupancy
  Mn  Mn0  1  0.606058  0.309177  0.445048  1
  Mn  Mn1  1  0.309177  0.445048  0.606058  1
  Mn  Mn2  1  0.445048  0.606058  0.309177  1
  Mn  Mn3  1  0.393942  0.690823  0.554952  1
  Mn  Mn4  1  0.690823  0.554952  0.393942  1
  Mn  Mn5  1  0.554952  0.393942  0.690823  1
  Mn  Mn6  1  0.372916  0.205057  0.500401  1
  Mn  Mn7  1  0.205057  0.500401  0.372916  1
  Mn  Mn8  1  0.500401  0.372916  0.205057  1
  Mn  Mn9  1  0.627084  0.794943  0.499599  1
  Mn  Mn10  1  0.794943  0.499599  0.627084  1
  Mn  Mn11  1  0.499599  0.627084  0.794943  1
  Hg  Hg12  1  0.112499  0.112499  0.112499  1
  Hg  Hg13  1  0.887501  0.887501  0.887501  1
  Se  Se14  1  0.662379  0.323943  0.913315  1
  Se  Se15  1  0.086685  0.337621  0.676057  1
  Se  Se16  1  0.275427  0.275427  0.275427  1
  Se  Se17  1  0.724573  0.724573  0.724573  1
  Se  Se18  1  0.842290  0.262349  0.525763  1
  Se  Se19  1  0.262349  0.525763  0.842290  1
  Se  Se20  1  0.525763  0.842290  0.262349  1
  Se  Se21  1  0.157710  0.737651  0.474237  1
  Se  Se22  1  0.737651  0.474237  0.157710  1
  Se  Se23  1  0.474237  0.157710  0.737651  1
  Se  Se24  1  0.337621  0.676057  0.086685  1
  Se  Se25  1  0.676057  0.086685  0.337621  1
  Se  Se26  1  0.913315  0.662379  0.323943  1
  Se  Se27  1  0.323943  0.913315  0.662379  1
