# generated using pymatgen
data_LaPr3(Sc3Si4)2
_symmetry_space_group_name_H-M   'P 1'
_cell_length_a   7.27310718
_cell_length_b   7.56060500
_cell_length_c   14.28984236
_cell_angle_alpha   90.00000000
_cell_angle_beta   89.97439602
_cell_angle_gamma   90.00000000
_symmetry_Int_Tables_number   1
_chemical_formula_structural   LaPr3(Sc3Si4)2
_chemical_formula_sum   'La2 Pr6 Sc12 Si16'
_cell_volume   785.78535644
_cell_formula_units_Z   2
loop_
 _symmetry_equiv_pos_site_id
 _symmetry_equiv_pos_as_xyz
  1  'x, y, z'
loop_
 _atom_site_type_symbol
 _atom_site_label
 _atom_site_symmetry_multiplicity
 _atom_site_fract_x
 _atom_site_fract_y
 _atom_site_fract_z
 _atom_site_occupancy
  La  La0  1  0.012056  0.171125  0.402885  1
  La  La1  1  0.512056  0.328875  0.402885  1
  Pr  Pr2  1  0.487698  0.672271  0.902098  1
  Pr  Pr3  1  0.488011  0.672395  0.598226  1
  Pr  Pr4  1  0.988011  0.827605  0.598226  1
  Pr  Pr5  1  0.987698  0.827729  0.902098  1
  Pr  Pr6  1  0.512122  0.327654  0.097566  1
  Pr  Pr7  1  0.012122  0.172346  0.097566  1
  Sc  Sc8  1  0.330129  0.175329  0.625786  1
  Sc  Sc9  1  0.670030  0.824373  0.374471  1
  Sc  Sc10  1  0.660020  0.001122  0.750011  1
  Sc  Sc11  1  0.170030  0.675627  0.374471  1
  Sc  Sc12  1  0.829974  0.324130  0.874495  1
  Sc  Sc13  1  0.830129  0.324671  0.625786  1
  Sc  Sc14  1  0.840006  0.501743  0.249532  1
  Sc  Sc15  1  0.340006  0.998257  0.249532  1
  Sc  Sc16  1  0.329974  0.175870  0.874495  1
  Sc  Sc17  1  0.169991  0.675793  0.125002  1
  Sc  Sc18  1  0.669991  0.824207  0.125002  1
  Sc  Sc19  1  0.160020  0.498878  0.750011  1
  Si  Si20  1  0.287886  0.883385  0.750014  1
  Si  Si21  1  0.465486  0.626126  0.249631  1
  Si  Si22  1  0.034550  0.125267  0.750061  1
  Si  Si23  1  0.534550  0.374733  0.750061  1
  Si  Si24  1  0.150915  0.464004  0.540297  1
  Si  Si25  1  0.965486  0.873874  0.249631  1
  Si  Si26  1  0.711785  0.115957  0.249284  1
  Si  Si27  1  0.848648  0.536966  0.039662  1
  Si  Si28  1  0.348648  0.963034  0.039662  1
  Si  Si29  1  0.151312  0.463050  0.960188  1
  Si  Si30  1  0.650915  0.035996  0.540297  1
  Si  Si31  1  0.349383  0.961895  0.460791  1
  Si  Si32  1  0.849383  0.538105  0.460791  1
  Si  Si33  1  0.787886  0.616615  0.750014  1
  Si  Si34  1  0.211785  0.384043  0.249284  1
  Si  Si35  1  0.651312  0.036950  0.960188  1
