# generated using pymatgen
data_MgReF6
_symmetry_space_group_name_H-M   'P 1'
_cell_length_a   5.54865358
_cell_length_b   5.54865421
_cell_length_c   5.54865444
_cell_angle_alpha   57.94250182
_cell_angle_beta   57.94249347
_cell_angle_gamma   57.94250261
_symmetry_Int_Tables_number   1
_chemical_formula_structural   MgReF6
_chemical_formula_sum   'Mg1 Re1 F6'
_cell_volume   115.09184404
_cell_formula_units_Z   1
loop_
 _symmetry_equiv_pos_site_id
 _symmetry_equiv_pos_as_xyz
  1  'x, y, z'
loop_
 _atom_site_type_symbol
 _atom_site_label
 _atom_site_symmetry_multiplicity
 _atom_site_fract_x
 _atom_site_fract_y
 _atom_site_fract_z
 _atom_site_occupancy
  Mg  Mg0  1  0.500000  0.500000  0.500000  1
  Re  Re1  1  0.000000  0.000000  0.000000  1
  F  F2  1  0.658463  0.844933  0.248838  1
  F  F3  1  0.844933  0.248838  0.658463  1
  F  F4  1  0.751162  0.341537  0.155067  1
  F  F5  1  0.155067  0.751162  0.341537  1
  F  F6  1  0.341537  0.155067  0.751162  1
  F  F7  1  0.248838  0.658463  0.844933  1
