# generated using pymatgen
data_Ce2Zn14Ni3
_symmetry_space_group_name_H-M   'P 1'
_cell_length_a   6.71753239
_cell_length_b   6.71753363
_cell_length_c   6.71753212
_cell_angle_alpha   83.09293078
_cell_angle_beta   96.90706527
_cell_angle_gamma   96.90707408
_symmetry_Int_Tables_number   1
_chemical_formula_structural   Ce2Zn14Ni3
_chemical_formula_sum   'Ce2 Zn14 Ni3'
_cell_volume   297.01999807
_cell_formula_units_Z   1
loop_
 _symmetry_equiv_pos_site_id
 _symmetry_equiv_pos_as_xyz
  1  'x, y, z'
loop_
 _atom_site_type_symbol
 _atom_site_label
 _atom_site_symmetry_multiplicity
 _atom_site_fract_x
 _atom_site_fract_y
 _atom_site_fract_z
 _atom_site_occupancy
  Ce  Ce0  1  0.658418  0.341581  0.341582  1
  Ce  Ce1  1  0.341581  0.658418  0.658418  1
  Zn  Zn2  1  0.292422  0.292422  0.000000  1
  Zn  Zn3  1  0.707578  0.707578  0.000000  1
  Zn  Zn4  1  0.894162  0.105836  0.105837  1
  Zn  Zn5  1  0.345811  0.654190  0.146998  1
  Zn  Zn6  1  0.000000  0.707578  0.292421  1
  Zn  Zn7  1  0.292422  0.000000  0.292422  1
  Zn  Zn8  1  0.654190  0.853002  0.345809  1
  Zn  Zn9  1  0.146998  0.345810  0.345811  1
  Zn  Zn10  1  0.853002  0.654190  0.654189  1
  Zn  Zn11  1  0.345810  0.146997  0.654190  1
  Zn  Zn12  1  0.000000  0.292422  0.707577  1
  Zn  Zn13  1  0.707578  0.000000  0.707578  1
  Zn  Zn14  1  0.654190  0.345810  0.853002  1
  Zn  Zn15  1  0.105836  0.894164  0.894163  1
  Ni  Ni16  1  0.500000  0.000000  0.000000  1
  Ni  Ni17  1  0.000000  0.499999  0.000000  1
  Ni  Ni18  1  0.000000  0.000000  0.500000  1
