# generated using pymatgen
data_La3MgCd2Pt3
_symmetry_space_group_name_H-M   'P 1'
_cell_length_a   7.69866700
_cell_length_b   7.77320077
_cell_length_c   4.15216000
_cell_angle_alpha   90.00000000
_cell_angle_beta   90.00000000
_cell_angle_gamma   119.68332102
_symmetry_Int_Tables_number   1
_chemical_formula_structural   La3MgCd2Pt3
_chemical_formula_sum   'La3 Mg1 Cd2 Pt3'
_cell_volume   215.87242450
_cell_formula_units_Z   1
loop_
 _symmetry_equiv_pos_site_id
 _symmetry_equiv_pos_as_xyz
  1  'x, y, z'
loop_
 _atom_site_type_symbol
 _atom_site_label
 _atom_site_symmetry_multiplicity
 _atom_site_fract_x
 _atom_site_fract_y
 _atom_site_fract_z
 _atom_site_occupancy
  La  La0  1  0.409025  0.411759  0.000000  1
  La  La1  1  0.594494  0.000000  0.000000  1
  La  La2  1  0.997266  0.588241  0.000000  1
  Mg  Mg3  1  0.242476  0.000000  0.500000  1
  Cd  Cd4  1  0.000867  0.248026  0.500000  1
  Cd  Cd5  1  0.752841  0.751974  0.500000  1
  Pt  Pt6  1  0.017159  0.000000  0.000000  1
  Pt  Pt7  1  0.655128  0.324383  0.500000  1
  Pt  Pt8  1  0.330744  0.675617  0.500000  1
