# generated using pymatgen
data_CeY9(SiB4)4
_symmetry_space_group_name_H-M   'P 1'
_cell_length_a   7.23978899
_cell_length_b   7.23978899
_cell_length_c   8.13229600
_cell_angle_alpha   89.99740642
_cell_angle_beta   89.99740642
_cell_angle_gamma   90.05995653
_symmetry_Int_Tables_number   1
_chemical_formula_structural   CeY9(SiB4)4
_chemical_formula_sum   'Ce1 Y9 Si4 B16'
_cell_volume   426.25035785
_cell_formula_units_Z   1
loop_
 _symmetry_equiv_pos_site_id
 _symmetry_equiv_pos_as_xyz
  1  'x, y, z'
loop_
 _atom_site_type_symbol
 _atom_site_label
 _atom_site_symmetry_multiplicity
 _atom_site_fract_x
 _atom_site_fract_y
 _atom_site_fract_z
 _atom_site_occupancy
  Ce  Ce0  1  0.682196  0.182196  0.230248  1
  Y  Y1  1  0.318634  0.818634  0.777055  1
  Y  Y2  1  0.319469  0.819469  0.223084  1
  Y  Y3  1  0.819484  0.680553  0.222747  1
  Y  Y4  1  0.819715  0.680811  0.777152  1
  Y  Y5  1  0.680786  0.180786  0.776511  1
  Y  Y6  1  0.180811  0.319715  0.777152  1
  Y  Y7  1  0.180553  0.319484  0.222747  1
  Y  Y8  1  0.000615  0.999151  0.500467  1
  Y  Y9  1  0.499151  0.500615  0.500467  1
  Si  Si10  1  0.115397  0.615397  0.501196  1
  Si  Si11  1  0.886041  0.386041  0.500155  1
  Si  Si12  1  0.384938  0.114066  0.499519  1
  Si  Si13  1  0.614066  0.884938  0.499519  1
  B  B14  1  0.172559  0.038788  0.999091  1
  B  B15  1  0.827851  0.960921  0.999733  1
  B  B16  1  0.960851  0.171644  0.999514  1
  B  B17  1  0.327431  0.539731  0.999225  1
  B  B18  1  0.039731  0.827431  0.999225  1
  B  B19  1  0.671644  0.460851  0.999514  1
  B  B20  1  0.538788  0.672559  0.999091  1
  B  B21  1  0.460921  0.327851  0.999733  1
  B  B22  1  0.090307  0.590307  0.999437  1
  B  B23  1  0.909389  0.409389  0.001114  1
  B  B24  1  0.409646  0.089974  0.999579  1
  B  B25  1  0.589974  0.909646  0.999579  1
  B  B26  1  0.999437  0.999581  0.160540  1
  B  B27  1  0.000434  0.999601  0.838033  1
  B  B28  1  0.499601  0.500434  0.838033  1
  B  B29  1  0.499581  0.499437  0.160540  1
