# generated using pymatgen
data_TbThHgPt2
_symmetry_space_group_name_H-M   'P 1'
_cell_length_a   7.92188800
_cell_length_b   7.86960000
_cell_length_c   3.74721900
_cell_angle_alpha   90.00000000
_cell_angle_beta   90.00000000
_cell_angle_gamma   90.00000000
_symmetry_Int_Tables_number   1
_chemical_formula_structural   TbThHgPt2
_chemical_formula_sum   'Tb2 Th2 Hg2 Pt4'
_cell_volume   233.60946342
_cell_formula_units_Z   2
loop_
 _symmetry_equiv_pos_site_id
 _symmetry_equiv_pos_as_xyz
  1  'x, y, z'
loop_
 _atom_site_type_symbol
 _atom_site_label
 _atom_site_symmetry_multiplicity
 _atom_site_fract_x
 _atom_site_fract_y
 _atom_site_fract_z
 _atom_site_occupancy
  Tb  Tb0  1  0.171457  0.674291  0.500000  1
  Tb  Tb1  1  0.671457  0.825709  0.500000  1
  Th  Th2  1  0.327337  0.166415  0.500000  1
  Th  Th3  1  0.827337  0.333585  0.500000  1
  Hg  Hg4  1  0.997386  0.991906  0.000000  1
  Hg  Hg5  1  0.497386  0.508094  0.000000  1
  Pt  Pt6  1  0.630356  0.131376  0.000000  1
  Pt  Pt7  1  0.130356  0.368624  0.000000  1
  Pt  Pt8  1  0.873464  0.624027  0.000000  1
  Pt  Pt9  1  0.373464  0.875973  0.000000  1
