# generated using pymatgen
data_TaV2P6WO24
_symmetry_space_group_name_H-M   'P 1'
_cell_length_a   8.64604304
_cell_length_b   8.61822444
_cell_length_c   8.90758935
_cell_angle_alpha   90.31393228
_cell_angle_beta   118.60640245
_cell_angle_gamma   119.80271044
_symmetry_Int_Tables_number   1
_chemical_formula_structural   TaV2P6WO24
_chemical_formula_sum   'Ta1 V2 P6 W1 O24'
_cell_volume   479.13214460
_cell_formula_units_Z   1
loop_
 _symmetry_equiv_pos_site_id
 _symmetry_equiv_pos_as_xyz
  1  'x, y, z'
loop_
 _atom_site_type_symbol
 _atom_site_label
 _atom_site_symmetry_multiplicity
 _atom_site_fract_x
 _atom_site_fract_y
 _atom_site_fract_z
 _atom_site_occupancy
  Ta  Ta0  1  0.215008  0.359661  0.572307  1
  V  V1  1  0.790316  0.642571  0.433708  1
  V  V2  1  0.789681  0.145111  0.930028  1
  P  P3  1  0.984264  0.959753  0.244362  1
  P  P4  1  0.991984  0.029056  0.750958  1
  P  P5  1  0.718768  0.254637  0.251374  1
  P  P6  1  0.287294  0.761675  0.744524  1
  P  P7  1  0.285577  0.528352  0.246150  1
  P  P8  1  0.722054  0.462563  0.749383  1
  W  W9  1  0.214643  0.859367  0.074446  1
  O  O10  1  0.144371  0.019596  0.930682  1
  O  O11  1  0.263216  0.502877  0.409613  1
  O  O12  1  0.856502  0.993951  0.072663  1
  O  O13  1  0.515312  0.087158  0.232120  1
  O  O14  1  0.841305  0.061601  0.764485  1
  O  O15  1  0.732064  0.438465  0.285517  1
  O  O16  1  0.141186  0.140942  0.408243  1
  O  O17  1  0.744424  0.487847  0.590760  1
  O  O18  1  0.718327  0.222708  0.083451  1
  O  O19  1  0.276486  0.575883  0.722753  1
  O  O20  1  0.099207  0.744616  0.578016  1
  O  O21  1  0.304829  0.714831  0.225934  1
  O  O22  1  0.488087  0.548525  0.287499  1
  O  O23  1  0.141084  0.197201  0.714222  1
  O  O24  1  0.131462  0.919196  0.222289  1
  O  O25  1  0.711119  0.284335  0.785319  1
  O  O26  1  0.496457  0.923577  0.776445  1
  O  O27  1  0.089772  0.361299  0.074895  1
  O  O28  1  0.909726  0.270611  0.420031  1
  O  O29  1  0.282067  0.788926  0.916196  1
  O  O30  1  0.857013  0.846250  0.593888  1
  O  O31  1  0.832384  0.794438  0.274333  1
  O  O32  1  0.909569  0.633679  0.922073  1
  O  O33  1  0.514443  0.438743  0.711330  1
