# generated using pymatgen
data_Hf18CoCuMo5W3
_symmetry_space_group_name_H-M   'P 1'
_cell_length_a   8.69732915
_cell_length_b   8.68958581
_cell_length_c   8.49491700
_cell_angle_alpha   90.00000000
_cell_angle_beta   90.00000000
_cell_angle_gamma   119.97055352
_symmetry_Int_Tables_number   1
_chemical_formula_structural   Hf18CoCuMo5W3
_chemical_formula_sum   'Hf18 Co1 Cu1 Mo5 W3'
_cell_volume   556.16485579
_cell_formula_units_Z   1
loop_
 _symmetry_equiv_pos_site_id
 _symmetry_equiv_pos_as_xyz
  1  'x, y, z'
loop_
 _atom_site_type_symbol
 _atom_site_label
 _atom_site_symmetry_multiplicity
 _atom_site_fract_x
 _atom_site_fract_y
 _atom_site_fract_z
 _atom_site_occupancy
  Hf  Hf0  1  0.197419  0.803086  0.444839  1
  Hf  Hf1  1  0.197419  0.394333  0.444839  1
  Hf  Hf2  1  0.605363  0.802681  0.445128  1
  Hf  Hf3  1  0.798439  0.201844  0.559250  1
  Hf  Hf4  1  0.798439  0.596596  0.559250  1
  Hf  Hf5  1  0.403325  0.201663  0.558820  1
  Hf  Hf6  1  0.798439  0.201844  0.940750  1
  Hf  Hf7  1  0.798439  0.596596  0.940750  1
  Hf  Hf8  1  0.403325  0.201663  0.941180  1
  Hf  Hf9  1  0.197419  0.803086  0.055161  1
  Hf  Hf10  1  0.197419  0.394333  0.055161  1
  Hf  Hf11  1  0.605363  0.802681  0.054872  1
  Hf  Hf12  1  0.541933  0.456794  0.250000  1
  Hf  Hf13  1  0.541933  0.085137  0.250000  1
  Hf  Hf14  1  0.914832  0.457415  0.250000  1
  Hf  Hf15  1  0.457765  0.542251  0.750000  1
  Hf  Hf16  1  0.457765  0.915515  0.750000  1
  Hf  Hf17  1  0.084421  0.542211  0.750000  1
  Co  Co18  1  0.666812  0.333406  0.750000  1
  Cu  Cu19  1  0.333449  0.666725  0.250000  1
  Mo  Mo20  1  0.888217  0.112379  0.250000  1
  Mo  Mo21  1  0.888217  0.775839  0.250000  1
  Mo  Mo22  1  0.112196  0.887573  0.750000  1
  Mo  Mo23  1  0.112196  0.224622  0.750000  1
  Mo  Mo24  1  0.775184  0.887591  0.750000  1
  W  W25  1  0.224378  0.112189  0.250000  1
  W  W26  1  0.999946  0.999973  0.501598  1
  W  W27  1  0.999946  0.999973  0.998402  1
