# generated using pymatgen
data_Rb8Tb2Tm4BBr20
_symmetry_space_group_name_H-M   'P 1'
_cell_length_a   12.26055380
_cell_length_b   12.29589825
_cell_length_c   12.29589765
_cell_angle_alpha   59.80992123
_cell_angle_beta   60.09504195
_cell_angle_gamma   60.09504426
_symmetry_Int_Tables_number   1
_chemical_formula_structural   Rb8Tb2Tm4BBr20
_chemical_formula_sum   'Rb8 Tb2 Tm4 B1 Br20'
_cell_volume   1310.71556909
_cell_formula_units_Z   1
loop_
 _symmetry_equiv_pos_site_id
 _symmetry_equiv_pos_as_xyz
  1  'x, y, z'
loop_
 _atom_site_type_symbol
 _atom_site_label
 _atom_site_symmetry_multiplicity
 _atom_site_fract_x
 _atom_site_fract_y
 _atom_site_fract_z
 _atom_site_occupancy
  Rb  Rb0  1  0.360023  0.359380  0.359380  1
  Rb  Rb1  1  0.639977  0.640620  0.640620  1
  Rb  Rb2  1  0.359380  0.360023  0.921218  1
  Rb  Rb3  1  0.359380  0.921218  0.360023  1
  Rb  Rb4  1  0.640620  0.639977  0.078782  1
  Rb  Rb5  1  0.640620  0.078782  0.639977  1
  Rb  Rb6  1  0.921218  0.359380  0.359380  1
  Rb  Rb7  1  0.078782  0.640620  0.640620  1
  Tb  Tb8  1  0.849528  0.150472  0.150472  1
  Tb  Tb9  1  0.150472  0.849528  0.849528  1
  Tm  Tm10  1  0.149036  0.850964  0.149036  1
  Tm  Tm11  1  0.850964  0.149036  0.850964  1
  Tm  Tm12  1  0.149036  0.149036  0.850964  1
  Tm  Tm13  1  0.850964  0.850964  0.149036  1
  B  B14  1  0.000000  0.000000  0.000000  1
  Br  Br15  1  0.324714  0.000000  0.000000  1
  Br  Br16  1  0.675286  0.000000  0.000000  1
  Br  Br17  1  0.000000  0.324714  0.675286  1
  Br  Br18  1  0.000000  0.675286  0.324714  1
  Br  Br19  1  0.003781  0.327928  0.996219  1
  Br  Br20  1  0.672072  0.996219  0.327928  1
  Br  Br21  1  0.996219  0.672072  0.003781  1
  Br  Br22  1  0.327928  0.003781  0.672072  1
  Br  Br23  1  0.003781  0.996219  0.327928  1
  Br  Br24  1  0.996219  0.003781  0.672072  1
  Br  Br25  1  0.672072  0.327928  0.996219  1
  Br  Br26  1  0.327928  0.672072  0.003781  1
  Br  Br27  1  0.681030  0.318970  0.318970  1
  Br  Br28  1  0.318970  0.681030  0.681030  1
  Br  Br29  1  0.314716  0.685284  0.314716  1
  Br  Br30  1  0.685284  0.314716  0.685284  1
  Br  Br31  1  0.314716  0.314716  0.685284  1
  Br  Br32  1  0.685284  0.685284  0.314716  1
  Br  Br33  1  0.250000  0.250000  0.250000  1
  Br  Br34  1  0.750000  0.750000  0.750000  1
