# generated using pymatgen
data_Y4MnSi4Ir
_symmetry_space_group_name_H-M   'P 1'
_cell_length_a   5.72222140
_cell_length_b   5.72222130
_cell_length_c   10.05339411
_cell_angle_alpha   63.58431627
_cell_angle_beta   63.58431574
_cell_angle_gamma   43.03938128
_symmetry_Int_Tables_number   1
_chemical_formula_structural   Y4MnSi4Ir
_chemical_formula_sum   'Y4 Mn1 Si4 Ir1'
_cell_volume   197.31474836
_cell_formula_units_Z   1
loop_
 _symmetry_equiv_pos_site_id
 _symmetry_equiv_pos_as_xyz
  1  'x, y, z'
loop_
 _atom_site_type_symbol
 _atom_site_label
 _atom_site_symmetry_multiplicity
 _atom_site_fract_x
 _atom_site_fract_y
 _atom_site_fract_z
 _atom_site_occupancy
  Y  Y0  1  0.005254  0.005254  0.322554  1
  Y  Y1  1  0.185377  0.185377  0.891526  1
  Y  Y2  1  0.994834  0.994834  0.676089  1
  Y  Y3  1  0.812033  0.812033  0.110968  1
  Mn  Mn4  1  0.725401  0.725401  0.629142  1
  Si  Si5  1  0.361889  0.361889  0.560914  1
  Si  Si6  1  0.492290  0.492290  0.879471  1
  Si  Si7  1  0.641479  0.641479  0.437406  1
  Si  Si8  1  0.507100  0.507100  0.121416  1
  Ir  Ir9  1  0.274343  0.274343  0.370513  1
