# generated using pymatgen
data_Tb2AlGaIr2
_symmetry_space_group_name_H-M   'P 1'
_cell_length_a   4.26477500
_cell_length_b   6.92999617
_cell_length_c   7.90617531
_cell_angle_alpha   89.87114021
_cell_angle_beta   90.00000000
_cell_angle_gamma   90.00000000
_symmetry_Int_Tables_number   1
_chemical_formula_structural   Tb2AlGaIr2
_chemical_formula_sum   'Tb4 Al2 Ga2 Ir4'
_cell_volume   233.66542744
_cell_formula_units_Z   2
loop_
 _symmetry_equiv_pos_site_id
 _symmetry_equiv_pos_as_xyz
  1  'x, y, z'
loop_
 _atom_site_type_symbol
 _atom_site_label
 _atom_site_symmetry_multiplicity
 _atom_site_fract_x
 _atom_site_fract_y
 _atom_site_fract_z
 _atom_site_occupancy
  Tb  Tb0  1  0.250000  0.533246  0.186215  1
  Tb  Tb1  1  0.750000  0.466754  0.813785  1
  Tb  Tb2  1  0.250000  0.031048  0.319656  1
  Tb  Tb3  1  0.750000  0.968952  0.680344  1
  Al  Al4  1  0.250000  0.139672  0.936958  1
  Al  Al5  1  0.750000  0.860328  0.063042  1
  Ga  Ga6  1  0.250000  0.647320  0.565899  1
  Ga  Ga7  1  0.750000  0.352680  0.434101  1
  Ir  Ir8  1  0.750000  0.733937  0.378154  1
  Ir  Ir9  1  0.250000  0.266063  0.621846  1
  Ir  Ir10  1  0.750000  0.230869  0.114130  1
  Ir  Ir11  1  0.250000  0.769131  0.885870  1
