# generated using pymatgen
data_Yb3LuIr8
_symmetry_space_group_name_H-M   'P 1'
_cell_length_a   5.32455100
_cell_length_b   5.32455211
_cell_length_c   8.66990600
_cell_angle_alpha   90.00000000
_cell_angle_beta   90.00000000
_cell_angle_gamma   119.99998689
_symmetry_Int_Tables_number   1
_chemical_formula_structural   Yb3LuIr8
_chemical_formula_sum   'Yb3 Lu1 Ir8'
_cell_volume   212.86837791
_cell_formula_units_Z   1
loop_
 _symmetry_equiv_pos_site_id
 _symmetry_equiv_pos_as_xyz
  1  'x, y, z'
loop_
 _atom_site_type_symbol
 _atom_site_label
 _atom_site_symmetry_multiplicity
 _atom_site_fract_x
 _atom_site_fract_y
 _atom_site_fract_z
 _atom_site_occupancy
  Yb  Yb0  1  0.333333  0.666667  0.437883  1
  Yb  Yb1  1  0.666667  0.333333  0.567918  1
  Yb  Yb2  1  0.666667  0.333333  0.926903  1
  Lu  Lu3  1  0.333333  0.666667  0.070218  1
  Ir  Ir4  1  0.170898  0.341795  0.751589  1
  Ir  Ir5  1  0.170898  0.829102  0.751589  1
  Ir  Ir6  1  0.341918  0.170959  0.247723  1
  Ir  Ir7  1  0.829041  0.658082  0.247723  1
  Ir  Ir8  1  0.658205  0.829102  0.751589  1
  Ir  Ir9  1  0.000000  0.000000  0.999269  1
  Ir  Ir10  1  0.829041  0.170959  0.247723  1
  Ir  Ir11  1  0.000000  0.000000  0.499871  1
