# generated using pymatgen
data_Hf3Zr6ScGa12Ir7
_symmetry_space_group_name_H-M   'P 1'
_cell_length_a   8.91415530
_cell_length_b   8.91415645
_cell_length_c   8.91107900
_cell_angle_alpha   59.98857878
_cell_angle_beta   59.98857455
_cell_angle_gamma   59.99999354
_symmetry_Int_Tables_number   1
_chemical_formula_structural   Hf3Zr6ScGa12Ir7
_chemical_formula_sum   'Hf3 Zr6 Sc1 Ga12 Ir7'
_cell_volume   500.61137605
_cell_formula_units_Z   1
loop_
 _symmetry_equiv_pos_site_id
 _symmetry_equiv_pos_as_xyz
  1  'x, y, z'
loop_
 _atom_site_type_symbol
 _atom_site_label
 _atom_site_symmetry_multiplicity
 _atom_site_fract_x
 _atom_site_fract_y
 _atom_site_fract_z
 _atom_site_occupancy
  Hf  Hf0  1  0.878170  0.365222  0.878430  1
  Hf  Hf1  1  0.365234  0.878169  0.878426  1
  Hf  Hf2  1  0.878167  0.878173  0.878434  1
  Zr  Zr3  1  0.689777  0.689789  0.310554  1
  Zr  Zr4  1  0.309939  0.689717  0.310615  1
  Zr  Zr5  1  0.689784  0.309876  0.310542  1
  Zr  Zr6  1  0.310378  0.310386  0.689832  1
  Zr  Zr7  1  0.689353  0.310425  0.689815  1
  Zr  Zr8  1  0.310354  0.689423  0.689861  1
  Sc  Sc9  1  0.878619  0.878661  0.364062  1
  Ga  Ga10  1  0.121098  0.121066  0.636761  1
  Ga  Ga11  1  0.119894  0.637262  0.122915  1
  Ga  Ga12  1  0.637262  0.119898  0.122948  1
  Ga  Ga13  1  0.119879  0.119929  0.122925  1
  Ga  Ga14  1  0.655892  0.655895  0.032314  1
  Ga  Ga15  1  0.658388  0.029040  0.654195  1
  Ga  Ga16  1  0.029038  0.658381  0.654199  1
  Ga  Ga17  1  0.658384  0.658375  0.654196  1
  Ga  Ga18  1  0.340937  0.340936  0.977196  1
  Ga  Ga19  1  0.341648  0.976085  0.340622  1
  Ga  Ga20  1  0.976109  0.341636  0.340621  1
  Ga  Ga21  1  0.341653  0.341648  0.340618  1
  Ir  Ir22  1  0.000886  0.000880  0.997346  1
  Ir  Ir23  1  0.000320  0.000315  0.503000  1
  Ir  Ir24  1  0.496367  0.000319  0.502995  1
  Ir  Ir25  1  0.000316  0.496368  0.503003  1
  Ir  Ir26  1  0.501456  0.501450  0.997858  1
  Ir  Ir27  1  0.999242  0.501448  0.997864  1
  Ir  Ir28  1  0.501459  0.999231  0.997856  1
