# generated using pymatgen
data_Nd3Co2P6Rh7
_symmetry_space_group_name_H-M   'P 1'
_cell_length_a   11.19369800
_cell_length_b   3.87769000
_cell_length_c   12.85878800
_cell_angle_alpha   90.00000000
_cell_angle_beta   90.00000000
_cell_angle_gamma   90.00000000
_symmetry_Int_Tables_number   1
_chemical_formula_structural   Nd3Co2P6Rh7
_chemical_formula_sum   'Nd6 Co4 P12 Rh14'
_cell_volume   558.14457596
_cell_formula_units_Z   2
loop_
 _symmetry_equiv_pos_site_id
 _symmetry_equiv_pos_as_xyz
  1  'x, y, z'
loop_
 _atom_site_type_symbol
 _atom_site_label
 _atom_site_symmetry_multiplicity
 _atom_site_fract_x
 _atom_site_fract_y
 _atom_site_fract_z
 _atom_site_occupancy
  Nd  Nd0  1  0.065401  0.749999  0.199611  1
  Nd  Nd1  1  0.434598  0.749999  0.199611  1
  Nd  Nd2  1  0.250000  0.749999  0.479902  1
  Nd  Nd3  1  0.750000  0.249999  0.519600  1
  Nd  Nd4  1  0.570886  0.249999  0.800814  1
  Nd  Nd5  1  0.929114  0.249999  0.800814  1
  Co  Co6  1  0.250000  0.749999  0.011873  1
  Co  Co7  1  0.750000  0.249999  0.987885  1
  Co  Co8  1  0.587779  0.749999  0.996688  1
  Co  Co9  1  0.912220  0.749999  0.996688  1
  P  P10  1  0.601233  0.249999  0.098584  1
  P  P11  1  0.898766  0.249999  0.098584  1
  P  P12  1  0.250000  0.249999  0.112306  1
  P  P13  1  0.750000  0.749999  0.342659  1
  P  P14  1  0.062831  0.249999  0.380976  1
  P  P15  1  0.437169  0.249999  0.380976  1
  P  P16  1  0.563401  0.749999  0.619508  1
  P  P17  1  0.936599  0.749999  0.619508  1
  P  P18  1  0.250000  0.249999  0.656117  1
  P  P19  1  0.750000  0.749999  0.894143  1
  P  P20  1  0.095004  0.749999  0.898554  1
  P  P21  1  0.404997  0.749999  0.898554  1
  Rh  Rh22  1  0.082517  0.249999  0.003973  1
  Rh  Rh23  1  0.417484  0.249999  0.003973  1
  Rh  Rh24  1  0.750000  0.749999  0.158972  1
  Rh  Rh25  1  0.625610  0.249999  0.285557  1
  Rh  Rh26  1  0.874390  0.249999  0.285557  1
  Rh  Rh27  1  0.250000  0.249999  0.294672  1
  Rh  Rh28  1  0.543490  0.749999  0.429584  1
  Rh  Rh29  1  0.956510  0.749999  0.429584  1
  Rh  Rh30  1  0.042975  0.249999  0.571057  1
  Rh  Rh31  1  0.457025  0.249999  0.571057  1
  Rh  Rh32  1  0.750000  0.749999  0.706499  1
  Rh  Rh33  1  0.125106  0.749999  0.714058  1
  Rh  Rh34  1  0.374894  0.749999  0.714058  1
  Rh  Rh35  1  0.250000  0.249999  0.837446  1
