# generated using pymatgen
data_Dy10Y2IrOs3
_symmetry_space_group_name_H-M   'P 1'
_cell_length_a   6.37394304
_cell_length_b   7.37058963
_cell_length_c   9.06896900
_cell_angle_alpha   90.00000000
_cell_angle_beta   90.00000000
_cell_angle_gamma   90.05069351
_symmetry_Int_Tables_number   1
_chemical_formula_structural   Dy10Y2IrOs3
_chemical_formula_sum   'Dy10 Y2 Ir1 Os3'
_cell_volume   426.05744368
_cell_formula_units_Z   1
loop_
 _symmetry_equiv_pos_site_id
 _symmetry_equiv_pos_as_xyz
  1  'x, y, z'
loop_
 _atom_site_type_symbol
 _atom_site_label
 _atom_site_symmetry_multiplicity
 _atom_site_fract_x
 _atom_site_fract_y
 _atom_site_fract_z
 _atom_site_occupancy
  Dy  Dy0  1  0.331754  0.673640  0.062445  1
  Dy  Dy1  1  0.170535  0.176312  0.437839  1
  Dy  Dy2  1  0.670166  0.325041  0.563800  1
  Dy  Dy3  1  0.827391  0.824828  0.934473  1
  Dy  Dy4  1  0.670166  0.325041  0.936200  1
  Dy  Dy5  1  0.827391  0.824828  0.565527  1
  Dy  Dy6  1  0.331754  0.673640  0.437555  1
  Dy  Dy7  1  0.170535  0.176312  0.062161  1
  Dy  Dy8  1  0.130342  0.461574  0.750000  1
  Dy  Dy9  1  0.368710  0.961099  0.750000  1
  Y  Y10  1  0.870246  0.537474  0.250000  1
  Y  Y11  1  0.629975  0.038978  0.250000  1
  Ir  Ir12  1  0.042447  0.884286  0.250000  1
  Os  Os13  1  0.458486  0.383953  0.250000  1
  Os  Os14  1  0.961747  0.116053  0.750000  1
  Os  Os15  1  0.538357  0.616944  0.750000  1
