# generated using pymatgen
data_La2Ga9Ir2Pt
_symmetry_space_group_name_H-M   'P 1'
_cell_length_a   7.73481849
_cell_length_b   7.73481715
_cell_length_c   9.64026752
_cell_angle_alpha   89.95643062
_cell_angle_beta   89.95643078
_cell_angle_gamma   119.68605801
_symmetry_Int_Tables_number   1
_chemical_formula_structural   La2Ga9Ir2Pt
_chemical_formula_sum   'La4 Ga18 Ir4 Pt2'
_cell_volume   501.05408764
_cell_formula_units_Z   2
loop_
 _symmetry_equiv_pos_site_id
 _symmetry_equiv_pos_as_xyz
  1  'x, y, z'
loop_
 _atom_site_type_symbol
 _atom_site_label
 _atom_site_symmetry_multiplicity
 _atom_site_fract_x
 _atom_site_fract_y
 _atom_site_fract_z
 _atom_site_occupancy
  La  La0  1  0.996462  0.669035  0.249856  1
  La  La1  1  0.003538  0.330965  0.750144  1
  La  La2  1  0.669035  0.996462  0.249856  1
  La  La3  1  0.330965  0.003538  0.750144  1
  Ga  Ga4  1  0.129358  0.129358  0.250686  1
  Ga  Ga5  1  0.870642  0.870642  0.749314  1
  Ga  Ga6  1  0.003222  0.331456  0.080923  1
  Ga  Ga7  1  0.996778  0.668544  0.919077  1
  Ga  Ga8  1  0.999224  0.665382  0.577119  1
  Ga  Ga9  1  0.334618  0.000776  0.422881  1
  Ga  Ga10  1  0.000776  0.334618  0.422881  1
  Ga  Ga11  1  0.665382  0.999224  0.577119  1
  Ga  Ga12  1  0.668544  0.996778  0.919077  1
  Ga  Ga13  1  0.331456  0.003222  0.080923  1
  Ga  Ga14  1  0.332333  0.332333  0.554812  1
  Ga  Ga15  1  0.667667  0.667667  0.445188  1
  Ga  Ga16  1  0.668367  0.668367  0.061176  1
  Ga  Ga17  1  0.331633  0.331633  0.938824  1
  Ga  Ga18  1  0.342123  0.543357  0.253372  1
  Ga  Ga19  1  0.657877  0.456643  0.746628  1
  Ga  Ga20  1  0.543357  0.342123  0.253372  1
  Ga  Ga21  1  0.456643  0.657877  0.746628  1
  Ir  Ir22  1  0.329193  0.670807  0.500000  1
  Ir  Ir23  1  0.670807  0.329193  0.500000  1
  Ir  Ir24  1  0.000000  0.000000  0.000000  1
  Ir  Ir25  1  0.000000  0.000000  0.500000  1
  Pt  Pt26  1  0.670585  0.329415  0.000000  1
  Pt  Pt27  1  0.329415  0.670585  0.000000  1
