# generated using pymatgen
data_Yb2Eu6Sn3Pb
_symmetry_space_group_name_H-M   'P 1'
_cell_length_a   5.40124300
_cell_length_b   7.50753509
_cell_length_c   9.80010001
_cell_angle_alpha   90.00679883
_cell_angle_beta   90.00000000
_cell_angle_gamma   90.00000000
_symmetry_Int_Tables_number   1
_chemical_formula_structural   Yb2Eu6Sn3Pb
_chemical_formula_sum   'Yb2 Eu6 Sn3 Pb1'
_cell_volume   397.39426145
_cell_formula_units_Z   1
loop_
 _symmetry_equiv_pos_site_id
 _symmetry_equiv_pos_as_xyz
  1  'x, y, z'
loop_
 _atom_site_type_symbol
 _atom_site_label
 _atom_site_symmetry_multiplicity
 _atom_site_fract_x
 _atom_site_fract_y
 _atom_site_fract_z
 _atom_site_occupancy
  Yb  Yb0  1  0.250000  0.313891  0.577780  1
  Yb  Yb1  1  0.250000  0.813036  0.923179  1
  Eu  Eu2  1  0.250000  0.982810  0.291430  1
  Eu  Eu3  1  0.750000  0.014678  0.712237  1
  Eu  Eu4  1  0.250000  0.486002  0.204869  1
  Eu  Eu5  1  0.750000  0.516081  0.790741  1
  Eu  Eu6  1  0.750000  0.690515  0.422694  1
  Eu  Eu7  1  0.750000  0.188946  0.076464  1
  Sn  Sn8  1  0.250000  0.258028  0.899435  1
  Sn  Sn9  1  0.750000  0.739505  0.091141  1
  Sn  Sn10  1  0.250000  0.758247  0.600856  1
  Pb  Pb11  1  0.750000  0.238264  0.409173  1
