# generated using pymatgen
data_La2In(AsRh2)6
_symmetry_space_group_name_H-M   'P 1'
_cell_length_a   10.12616400
_cell_length_b   10.12616463
_cell_length_c   4.01532800
_cell_angle_alpha   90.00000000
_cell_angle_beta   90.00000000
_cell_angle_gamma   119.99999793
_symmetry_Int_Tables_number   1
_chemical_formula_structural   La2In(AsRh2)6
_chemical_formula_sum   'La2 In1 As6 Rh12'
_cell_volume   356.56737914
_cell_formula_units_Z   1
loop_
 _symmetry_equiv_pos_site_id
 _symmetry_equiv_pos_as_xyz
  1  'x, y, z'
loop_
 _atom_site_type_symbol
 _atom_site_label
 _atom_site_symmetry_multiplicity
 _atom_site_fract_x
 _atom_site_fract_y
 _atom_site_fract_z
 _atom_site_occupancy
  La  La0  1  0.333333  0.666667  0.754970  1
  La  La1  1  0.000000  0.000000  0.246449  1
  In  In2  1  0.666667  0.333333  0.586891  1
  As  As3  1  0.954519  0.219592  0.747342  1
  As  As4  1  0.780408  0.734927  0.747342  1
  As  As5  1  0.265073  0.045481  0.747342  1
  As  As6  1  0.378184  0.445108  0.254438  1
  As  As7  1  0.554892  0.933076  0.254438  1
  As  As8  1  0.066924  0.621816  0.254438  1
  Rh  Rh9  1  0.730019  0.950388  0.750288  1
  Rh  Rh10  1  0.049612  0.779631  0.750288  1
  Rh  Rh11  1  0.220369  0.269981  0.750288  1
  Rh  Rh12  1  0.606326  0.720408  0.251513  1
  Rh  Rh13  1  0.279592  0.885919  0.251513  1
  Rh  Rh14  1  0.114081  0.393674  0.251513  1
  Rh  Rh15  1  0.957029  0.461917  0.757431  1
  Rh  Rh16  1  0.538083  0.495112  0.757431  1
  Rh  Rh17  1  0.504888  0.042971  0.757431  1
  Rh  Rh18  1  0.390529  0.209152  0.244278  1
  Rh  Rh19  1  0.790848  0.181375  0.244278  1
  Rh  Rh20  1  0.818625  0.609471  0.244278  1
