# generated using pymatgen
data_Sm2MnFe2Re14C3
_symmetry_space_group_name_H-M   'P 1'
_cell_length_a   6.94755467
_cell_length_b   6.94755527
_cell_length_c   6.95344406
_cell_angle_alpha   82.62763928
_cell_angle_beta   82.62762496
_cell_angle_gamma   82.67749825
_symmetry_Int_Tables_number   1
_chemical_formula_structural   Sm2MnFe2Re14C3
_chemical_formula_sum   'Sm2 Mn1 Fe2 Re14 C3'
_cell_volume   327.99756428
_cell_formula_units_Z   1
loop_
 _symmetry_equiv_pos_site_id
 _symmetry_equiv_pos_as_xyz
  1  'x, y, z'
loop_
 _atom_site_type_symbol
 _atom_site_label
 _atom_site_symmetry_multiplicity
 _atom_site_fract_x
 _atom_site_fract_y
 _atom_site_fract_z
 _atom_site_occupancy
  Sm  Sm0  1  0.648287  0.648287  0.648561  1
  Sm  Sm1  1  0.351713  0.351713  0.351439  1
  Mn  Mn2  1  0.000000  0.000000  0.500000  1
  Fe  Fe3  1  0.500000  0.000000  0.000000  1
  Fe  Fe4  1  0.000000  0.500000  0.000000  1
  Re  Re5  1  0.722271  0.277729  0.000000  1
  Re  Re6  1  0.999908  0.721874  0.277597  1
  Re  Re7  1  0.278126  0.000092  0.722403  1
  Re  Re8  1  0.000092  0.278126  0.722403  1
  Re  Re9  1  0.721874  0.999908  0.277597  1
  Re  Re10  1  0.277729  0.722271  0.000000  1
  Re  Re11  1  0.346000  0.346000  0.861999  1
  Re  Re12  1  0.861695  0.345889  0.345374  1
  Re  Re13  1  0.345889  0.861695  0.345374  1
  Re  Re14  1  0.654000  0.654000  0.138001  1
  Re  Re15  1  0.138305  0.654111  0.654626  1
  Re  Re16  1  0.654111  0.138305  0.654626  1
  Re  Re17  1  0.898393  0.898393  0.899159  1
  Re  Re18  1  0.101607  0.101607  0.100841  1
  C  C19  1  0.500000  0.500000  0.000000  1
  C  C20  1  0.000000  0.500000  0.500000  1
  C  C21  1  0.500000  0.000000  0.500000  1
