# generated using pymatgen
data_Gd5Th3Pt8
_symmetry_space_group_name_H-M   'P 1'
_cell_length_a   4.61208500
_cell_length_b   5.79658909
_cell_length_c   14.59745200
_cell_angle_alpha   89.73056027
_cell_angle_beta   90.00000000
_cell_angle_gamma   90.00000000
_symmetry_Int_Tables_number   1
_chemical_formula_structural   Gd5Th3Pt8
_chemical_formula_sum   'Gd5 Th3 Pt8'
_cell_volume   390.24924527
_cell_formula_units_Z   1
loop_
 _symmetry_equiv_pos_site_id
 _symmetry_equiv_pos_as_xyz
  1  'x, y, z'
loop_
 _atom_site_type_symbol
 _atom_site_label
 _atom_site_symmetry_multiplicity
 _atom_site_fract_x
 _atom_site_fract_y
 _atom_site_fract_z
 _atom_site_occupancy
  Gd  Gd0  1  0.250000  0.536958  0.283879  1
  Gd  Gd1  1  0.750000  0.469073  0.716730  1
  Gd  Gd2  1  0.250000  0.965668  0.781942  1
  Gd  Gd3  1  0.250000  0.750933  0.536066  1
  Gd  Gd4  1  0.250000  0.745212  0.031824  1
  Th  Th5  1  0.750000  0.259113  0.964918  1
  Th  Th6  1  0.750000  0.030424  0.216850  1
  Th  Th7  1  0.750000  0.241921  0.469032  1
  Pt  Pt8  1  0.250000  0.056941  0.351322  1
  Pt  Pt9  1  0.750000  0.550107  0.147821  1
  Pt  Pt10  1  0.750000  0.730324  0.399413  1
  Pt  Pt11  1  0.250000  0.444311  0.851506  1
  Pt  Pt12  1  0.750000  0.951937  0.647678  1
  Pt  Pt13  1  0.750000  0.775753  0.896546  1
  Pt  Pt14  1  0.250000  0.222229  0.101529  1
  Pt  Pt15  1  0.250000  0.269092  0.602946  1
