# generated using pymatgen
data_Pr2Y2Zn10SiSn
_symmetry_space_group_name_H-M   'P 1'
_cell_length_a   8.38415644
_cell_length_b   8.38415728
_cell_length_c   8.92502500
_cell_angle_alpha   90.00000000
_cell_angle_beta   90.00000000
_cell_angle_gamma   149.53108561
_symmetry_Int_Tables_number   1
_chemical_formula_structural   Pr2Y2Zn10SiSn
_chemical_formula_sum   'Pr2 Y2 Zn10 Si1 Sn1'
_cell_volume   318.12430143
_cell_formula_units_Z   1
loop_
 _symmetry_equiv_pos_site_id
 _symmetry_equiv_pos_as_xyz
  1  'x, y, z'
loop_
 _atom_site_type_symbol
 _atom_site_label
 _atom_site_symmetry_multiplicity
 _atom_site_fract_x
 _atom_site_fract_y
 _atom_site_fract_z
 _atom_site_occupancy
  Pr  Pr0  1  0.000793  0.999207  0.486828  1
  Pr  Pr1  1  0.000793  0.999207  0.013172  1
  Y  Y2  1  0.200978  0.799022  0.250000  1
  Y  Y3  1  0.795747  0.204253  0.750000  1
  Zn  Zn4  1  0.811917  0.188083  0.390282  1
  Zn  Zn5  1  0.187021  0.812979  0.607179  1
  Zn  Zn6  1  0.811917  0.188083  0.109718  1
  Zn  Zn7  1  0.187021  0.812979  0.892821  1
  Zn  Zn8  1  0.652093  0.347907  0.473023  1
  Zn  Zn9  1  0.342657  0.657343  0.515873  1
  Zn  Zn10  1  0.652093  0.347907  0.026977  1
  Zn  Zn11  1  0.342657  0.657343  0.984127  1
  Zn  Zn12  1  0.403733  0.596267  0.250000  1
  Zn  Zn13  1  0.607022  0.392978  0.750000  1
  Si  Si14  1  0.559053  0.440947  0.250000  1
  Sn  Sn15  1  0.444503  0.555497  0.750000  1
