# generated using pymatgen
data_AcCo9Si4
_symmetry_space_group_name_H-M   'P 1'
_cell_length_a   8.01171250
_cell_length_b   8.01171228
_cell_length_c   8.01171205
_cell_angle_alpha   121.56546199
_cell_angle_beta   121.56546275
_cell_angle_gamma   87.30927265
_symmetry_Int_Tables_number   1
_chemical_formula_structural   AcCo9Si4
_chemical_formula_sum   'Ac2 Co18 Si8'
_cell_volume   354.60184100
_cell_formula_units_Z   2
loop_
 _symmetry_equiv_pos_site_id
 _symmetry_equiv_pos_as_xyz
  1  'x, y, z'
loop_
 _atom_site_type_symbol
 _atom_site_label
 _atom_site_symmetry_multiplicity
 _atom_site_fract_x
 _atom_site_fract_y
 _atom_site_fract_z
 _atom_site_occupancy
  Ac  Ac0  1  0.750000  0.750000  0.000000  1
  Ac  Ac1  1  0.250000  0.250000  0.000000  1
  Co  Co2  1  0.930847  0.799941  0.730788  1
  Co  Co3  1  0.807933  0.307933  0.756530  1
  Co  Co4  1  0.307933  0.551404  0.500000  1
  Co  Co5  1  0.192067  0.692067  0.243470  1
  Co  Co6  1  0.692067  0.448596  0.500000  1
  Co  Co7  1  0.948596  0.192067  0.500000  1
  Co  Co8  1  0.069153  0.200059  0.269212  1
  Co  Co9  1  0.299941  0.430847  0.730788  1
  Co  Co10  1  0.051404  0.807933  0.500000  1
  Co  Co11  1  0.569153  0.299941  0.869095  1
  Co  Co12  1  0.448596  0.948596  0.756530  1
  Co  Co13  1  0.799941  0.069153  0.869095  1
  Co  Co14  1  0.430847  0.700059  0.130905  1
  Co  Co15  1  0.700059  0.569153  0.269212  1
  Co  Co16  1  0.200059  0.930847  0.130905  1
  Co  Co17  1  0.000000  0.500000  0.500000  1
  Co  Co18  1  0.551404  0.051404  0.243470  1
  Co  Co19  1  0.500000  0.000000  0.500000  1
  Si  Si20  1  0.288326  0.788326  0.836211  1
  Si  Si21  1  0.788326  0.952115  0.500000  1
  Si  Si22  1  0.952115  0.452115  0.163789  1
  Si  Si23  1  0.452115  0.288326  0.500000  1
  Si  Si24  1  0.047885  0.547885  0.836211  1
  Si  Si25  1  0.211674  0.047885  0.500000  1
  Si  Si26  1  0.711674  0.211674  0.163789  1
  Si  Si27  1  0.547885  0.711674  0.500000  1
