# generated using pymatgen
data_Dy3YAl17SiRh6
_symmetry_space_group_name_H-M   'P 1'
_cell_length_a   7.55482701
_cell_length_b   7.53410650
_cell_length_c   9.45942703
_cell_angle_alpha   89.98641607
_cell_angle_beta   89.94469105
_cell_angle_gamma   119.56407700
_symmetry_Int_Tables_number   1
_chemical_formula_structural   Dy3YAl17SiRh6
_chemical_formula_sum   'Dy3 Y1 Al17 Si1 Rh6'
_cell_volume   468.31965605
_cell_formula_units_Z   1
loop_
 _symmetry_equiv_pos_site_id
 _symmetry_equiv_pos_as_xyz
  1  'x, y, z'
loop_
 _atom_site_type_symbol
 _atom_site_label
 _atom_site_symmetry_multiplicity
 _atom_site_fract_x
 _atom_site_fract_y
 _atom_site_fract_z
 _atom_site_occupancy
  Dy  Dy0  1  0.004954  0.329326  0.255218  1
  Dy  Dy1  1  0.676459  0.002414  0.746690  1
  Dy  Dy2  1  0.328635  0.005038  0.250303  1
  Y  Y3  1  0.994206  0.663668  0.747001  1
  Al  Al4  1  0.127721  0.127352  0.749489  1
  Al  Al5  1  0.871175  0.873203  0.249368  1
  Al  Al6  1  0.998140  0.668945  0.423415  1
  Al  Al7  1  0.999373  0.665266  0.074433  1
  Al  Al8  1  0.334529  0.999282  0.924463  1
  Al  Al9  1  0.001989  0.334928  0.930014  1
  Al  Al10  1  0.664456  0.999327  0.074398  1
  Al  Al11  1  0.660067  0.994866  0.422954  1
  Al  Al12  1  0.334093  0.999608  0.575902  1
  Al  Al13  1  0.334014  0.333021  0.052200  1
  Al  Al14  1  0.667807  0.668248  0.947930  1
  Al  Al15  1  0.666786  0.667695  0.553115  1
  Al  Al16  1  0.336320  0.333639  0.448818  1
  Al  Al17  1  0.340683  0.550507  0.750141  1
  Al  Al18  1  0.661250  0.450500  0.250227  1
  Al  Al19  1  0.546093  0.339364  0.749897  1
  Al  Al20  1  0.449578  0.658164  0.249336  1
  Si  Si21  1  0.002501  0.334990  0.575308  1
  Rh  Rh22  1  0.680269  0.328657  0.502165  1
  Rh  Rh23  1  0.319667  0.664016  0.500161  1
  Rh  Rh24  1  0.327554  0.671222  0.999307  1
  Rh  Rh25  1  0.672571  0.328379  0.998693  1
  Rh  Rh26  1  0.999015  0.007438  0.499935  1
  Rh  Rh27  1  0.000093  0.000939  0.999122  1
