# generated using pymatgen
data_ScFeCoMoP2
_symmetry_space_group_name_H-M   'P 1'
_cell_length_a   3.64993100
_cell_length_b   6.07809200
_cell_length_c   6.91413500
_cell_angle_alpha   90.00000000
_cell_angle_beta   90.00000000
_cell_angle_gamma   90.00000000
_symmetry_Int_Tables_number   1
_chemical_formula_structural   ScFeCoMoP2
_chemical_formula_sum   'Sc2 Fe2 Co2 Mo2 P4'
_cell_volume   153.38743279
_cell_formula_units_Z   2
loop_
 _symmetry_equiv_pos_site_id
 _symmetry_equiv_pos_as_xyz
  1  'x, y, z'
loop_
 _atom_site_type_symbol
 _atom_site_label
 _atom_site_symmetry_multiplicity
 _atom_site_fract_x
 _atom_site_fract_y
 _atom_site_fract_z
 _atom_site_occupancy
  Sc  Sc0  1  0.250000  0.977170  0.320523  1
  Sc  Sc1  1  0.250000  0.477170  0.179477  1
  Fe  Fe2  1  0.250000  0.862608  0.933639  1
  Fe  Fe3  1  0.250000  0.362608  0.566361  1
  Co  Co4  1  0.750000  0.143007  0.057742  1
  Co  Co5  1  0.750000  0.643007  0.442258  1
  Mo  Mo6  1  0.750000  0.020312  0.680004  1
  Mo  Mo7  1  0.750000  0.520312  0.819996  1
  P  P8  1  0.250000  0.224425  0.872744  1
  P  P9  1  0.250000  0.724425  0.627256  1
  P  P10  1  0.750000  0.772478  0.106114  1
  P  P11  1  0.750000  0.272478  0.393886  1
