# generated using pymatgen
data_Ti4Ga3Pt
_symmetry_space_group_name_H-M   'P 1'
_cell_length_a   5.60094297
_cell_length_b   5.60094279
_cell_length_c   3.98942700
_cell_angle_alpha   90.00000000
_cell_angle_beta   90.00000000
_cell_angle_gamma   89.79381287
_symmetry_Int_Tables_number   1
_chemical_formula_structural   Ti4Ga3Pt
_chemical_formula_sum   'Ti4 Ga3 Pt1'
_cell_volume   125.14975325
_cell_formula_units_Z   1
loop_
 _symmetry_equiv_pos_site_id
 _symmetry_equiv_pos_as_xyz
  1  'x, y, z'
loop_
 _atom_site_type_symbol
 _atom_site_label
 _atom_site_symmetry_multiplicity
 _atom_site_fract_x
 _atom_site_fract_y
 _atom_site_fract_z
 _atom_site_occupancy
  Ti  Ti0  1  0.000000  0.500000  0.000000  1
  Ti  Ti1  1  0.500000  0.000000  0.000000  1
  Ti  Ti2  1  0.233595  0.233595  0.500000  1
  Ti  Ti3  1  0.766405  0.766405  0.500000  1
  Ga  Ga4  1  0.000000  0.000000  0.000000  1
  Ga  Ga5  1  0.731820  0.268180  0.500000  1
  Ga  Ga6  1  0.268180  0.731820  0.500000  1
  Pt  Pt7  1  0.500000  0.500000  0.000000  1
