# generated using pymatgen
data_Dy4Hf3MgPt4
_symmetry_space_group_name_H-M   'P 1'
_cell_length_a   4.61711800
_cell_length_b   7.05324729
_cell_length_c   8.24770903
_cell_angle_alpha   86.98261583
_cell_angle_beta   90.00000000
_cell_angle_gamma   90.00000000
_symmetry_Int_Tables_number   1
_chemical_formula_structural   Dy4Hf3MgPt4
_chemical_formula_sum   'Dy4 Hf3 Mg1 Pt4'
_cell_volume   268.21983839
_cell_formula_units_Z   1
loop_
 _symmetry_equiv_pos_site_id
 _symmetry_equiv_pos_as_xyz
  1  'x, y, z'
loop_
 _atom_site_type_symbol
 _atom_site_label
 _atom_site_symmetry_multiplicity
 _atom_site_fract_x
 _atom_site_fract_y
 _atom_site_fract_z
 _atom_site_occupancy
  Dy  Dy0  1  0.250000  0.471148  0.186907  1
  Dy  Dy1  1  0.750000  0.518627  0.819537  1
  Dy  Dy2  1  0.750000  0.032488  0.670064  1
  Dy  Dy3  1  0.250000  0.984943  0.330487  1
  Hf  Hf4  1  0.250000  0.854965  0.924791  1
  Hf  Hf5  1  0.750000  0.134777  0.071654  1
  Hf  Hf6  1  0.750000  0.645411  0.432557  1
  Mg  Mg7  1  0.250000  0.353967  0.572268  1
  Pt  Pt8  1  0.250000  0.741339  0.607461  1
  Pt  Pt9  1  0.750000  0.269979  0.376607  1
  Pt  Pt10  1  0.750000  0.763118  0.099679  1
  Pt  Pt11  1  0.250000  0.229239  0.907988  1
