# generated using pymatgen
data_NaMo(S2O7)2
_symmetry_space_group_name_H-M   'P 1'
_cell_length_a   5.04499554
_cell_length_b   6.77772543
_cell_length_c   9.22884800
_cell_angle_alpha   90.88316123
_cell_angle_beta   96.14715409
_cell_angle_gamma   105.27008322
_symmetry_Int_Tables_number   1
_chemical_formula_structural   NaMo(S2O7)2
_chemical_formula_sum   'Na1 Mo1 S4 O14'
_cell_volume   302.36289044
_cell_formula_units_Z   1
loop_
 _symmetry_equiv_pos_site_id
 _symmetry_equiv_pos_as_xyz
  1  'x, y, z'
loop_
 _atom_site_type_symbol
 _atom_site_label
 _atom_site_symmetry_multiplicity
 _atom_site_fract_x
 _atom_site_fract_y
 _atom_site_fract_z
 _atom_site_occupancy
  Na  Na0  1  0.000000  0.500000  0.000000  1
  Mo  Mo1  1  0.500000  0.000000  0.500000  1
  S  S2  1  0.478474  0.650274  0.760017  1
  S  S3  1  0.521526  0.349726  0.239983  1
  S  S4  1  0.128921  0.246091  0.680904  1
  S  S5  1  0.871079  0.753909  0.319096  1
  O  O6  1  0.664531  0.543043  0.828802  1
  O  O7  1  0.335469  0.456957  0.171198  1
  O  O8  1  0.305028  0.725409  0.848274  1
  O  O9  1  0.694972  0.274591  0.151726  1
  O  O10  1  0.611116  0.794988  0.653670  1
  O  O11  1  0.388884  0.205012  0.346330  1
  O  O12  1  0.258370  0.477993  0.636629  1
  O  O13  1  0.741630  0.522007  0.363371  1
  O  O14  1  0.912269  0.183407  0.555936  1
  O  O15  1  0.087731  0.816593  0.444064  1
  O  O16  1  0.348055  0.139548  0.672157  1
  O  O17  1  0.651945  0.860452  0.327843  1
  O  O18  1  0.040831  0.244169  0.823448  1
  O  O19  1  0.959169  0.755831  0.176552  1
