# generated using pymatgen
data_Tm12InFe3Hg
_symmetry_space_group_name_H-M   'P 1'
_cell_length_a   8.22157765
_cell_length_b   8.22157721
_cell_length_c   8.22157761
_cell_angle_alpha   107.81186947
_cell_angle_beta   109.14290372
_cell_angle_gamma   111.48034643
_symmetry_Int_Tables_number   1
_chemical_formula_structural   Tm12InFe3Hg
_chemical_formula_sum   'Tm12 In1 Fe3 Hg1'
_cell_volume   427.35109856
_cell_formula_units_Z   1
loop_
 _symmetry_equiv_pos_site_id
 _symmetry_equiv_pos_as_xyz
  1  'x, y, z'
loop_
 _atom_site_type_symbol
 _atom_site_label
 _atom_site_symmetry_multiplicity
 _atom_site_fract_x
 _atom_site_fract_y
 _atom_site_fract_z
 _atom_site_occupancy
  Tm  Tm0  1  0.189531  0.422366  0.232835  1
  Tm  Tm1  1  0.810469  0.577634  0.767165  1
  Tm  Tm2  1  0.189531  0.956696  0.767165  1
  Tm  Tm3  1  0.948314  0.189937  0.758376  1
  Tm  Tm4  1  0.810469  0.043304  0.232835  1
  Tm  Tm5  1  0.051686  0.810063  0.241624  1
  Tm  Tm6  1  0.431561  0.189937  0.241624  1
  Tm  Tm7  1  0.568439  0.810063  0.758376  1
  Tm  Tm8  1  0.307883  0.308474  0.616357  1
  Tm  Tm9  1  0.692117  0.691526  0.383643  1
  Tm  Tm10  1  0.692117  0.308474  0.000592  1
  Tm  Tm11  1  0.307883  0.691526  0.999408  1
  In  In12  1  0.000000  0.500000  0.500000  1
  Fe  Fe13  1  0.383527  0.383527  0.000000  1
  Fe  Fe14  1  0.616473  0.616473  0.000000  1
  Fe  Fe15  1  0.000000  0.000000  0.000000  1
  Hg  Hg16  1  0.500000  0.000000  0.500000  1
