# generated using pymatgen
data_Pr5AsS4
_symmetry_space_group_name_H-M   'P 1'
_cell_length_a   7.19850666
_cell_length_b   7.19850744
_cell_length_c   7.19850711
_cell_angle_alpha   99.61038619
_cell_angle_beta   99.61038350
_cell_angle_gamma   131.76715897
_symmetry_Int_Tables_number   1
_chemical_formula_structural   Pr5AsS4
_chemical_formula_sum   'Pr5 As1 S4'
_cell_volume   253.93327533
_cell_formula_units_Z   1
loop_
 _symmetry_equiv_pos_site_id
 _symmetry_equiv_pos_as_xyz
  1  'x, y, z'
loop_
 _atom_site_type_symbol
 _atom_site_label
 _atom_site_symmetry_multiplicity
 _atom_site_fract_x
 _atom_site_fract_y
 _atom_site_fract_z
 _atom_site_occupancy
  Pr  Pr0  1  0.399992  0.802247  0.202238  1
  Pr  Pr1  1  0.000000  0.000000  0.000000  1
  Pr  Pr2  1  0.600008  0.197753  0.797762  1
  Pr  Pr3  1  0.197753  0.399992  0.597745  1
  Pr  Pr4  1  0.802247  0.600008  0.402255  1
  As  As5  1  0.500000  0.500000  0.000000  1
  S  S6  1  0.102406  0.700290  0.802695  1
  S  S7  1  0.700290  0.897594  0.597883  1
  S  S8  1  0.299710  0.102406  0.402117  1
  S  S9  1  0.897594  0.299710  0.197305  1
