# generated using pymatgen
data_Hf5ScTa4(Si3N)2
_symmetry_space_group_name_H-M   'P 1'
_cell_length_a   7.73802000
_cell_length_b   7.72177619
_cell_length_c   5.41549200
_cell_angle_alpha   90.00000000
_cell_angle_beta   90.00000000
_cell_angle_gamma   120.06962074
_symmetry_Int_Tables_number   1
_chemical_formula_structural   Hf5ScTa4(Si3N)2
_chemical_formula_sum   'Hf5 Sc1 Ta4 Si6 N2'
_cell_volume   280.03383198
_cell_formula_units_Z   1
loop_
 _symmetry_equiv_pos_site_id
 _symmetry_equiv_pos_as_xyz
  1  'x, y, z'
loop_
 _atom_site_type_symbol
 _atom_site_label
 _atom_site_symmetry_multiplicity
 _atom_site_fract_x
 _atom_site_fract_y
 _atom_site_fract_z
 _atom_site_occupancy
  Hf  Hf0  1  0.762617  0.000000  0.750000  1
  Hf  Hf1  1  0.000243  0.234620  0.250000  1
  Hf  Hf2  1  0.000243  0.764460  0.750000  1
  Hf  Hf3  1  0.765623  0.765380  0.250000  1
  Hf  Hf4  1  0.235783  0.235540  0.750000  1
  Sc  Sc5  1  0.236198  0.000000  0.250000  1
  Ta  Ta6  1  0.333446  0.666037  0.000150  1
  Ta  Ta7  1  0.667410  0.333963  0.000150  1
  Ta  Ta8  1  0.667410  0.333963  0.499850  1
  Ta  Ta9  1  0.333446  0.666037  0.499850  1
  Si  Si10  1  0.591322  0.000000  0.250000  1
  Si  Si11  1  0.408001  0.000000  0.750000  1
  Si  Si12  1  0.001189  0.592368  0.250000  1
  Si  Si13  1  0.999843  0.408139  0.750000  1
  Si  Si14  1  0.408820  0.407632  0.250000  1
  Si  Si15  1  0.591705  0.591861  0.750000  1
  N  N16  1  0.998349  0.000000  0.998237  1
  N  N17  1  0.998349  0.000000  0.501763  1
