# generated using pymatgen
data_Eu2InPdRh
_symmetry_space_group_name_H-M   'P 1'
_cell_length_a   5.97042129
_cell_length_b   5.97042166
_cell_length_c   8.22047224
_cell_angle_alpha   76.84959370
_cell_angle_beta   76.84959257
_cell_angle_gamma   58.38134043
_symmetry_Int_Tables_number   1
_chemical_formula_structural   Eu2InPdRh
_chemical_formula_sum   'Eu4 In2 Pd2 Rh2'
_cell_volume   240.90616700
_cell_formula_units_Z   2
loop_
 _symmetry_equiv_pos_site_id
 _symmetry_equiv_pos_as_xyz
  1  'x, y, z'
loop_
 _atom_site_type_symbol
 _atom_site_label
 _atom_site_symmetry_multiplicity
 _atom_site_fract_x
 _atom_site_fract_y
 _atom_site_fract_z
 _atom_site_occupancy
  Eu  Eu0  1  0.796444  0.504808  0.352480  1
  Eu  Eu1  1  0.495192  0.203556  0.147520  1
  Eu  Eu2  1  0.208843  0.502510  0.649337  1
  Eu  Eu3  1  0.497490  0.791157  0.850663  1
  In  In4  1  0.146883  0.853117  0.250000  1
  In  In5  1  0.861293  0.138707  0.750000  1
  Pd  Pd6  1  0.995482  0.279863  0.997054  1
  Pd  Pd7  1  0.720137  0.004518  0.502946  1
  Rh  Rh8  1  0.003576  0.725340  0.006936  1
  Rh  Rh9  1  0.274660  0.996424  0.493064  1
