# generated using pymatgen
data_Ba2SrTe2(ClO3)2
_symmetry_space_group_name_H-M   'P 1'
_cell_length_a   9.05460530
_cell_length_b   9.05460438
_cell_length_c   11.59192534
_cell_angle_alpha   75.06107392
_cell_angle_beta   75.06107671
_cell_angle_gamma   37.81997975
_symmetry_Int_Tables_number   1
_chemical_formula_structural   Ba2SrTe2(ClO3)2
_chemical_formula_sum   'Ba4 Sr2 Te4 Cl4 O12'
_cell_volume   560.69960512
_cell_formula_units_Z   2
loop_
 _symmetry_equiv_pos_site_id
 _symmetry_equiv_pos_as_xyz
  1  'x, y, z'
loop_
 _atom_site_type_symbol
 _atom_site_label
 _atom_site_symmetry_multiplicity
 _atom_site_fract_x
 _atom_site_fract_y
 _atom_site_fract_z
 _atom_site_occupancy
  Ba  Ba0  1  0.658312  0.658312  0.605339  1
  Ba  Ba1  1  0.738082  0.738082  0.194120  1
  Ba  Ba2  1  0.339852  0.339852  0.397681  1
  Ba  Ba3  1  0.990207  0.990207  0.189292  1
  Sr  Sr4  1  0.017162  0.017162  0.814704  1
  Sr  Sr5  1  0.258101  0.258101  0.793178  1
  Te  Te6  1  0.397635  0.397635  0.053988  1
  Te  Te7  1  0.876255  0.876255  0.589703  1
  Te  Te8  1  0.120063  0.120063  0.422906  1
  Te  Te9  1  0.601809  0.601809  0.939423  1
  Cl  Cl10  1  0.186377  0.186377  0.088264  1
  Cl  Cl11  1  0.537674  0.537674  0.284955  1
  Cl  Cl12  1  0.460755  0.460755  0.721448  1
  Cl  Cl13  1  0.823494  0.823494  0.894467  1
  O  O14  1  0.558289  0.042190  0.611772  1
  O  O15  1  0.904986  0.904986  0.420233  1
  O  O16  1  0.401001  0.868714  0.817677  1
  O  O17  1  0.435849  0.957772  0.397315  1
  O  O18  1  0.139090  0.595045  0.178496  1
  O  O19  1  0.042190  0.558289  0.611772  1
  O  O20  1  0.868714  0.401001  0.817677  1
  O  O21  1  0.595045  0.139090  0.178496  1
  O  O22  1  0.289309  0.711250  0.993824  1
  O  O23  1  0.090725  0.090724  0.592131  1
  O  O24  1  0.957772  0.435849  0.397315  1
  O  O25  1  0.711250  0.289309  0.993824  1
