# generated using pymatgen
data_Gd(HfH5)3
_symmetry_space_group_name_H-M   'P 1'
_cell_length_a   7.07589188
_cell_length_b   7.05275470
_cell_length_c   7.11599078
_cell_angle_alpha   109.44897721
_cell_angle_beta   109.58011537
_cell_angle_gamma   109.08811251
_symmetry_Int_Tables_number   1
_chemical_formula_structural   Gd(HfH5)3
_chemical_formula_sum   'Gd2 Hf6 H30'
_cell_volume   274.36318630
_cell_formula_units_Z   2
loop_
 _symmetry_equiv_pos_site_id
 _symmetry_equiv_pos_as_xyz
  1  'x, y, z'
loop_
 _atom_site_type_symbol
 _atom_site_label
 _atom_site_symmetry_multiplicity
 _atom_site_fract_x
 _atom_site_fract_y
 _atom_site_fract_z
 _atom_site_occupancy
  Gd  Gd0  1  0.500658  0.002186  0.592453  1
  Gd  Gd1  1  0.408205  0.409734  0.407547  1
  Hf  Hf2  1  0.908480  0.903015  0.907311  1
  Hf  Hf3  1  0.501168  0.995703  0.092689  1
  Hf  Hf4  1  0.994871  0.105254  0.499510  1
  Hf  Hf5  1  0.104810  0.500068  0.992402  1
  Hf  Hf6  1  0.995361  0.605745  0.500490  1
  Hf  Hf7  1  0.612408  0.507664  0.007598  1
  H  H8  1  0.660636  0.961960  0.370902  1
  H  H9  1  0.220526  0.315285  0.837347  1
  H  H10  1  0.164389  0.409105  0.527488  1
  H  H11  1  0.076309  0.264918  0.096404  1
  H  H12  1  0.266526  0.096707  0.069863  1
  H  H13  1  0.102733  0.075909  0.271559  1
  H  H14  1  0.479904  0.168513  0.903596  1
  H  H15  1  0.739614  0.364298  0.831562  1
  H  H16  1  0.632956  0.375885  0.249197  1
  H  H17  1  0.227135  0.618401  0.356640  1
  H  H18  1  0.752567  0.870464  0.131053  1
  H  H19  1  0.121514  0.739410  0.868947  1
  H  H20  1  0.370495  0.261762  0.643360  1
  H  H21  1  0.883759  0.126688  0.750803  1
  H  H22  1  0.789735  0.591058  0.629098  1
  H  H23  1  0.310307  0.834242  0.205413  1
  H  H24  1  0.382033  0.653675  0.958533  1
  H  H25  1  0.958172  0.378157  0.653021  1
  H  H26  1  0.534207  0.174589  0.390672  1
  H  H27  1  0.408052  0.532736  0.168438  1
  H  H28  1  0.838476  0.221287  0.309475  1
  H  H29  1  0.923499  0.695141  0.041467  1
  H  H30  1  0.805151  0.725135  0.346979  1
  H  H31  1  0.136901  0.881616  0.472512  1
  H  H32  1  0.696662  0.026844  0.930137  1
  H  H33  1  0.331174  0.804348  0.728441  1
  H  H34  1  0.883179  0.477939  0.162653  1
  H  H35  1  0.643535  0.783917  0.609328  1
  H  H36  1  0.604894  0.628829  0.794587  1
  H  H37  1  0.029002  0.911813  0.690525  1
