# generated using pymatgen
data_Y6Zn23S
_symmetry_space_group_name_H-M   'P 1'
_cell_length_a   9.06514401
_cell_length_b   9.06514403
_cell_length_c   9.06514500
_cell_angle_alpha   60.00000011
_cell_angle_beta   60.00000002
_cell_angle_gamma   59.99999800
_symmetry_Int_Tables_number   1
_chemical_formula_structural   Y6Zn23S
_chemical_formula_sum   'Y6 Zn23 S1'
_cell_volume   526.75560743
_cell_formula_units_Z   1
loop_
 _symmetry_equiv_pos_site_id
 _symmetry_equiv_pos_as_xyz
  1  'x, y, z'
loop_
 _atom_site_type_symbol
 _atom_site_label
 _atom_site_symmetry_multiplicity
 _atom_site_fract_x
 _atom_site_fract_y
 _atom_site_fract_z
 _atom_site_occupancy
  Y  Y0  1  0.712374  0.287626  0.287626  1
  Y  Y1  1  0.712374  0.287626  0.712374  1
  Y  Y2  1  0.712374  0.712374  0.287626  1
  Y  Y3  1  0.287626  0.712374  0.712374  1
  Y  Y4  1  0.287626  0.712374  0.287626  1
  Y  Y5  1  0.287626  0.287626  0.712374  1
  Zn  Zn6  1  0.624460  0.125180  0.125180  1
  Zn  Zn7  1  0.125180  0.624460  0.125180  1
  Zn  Zn8  1  0.125180  0.125180  0.624460  1
  Zn  Zn9  1  0.125180  0.125180  0.125180  1
  Zn  Zn10  1  0.375540  0.874820  0.874820  1
  Zn  Zn11  1  0.874820  0.375540  0.874820  1
  Zn  Zn12  1  0.874820  0.874820  0.375540  1
  Zn  Zn13  1  0.874820  0.874820  0.874820  1
  Zn  Zn14  1  0.500000  0.000000  0.000000  1
  Zn  Zn15  1  0.500000  0.000000  0.500000  1
  Zn  Zn16  1  0.500000  0.500000  0.000000  1
  Zn  Zn17  1  0.000000  0.500000  0.500000  1
  Zn  Zn18  1  0.000000  0.500000  0.000000  1
  Zn  Zn19  1  0.000000  0.000000  0.500000  1
  Zn  Zn20  1  0.000000  0.000000  0.000000  1
  Zn  Zn21  1  0.013921  0.328693  0.328693  1
  Zn  Zn22  1  0.328693  0.013921  0.328693  1
  Zn  Zn23  1  0.328693  0.328693  0.013921  1
  Zn  Zn24  1  0.328693  0.328693  0.328693  1
  Zn  Zn25  1  0.986079  0.671307  0.671307  1
  Zn  Zn26  1  0.671307  0.986079  0.671307  1
  Zn  Zn27  1  0.671307  0.671307  0.986079  1
  Zn  Zn28  1  0.671307  0.671307  0.671307  1
  S  S29  1  0.500000  0.500000  0.500000  1
