# generated using pymatgen
data_Nd8Si13Pt3
_symmetry_space_group_name_H-M   'P 1'
_cell_length_a   8.22179700
_cell_length_b   8.22179806
_cell_length_c   8.52507500
_cell_angle_alpha   90.00000000
_cell_angle_beta   90.00000000
_cell_angle_gamma   119.99999977
_symmetry_Int_Tables_number   1
_chemical_formula_structural   Nd8Si13Pt3
_chemical_formula_sum   'Nd8 Si13 Pt3'
_cell_volume   499.07107090
_cell_formula_units_Z   1
loop_
 _symmetry_equiv_pos_site_id
 _symmetry_equiv_pos_as_xyz
  1  'x, y, z'
loop_
 _atom_site_type_symbol
 _atom_site_label
 _atom_site_symmetry_multiplicity
 _atom_site_fract_x
 _atom_site_fract_y
 _atom_site_fract_z
 _atom_site_occupancy
  Nd  Nd0  1  0.000000  0.000000  0.751377  1
  Nd  Nd1  1  0.000000  0.000000  0.248631  1
  Nd  Nd2  1  0.498173  0.501827  0.752434  1
  Nd  Nd3  1  0.498173  0.996347  0.752434  1
  Nd  Nd4  1  0.003653  0.501827  0.752434  1
  Nd  Nd5  1  0.499004  0.500996  0.247600  1
  Nd  Nd6  1  0.001992  0.500996  0.247600  1
  Nd  Nd7  1  0.499004  0.998008  0.247600  1
  Si  Si8  1  0.832747  0.167253  0.999538  1
  Si  Si9  1  0.832747  0.665495  0.999538  1
  Si  Si10  1  0.334505  0.167253  0.999538  1
  Si  Si11  1  0.833415  0.166585  0.500578  1
  Si  Si12  1  0.833415  0.666829  0.500578  1
  Si  Si13  1  0.333171  0.166585  0.500578  1
  Si  Si14  1  0.166051  0.833949  0.499483  1
  Si  Si15  1  0.667897  0.833949  0.499483  1
  Si  Si16  1  0.166051  0.332103  0.499483  1
  Si  Si17  1  0.165138  0.834862  0.000407  1
  Si  Si18  1  0.669724  0.834862  0.000407  1
  Si  Si19  1  0.165138  0.330276  0.000407  1
  Si  Si20  1  0.333333  0.666667  0.001109  1
  Pt  Pt21  1  0.666667  0.333333  0.998920  1
  Pt  Pt22  1  0.666667  0.333333  0.500852  1
  Pt  Pt23  1  0.333333  0.666667  0.498993  1
