# generated using pymatgen
data_LiZr(Np3P5)2
_symmetry_space_group_name_H-M   'P 1'
_cell_length_a   8.30017900
_cell_length_b   8.30017936
_cell_length_c   5.55972200
_cell_angle_alpha   90.00000000
_cell_angle_beta   90.00000000
_cell_angle_gamma   120.00000254
_symmetry_Int_Tables_number   1
_chemical_formula_structural   LiZr(Np3P5)2
_chemical_formula_sum   'Li1 Zr1 Np6 P10'
_cell_volume   331.71005219
_cell_formula_units_Z   1
loop_
 _symmetry_equiv_pos_site_id
 _symmetry_equiv_pos_as_xyz
  1  'x, y, z'
loop_
 _atom_site_type_symbol
 _atom_site_label
 _atom_site_symmetry_multiplicity
 _atom_site_fract_x
 _atom_site_fract_y
 _atom_site_fract_z
 _atom_site_occupancy
  Li  Li0  1  0.000000  0.000000  0.000000  1
  Zr  Zr1  1  0.000000  0.000000  0.500000  1
  Np  Np2  1  0.384239  0.000000  0.751303  1
  Np  Np3  1  0.384239  0.384239  0.248697  1
  Np  Np4  1  0.000000  0.615761  0.248697  1
  Np  Np5  1  0.000000  0.384239  0.751303  1
  Np  Np6  1  0.615761  0.615761  0.751303  1
  Np  Np7  1  0.615761  0.000000  0.248697  1
  P  P8  1  0.666667  0.333333  0.500000  1
  P  P9  1  0.333333  0.666667  0.000000  1
  P  P10  1  0.735002  0.000000  0.757011  1
  P  P11  1  0.735002  0.735002  0.242989  1
  P  P12  1  0.333333  0.666667  0.500000  1
  P  P13  1  0.666667  0.333333  0.000000  1
  P  P14  1  0.264998  0.000000  0.242989  1
  P  P15  1  0.264998  0.264998  0.757011  1
  P  P16  1  0.000000  0.735002  0.757011  1
  P  P17  1  0.000000  0.264998  0.242989  1
