# generated using pymatgen
data_Ta2Nb13Co8OsN4
_symmetry_space_group_name_H-M   'P 1'
_cell_length_a   8.23703483
_cell_length_b   8.23429619
_cell_length_c   8.23429678
_cell_angle_alpha   59.45562054
_cell_angle_beta   59.45998322
_cell_angle_gamma   59.45998639
_symmetry_Int_Tables_number   1
_chemical_formula_structural   Ta2Nb13Co8OsN4
_chemical_formula_sum   'Ta2 Nb13 Co8 Os1 N4'
_cell_volume   390.05534215
_cell_formula_units_Z   1
loop_
 _symmetry_equiv_pos_site_id
 _symmetry_equiv_pos_as_xyz
  1  'x, y, z'
loop_
 _atom_site_type_symbol
 _atom_site_label
 _atom_site_symmetry_multiplicity
 _atom_site_fract_x
 _atom_site_fract_y
 _atom_site_fract_z
 _atom_site_occupancy
  Ta  Ta0  1  0.625000  0.125000  0.625000  1
  Ta  Ta1  1  0.625000  0.625000  0.125000  1
  Nb  Nb2  1  0.125000  0.625000  0.625000  1
  Nb  Nb3  1  0.807362  0.807394  0.195656  1
  Nb  Nb4  1  0.184454  0.184524  0.814913  1
  Nb  Nb5  1  0.807362  0.195656  0.807394  1
  Nb  Nb6  1  0.184454  0.814913  0.184524  1
  Nb  Nb7  1  0.195427  0.807530  0.807530  1
  Nb  Nb8  1  0.814662  0.184964  0.184964  1
  Nb  Nb9  1  0.442638  0.442606  0.054344  1
  Nb  Nb10  1  0.065546  0.065476  0.435087  1
  Nb  Nb11  1  0.442638  0.054344  0.442606  1
  Nb  Nb12  1  0.065546  0.435087  0.065476  1
  Nb  Nb13  1  0.054573  0.442470  0.442470  1
  Nb  Nb14  1  0.435338  0.065036  0.065036  1
  Co  Co15  1  0.733265  0.424287  0.424287  1
  Co  Co16  1  0.425179  0.732983  0.424056  1
  Co  Co17  1  0.425179  0.424056  0.732983  1
  Co  Co18  1  0.420542  0.419548  0.419548  1
  Co  Co19  1  0.516735  0.825713  0.825713  1
  Co  Co20  1  0.824821  0.517017  0.825944  1
  Co  Co21  1  0.824821  0.825944  0.517017  1
  Co  Co22  1  0.829458  0.830452  0.830452  1
  Os  Os23  1  0.625000  0.625000  0.625000  1
  N  N24  1  0.625000  0.125000  0.125000  1
  N  N25  1  0.125000  0.625000  0.125000  1
  N  N26  1  0.125000  0.125000  0.625000  1
  N  N27  1  0.125000  0.125000  0.125000  1
