# generated using pymatgen
data_Tm9Lu(Al3C4)2
_symmetry_space_group_name_H-M   'P 1'
_cell_length_a   10.76846777
_cell_length_b   10.77346377
_cell_length_c   3.45959200
_cell_angle_alpha   90.00000000
_cell_angle_beta   90.00000000
_cell_angle_gamma   90.04328981
_symmetry_Int_Tables_number   1
_chemical_formula_structural   Tm9Lu(Al3C4)2
_chemical_formula_sum   'Tm9 Lu1 Al6 C8'
_cell_volume   401.35994468
_cell_formula_units_Z   1
loop_
 _symmetry_equiv_pos_site_id
 _symmetry_equiv_pos_as_xyz
  1  'x, y, z'
loop_
 _atom_site_type_symbol
 _atom_site_label
 _atom_site_symmetry_multiplicity
 _atom_site_fract_x
 _atom_site_fract_y
 _atom_site_fract_z
 _atom_site_occupancy
  Tm  Tm0  1  0.550314  0.731868  0.500000  1
  Tm  Tm1  1  0.450312  0.268477  0.500000  1
  Tm  Tm2  1  0.049783  0.768417  0.500000  1
  Tm  Tm3  1  0.949891  0.231330  0.500000  1
  Tm  Tm4  1  0.268615  0.549899  0.500000  1
  Tm  Tm5  1  0.731394  0.450109  0.500000  1
  Tm  Tm6  1  0.231537  0.049819  0.500000  1
  Tm  Tm7  1  0.500295  0.000059  0.000000  1
  Tm  Tm8  1  0.999962  0.499997  0.000000  1
  Lu  Lu9  1  0.766890  0.950235  0.500000  1
  Al  Al10  1  0.703621  0.203316  0.000000  1
  Al  Al11  1  0.296709  0.796276  0.000000  1
  Al  Al12  1  0.203640  0.296596  0.000000  1
  Al  Al13  1  0.796526  0.703706  0.000000  1
  Al  Al14  1  0.500052  0.500027  0.000000  1
  Al  Al15  1  0.998877  0.999802  0.000000  1
  C  C16  1  0.629976  0.128534  0.500000  1
  C  C17  1  0.370656  0.870788  0.500000  1
  C  C18  1  0.129303  0.370560  0.500000  1
  C  C19  1  0.870769  0.629323  0.500000  1
  C  C20  1  0.161566  0.661614  0.000000  1
  C  C21  1  0.838442  0.338288  0.000000  1
  C  C22  1  0.662488  0.839400  0.000000  1
  C  C23  1  0.338382  0.161561  0.000000  1
