# generated using pymatgen
data_GdYAs4O9
_symmetry_space_group_name_H-M   'P 1'
_cell_length_a   6.82004594
_cell_length_b   7.58837567
_cell_length_c   9.87559861
_cell_angle_alpha   94.71280651
_cell_angle_beta   104.02093088
_cell_angle_gamma   104.91146422
_symmetry_Int_Tables_number   1
_chemical_formula_structural   GdYAs4O9
_chemical_formula_sum   'Gd2 Y2 As8 O18'
_cell_volume   473.44123488
_cell_formula_units_Z   2
loop_
 _symmetry_equiv_pos_site_id
 _symmetry_equiv_pos_as_xyz
  1  'x, y, z'
loop_
 _atom_site_type_symbol
 _atom_site_label
 _atom_site_symmetry_multiplicity
 _atom_site_fract_x
 _atom_site_fract_y
 _atom_site_fract_z
 _atom_site_occupancy
  Gd  Gd0  1  0.244157  0.938826  0.615674  1
  Gd  Gd1  1  0.755843  0.061174  0.384326  1
  Y  Y2  1  0.719774  0.530677  0.408236  1
  Y  Y3  1  0.280226  0.469323  0.591764  1
  As  As4  1  0.680305  0.775172  0.076776  1
  As  As5  1  0.319695  0.224828  0.923224  1
  As  As6  1  0.173931  0.752609  0.913732  1
  As  As7  1  0.826069  0.247391  0.086268  1
  As  As8  1  0.744219  0.914457  0.709163  1
  As  As9  1  0.255781  0.085543  0.290837  1
  As  As10  1  0.809101  0.351301  0.700769  1
  As  As11  1  0.190899  0.648699  0.299231  1
  O  O12  1  0.720431  0.747651  0.256103  1
  O  O13  1  0.279569  0.252349  0.743897  1
  O  O14  1  0.316216  0.979191  0.872486  1
  O  O15  1  0.683784  0.020809  0.127514  1
  O  O16  1  0.606483  0.322471  0.985388  1
  O  O17  1  0.393517  0.677529  0.014612  1
  O  O18  1  0.131465  0.647609  0.740010  1
  O  O19  1  0.868535  0.352391  0.259990  1
  O  O20  1  0.844475  0.870932  0.559445  1
  O  O21  1  0.155525  0.129068  0.440555  1
  O  O22  1  0.485913  0.767984  0.667529  1
  O  O23  1  0.514087  0.232016  0.332471  1
  O  O24  1  0.373340  0.536728  0.380850  1
  O  O25  1  0.626660  0.463272  0.619150  1
  O  O26  1  0.087960  0.666975  0.452402  1
  O  O27  1  0.912040  0.333025  0.547598  1
  O  O28  1  0.371705  0.899089  0.358704  1
  O  O29  1  0.628295  0.100911  0.641296  1
