# generated using pymatgen
data_CeFe2CoP2
_symmetry_space_group_name_H-M   'P 1'
_cell_length_a   3.74092300
_cell_length_b   10.64441700
_cell_length_c   12.16093000
_cell_angle_alpha   90.00000000
_cell_angle_beta   90.00000000
_cell_angle_gamma   90.00000000
_symmetry_Int_Tables_number   1
_chemical_formula_structural   CeFe2CoP2
_chemical_formula_sum   'Ce6 Fe12 Co6 P12'
_cell_volume   484.24755617
_cell_formula_units_Z   6
loop_
 _symmetry_equiv_pos_site_id
 _symmetry_equiv_pos_as_xyz
  1  'x, y, z'
loop_
 _atom_site_type_symbol
 _atom_site_label
 _atom_site_symmetry_multiplicity
 _atom_site_fract_x
 _atom_site_fract_y
 _atom_site_fract_z
 _atom_site_occupancy
  Ce  Ce0  1  0.000000  0.500000  0.524414  1
  Ce  Ce1  1  0.500000  0.000000  0.475586  1
  Ce  Ce2  1  0.500000  0.819457  0.204795  1
  Ce  Ce3  1  0.500000  0.180543  0.204795  1
  Ce  Ce4  1  0.000000  0.680543  0.795205  1
  Ce  Ce5  1  0.000000  0.319457  0.795205  1
  Fe  Fe6  1  0.500000  0.500000  0.154459  1
  Fe  Fe7  1  0.000000  0.000000  0.845541  1
  Fe  Fe8  1  0.000000  0.500000  0.989823  1
  Fe  Fe9  1  0.500000  0.000000  0.010177  1
  Fe  Fe10  1  0.500000  0.333196  0.996533  1
  Fe  Fe11  1  0.500000  0.666804  0.996533  1
  Fe  Fe12  1  0.000000  0.166804  0.003467  1
  Fe  Fe13  1  0.000000  0.833196  0.003467  1
  Fe  Fe14  1  0.500000  0.301153  0.427396  1
  Fe  Fe15  1  0.500000  0.698847  0.427396  1
  Fe  Fe16  1  0.000000  0.198847  0.572604  1
  Fe  Fe17  1  0.000000  0.801153  0.572604  1
  Co  Co18  1  0.500000  0.500000  0.702569  1
  Co  Co19  1  0.000000  0.000000  0.297431  1
  Co  Co20  1  0.500000  0.881454  0.714541  1
  Co  Co21  1  0.500000  0.118546  0.714541  1
  Co  Co22  1  0.000000  0.618546  0.285459  1
  Co  Co23  1  0.000000  0.381454  0.285459  1
  P  P24  1  0.500000  0.500000  0.889618  1
  P  P25  1  0.000000  0.000000  0.110382  1
  P  P26  1  0.500000  0.500000  0.340327  1
  P  P27  1  0.000000  0.000000  0.659673  1
  P  P28  1  0.500000  0.303468  0.612014  1
  P  P29  1  0.500000  0.696532  0.612014  1
  P  P30  1  0.000000  0.196532  0.387986  1
  P  P31  1  0.000000  0.803468  0.387986  1
  P  P32  1  0.500000  0.846055  0.897639  1
  P  P33  1  0.500000  0.153945  0.897639  1
  P  P34  1  0.000000  0.653945  0.102361  1
  P  P35  1  0.000000  0.346055  0.102361  1
