# generated using pymatgen
data_TbEr3(Zn14Cu3)2
_symmetry_space_group_name_H-M   'P 1'
_cell_length_a   8.89687900
_cell_length_b   8.89687955
_cell_length_c   8.62900000
_cell_angle_alpha   90.00000000
_cell_angle_beta   90.00000000
_cell_angle_gamma   120.00000910
_symmetry_Int_Tables_number   1
_chemical_formula_structural   TbEr3(Zn14Cu3)2
_chemical_formula_sum   'Tb1 Er3 Zn28 Cu6'
_cell_volume   591.51594493
_cell_formula_units_Z   1
loop_
 _symmetry_equiv_pos_site_id
 _symmetry_equiv_pos_as_xyz
  1  'x, y, z'
loop_
 _atom_site_type_symbol
 _atom_site_label
 _atom_site_symmetry_multiplicity
 _atom_site_fract_x
 _atom_site_fract_y
 _atom_site_fract_z
 _atom_site_occupancy
  Tb  Tb0  1  0.000000  0.000000  0.250000  1
  Er  Er1  1  0.000000  0.000000  0.750000  1
  Er  Er2  1  0.333333  0.666667  0.750000  1
  Er  Er3  1  0.666667  0.333333  0.250000  1
  Zn  Zn4  1  0.333333  0.666667  0.403508  1
  Zn  Zn5  1  0.666667  0.333333  0.596500  1
  Zn  Zn6  1  0.666667  0.333333  0.903500  1
  Zn  Zn7  1  0.333333  0.666667  0.096492  1
  Zn  Zn8  1  0.333030  0.368740  0.250000  1
  Zn  Zn9  1  0.631260  0.964291  0.250000  1
  Zn  Zn10  1  0.035709  0.666970  0.250000  1
  Zn  Zn11  1  0.631260  0.666970  0.250000  1
  Zn  Zn12  1  0.035709  0.368740  0.250000  1
  Zn  Zn13  1  0.333030  0.964291  0.250000  1
  Zn  Zn14  1  0.667076  0.631407  0.750000  1
  Zn  Zn15  1  0.368593  0.035668  0.750000  1
  Zn  Zn16  1  0.964332  0.332924  0.750000  1
  Zn  Zn17  1  0.368593  0.332924  0.750000  1
  Zn  Zn18  1  0.964332  0.631407  0.750000  1
  Zn  Zn19  1  0.667076  0.035668  0.750000  1
  Zn  Zn20  1  0.164224  0.835776  0.520574  1
  Zn  Zn21  1  0.164224  0.328449  0.520574  1
  Zn  Zn22  1  0.671551  0.835776  0.520574  1
  Zn  Zn23  1  0.835756  0.164244  0.479515  1
  Zn  Zn24  1  0.835756  0.671512  0.479515  1
  Zn  Zn25  1  0.328488  0.164244  0.479515  1
  Zn  Zn26  1  0.835756  0.164244  0.020485  1
  Zn  Zn27  1  0.835756  0.671512  0.020485  1
  Zn  Zn28  1  0.328488  0.164244  0.020485  1
  Zn  Zn29  1  0.164224  0.835776  0.979426  1
  Zn  Zn30  1  0.164224  0.328449  0.979426  1
  Zn  Zn31  1  0.671551  0.835776  0.979426  1
  Cu  Cu32  1  0.499995  0.500005  0.500019  1
  Cu  Cu33  1  0.499995  0.999990  0.500019  1
  Cu  Cu34  1  0.000010  0.500005  0.500019  1
  Cu  Cu35  1  0.499995  0.500005  0.999981  1
  Cu  Cu36  1  0.499995  0.999990  0.999981  1
  Cu  Cu37  1  0.000010  0.500005  0.999981  1
