# generated using pymatgen
data_Ho11Th5(HgRu)4
_symmetry_space_group_name_H-M   'P 1'
_cell_length_a   9.60963359
_cell_length_b   9.67884423
_cell_length_c   9.67884436
_cell_angle_alpha   59.87107174
_cell_angle_beta   60.23626341
_cell_angle_gamma   60.23626544
_symmetry_Int_Tables_number   1
_chemical_formula_structural   Ho11Th5(HgRu)4
_chemical_formula_sum   'Ho11 Th5 Hg4 Ru4'
_cell_volume   638.19386775
_cell_formula_units_Z   1
loop_
 _symmetry_equiv_pos_site_id
 _symmetry_equiv_pos_as_xyz
  1  'x, y, z'
loop_
 _atom_site_type_symbol
 _atom_site_label
 _atom_site_symmetry_multiplicity
 _atom_site_fract_x
 _atom_site_fract_y
 _atom_site_fract_z
 _atom_site_occupancy
  Ho  Ho0  1  0.187535  0.812465  0.812465  1
  Ho  Ho1  1  0.193286  0.808270  0.186315  1
  Ho  Ho2  1  0.812128  0.186315  0.808270  1
  Ho  Ho3  1  0.193286  0.186315  0.808270  1
  Ho  Ho4  1  0.812128  0.808270  0.186315  1
  Ho  Ho5  1  0.933652  0.566348  0.566348  1
  Ho  Ho6  1  0.564672  0.935328  0.935328  1
  Ho  Ho7  1  0.562546  0.935771  0.564297  1
  Ho  Ho8  1  0.937386  0.564297  0.935771  1
  Ho  Ho9  1  0.562546  0.564297  0.935771  1
  Ho  Ho10  1  0.937386  0.935771  0.564297  1
  Th  Th11  1  0.344204  0.351198  0.351198  1
  Th  Th12  1  0.348786  0.349885  0.952542  1
  Th  Th13  1  0.348786  0.952542  0.349885  1
  Th  Th14  1  0.953399  0.351198  0.351198  1
  Th  Th15  1  0.815022  0.184978  0.184978  1
  Hg  Hg16  1  0.585766  0.585156  0.585156  1
  Hg  Hg17  1  0.584399  0.587856  0.243347  1
  Hg  Hg18  1  0.584399  0.243347  0.587856  1
  Hg  Hg19  1  0.243925  0.585156  0.585156  1
  Ru  Ru20  1  0.129243  0.146957  0.146957  1
  Ru  Ru21  1  0.144338  0.142179  0.569145  1
  Ru  Ru22  1  0.144338  0.569145  0.142179  1
  Ru  Ru23  1  0.576842  0.146957  0.146957  1
