# generated using pymatgen
data_Li3GePt2
_symmetry_space_group_name_H-M   'P 1'
_cell_length_a   4.06149036
_cell_length_b   4.06148953
_cell_length_c   10.47534589
_cell_angle_alpha   101.17810175
_cell_angle_beta   101.17810153
_cell_angle_gamma   90.00000377
_symmetry_Int_Tables_number   1
_chemical_formula_structural   Li3GePt2
_chemical_formula_sum   'Li6 Ge2 Pt4'
_cell_volume   166.17731840
_cell_formula_units_Z   2
loop_
 _symmetry_equiv_pos_site_id
 _symmetry_equiv_pos_as_xyz
  1  'x, y, z'
loop_
 _atom_site_type_symbol
 _atom_site_label
 _atom_site_symmetry_multiplicity
 _atom_site_fract_x
 _atom_site_fract_y
 _atom_site_fract_z
 _atom_site_occupancy
  Li  Li0  1  0.041313  0.291313  0.082624  1
  Li  Li1  1  0.125000  0.874999  0.250000  1
  Li  Li2  1  0.708687  0.958687  0.417375  1
  Li  Li3  1  0.291313  0.041313  0.582625  1
  Li  Li4  1  0.875000  0.125000  0.750000  1
  Li  Li5  1  0.958687  0.708687  0.917375  1
  Ge  Ge6  1  0.625000  0.375000  0.250000  1
  Ge  Ge7  1  0.375000  0.625000  0.750000  1
  Pt  Pt8  1  0.547880  0.797880  0.095761  1
  Pt  Pt9  1  0.202119  0.452119  0.404239  1
  Pt  Pt10  1  0.797880  0.547880  0.595761  1
  Pt  Pt11  1  0.452119  0.202120  0.904239  1
