# generated using pymatgen
data_La7Yb11(SmSn8)2
_symmetry_space_group_name_H-M   'P 1'
_cell_length_a   7.97700349
_cell_length_b   8.50889691
_cell_length_c   16.06826400
_cell_angle_alpha   89.92085287
_cell_angle_beta   90.02014725
_cell_angle_gamma   90.12045892
_symmetry_Int_Tables_number   1
_chemical_formula_structural   La7Yb11(SmSn8)2
_chemical_formula_sum   'La7 Yb11 Sm2 Sn16'
_cell_volume   1090.63794248
_cell_formula_units_Z   1
loop_
 _symmetry_equiv_pos_site_id
 _symmetry_equiv_pos_as_xyz
  1  'x, y, z'
loop_
 _atom_site_type_symbol
 _atom_site_label
 _atom_site_symmetry_multiplicity
 _atom_site_fract_x
 _atom_site_fract_y
 _atom_site_fract_z
 _atom_site_occupancy
  La  La0  1  0.991604  0.184729  0.595852  1
  La  La1  1  0.508354  0.685495  0.404168  1
  La  La2  1  0.010877  0.815328  0.097086  1
  La  La3  1  0.508626  0.684927  0.096155  1
  La  La4  1  0.008553  0.814678  0.403632  1
  La  La5  1  0.490935  0.315109  0.593657  1
  La  La6  1  0.991582  0.183462  0.903882  1
  Yb  Yb7  1  0.328767  0.828622  0.877517  1
  Yb  Yb8  1  0.828824  0.670196  0.623274  1
  Yb  Yb9  1  0.671243  0.170717  0.376410  1
  Yb  Yb10  1  0.173034  0.329466  0.123850  1
  Yb  Yb11  1  0.669683  0.171381  0.123594  1
  Yb  Yb12  1  0.170971  0.329484  0.376443  1
  Yb  Yb13  1  0.327989  0.828947  0.623116  1
  Yb  Yb14  1  0.157482  0.502224  0.749352  1
  Yb  Yb15  1  0.654919  0.996224  0.748861  1
  Yb  Yb16  1  0.844048  0.494832  0.250185  1
  Yb  Yb17  1  0.343591  0.006394  0.250475  1
  Sm  Sm18  1  0.830256  0.672656  0.875911  1
  Sm  Sm19  1  0.489720  0.311343  0.904535  1
  Sn  Sn20  1  0.332540  0.038547  0.038690  1
  Sn  Sn21  1  0.832246  0.464251  0.460419  1
  Sn  Sn22  1  0.667835  0.963583  0.539414  1
  Sn  Sn23  1  0.169138  0.533344  0.958858  1
  Sn  Sn24  1  0.668722  0.964928  0.960102  1
  Sn  Sn25  1  0.166450  0.535532  0.539283  1
  Sn  Sn26  1  0.331561  0.036199  0.460608  1
  Sn  Sn27  1  0.830483  0.463889  0.038403  1
  Sn  Sn28  1  0.529261  0.605252  0.752549  1
  Sn  Sn29  1  0.028649  0.895388  0.750088  1
  Sn  Sn30  1  0.471614  0.396343  0.250876  1
  Sn  Sn31  1  0.971378  0.105172  0.249919  1
  Sn  Sn32  1  0.285210  0.141308  0.750984  1
  Sn  Sn33  1  0.780013  0.359478  0.752162  1
  Sn  Sn34  1  0.716524  0.859942  0.249761  1
  Sn  Sn35  1  0.217319  0.640628  0.249931  1
