# generated using pymatgen
data_Tb5Nd3MgCdIr2
_symmetry_space_group_name_H-M   'P 1'
_cell_length_a   9.80793328
_cell_length_b   9.80793354
_cell_length_c   9.82658500
_cell_angle_alpha   59.93706992
_cell_angle_beta   59.93706902
_cell_angle_gamma   59.86759230
_symmetry_Int_Tables_number   1
_chemical_formula_structural   Tb5Nd3MgCdIr2
_chemical_formula_sum   'Tb10 Nd6 Mg2 Cd2 Ir4'
_cell_volume   667.10352584
_cell_formula_units_Z   2
loop_
 _symmetry_equiv_pos_site_id
 _symmetry_equiv_pos_as_xyz
  1  'x, y, z'
loop_
 _atom_site_type_symbol
 _atom_site_label
 _atom_site_symmetry_multiplicity
 _atom_site_fract_x
 _atom_site_fract_y
 _atom_site_fract_z
 _atom_site_occupancy
  Tb  Tb0  1  0.347000  0.347000  0.346490  1
  Tb  Tb1  1  0.347000  0.347000  0.959509  1
  Tb  Tb2  1  0.346758  0.960749  0.346247  1
  Tb  Tb3  1  0.960749  0.346758  0.346247  1
  Tb  Tb4  1  0.812392  0.186514  0.188027  1
  Tb  Tb5  1  0.186514  0.812392  0.813068  1
  Tb  Tb6  1  0.186514  0.812392  0.188027  1
  Tb  Tb7  1  0.812392  0.186514  0.813068  1
  Tb  Tb8  1  0.188590  0.188590  0.811410  1
  Tb  Tb9  1  0.813651  0.813651  0.186349  1
  Nd  Nd10  1  0.941664  0.559382  0.559692  1
  Nd  Nd11  1  0.559382  0.941664  0.939262  1
  Nd  Nd12  1  0.559382  0.941664  0.559692  1
  Nd  Nd13  1  0.941664  0.559382  0.939262  1
  Nd  Nd14  1  0.560804  0.560804  0.939196  1
  Nd  Nd15  1  0.941078  0.941078  0.558922  1
  Mg  Mg16  1  0.575758  0.575758  0.579828  1
  Mg  Mg17  1  0.575758  0.575758  0.268656  1
  Cd  Cd18  1  0.580395  0.259875  0.579865  1
  Cd  Cd19  1  0.259875  0.580395  0.579865  1
  Ir  Ir20  1  0.141937  0.141937  0.139869  1
  Ir  Ir21  1  0.141937  0.141937  0.576256  1
  Ir  Ir22  1  0.142578  0.576229  0.140597  1
  Ir  Ir23  1  0.576229  0.142578  0.140597  1
