# generated using pymatgen
data_Pr16Cd3HgOs3Pt
_symmetry_space_group_name_H-M   'P 1'
_cell_length_a   10.00058755
_cell_length_b   10.05776942
_cell_length_c   10.05776851
_cell_angle_alpha   59.96621078
_cell_angle_beta   59.78679328
_cell_angle_gamma   59.78679615
_symmetry_Int_Tables_number   1
_chemical_formula_structural   Pr16Cd3HgOs3Pt
_chemical_formula_sum   'Pr16 Cd3 Hg1 Os3 Pt1'
_cell_volume   712.84716279
_cell_formula_units_Z   1
loop_
 _symmetry_equiv_pos_site_id
 _symmetry_equiv_pos_as_xyz
  1  'x, y, z'
loop_
 _atom_site_type_symbol
 _atom_site_label
 _atom_site_symmetry_multiplicity
 _atom_site_fract_x
 _atom_site_fract_y
 _atom_site_fract_z
 _atom_site_occupancy
  Pr  Pr0  1  0.343674  0.349219  0.349219  1
  Pr  Pr1  1  0.344326  0.349919  0.955015  1
  Pr  Pr2  1  0.344326  0.955015  0.349919  1
  Pr  Pr3  1  0.961504  0.345420  0.345420  1
  Pr  Pr4  1  0.812163  0.191925  0.191925  1
  Pr  Pr5  1  0.190356  0.808478  0.808478  1
  Pr  Pr6  1  0.191489  0.808181  0.191340  1
  Pr  Pr7  1  0.812947  0.192070  0.802605  1
  Pr  Pr8  1  0.191489  0.191340  0.808181  1
  Pr  Pr9  1  0.812947  0.802605  0.192070  1
  Pr  Pr10  1  0.938670  0.560083  0.560083  1
  Pr  Pr11  1  0.557256  0.940320  0.940320  1
  Pr  Pr12  1  0.556699  0.939064  0.564162  1
  Pr  Pr13  1  0.939349  0.559608  0.942324  1
  Pr  Pr14  1  0.556699  0.564162  0.939064  1
  Pr  Pr15  1  0.939349  0.942324  0.559608  1
  Cd  Cd16  1  0.578922  0.579093  0.261100  1
  Cd  Cd17  1  0.578922  0.261100  0.579093  1
  Cd  Cd18  1  0.260690  0.579036  0.579036  1
  Hg  Hg19  1  0.582536  0.581734  0.581734  1
  Os  Os20  1  0.142470  0.137769  0.137769  1
  Os  Os21  1  0.143229  0.138933  0.581237  1
  Os  Os22  1  0.143229  0.581237  0.138933  1
  Pt  Pt23  1  0.576758  0.141364  0.141364  1
