# generated using pymatgen
data_LiTh3Pd11Pt
_symmetry_space_group_name_H-M   'P 1'
_cell_length_a   5.90089600
_cell_length_b   5.89824197
_cell_length_c   9.56123400
_cell_angle_alpha   90.00000000
_cell_angle_beta   90.00000000
_cell_angle_gamma   120.01488600
_symmetry_Int_Tables_number   1
_chemical_formula_structural   LiTh3Pd11Pt
_chemical_formula_sum   'Li1 Th3 Pd11 Pt1'
_cell_volume   288.15088659
_cell_formula_units_Z   1
loop_
 _symmetry_equiv_pos_site_id
 _symmetry_equiv_pos_as_xyz
  1  'x, y, z'
loop_
 _atom_site_type_symbol
 _atom_site_label
 _atom_site_symmetry_multiplicity
 _atom_site_fract_x
 _atom_site_fract_y
 _atom_site_fract_z
 _atom_site_occupancy
  Li  Li0  1  0.333282  0.666565  0.250000  1
  Th  Th1  1  0.000316  0.000632  0.488691  1
  Th  Th2  1  0.000316  0.000632  0.011309  1
  Th  Th3  1  0.666120  0.332239  0.750000  1
  Pd  Pd4  1  0.497417  0.503346  0.494366  1
  Pd  Pd5  1  0.497101  0.994203  0.494045  1
  Pd  Pd6  1  0.005930  0.503346  0.494366  1
  Pd  Pd7  1  0.497417  0.503346  0.005634  1
  Pd  Pd8  1  0.497101  0.994203  0.005955  1
  Pd  Pd9  1  0.005930  0.503346  0.005634  1
  Pd  Pd10  1  0.824685  0.649370  0.250000  1
  Pd  Pd11  1  0.349729  0.174858  0.250000  1
  Pd  Pd12  1  0.825130  0.174858  0.250000  1
  Pd  Pd13  1  0.654445  0.827424  0.750000  1
  Pd  Pd14  1  0.172979  0.827424  0.750000  1
  Pt  Pt15  1  0.172104  0.344207  0.750000  1
