# generated using pymatgen
data_CsTh2S5
_symmetry_space_group_name_H-M   'P 1'
_cell_length_a   7.72871400
_cell_length_b   9.31841269
_cell_length_c   12.19705806
_cell_angle_alpha   89.38413134
_cell_angle_beta   90.00000000
_cell_angle_gamma   90.00000000
_symmetry_Int_Tables_number   1
_chemical_formula_structural   CsTh2S5
_chemical_formula_sum   'Cs4 Th8 S20'
_cell_volume   878.37340639
_cell_formula_units_Z   4
loop_
 _symmetry_equiv_pos_site_id
 _symmetry_equiv_pos_as_xyz
  1  'x, y, z'
loop_
 _atom_site_type_symbol
 _atom_site_label
 _atom_site_symmetry_multiplicity
 _atom_site_fract_x
 _atom_site_fract_y
 _atom_site_fract_z
 _atom_site_occupancy
  Cs  Cs0  1  0.043749  0.492169  0.330456  1
  Cs  Cs1  1  0.543749  0.507831  0.169544  1
  Cs  Cs2  1  0.956251  0.507831  0.669544  1
  Cs  Cs3  1  0.456251  0.492169  0.830456  1
  Th  Th4  1  0.025133  0.999625  0.319673  1
  Th  Th5  1  0.525133  0.000375  0.180327  1
  Th  Th6  1  0.974867  0.000375  0.680327  1
  Th  Th7  1  0.474867  0.999625  0.819673  1
  Th  Th8  1  0.087154  0.788971  0.011772  1
  Th  Th9  1  0.587154  0.211029  0.488228  1
  Th  Th10  1  0.912846  0.211029  0.988228  1
  Th  Th11  1  0.412846  0.788971  0.511772  1
  S  S12  1  0.663945  0.944883  0.401623  1
  S  S13  1  0.163945  0.055117  0.098377  1
  S  S14  1  0.336055  0.055117  0.598377  1
  S  S15  1  0.836055  0.944883  0.901623  1
  S  S16  1  0.448887  0.807499  0.005466  1
  S  S17  1  0.948887  0.192501  0.494534  1
  S  S18  1  0.551113  0.192501  0.994534  1
  S  S19  1  0.051113  0.807499  0.505466  1
  S  S20  1  0.843728  0.808618  0.182247  1
  S  S21  1  0.343728  0.191382  0.317753  1
  S  S22  1  0.156272  0.191382  0.817753  1
  S  S23  1  0.656272  0.808618  0.682247  1
  S  S24  1  0.304578  0.795690  0.284556  1
  S  S25  1  0.804578  0.204310  0.215444  1
  S  S26  1  0.695422  0.204310  0.715444  1
  S  S27  1  0.195422  0.795690  0.784556  1
  S  S28  1  0.116095  0.477061  0.041489  1
  S  S29  1  0.616095  0.522939  0.458511  1
  S  S30  1  0.883905  0.522939  0.958511  1
  S  S31  1  0.383905  0.477061  0.541489  1
