# generated using pymatgen
data_Ta3Co2MoN
_symmetry_space_group_name_H-M   'P 1'
_cell_length_a   8.12579621
_cell_length_b   8.12579621
_cell_length_c   8.12579600
_cell_angle_alpha   60.00000086
_cell_angle_beta   60.00000084
_cell_angle_gamma   60.00000293
_symmetry_Int_Tables_number   1
_chemical_formula_structural   Ta3Co2MoN
_chemical_formula_sum   'Ta12 Co8 Mo4 N4'
_cell_volume   379.38729659
_cell_formula_units_Z   4
loop_
 _symmetry_equiv_pos_site_id
 _symmetry_equiv_pos_as_xyz
  1  'x, y, z'
loop_
 _atom_site_type_symbol
 _atom_site_label
 _atom_site_symmetry_multiplicity
 _atom_site_fract_x
 _atom_site_fract_y
 _atom_site_fract_z
 _atom_site_occupancy
  Ta  Ta0  1  0.809988  0.809988  0.190012  1
  Ta  Ta1  1  0.190012  0.190012  0.809988  1
  Ta  Ta2  1  0.809988  0.190012  0.809988  1
  Ta  Ta3  1  0.190012  0.809988  0.190012  1
  Ta  Ta4  1  0.190012  0.809988  0.809988  1
  Ta  Ta5  1  0.809988  0.190012  0.190012  1
  Ta  Ta6  1  0.440012  0.440012  0.059988  1
  Ta  Ta7  1  0.059988  0.059988  0.440012  1
  Ta  Ta8  1  0.440012  0.059988  0.440012  1
  Ta  Ta9  1  0.059988  0.440012  0.059988  1
  Ta  Ta10  1  0.059988  0.440012  0.440012  1
  Ta  Ta11  1  0.440012  0.059988  0.059988  1
  Co  Co12  1  0.735527  0.421491  0.421491  1
  Co  Co13  1  0.421491  0.735527  0.421491  1
  Co  Co14  1  0.421491  0.421491  0.735527  1
  Co  Co15  1  0.421491  0.421491  0.421491  1
  Co  Co16  1  0.514473  0.828509  0.828509  1
  Co  Co17  1  0.828509  0.514473  0.828509  1
  Co  Co18  1  0.828509  0.828509  0.514473  1
  Co  Co19  1  0.828509  0.828509  0.828509  1
  Mo  Mo20  1  0.125000  0.625000  0.625000  1
  Mo  Mo21  1  0.625000  0.125000  0.625000  1
  Mo  Mo22  1  0.625000  0.625000  0.125000  1
  Mo  Mo23  1  0.625000  0.625000  0.625000  1
  N  N24  1  0.625000  0.125000  0.125000  1
  N  N25  1  0.125000  0.625000  0.125000  1
  N  N26  1  0.125000  0.125000  0.625000  1
  N  N27  1  0.125000  0.125000  0.125000  1
