# generated using pymatgen
data_Gd10Tm2Co6Sn
_symmetry_space_group_name_H-M   'P 1'
_cell_length_a   8.35106603
_cell_length_b   8.35106775
_cell_length_c   8.35690400
_cell_angle_alpha   109.47319092
_cell_angle_beta   109.54505122
_cell_angle_gamma   109.36709387
_symmetry_Int_Tables_number   1
_chemical_formula_structural   Gd10Tm2Co6Sn
_chemical_formula_sum   'Gd10 Tm2 Co6 Sn1'
_cell_volume   448.80571591
_cell_formula_units_Z   1
loop_
 _symmetry_equiv_pos_site_id
 _symmetry_equiv_pos_as_xyz
  1  'x, y, z'
loop_
 _atom_site_type_symbol
 _atom_site_label
 _atom_site_symmetry_multiplicity
 _atom_site_fract_x
 _atom_site_fract_y
 _atom_site_fract_z
 _atom_site_occupancy
  Gd  Gd0  1  0.192957  0.695523  0.888479  1
  Gd  Gd1  1  0.807043  0.304477  0.111521  1
  Gd  Gd2  1  0.695161  0.502873  0.803894  1
  Gd  Gd3  1  0.304839  0.497127  0.196106  1
  Gd  Gd4  1  0.698978  0.891267  0.196106  1
  Gd  Gd5  1  0.301022  0.108733  0.803894  1
  Gd  Gd6  1  0.502488  0.803685  0.695760  1
  Gd  Gd7  1  0.497512  0.196315  0.304240  1
  Gd  Gd8  1  0.107925  0.806727  0.304240  1
  Gd  Gd9  1  0.892075  0.193273  0.695760  1
  Tm  Tm10  1  0.806803  0.695402  0.502207  1
  Tm  Tm11  1  0.193197  0.304598  0.497793  1
  Co  Co12  1  0.885764  0.385764  0.500000  1
  Co  Co13  1  0.114236  0.614236  0.500000  1
  Co  Co14  1  0.384932  0.500105  0.885036  1
  Co  Co15  1  0.615068  0.499895  0.114964  1
  Co  Co16  1  0.501146  0.885510  0.386656  1
  Co  Co17  1  0.498854  0.114490  0.613344  1
  Sn  Sn18  1  0.000000  0.000000  0.000000  1
