# generated using pymatgen
data_ScUB6Mo
_symmetry_space_group_name_H-M   'P 1'
_cell_length_a   3.63436100
_cell_length_b   8.99002200
_cell_length_c   11.33674200
_cell_angle_alpha   90.00000000
_cell_angle_beta   90.00000000
_cell_angle_gamma   90.00000000
_symmetry_Int_Tables_number   1
_chemical_formula_structural   ScUB6Mo
_chemical_formula_sum   'Sc4 U4 B24 Mo4'
_cell_volume   370.40520524
_cell_formula_units_Z   4
loop_
 _symmetry_equiv_pos_site_id
 _symmetry_equiv_pos_as_xyz
  1  'x, y, z'
loop_
 _atom_site_type_symbol
 _atom_site_label
 _atom_site_symmetry_multiplicity
 _atom_site_fract_x
 _atom_site_fract_y
 _atom_site_fract_z
 _atom_site_occupancy
  Sc  Sc0  1  0.000000  0.945778  0.374181  1
  Sc  Sc1  1  0.000000  0.054222  0.625819  1
  Sc  Sc2  1  0.000000  0.445778  0.125819  1
  Sc  Sc3  1  0.000000  0.554222  0.874181  1
  U  U4  1  0.000000  0.321013  0.413698  1
  U  U5  1  0.000000  0.678987  0.586302  1
  U  U6  1  0.000000  0.821013  0.086302  1
  U  U7  1  0.000000  0.178987  0.913698  1
  B  B8  1  0.500000  0.553114  0.434348  1
  B  B9  1  0.500000  0.446886  0.565652  1
  B  B10  1  0.500000  0.053114  0.065652  1
  B  B11  1  0.500000  0.946886  0.934348  1
  B  B12  1  0.500000  0.753368  0.420872  1
  B  B13  1  0.500000  0.246632  0.579128  1
  B  B14  1  0.500000  0.253368  0.079128  1
  B  B15  1  0.500000  0.746632  0.920872  1
  B  B16  1  0.500000  0.795756  0.263641  1
  B  B17  1  0.500000  0.204244  0.736359  1
  B  B18  1  0.500000  0.295756  0.236359  1
  B  B19  1  0.500000  0.704244  0.763641  1
  B  B20  1  0.500000  0.631237  0.181874  1
  B  B21  1  0.500000  0.368763  0.818126  1
  B  B22  1  0.500000  0.131237  0.318126  1
  B  B23  1  0.500000  0.868763  0.681874  1
  B  B24  1  0.500000  0.979963  0.213573  1
  B  B25  1  0.500000  0.020037  0.786427  1
  B  B26  1  0.500000  0.479963  0.286427  1
  B  B27  1  0.500000  0.520037  0.713573  1
  B  B28  1  0.500000  0.601792  0.028029  1
  B  B29  1  0.500000  0.398208  0.971971  1
  B  B30  1  0.500000  0.101792  0.471971  1
  B  B31  1  0.500000  0.898208  0.528029  1
  Mo  Mo32  1  0.000000  0.640452  0.320000  1
  Mo  Mo33  1  0.000000  0.359548  0.680000  1
  Mo  Mo34  1  0.000000  0.140452  0.180000  1
  Mo  Mo35  1  0.000000  0.859548  0.820000  1
