# generated using pymatgen
data_Cu2HgO4
_symmetry_space_group_name_H-M   'P 1'
_cell_length_a   6.30127239
_cell_length_b   6.30127252
_cell_length_c   6.30127145
_cell_angle_alpha   124.74633523
_cell_angle_beta   124.74633954
_cell_angle_gamma   81.95860972
_symmetry_Int_Tables_number   1
_chemical_formula_structural   Cu2HgO4
_chemical_formula_sum   'Cu4 Hg2 O8'
_cell_volume   162.46344099
_cell_formula_units_Z   2
loop_
 _symmetry_equiv_pos_site_id
 _symmetry_equiv_pos_as_xyz
  1  'x, y, z'
loop_
 _atom_site_type_symbol
 _atom_site_label
 _atom_site_symmetry_multiplicity
 _atom_site_fract_x
 _atom_site_fract_y
 _atom_site_fract_z
 _atom_site_occupancy
  Cu  Cu0  1  0.875000  0.625000  0.250000  1
  Cu  Cu1  1  0.375000  0.625000  0.750000  1
  Cu  Cu2  1  0.375000  0.125000  0.750000  1
  Cu  Cu3  1  0.375000  0.625000  0.250000  1
  Hg  Hg4  1  0.750000  0.250000  0.500000  1
  Hg  Hg5  1  0.000000  0.000000  0.000000  1
  O  O6  1  0.027053  0.941022  0.370893  1
  O  O7  1  0.058978  0.429871  0.086031  1
  O  O8  1  0.343840  0.972947  0.913969  1
  O  O9  1  0.179871  0.593840  0.870893  1
  O  O10  1  0.406160  0.277053  0.586031  1
  O  O11  1  0.691022  0.820129  0.413969  1
  O  O12  1  0.570129  0.656160  0.629107  1
  O  O13  1  0.722947  0.308978  0.129107  1
