# generated using pymatgen
data_Ac2Ni2Br
_symmetry_space_group_name_H-M   'P 1'
_cell_length_a   4.17929200
_cell_length_b   4.17929333
_cell_length_c   18.06146700
_cell_angle_alpha   90.00000000
_cell_angle_beta   90.00000000
_cell_angle_gamma   120.00000530
_symmetry_Int_Tables_number   1
_chemical_formula_structural   Ac2Ni2Br
_chemical_formula_sum   'Ac4 Ni4 Br2'
_cell_volume   273.20535017
_cell_formula_units_Z   2
loop_
 _symmetry_equiv_pos_site_id
 _symmetry_equiv_pos_as_xyz
  1  'x, y, z'
loop_
 _atom_site_type_symbol
 _atom_site_label
 _atom_site_symmetry_multiplicity
 _atom_site_fract_x
 _atom_site_fract_y
 _atom_site_fract_z
 _atom_site_occupancy
  Ac  Ac0  1  0.000000  0.000000  0.608679  1
  Ac  Ac1  1  0.000000  0.000000  0.391615  1
  Ac  Ac2  1  0.000000  0.000000  0.108679  1
  Ac  Ac3  1  0.000000  0.000000  0.891615  1
  Ni  Ni4  1  0.666667  0.333333  0.500245  1
  Ni  Ni5  1  0.333333  0.666667  0.000245  1
  Ni  Ni6  1  0.666667  0.333333  0.999777  1
  Ni  Ni7  1  0.333333  0.666667  0.499777  1
  Br  Br8  1  0.666667  0.333333  0.249684  1
  Br  Br9  1  0.333333  0.666667  0.749684  1
