# generated using pymatgen
data_Ca2GaPbF9
_symmetry_space_group_name_H-M   'P 1'
_cell_length_a   5.49993382
_cell_length_b   5.50695884
_cell_length_c   12.52361270
_cell_angle_alpha   91.42963330
_cell_angle_beta   101.02415528
_cell_angle_gamma   92.10213284
_symmetry_Int_Tables_number   1
_chemical_formula_structural   Ca2GaPbF9
_chemical_formula_sum   'Ca4 Ga2 Pb2 F18'
_cell_volume   371.86627992
_cell_formula_units_Z   2
loop_
 _symmetry_equiv_pos_site_id
 _symmetry_equiv_pos_as_xyz
  1  'x, y, z'
loop_
 _atom_site_type_symbol
 _atom_site_label
 _atom_site_symmetry_multiplicity
 _atom_site_fract_x
 _atom_site_fract_y
 _atom_site_fract_z
 _atom_site_occupancy
  Ca  Ca0  1  0.961595  0.240992  0.388577  1
  Ca  Ca1  1  0.038405  0.759008  0.611423  1
  Ca  Ca2  1  0.548938  0.267501  0.611708  1
  Ca  Ca3  1  0.451062  0.732499  0.388292  1
  Ga  Ga4  1  0.798081  0.792234  0.182573  1
  Ga  Ga5  1  0.201919  0.207766  0.817427  1
  Pb  Pb6  1  0.731485  0.711347  0.891543  1
  Pb  Pb7  1  0.268515  0.288653  0.108457  1
  F  F8  1  0.143266  0.944355  0.906219  1
  F  F9  1  0.856734  0.055645  0.093781  1
  F  F10  1  0.262605  0.457153  0.719569  1
  F  F11  1  0.737395  0.542847  0.280431  1
  F  F12  1  0.627381  0.004642  0.269943  1
  F  F13  1  0.372619  0.995358  0.730057  1
  F  F14  1  0.961537  0.589285  0.094963  1
  F  F15  1  0.038463  0.410715  0.905037  1
  F  F16  1  0.093934  0.897830  0.285005  1
  F  F17  1  0.906066  0.102170  0.714995  1
  F  F18  1  0.491425  0.694820  0.090113  1
  F  F19  1  0.508575  0.305180  0.909887  1
  F  F20  1  0.747799  0.989957  0.497917  1
  F  F21  1  0.252201  0.010043  0.502083  1
  F  F22  1  0.750188  0.486625  0.495672  1
  F  F23  1  0.249812  0.513375  0.504328  1
  F  F24  1  0.753254  0.604301  0.709487  1
  F  F25  1  0.246746  0.395699  0.290513  1
