# generated using pymatgen
data_ScBi4Pt3F28
_symmetry_space_group_name_H-M   'P 1'
_cell_length_a   5.65894430
_cell_length_b   9.20892600
_cell_length_c   12.33234596
_cell_angle_alpha   62.10289982
_cell_angle_beta   89.76071667
_cell_angle_gamma   90.00536224
_symmetry_Int_Tables_number   1
_chemical_formula_structural   ScBi4Pt3F28
_chemical_formula_sum   'Sc1 Bi4 Pt3 F28'
_cell_volume   567.98111277
_cell_formula_units_Z   1
loop_
 _symmetry_equiv_pos_site_id
 _symmetry_equiv_pos_as_xyz
  1  'x, y, z'
loop_
 _atom_site_type_symbol
 _atom_site_label
 _atom_site_symmetry_multiplicity
 _atom_site_fract_x
 _atom_site_fract_y
 _atom_site_fract_z
 _atom_site_occupancy
  Sc  Sc0  1  0.754953  0.279301  0.954051  1
  Bi  Bi1  1  0.765485  0.810988  0.766600  1
  Bi  Bi2  1  0.261893  0.184140  0.744695  1
  Bi  Bi3  1  0.245290  0.196024  0.222133  1
  Bi  Bi4  1  0.736781  0.829751  0.250665  1
  Pt  Pt5  1  0.259334  0.729594  0.541122  1
  Pt  Pt6  1  0.240394  0.728306  0.041692  1
  Pt  Pt7  1  0.742265  0.272738  0.457244  1
  F  F8  1  0.425508  0.704623  0.915358  1
  F  F9  1  0.923786  0.295333  0.582654  1
  F  F10  1  0.553492  0.284792  0.089916  1
  F  F11  1  0.076255  0.706469  0.416311  1
  F  F12  1  0.446728  0.278792  0.538372  1
  F  F13  1  0.940730  0.722585  0.961202  1
  F  F14  1  0.554300  0.724015  0.458913  1
  F  F15  1  0.061242  0.273481  0.046825  1
  F  F16  1  0.775508  0.523982  0.860264  1
  F  F17  1  0.270835  0.490475  0.635963  1
  F  F18  1  0.225658  0.488801  0.140499  1
  F  F19  1  0.731257  0.510009  0.362464  1
  F  F20  1  0.760212  0.023887  0.059745  1
  F  F21  1  0.257982  0.968548  0.451261  1
  F  F22  1  0.244186  0.971166  0.950833  1
  F  F23  1  0.743617  0.031958  0.548614  1
  F  F24  1  0.965429  0.730220  0.626667  1
  F  F25  1  0.464142  0.265785  0.864420  1
  F  F26  1  0.033676  0.271206  0.373043  1
  F  F27  1  0.532686  0.725027  0.128221  1
  F  F28  1  0.062626  0.742565  0.174312  1
  F  F29  1  0.563806  0.255435  0.327981  1
  F  F30  1  0.951022  0.246730  0.828808  1
  F  F31  1  0.438031  0.746330  0.671439  1
  F  F32  1  0.397783  0.967135  0.228451  1
  F  F33  1  0.907489  0.028697  0.271911  1
  F  F34  1  0.593633  0.025953  0.773820  1
  F  F35  1  0.091984  0.965158  0.733530  1
