# generated using pymatgen
data_Ho7Lu(OsI4)2
_symmetry_space_group_name_H-M   'P 1'
_cell_length_a   11.09872200
_cell_length_b   11.07480106
_cell_length_c   6.16896267
_cell_angle_alpha   89.37841896
_cell_angle_beta   89.30598586
_cell_angle_gamma   88.66754741
_symmetry_Int_Tables_number   1
_chemical_formula_structural   Ho7Lu(OsI4)2
_chemical_formula_sum   'Ho7 Lu1 Os2 I8'
_cell_volume   757.96207206
_cell_formula_units_Z   1
loop_
 _symmetry_equiv_pos_site_id
 _symmetry_equiv_pos_as_xyz
  1  'x, y, z'
loop_
 _atom_site_type_symbol
 _atom_site_label
 _atom_site_symmetry_multiplicity
 _atom_site_fract_x
 _atom_site_fract_y
 _atom_site_fract_z
 _atom_site_occupancy
  Ho  Ho0  1  0.797845  0.084286  0.003202  1
  Ho  Ho1  1  0.085039  0.797547  0.502622  1
  Ho  Ho2  1  0.916247  0.202573  0.496981  1
  Ho  Ho3  1  0.799975  0.920090  0.506459  1
  Ho  Ho4  1  0.200874  0.078944  0.493219  1
  Ho  Ho5  1  0.079474  0.200533  0.993352  1
  Ho  Ho6  1  0.920590  0.799394  0.006260  1
  Lu  Lu7  1  0.195844  0.918033  0.996447  1
  Os  Os8  1  0.999698  0.000179  0.250199  1
  Os  Os9  1  0.999836  0.000103  0.749765  1
  I  I10  1  0.363262  0.842145  0.504232  1
  I  I11  1  0.637483  0.157683  0.497437  1
  I  I12  1  0.159676  0.639356  0.997434  1
  I  I13  1  0.842586  0.363445  0.002593  1
  I  I14  1  0.358538  0.145971  0.001707  1
  I  I15  1  0.641586  0.850162  0.997934  1
  I  I16  1  0.851164  0.640291  0.497865  1
  I  I17  1  0.150284  0.359263  0.502289  1
