# generated using pymatgen
data_Tm20Cd6NiOs
_symmetry_space_group_name_H-M   'P 1'
_cell_length_a   9.47525300
_cell_length_b   9.47525378
_cell_length_c   9.66735900
_cell_angle_alpha   90.00000000
_cell_angle_beta   90.00000000
_cell_angle_gamma   119.99999377
_symmetry_Int_Tables_number   1
_chemical_formula_structural   Tm20Cd6NiOs
_chemical_formula_sum   'Tm20 Cd6 Ni1 Os1'
_cell_volume   751.65780492
_cell_formula_units_Z   1
loop_
 _symmetry_equiv_pos_site_id
 _symmetry_equiv_pos_as_xyz
  1  'x, y, z'
loop_
 _atom_site_type_symbol
 _atom_site_label
 _atom_site_symmetry_multiplicity
 _atom_site_fract_x
 _atom_site_fract_y
 _atom_site_fract_z
 _atom_site_occupancy
  Tm  Tm0  1  0.000000  0.000000  0.499773  1
  Tm  Tm1  1  0.000000  0.000000  0.000227  1
  Tm  Tm2  1  0.540303  0.459697  0.250000  1
  Tm  Tm3  1  0.540303  0.080607  0.250000  1
  Tm  Tm4  1  0.919393  0.459697  0.250000  1
  Tm  Tm5  1  0.457481  0.542519  0.750000  1
  Tm  Tm6  1  0.457481  0.914962  0.750000  1
  Tm  Tm7  1  0.085038  0.542519  0.750000  1
  Tm  Tm8  1  0.208935  0.791065  0.440934  1
  Tm  Tm9  1  0.208935  0.417870  0.440934  1
  Tm  Tm10  1  0.582130  0.791065  0.440934  1
  Tm  Tm11  1  0.788838  0.211162  0.562319  1
  Tm  Tm12  1  0.788838  0.577675  0.562319  1
  Tm  Tm13  1  0.422325  0.211162  0.562319  1
  Tm  Tm14  1  0.788838  0.211162  0.937681  1
  Tm  Tm15  1  0.788838  0.577675  0.937681  1
  Tm  Tm16  1  0.422325  0.211162  0.937681  1
  Tm  Tm17  1  0.208935  0.791065  0.059066  1
  Tm  Tm18  1  0.208935  0.417870  0.059066  1
  Tm  Tm19  1  0.582130  0.791065  0.059066  1
  Cd  Cd20  1  0.885596  0.114404  0.250000  1
  Cd  Cd21  1  0.885596  0.771192  0.250000  1
  Cd  Cd22  1  0.228808  0.114404  0.250000  1
  Cd  Cd23  1  0.114499  0.885501  0.750000  1
  Cd  Cd24  1  0.114499  0.228997  0.750000  1
  Cd  Cd25  1  0.771003  0.885501  0.750000  1
  Ni  Ni26  1  0.666667  0.333333  0.750000  1
  Os  Os27  1  0.333333  0.666667  0.250000  1
