# generated using pymatgen
data_Al20Cr3NiRh4
_symmetry_space_group_name_H-M   'P 1'
_cell_length_a   7.81365900
_cell_length_b   7.81366045
_cell_length_c   7.96214900
_cell_angle_alpha   90.00000000
_cell_angle_beta   90.00000000
_cell_angle_gamma   120.00000656
_symmetry_Int_Tables_number   1
_chemical_formula_structural   Al20Cr3NiRh4
_chemical_formula_sum   'Al20 Cr3 Ni1 Rh4'
_cell_volume   420.98817012
_cell_formula_units_Z   1
loop_
 _symmetry_equiv_pos_site_id
 _symmetry_equiv_pos_as_xyz
  1  'x, y, z'
loop_
 _atom_site_type_symbol
 _atom_site_label
 _atom_site_symmetry_multiplicity
 _atom_site_fract_x
 _atom_site_fract_y
 _atom_site_fract_z
 _atom_site_occupancy
  Al  Al0  1  0.000000  0.000000  0.005425  1
  Al  Al1  1  0.000000  0.000000  0.494575  1
  Al  Al2  1  0.470019  0.940037  0.250000  1
  Al  Al3  1  0.537355  0.462645  0.750000  1
  Al  Al4  1  0.925290  0.462645  0.750000  1
  Al  Al5  1  0.059963  0.529981  0.250000  1
  Al  Al6  1  0.470019  0.529981  0.250000  1
  Al  Al7  1  0.537355  0.074710  0.750000  1
  Al  Al8  1  0.192962  0.385921  0.933806  1
  Al  Al9  1  0.804619  0.195381  0.455830  1
  Al  Al10  1  0.390760  0.195381  0.455830  1
  Al  Al11  1  0.614079  0.807038  0.933806  1
  Al  Al12  1  0.192962  0.807038  0.933806  1
  Al  Al13  1  0.804619  0.609240  0.044170  1
  Al  Al14  1  0.804619  0.195381  0.044170  1
  Al  Al15  1  0.804619  0.609240  0.455830  1
  Al  Al16  1  0.390760  0.195381  0.044170  1
  Al  Al17  1  0.614079  0.807038  0.566194  1
  Al  Al18  1  0.192962  0.385921  0.566194  1
  Al  Al19  1  0.192962  0.807038  0.566194  1
  Cr  Cr20  1  0.881202  0.118798  0.750000  1
  Cr  Cr21  1  0.237598  0.118798  0.750000  1
  Cr  Cr22  1  0.881202  0.762402  0.750000  1
  Ni  Ni23  1  0.333333  0.666667  0.750000  1
  Rh  Rh24  1  0.666667  0.333333  0.250000  1
  Rh  Rh25  1  0.129870  0.259741  0.250000  1
  Rh  Rh26  1  0.740259  0.870130  0.250000  1
  Rh  Rh27  1  0.129870  0.870130  0.250000  1
