# generated using pymatgen
data_Dy8Ta2Ti3Si16Mo7
_symmetry_space_group_name_H-M   'P 1'
_cell_length_a   6.94335181
_cell_length_b   6.94687277
_cell_length_c   12.85408740
_cell_angle_alpha   90.00262241
_cell_angle_beta   90.08685324
_cell_angle_gamma   89.95786562
_symmetry_Int_Tables_number   1
_chemical_formula_structural   Dy8Ta2Ti3Si16Mo7
_chemical_formula_sum   'Dy8 Ta2 Ti3 Si16 Mo7'
_cell_volume   620.01064725
_cell_formula_units_Z   1
loop_
 _symmetry_equiv_pos_site_id
 _symmetry_equiv_pos_as_xyz
  1  'x, y, z'
loop_
 _atom_site_type_symbol
 _atom_site_label
 _atom_site_symmetry_multiplicity
 _atom_site_fract_x
 _atom_site_fract_y
 _atom_site_fract_z
 _atom_site_occupancy
  Dy  Dy0  1  0.998419  0.659810  0.033142  1
  Dy  Dy1  1  0.001526  0.340540  0.530930  1
  Dy  Dy2  1  0.658842  0.998065  0.968759  1
  Dy  Dy3  1  0.160537  0.502179  0.781940  1
  Dy  Dy4  1  0.838966  0.497685  0.281361  1
  Dy  Dy5  1  0.502351  0.160361  0.218358  1
  Dy  Dy6  1  0.498490  0.841067  0.717481  1
  Dy  Dy7  1  0.340166  0.001331  0.468292  1
  Ta  Ta8  1  0.670758  0.669090  0.499923  1
  Ta  Ta9  1  0.831085  0.169526  0.749612  1
  Ti  Ti10  1  0.169024  0.829917  0.249390  1
  Ti  Ti11  1  0.328668  0.328084  0.000777  1
  Ti  Ti12  1  0.659207  0.494293  0.875606  1
  Si  Si13  1  0.043010  0.711202  0.435365  1
  Si  Si14  1  0.958744  0.289555  0.938305  1
  Si  Si15  1  0.711222  0.041338  0.562851  1
  Si  Si16  1  0.210203  0.457484  0.187127  1
  Si  Si17  1  0.790283  0.543481  0.687417  1
  Si  Si18  1  0.456276  0.210680  0.814696  1
  Si  Si19  1  0.540477  0.789721  0.312198  1
  Si  Si20  1  0.288779  0.958084  0.063108  1
  Si  Si21  1  0.798273  0.872184  0.183932  1
  Si  Si22  1  0.298012  0.626809  0.566902  1
  Si  Si23  1  0.699566  0.373025  0.065796  1
  Si  Si24  1  0.627871  0.297963  0.432140  1
  Si  Si25  1  0.371218  0.702523  0.934052  1
  Si  Si26  1  0.128713  0.200509  0.316183  1
  Si  Si27  1  0.202908  0.129359  0.683055  1
  Si  Si28  1  0.871416  0.799511  0.816956  1
  Mo  Mo29  1  0.340738  0.506795  0.375524  1
  Mo  Mo30  1  0.841094  0.993367  0.374024  1
  Mo  Mo31  1  0.008183  0.156787  0.127239  1
  Mo  Mo32  1  0.995764  0.841828  0.624879  1
  Mo  Mo33  1  0.508440  0.339535  0.623492  1
  Mo  Mo34  1  0.159286  0.006499  0.873478  1
  Mo  Mo35  1  0.491485  0.659813  0.125709  1
