# generated using pymatgen
data_VHg2OF4
_symmetry_space_group_name_H-M   'P 1'
_cell_length_a   5.21018313
_cell_length_b   8.85896507
_cell_length_c   12.07747000
_cell_angle_alpha   90.00000000
_cell_angle_beta   90.00000000
_cell_angle_gamma   90.01974648
_symmetry_Int_Tables_number   1
_chemical_formula_structural   VHg2OF4
_chemical_formula_sum   'V4 Hg8 O4 F16'
_cell_volume   557.45770031
_cell_formula_units_Z   4
loop_
 _symmetry_equiv_pos_site_id
 _symmetry_equiv_pos_as_xyz
  1  'x, y, z'
loop_
 _atom_site_type_symbol
 _atom_site_label
 _atom_site_symmetry_multiplicity
 _atom_site_fract_x
 _atom_site_fract_y
 _atom_site_fract_z
 _atom_site_occupancy
  V  V0  1  0.909929  0.917188  0.024597  1
  V  V1  1  0.590071  0.082812  0.524597  1
  V  V2  1  0.090724  0.417253  0.475427  1
  V  V3  1  0.409276  0.582747  0.975427  1
  Hg  Hg4  1  0.402253  0.729558  0.251358  1
  Hg  Hg5  1  0.085937  0.846317  0.389898  1
  Hg  Hg6  1  0.414063  0.153683  0.889898  1
  Hg  Hg7  1  0.097747  0.270442  0.751358  1
  Hg  Hg8  1  0.596461  0.229508  0.248713  1
  Hg  Hg9  1  0.912582  0.346401  0.110099  1
  Hg  Hg10  1  0.587418  0.653599  0.610099  1
  Hg  Hg11  1  0.903539  0.770492  0.748713  1
  O  O12  1  0.788753  0.937432  0.489243  1
  O  O13  1  0.711247  0.062568  0.989243  1
  O  O14  1  0.209939  0.437646  0.010616  1
  O  O15  1  0.290061  0.562354  0.510616  1
  F  F16  1  0.171627  0.741067  0.040284  1
  F  F17  1  0.671869  0.759004  0.959732  1
  F  F18  1  0.799513  0.874731  0.171513  1
  F  F19  1  0.324242  0.957396  0.580392  1
  F  F20  1  0.419335  0.081152  0.375368  1
  F  F21  1  0.080665  0.918848  0.875368  1
  F  F22  1  0.175758  0.042604  0.080392  1
  F  F23  1  0.700487  0.125269  0.671513  1
  F  F24  1  0.328373  0.258933  0.540284  1
  F  F25  1  0.828131  0.240996  0.459732  1
  F  F26  1  0.200606  0.374586  0.328438  1
  F  F27  1  0.674746  0.457579  0.919626  1
  F  F28  1  0.579464  0.581281  0.124696  1
  F  F29  1  0.920536  0.418719  0.624696  1
  F  F30  1  0.825254  0.542421  0.419626  1
  F  F31  1  0.299394  0.625414  0.828438  1
