# generated using pymatgen
data_BiSe27
_symmetry_space_group_name_H-M   'P 1'
_cell_length_a   15.28985682
_cell_length_b   15.28986008
_cell_length_c   15.28985539
_cell_angle_alpha   118.85848408
_cell_angle_beta   118.85845736
_cell_angle_gamma   118.85845805
_symmetry_Int_Tables_number   1
_chemical_formula_structural   BiSe27
_chemical_formula_sum   'Bi1 Se27'
_cell_volume   987.28511185
_cell_formula_units_Z   1
loop_
 _symmetry_equiv_pos_site_id
 _symmetry_equiv_pos_as_xyz
  1  'x, y, z'
loop_
 _atom_site_type_symbol
 _atom_site_label
 _atom_site_symmetry_multiplicity
 _atom_site_fract_x
 _atom_site_fract_y
 _atom_site_fract_z
 _atom_site_occupancy
  Bi  Bi0  1  0.461261  0.461261  0.461261  1
  Se  Se1  1  0.995958  0.617541  0.617541  1
  Se  Se2  1  0.617540  0.617540  0.995958  1
  Se  Se3  1  0.617541  0.995958  0.617541  1
  Se  Se4  1  0.260099  0.890788  0.748728  1
  Se  Se5  1  0.890788  0.748728  0.260100  1
  Se  Se6  1  0.748729  0.260100  0.890789  1
  Se  Se7  1  0.890788  0.260099  0.748728  1
  Se  Se8  1  0.260100  0.748728  0.890788  1
  Se  Se9  1  0.748729  0.890789  0.260100  1
  Se  Se10  1  0.070819  0.613763  0.410608  1
  Se  Se11  1  0.613764  0.410609  0.070819  1
  Se  Se12  1  0.410608  0.070819  0.613763  1
  Se  Se13  1  0.613764  0.070819  0.410609  1
  Se  Se14  1  0.070819  0.410608  0.613763  1
  Se  Se15  1  0.410609  0.613763  0.070819  1
  Se  Se16  1  0.373399  0.756788  0.610867  1
  Se  Se17  1  0.756787  0.610866  0.373399  1
  Se  Se18  1  0.610866  0.373399  0.756787  1
  Se  Se19  1  0.756787  0.373399  0.610866  1
  Se  Se20  1  0.373399  0.610867  0.756788  1
  Se  Se21  1  0.610866  0.756787  0.373399  1
  Se  Se22  1  0.167024  0.427320  0.427320  1
  Se  Se23  1  0.427320  0.427320  0.167024  1
  Se  Se24  1  0.427320  0.167024  0.427320  1
  Se  Se25  1  0.027638  0.916890  0.916890  1
  Se  Se26  1  0.916891  0.916891  0.027639  1
  Se  Se27  1  0.916891  0.027638  0.916890  1
