# generated using pymatgen
data_Gd2MnReB8
_symmetry_space_group_name_H-M   'P 1'
_cell_length_a   3.53360600
_cell_length_b   5.96467038
_cell_length_c   11.53422046
_cell_angle_alpha   90.14562553
_cell_angle_beta   90.00000000
_cell_angle_gamma   90.00000000
_symmetry_Int_Tables_number   1
_chemical_formula_structural   Gd2MnReB8
_chemical_formula_sum   'Gd4 Mn2 Re2 B16'
_cell_volume   243.10361561
_cell_formula_units_Z   2
loop_
 _symmetry_equiv_pos_site_id
 _symmetry_equiv_pos_as_xyz
  1  'x, y, z'
loop_
 _atom_site_type_symbol
 _atom_site_label
 _atom_site_symmetry_multiplicity
 _atom_site_fract_x
 _atom_site_fract_y
 _atom_site_fract_z
 _atom_site_occupancy
  Gd  Gd0  1  0.000000  0.627362  0.345545  1
  Gd  Gd1  1  0.000000  0.372638  0.654455  1
  Gd  Gd2  1  0.000000  0.125742  0.146197  1
  Gd  Gd3  1  0.000000  0.874258  0.853803  1
  Mn  Mn4  1  0.000000  0.628169  0.083765  1
  Mn  Mn5  1  0.000000  0.371831  0.916235  1
  Re  Re6  1  0.000000  0.133430  0.412500  1
  Re  Re7  1  0.000000  0.866570  0.587500  1
  B  B8  1  0.500000  0.781421  0.181159  1
  B  B9  1  0.500000  0.218579  0.818841  1
  B  B10  1  0.500000  0.285345  0.312487  1
  B  B11  1  0.500000  0.714655  0.687513  1
  B  B12  1  0.500000  0.860848  0.032117  1
  B  B13  1  0.500000  0.139152  0.967883  1
  B  B14  1  0.500000  0.364549  0.468300  1
  B  B15  1  0.500000  0.635451  0.531700  1
  B  B16  1  0.500000  0.886213  0.452598  1
  B  B17  1  0.500000  0.113787  0.547402  1
  B  B18  1  0.500000  0.388364  0.045756  1
  B  B19  1  0.500000  0.611636  0.954244  1
  B  B20  1  0.500000  0.973915  0.306387  1
  B  B21  1  0.500000  0.026085  0.693613  1
  B  B22  1  0.500000  0.477363  0.188749  1
  B  B23  1  0.500000  0.522637  0.811251  1
