# generated using pymatgen
data_Tb2Ho3GaBi2
_symmetry_space_group_name_H-M   'P 1'
_cell_length_a   8.07270600
_cell_length_b   9.25871800
_cell_length_c   12.08983300
_cell_angle_alpha   90.00000000
_cell_angle_beta   90.00000000
_cell_angle_gamma   90.00000000
_symmetry_Int_Tables_number   1
_chemical_formula_structural   Tb2Ho3GaBi2
_chemical_formula_sum   'Tb8 Ho12 Ga4 Bi8'
_cell_volume   903.62927990
_cell_formula_units_Z   4
loop_
 _symmetry_equiv_pos_site_id
 _symmetry_equiv_pos_as_xyz
  1  'x, y, z'
loop_
 _atom_site_type_symbol
 _atom_site_label
 _atom_site_symmetry_multiplicity
 _atom_site_fract_x
 _atom_site_fract_y
 _atom_site_fract_z
 _atom_site_occupancy
  Tb  Tb0  1  0.668435  0.750000  0.715633  1
  Tb  Tb1  1  0.331565  0.250000  0.284367  1
  Tb  Tb2  1  0.168435  0.250000  0.784367  1
  Tb  Tb3  1  0.831565  0.750000  0.215633  1
  Tb  Tb4  1  0.143968  0.750000  0.794595  1
  Tb  Tb5  1  0.856032  0.250000  0.205405  1
  Tb  Tb6  1  0.643968  0.250000  0.705405  1
  Tb  Tb7  1  0.356032  0.750000  0.294595  1
  Ho  Ho8  1  0.539899  0.750000  0.002337  1
  Ho  Ho9  1  0.460101  0.250000  0.997663  1
  Ho  Ho10  1  0.039899  0.250000  0.497663  1
  Ho  Ho11  1  0.960101  0.750000  0.502337  1
  Ho  Ho12  1  0.819308  0.446962  0.936168  1
  Ho  Ho13  1  0.180692  0.553038  0.063832  1
  Ho  Ho14  1  0.319308  0.553038  0.563832  1
  Ho  Ho15  1  0.180692  0.946962  0.063832  1
  Ho  Ho16  1  0.680692  0.446962  0.436168  1
  Ho  Ho17  1  0.819308  0.053038  0.936168  1
  Ho  Ho18  1  0.680692  0.053038  0.436168  1
  Ho  Ho19  1  0.319308  0.946962  0.563832  1
  Ga  Ga20  1  0.908137  0.750000  0.975393  1
  Ga  Ga21  1  0.091863  0.250000  0.024607  1
  Ga  Ga22  1  0.408137  0.250000  0.524607  1
  Ga  Ga23  1  0.591863  0.750000  0.475393  1
  Bi  Bi24  1  0.935690  0.008725  0.673585  1
  Bi  Bi25  1  0.064310  0.991275  0.326415  1
  Bi  Bi26  1  0.435690  0.991275  0.826415  1
  Bi  Bi27  1  0.064310  0.508725  0.326415  1
  Bi  Bi28  1  0.564310  0.008725  0.173585  1
  Bi  Bi29  1  0.935690  0.491275  0.673585  1
  Bi  Bi30  1  0.564310  0.491275  0.173585  1
  Bi  Bi31  1  0.435690  0.508725  0.826415  1
