# generated using pymatgen
data_Ho7Er(TcBr4)2
_symmetry_space_group_name_H-M   'P 1'
_cell_length_a   8.95234336
_cell_length_b   8.94571076
_cell_length_c   6.58356556
_cell_angle_alpha   89.43976209
_cell_angle_beta   89.50135287
_cell_angle_gamma   89.35316693
_symmetry_Int_Tables_number   1
_chemical_formula_structural   Ho7Er(TcBr4)2
_chemical_formula_sum   'Ho7 Er1 Tc2 Br8'
_cell_volume   527.16706993
_cell_formula_units_Z   1
loop_
 _symmetry_equiv_pos_site_id
 _symmetry_equiv_pos_as_xyz
  1  'x, y, z'
loop_
 _atom_site_type_symbol
 _atom_site_label
 _atom_site_symmetry_multiplicity
 _atom_site_fract_x
 _atom_site_fract_y
 _atom_site_fract_z
 _atom_site_occupancy
  Ho  Ho0  1  0.247285  0.901044  0.012636  1
  Ho  Ho1  1  0.752345  0.098122  0.987451  1
  Ho  Ho2  1  0.098221  0.751751  0.487391  1
  Ho  Ho3  1  0.901361  0.247755  0.512891  1
  Ho  Ho4  1  0.752926  0.902442  0.507358  1
  Ho  Ho5  1  0.246865  0.096863  0.492824  1
  Ho  Ho6  1  0.097135  0.247399  0.992752  1
  Er  Er7  1  0.903554  0.754346  0.007247  1
  Tc  Tc8  1  0.994070  0.005818  0.250056  1
  Tc  Tc9  1  0.005723  0.993863  0.750094  1
  Br  Br10  1  0.419590  0.817809  0.408900  1
  Br  Br11  1  0.580278  0.182035  0.591449  1
  Br  Br12  1  0.181155  0.580452  0.091279  1
  Br  Br13  1  0.818442  0.420750  0.908613  1
  Br  Br14  1  0.414935  0.190383  0.093815  1
  Br  Br15  1  0.585774  0.808986  0.906771  1
  Br  Br16  1  0.809847  0.585217  0.404625  1
  Br  Br17  1  0.190494  0.414966  0.593849  1
