# generated using pymatgen
data_DyTh3(PdPt3)3
_symmetry_space_group_name_H-M   'P 1'
_cell_length_a   5.95312736
_cell_length_b   5.95071554
_cell_length_c   9.76734600
_cell_angle_alpha   90.09120973
_cell_angle_beta   89.88326455
_cell_angle_gamma   120.20117503
_symmetry_Int_Tables_number   1
_chemical_formula_structural   DyTh3(PdPt3)3
_chemical_formula_sum   'Dy1 Th3 Pd3 Pt9'
_cell_volume   299.04504376
_cell_formula_units_Z   1
loop_
 _symmetry_equiv_pos_site_id
 _symmetry_equiv_pos_as_xyz
  1  'x, y, z'
loop_
 _atom_site_type_symbol
 _atom_site_label
 _atom_site_symmetry_multiplicity
 _atom_site_fract_x
 _atom_site_fract_y
 _atom_site_fract_z
 _atom_site_occupancy
  Dy  Dy0  1  0.999674  0.000476  0.499487  1
  Th  Th1  1  0.999906  0.000081  0.000103  1
  Th  Th2  1  0.333112  0.666763  0.253253  1
  Th  Th3  1  0.667206  0.332601  0.746768  1
  Pd  Pd4  1  0.999971  0.499986  0.500408  1
  Pd  Pd5  1  0.500045  0.500041  0.999301  1
  Pd  Pd6  1  0.173939  0.825269  0.749421  1
  Pt  Pt7  1  0.500014  0.500074  0.501072  1
  Pt  Pt8  1  0.500181  0.000146  0.500459  1
  Pt  Pt9  1  0.499990  0.000154  0.999446  1
  Pt  Pt10  1  0.999878  0.499928  0.999489  1
  Pt  Pt11  1  0.825670  0.651212  0.251195  1
  Pt  Pt12  1  0.350636  0.175499  0.251897  1
  Pt  Pt13  1  0.826397  0.174436  0.250658  1
  Pt  Pt14  1  0.174424  0.349087  0.748932  1
  Pt  Pt15  1  0.648957  0.824248  0.748109  1
