# generated using pymatgen
data_La10Pr10Si15Os
_symmetry_space_group_name_H-M   'P 1'
_cell_length_a   7.96757427
_cell_length_b   7.98977023
_cell_length_c   15.39105073
_cell_angle_alpha   90.25209162
_cell_angle_beta   89.81215157
_cell_angle_gamma   90.08343582
_symmetry_Int_Tables_number   1
_chemical_formula_structural   La10Pr10Si15Os
_chemical_formula_sum   'La10 Pr10 Si15 Os1'
_cell_volume   979.76447966
_cell_formula_units_Z   1
loop_
 _symmetry_equiv_pos_site_id
 _symmetry_equiv_pos_as_xyz
  1  'x, y, z'
loop_
 _atom_site_type_symbol
 _atom_site_label
 _atom_site_symmetry_multiplicity
 _atom_site_fract_x
 _atom_site_fract_y
 _atom_site_fract_z
 _atom_site_occupancy
  La  La0  1  0.304881  0.306080  0.998752  1
  La  La1  1  0.192068  0.808765  0.249226  1
  La  La2  1  0.828257  0.188661  0.749028  1
  La  La3  1  0.695634  0.687409  0.502045  1
  La  La4  1  0.370312  0.013199  0.450137  1
  La  La5  1  0.483217  0.882029  0.697153  1
  La  La6  1  0.510618  0.124125  0.198403  1
  La  La7  1  0.876190  0.488027  0.300478  1
  La  La8  1  0.128001  0.502503  0.797921  1
  La  La9  1  0.626320  0.988015  0.948774  1
  Pr  Pr10  1  0.007751  0.375347  0.552139  1
  Pr  Pr11  1  0.988254  0.623898  0.050947  1
  Pr  Pr12  1  0.132890  0.984665  0.873807  1
  Pr  Pr13  1  0.515478  0.630572  0.125802  1
  Pr  Pr14  1  0.473185  0.360138  0.628051  1
  Pr  Pr15  1  0.627275  0.514384  0.874259  1
  Pr  Pr16  1  0.374418  0.485071  0.373658  1
  Pr  Pr17  1  0.873519  0.018277  0.376289  1
  Pr  Pr18  1  0.984083  0.126363  0.124104  1
  Pr  Pr19  1  0.025142  0.881807  0.626193  1
  Si  Si20  1  0.333313  0.695978  0.950522  1
  Si  Si21  1  0.664969  0.300867  0.451626  1
  Si  Si22  1  0.699151  0.336233  0.050535  1
  Si  Si23  1  0.301814  0.667011  0.547887  1
  Si  Si24  1  0.804063  0.832668  0.201974  1
  Si  Si25  1  0.166637  0.199646  0.298422  1
  Si  Si26  1  0.833383  0.800135  0.800245  1
  Si  Si27  1  0.287316  0.920113  0.057530  1
  Si  Si28  1  0.581524  0.787686  0.309822  1
  Si  Si29  1  0.422677  0.208882  0.810707  1
  Si  Si30  1  0.779931  0.584333  0.691876  1
  Si  Si31  1  0.211454  0.420876  0.190913  1
  Si  Si32  1  0.704361  0.076071  0.557480  1
  Si  Si33  1  0.918339  0.289341  0.942767  1
  Si  Si34  1  0.080970  0.714063  0.441786  1
  Os  Os35  1  0.192603  0.176764  0.698744  1
