# generated using pymatgen
data_LiUBr6
_symmetry_space_group_name_H-M   'P 1'
_cell_length_a   7.38039359
_cell_length_b   7.38039395
_cell_length_c   6.97825876
_cell_angle_alpha   79.35799669
_cell_angle_beta   79.35799901
_cell_angle_gamma   116.86590872
_symmetry_Int_Tables_number   1
_chemical_formula_structural   LiUBr6
_chemical_formula_sum   'Li1 U1 Br6'
_cell_volume   317.28190443
_cell_formula_units_Z   1
loop_
 _symmetry_equiv_pos_site_id
 _symmetry_equiv_pos_as_xyz
  1  'x, y, z'
loop_
 _atom_site_type_symbol
 _atom_site_label
 _atom_site_symmetry_multiplicity
 _atom_site_fract_x
 _atom_site_fract_y
 _atom_site_fract_z
 _atom_site_occupancy
  Li  Li0  1  0.886244  0.113756  0.500000  1
  U  U1  1  0.994832  0.005168  0.000000  1
  Br  Br2  1  0.229986  0.247282  0.207821  1
  Br  Br3  1  0.752718  0.770014  0.792179  1
  Br  Br4  1  0.036059  0.352548  0.732322  1
  Br  Br5  1  0.348316  0.061607  0.751363  1
  Br  Br6  1  0.938393  0.651684  0.248637  1
  Br  Br7  1  0.647452  0.963941  0.267678  1
