# generated using pymatgen
data_Sc2Al9Ni2Os
_symmetry_space_group_name_H-M   'P 1'
_cell_length_a   7.32770423
_cell_length_b   7.32770400
_cell_length_c   9.14755000
_cell_angle_alpha   90.00000000
_cell_angle_beta   90.00000000
_cell_angle_gamma   118.55897642
_symmetry_Int_Tables_number   1
_chemical_formula_structural   Sc2Al9Ni2Os
_chemical_formula_sum   'Sc4 Al18 Ni4 Os2'
_cell_volume   431.41588210
_cell_formula_units_Z   2
loop_
 _symmetry_equiv_pos_site_id
 _symmetry_equiv_pos_as_xyz
  1  'x, y, z'
loop_
 _atom_site_type_symbol
 _atom_site_label
 _atom_site_symmetry_multiplicity
 _atom_site_fract_x
 _atom_site_fract_y
 _atom_site_fract_z
 _atom_site_occupancy
  Sc  Sc0  1  0.993196  0.682453  0.250000  1
  Sc  Sc1  1  0.006804  0.317547  0.750000  1
  Sc  Sc2  1  0.682453  0.993196  0.250000  1
  Sc  Sc3  1  0.317547  0.006804  0.750000  1
  Al  Al4  1  0.994296  0.339513  0.076599  1
  Al  Al5  1  0.005704  0.660487  0.923401  1
  Al  Al6  1  0.005704  0.660487  0.576599  1
  Al  Al7  1  0.339513  0.994296  0.423401  1
  Al  Al8  1  0.994296  0.339513  0.423401  1
  Al  Al9  1  0.660487  0.005704  0.576599  1
  Al  Al10  1  0.660487  0.005704  0.923401  1
  Al  Al11  1  0.339513  0.994296  0.076599  1
  Al  Al12  1  0.343131  0.566534  0.250000  1
  Al  Al13  1  0.656869  0.433466  0.750000  1
  Al  Al14  1  0.566534  0.343131  0.250000  1
  Al  Al15  1  0.433466  0.656869  0.750000  1
  Al  Al16  1  0.333113  0.333113  0.552422  1
  Al  Al17  1  0.666887  0.666887  0.447578  1
  Al  Al18  1  0.666887  0.666887  0.052422  1
  Al  Al19  1  0.333113  0.333113  0.947578  1
  Al  Al20  1  0.135496  0.135496  0.250000  1
  Al  Al21  1  0.864504  0.864504  0.750000  1
  Ni  Ni22  1  0.670434  0.329566  0.000000  1
  Ni  Ni23  1  0.329566  0.670434  0.000000  1
  Ni  Ni24  1  0.329566  0.670434  0.500000  1
  Ni  Ni25  1  0.670434  0.329566  0.500000  1
  Os  Os26  1  0.000000  0.000000  0.000000  1
  Os  Os27  1  0.000000  0.000000  0.500000  1
