# generated using pymatgen
data_PrDy2PtO7
_symmetry_space_group_name_H-M   'P 1'
_cell_length_a   6.48095892
_cell_length_b   6.48095822
_cell_length_c   7.53478100
_cell_angle_alpha   90.00000000
_cell_angle_beta   90.00000000
_cell_angle_gamma   109.60319908
_symmetry_Int_Tables_number   1
_chemical_formula_structural   PrDy2PtO7
_chemical_formula_sum   'Pr2 Dy4 Pt2 O14'
_cell_volume   298.13837414
_cell_formula_units_Z   2
loop_
 _symmetry_equiv_pos_site_id
 _symmetry_equiv_pos_as_xyz
  1  'x, y, z'
loop_
 _atom_site_type_symbol
 _atom_site_label
 _atom_site_symmetry_multiplicity
 _atom_site_fract_x
 _atom_site_fract_y
 _atom_site_fract_z
 _atom_site_occupancy
  Pr  Pr0  1  0.000000  0.000000  0.500000  1
  Pr  Pr1  1  0.000000  0.000000  0.000000  1
  Dy  Dy2  1  0.484210  0.932947  0.750000  1
  Dy  Dy3  1  0.515790  0.067053  0.250000  1
  Dy  Dy4  1  0.932947  0.484210  0.750000  1
  Dy  Dy5  1  0.067053  0.515790  0.250000  1
  Pt  Pt6  1  0.500000  0.500000  0.500000  1
  Pt  Pt7  1  0.500000  0.500000  0.000000  1
  O  O8  1  0.602452  0.602452  0.750000  1
  O  O9  1  0.397548  0.397548  0.250000  1
  O  O10  1  0.838207  0.121077  0.750000  1
  O  O11  1  0.161793  0.878923  0.250000  1
  O  O12  1  0.121077  0.838207  0.750000  1
  O  O13  1  0.878923  0.161793  0.250000  1
  O  O14  1  0.438366  0.177293  0.965440  1
  O  O15  1  0.561634  0.822707  0.465440  1
  O  O16  1  0.177293  0.438366  0.965440  1
  O  O17  1  0.822707  0.561634  0.465440  1
  O  O18  1  0.438366  0.177293  0.534560  1
  O  O19  1  0.561634  0.822707  0.034560  1
  O  O20  1  0.822707  0.561634  0.034560  1
  O  O21  1  0.177293  0.438366  0.534560  1
