# generated using pymatgen
data_RbCeDySe6
_symmetry_space_group_name_H-M   'P 1'
_cell_length_a   11.88295872
_cell_length_b   11.88295823
_cell_length_c   11.88295800
_cell_angle_alpha   159.52543786
_cell_angle_beta   152.70649871
_cell_angle_gamma   34.36110179
_symmetry_Int_Tables_number   1
_chemical_formula_structural   RbCeDySe6
_chemical_formula_sum   'Rb1 Ce1 Dy1 Se6'
_cell_volume   268.87510394
_cell_formula_units_Z   1
loop_
 _symmetry_equiv_pos_site_id
 _symmetry_equiv_pos_as_xyz
  1  'x, y, z'
loop_
 _atom_site_type_symbol
 _atom_site_label
 _atom_site_symmetry_multiplicity
 _atom_site_fract_x
 _atom_site_fract_y
 _atom_site_fract_z
 _atom_site_occupancy
  Rb  Rb0  1  0.998152  0.998152  0.000000  1
  Ce  Ce1  1  0.688918  0.188918  0.500000  1
  Dy  Dy2  1  0.314729  0.814729  0.500000  1
  Se  Se3  1  0.173352  0.389747  0.783606  1
  Se  Se4  1  0.224600  0.224600  0.000000  1
  Se  Se5  1  0.396473  0.609791  0.786681  1
  Se  Se6  1  0.606141  0.389747  0.216394  1
  Se  Se7  1  0.823111  0.609791  0.213319  1
  Se  Se8  1  0.774521  0.774521  0.000000  1
