# generated using pymatgen
data_K4MnAl3I16
_symmetry_space_group_name_H-M   'P 1'
_cell_length_a   8.25742708
_cell_length_b   8.62453602
_cell_length_c   16.76627130
_cell_angle_alpha   85.78588372
_cell_angle_beta   91.58461442
_cell_angle_gamma   89.93490499
_symmetry_Int_Tables_number   1
_chemical_formula_structural   K4MnAl3I16
_chemical_formula_sum   'K4 Mn1 Al3 I16'
_cell_volume   1190.34518714
_cell_formula_units_Z   1
loop_
 _symmetry_equiv_pos_site_id
 _symmetry_equiv_pos_as_xyz
  1  'x, y, z'
loop_
 _atom_site_type_symbol
 _atom_site_label
 _atom_site_symmetry_multiplicity
 _atom_site_fract_x
 _atom_site_fract_y
 _atom_site_fract_z
 _atom_site_occupancy
  K  K0  1  0.501018  0.251848  0.637950  1
  K  K1  1  0.990086  0.745521  0.861283  1
  K  K2  1  0.502252  0.744407  0.360061  1
  K  K3  1  0.997229  0.255529  0.137145  1
  Mn  Mn4  1  0.138081  0.249696  0.859362  1
  Al  Al5  1  0.360147  0.245809  0.360455  1
  Al  Al6  1  0.857146  0.752745  0.140270  1
  Al  Al7  1  0.644049  0.752594  0.639179  1
  I  I8  1  0.879696  0.128647  0.919832  1
  I  I9  1  0.365315  0.855131  0.588806  1
  I  I10  1  0.136432  0.853171  0.097000  1
  I  I11  1  0.638713  0.139320  0.409434  1
  I  I12  1  0.387075  0.411662  0.227398  1
  I  I13  1  0.889710  0.587070  0.273737  1
  I  I14  1  0.620757  0.585509  0.772212  1
  I  I15  1  0.142898  0.426033  0.727968  1
  I  I16  1  0.661285  0.978156  0.159654  1
  I  I17  1  0.160409  0.023449  0.338628  1
  I  I18  1  0.316060  0.016960  0.826219  1
  I  I19  1  0.840403  0.977329  0.663065  1
  I  I20  1  0.250716  0.421062  0.464855  1
  I  I21  1  0.737974  0.581004  0.033969  1
  I  I22  1  0.757563  0.578125  0.535670  1
  I  I23  1  0.224989  0.439220  0.965850  1
