# generated using pymatgen
data_Sc8V11Si16Ir
_symmetry_space_group_name_H-M   'P 1'
_cell_length_a   6.63011029
_cell_length_b   6.63011029
_cell_length_c   12.25800357
_cell_angle_alpha   90.12875448
_cell_angle_beta   89.87124552
_cell_angle_gamma   89.56812226
_symmetry_Int_Tables_number   1
_chemical_formula_structural   Sc8V11Si16Ir
_chemical_formula_sum   'Sc8 V11 Si16 Ir1'
_cell_volume   538.82371550
_cell_formula_units_Z   1
loop_
 _symmetry_equiv_pos_site_id
 _symmetry_equiv_pos_as_xyz
  1  'x, y, z'
loop_
 _atom_site_type_symbol
 _atom_site_label
 _atom_site_symmetry_multiplicity
 _atom_site_fract_x
 _atom_site_fract_y
 _atom_site_fract_z
 _atom_site_occupancy
  Sc  Sc0  1  0.999598  0.663863  0.029035  1
  Sc  Sc1  1  0.836868  0.499999  0.279316  1
  Sc  Sc2  1  0.162288  0.498602  0.779296  1
  Sc  Sc3  1  0.499999  0.836868  0.720684  1
  Sc  Sc4  1  0.498602  0.162288  0.220704  1
  Sc  Sc5  1  0.999123  0.337400  0.529736  1
  Sc  Sc6  1  0.663863  0.999598  0.970965  1
  Sc  Sc7  1  0.337400  0.999123  0.470264  1
  V  V8  1  0.170562  0.833071  0.247967  1
  V  V9  1  0.833071  0.170562  0.752033  1
  V  V10  1  0.668433  0.668433  0.500000  1
  V  V11  1  0.999193  0.153188  0.128083  1
  V  V12  1  0.344353  0.505390  0.375334  1
  V  V13  1  0.666638  0.495066  0.875061  1
  V  V14  1  0.505390  0.344353  0.624666  1
  V  V15  1  0.495066  0.666638  0.124939  1
  V  V16  1  0.993014  0.843149  0.626064  1
  V  V17  1  0.153188  0.999193  0.871917  1
  V  V18  1  0.843149  0.993014  0.373936  1
  Si  Si19  1  0.289058  0.960976  0.062935  1
  Si  Si20  1  0.539378  0.794753  0.315766  1
  Si  Si21  1  0.459819  0.205730  0.815370  1
  Si  Si22  1  0.794753  0.539378  0.684234  1
  Si  Si23  1  0.205730  0.459819  0.184630  1
  Si  Si24  1  0.705915  0.040805  0.565605  1
  Si  Si25  1  0.960976  0.289058  0.937065  1
  Si  Si26  1  0.040805  0.705915  0.434395  1
  Si  Si27  1  0.702771  0.374443  0.070080  1
  Si  Si28  1  0.130716  0.202731  0.319655  1
  Si  Si29  1  0.869388  0.795602  0.818465  1
  Si  Si30  1  0.202731  0.130716  0.680345  1
  Si  Si31  1  0.795602  0.869388  0.181535  1
  Si  Si32  1  0.296265  0.629987  0.569432  1
  Si  Si33  1  0.374443  0.702771  0.929920  1
  Si  Si34  1  0.629987  0.296265  0.430568  1
  Ir  Ir35  1  0.331868  0.331868  0.000000  1
