# generated using pymatgen
data_Hf2Mg3Sc(TaN2)6
_symmetry_space_group_name_H-M   'P 1'
_cell_length_a   5.29884300
_cell_length_b   5.29884355
_cell_length_c   10.58544200
_cell_angle_alpha   90.00000000
_cell_angle_beta   90.00000000
_cell_angle_gamma   120.00000278
_symmetry_Int_Tables_number   1
_chemical_formula_structural   Hf2Mg3Sc(TaN2)6
_chemical_formula_sum   'Hf2 Mg3 Sc1 Ta6 N12'
_cell_volume   257.39598350
_cell_formula_units_Z   1
loop_
 _symmetry_equiv_pos_site_id
 _symmetry_equiv_pos_as_xyz
  1  'x, y, z'
loop_
 _atom_site_type_symbol
 _atom_site_label
 _atom_site_symmetry_multiplicity
 _atom_site_fract_x
 _atom_site_fract_y
 _atom_site_fract_z
 _atom_site_occupancy
  Hf  Hf0  1  0.000000  0.000000  0.500000  1
  Hf  Hf1  1  0.000000  0.000000  0.000000  1
  Mg  Mg2  1  0.333333  0.666667  0.500000  1
  Mg  Mg3  1  0.666667  0.333333  0.500000  1
  Mg  Mg4  1  0.666667  0.333333  0.000000  1
  Sc  Sc5  1  0.333333  0.666667  0.000000  1
  Ta  Ta6  1  0.999912  0.337115  0.250083  1
  Ta  Ta7  1  0.662885  0.000088  0.749917  1
  Ta  Ta8  1  0.337203  0.337115  0.749917  1
  Ta  Ta9  1  0.662885  0.662797  0.250083  1
  Ta  Ta10  1  0.337203  0.000088  0.250083  1
  Ta  Ta11  1  0.999912  0.662797  0.749917  1
  N  N12  1  0.667029  0.667150  0.623830  1
  N  N13  1  0.669042  0.665785  0.876224  1
  N  N14  1  0.334215  0.330958  0.123776  1
  N  N15  1  0.332850  0.332971  0.376170  1
  N  N16  1  0.334215  0.003257  0.876224  1
  N  N17  1  0.332850  0.999878  0.623830  1
  N  N18  1  0.000122  0.667150  0.376170  1
  N  N19  1  0.996743  0.665785  0.123776  1
  N  N20  1  0.669042  0.003257  0.123776  1
  N  N21  1  0.667029  0.999878  0.376170  1
  N  N22  1  0.996743  0.330958  0.876224  1
  N  N23  1  0.000122  0.332971  0.623830  1
