# generated using pymatgen
data_Er3LuGa18(PtRh2)2
_symmetry_space_group_name_H-M   'P 1'
_cell_length_a   7.59826402
_cell_length_b   7.59794137
_cell_length_c   9.45752800
_cell_angle_alpha   90.00000000
_cell_angle_beta   90.00000000
_cell_angle_gamma   119.89093935
_symmetry_Int_Tables_number   1
_chemical_formula_structural   Er3LuGa18(PtRh2)2
_chemical_formula_sum   'Er3 Lu1 Ga18 Pt2 Rh4'
_cell_volume   473.36354992
_cell_formula_units_Z   1
loop_
 _symmetry_equiv_pos_site_id
 _symmetry_equiv_pos_as_xyz
  1  'x, y, z'
loop_
 _atom_site_type_symbol
 _atom_site_label
 _atom_site_symmetry_multiplicity
 _atom_site_fract_x
 _atom_site_fract_y
 _atom_site_fract_z
 _atom_site_occupancy
  Er  Er0  1  0.996701  0.673413  0.250000  1
  Er  Er1  1  0.003228  0.326496  0.750000  1
  Er  Er2  1  0.673353  0.996647  0.250000  1
  Lu  Lu3  1  0.326543  0.003256  0.750000  1
  Ga  Ga4  1  0.336179  0.550191  0.250000  1
  Ga  Ga5  1  0.663576  0.449486  0.750000  1
  Ga  Ga6  1  0.550183  0.336162  0.250000  1
  Ga  Ga7  1  0.449788  0.664037  0.750000  1
  Ga  Ga8  1  0.997982  0.339256  0.082176  1
  Ga  Ga9  1  0.002454  0.661266  0.917786  1
  Ga  Ga10  1  0.002454  0.661266  0.582214  1
  Ga  Ga11  1  0.339238  0.997987  0.418122  1
  Ga  Ga12  1  0.997982  0.339256  0.417824  1
  Ga  Ga13  1  0.660307  0.001974  0.582226  1
  Ga  Ga14  1  0.660307  0.001974  0.917774  1
  Ga  Ga15  1  0.339238  0.997987  0.081878  1
  Ga  Ga16  1  0.336494  0.336050  0.570067  1
  Ga  Ga17  1  0.663541  0.663541  0.430095  1
  Ga  Ga18  1  0.663541  0.663541  0.069905  1
  Ga  Ga19  1  0.336494  0.336050  0.929933  1
  Ga  Ga20  1  0.136267  0.136227  0.250000  1
  Ga  Ga21  1  0.863975  0.863799  0.750000  1
  Pt  Pt22  1  0.000214  0.000072  0.999718  1
  Pt  Pt23  1  0.000214  0.000072  0.500282  1
  Rh  Rh24  1  0.671110  0.328671  0.999717  1
  Rh  Rh25  1  0.328763  0.671325  0.999722  1
  Rh  Rh26  1  0.328763  0.671325  0.500278  1
  Rh  Rh27  1  0.671110  0.328671  0.500283  1
