# generated using pymatgen
data_Tb4Fe10P12Ir3Rh7
_symmetry_space_group_name_H-M   'P 1'
_cell_length_a   3.80619200
_cell_length_b   10.44473527
_cell_length_c   12.26644340
_cell_angle_alpha   89.89444397
_cell_angle_beta   90.00000000
_cell_angle_gamma   90.00000000
_symmetry_Int_Tables_number   1
_chemical_formula_structural   Tb4Fe10P12Ir3Rh7
_chemical_formula_sum   'Tb4 Fe10 P12 Ir3 Rh7'
_cell_volume   487.64755512
_cell_formula_units_Z   1
loop_
 _symmetry_equiv_pos_site_id
 _symmetry_equiv_pos_as_xyz
  1  'x, y, z'
loop_
 _atom_site_type_symbol
 _atom_site_label
 _atom_site_symmetry_multiplicity
 _atom_site_fract_x
 _atom_site_fract_y
 _atom_site_fract_z
 _atom_site_occupancy
  Tb  Tb0  1  0.250000  0.583607  0.712467  1
  Tb  Tb1  1  0.250000  0.916663  0.212872  1
  Tb  Tb2  1  0.750000  0.424050  0.290393  1
  Tb  Tb3  1  0.750000  0.075990  0.790286  1
  Fe  Fe4  1  0.750000  0.774345  0.829148  1
  Fe  Fe5  1  0.750000  0.726003  0.328570  1
  Fe  Fe6  1  0.250000  0.874375  0.696926  1
  Fe  Fe7  1  0.250000  0.625978  0.196611  1
  Fe  Fe8  1  0.750000  0.120017  0.302127  1
  Fe  Fe9  1  0.750000  0.379734  0.801927  1
  Fe  Fe10  1  0.250000  0.459203  0.935446  1
  Fe  Fe11  1  0.250000  0.040902  0.435513  1
  Fe  Fe12  1  0.750000  0.540917  0.064274  1
  Fe  Fe13  1  0.750000  0.959139  0.564658  1
  P  P14  1  0.250000  0.439370  0.111632  1
  P  P15  1  0.250000  0.060461  0.611623  1
  P  P16  1  0.750000  0.569779  0.887401  1
  P  P17  1  0.750000  0.929943  0.387801  1
  P  P18  1  0.250000  0.271938  0.863232  1
  P  P19  1  0.250000  0.228115  0.363412  1
  P  P20  1  0.750000  0.726331  0.146449  1
  P  P21  1  0.750000  0.774178  0.646659  1
  P  P22  1  0.250000  0.610747  0.376640  1
  P  P23  1  0.250000  0.889342  0.876480  1
  P  P24  1  0.750000  0.402709  0.618288  1
  P  P25  1  0.750000  0.096921  0.118890  1
  Ir  Ir26  1  0.750000  0.900696  0.020961  1
  Ir  Ir27  1  0.250000  0.228932  0.173954  1
  Ir  Ir28  1  0.250000  0.270986  0.673627  1
  Rh  Rh29  1  0.250000  0.707887  0.984356  1
  Rh  Rh30  1  0.250000  0.792531  0.484610  1
  Rh  Rh31  1  0.750000  0.284966  0.008799  1
  Rh  Rh32  1  0.750000  0.213949  0.508813  1
  Rh  Rh33  1  0.250000  0.412301  0.477870  1
  Rh  Rh34  1  0.250000  0.087645  0.976973  1
  Rh  Rh35  1  0.750000  0.599349  0.520308  1
