# generated using pymatgen
data_La19PrIr11Rh
_symmetry_space_group_name_H-M   'P 1'
_cell_length_a   11.38868200
_cell_length_b   11.38800400
_cell_length_c   6.71220400
_cell_angle_alpha   90.00000000
_cell_angle_beta   90.00000000
_cell_angle_gamma   90.00147914
_symmetry_Int_Tables_number   1
_chemical_formula_structural   La19PrIr11Rh
_chemical_formula_sum   'La19 Pr1 Ir11 Rh1'
_cell_volume   870.53497612
_cell_formula_units_Z   1
loop_
 _symmetry_equiv_pos_site_id
 _symmetry_equiv_pos_as_xyz
  1  'x, y, z'
loop_
 _atom_site_type_symbol
 _atom_site_label
 _atom_site_symmetry_multiplicity
 _atom_site_fract_x
 _atom_site_fract_y
 _atom_site_fract_z
 _atom_site_occupancy
  La  La0  1  0.292386  0.091021  0.386765  1
  La  La1  1  0.291438  0.908689  0.884144  1
  La  La2  1  0.708562  0.091311  0.884144  1
  La  La3  1  0.707614  0.908979  0.386765  1
  La  La4  1  0.591245  0.791380  0.884059  1
  La  La5  1  0.590899  0.207791  0.387078  1
  La  La6  1  0.409101  0.792209  0.387078  1
  La  La7  1  0.408755  0.208620  0.884059  1
  La  La8  1  0.207848  0.408996  0.614508  1
  La  La9  1  0.207917  0.591754  0.115107  1
  La  La10  1  0.792083  0.408246  0.115107  1
  La  La11  1  0.792152  0.591004  0.614508  1
  La  La12  1  0.908172  0.707850  0.115046  1
  La  La13  1  0.908877  0.292331  0.614834  1
  La  La14  1  0.091123  0.707669  0.614834  1
  La  La15  1  0.091828  0.292150  0.115046  1
  La  La16  1  0.000000  0.000000  0.499824  1
  La  La17  1  0.000000  0.000000  0.000133  1
  La  La18  1  0.500000  0.500000  0.000146  1
  Pr  Pr19  1  0.500000  0.500000  0.499806  1
  Ir  Ir20  1  0.844935  0.152225  0.250444  1
  Ir  Ir21  1  0.846451  0.846543  0.749168  1
  Ir  Ir22  1  0.153549  0.153457  0.749168  1
  Ir  Ir23  1  0.155065  0.847775  0.250444  1
  Ir  Ir24  1  0.653660  0.346190  0.749647  1
  Ir  Ir25  1  0.652479  0.655275  0.249965  1
  Ir  Ir26  1  0.347521  0.344725  0.249965  1
  Ir  Ir27  1  0.346340  0.653810  0.749647  1
  Ir  Ir28  1  0.500000  0.000000  0.623001  1
  Ir  Ir29  1  0.000000  0.500000  0.881546  1
  Ir  Ir30  1  0.000000  0.500000  0.380368  1
  Rh  Rh31  1  0.500000  0.000000  0.113650  1
