# generated using pymatgen
data_Nd2YNp5H24
_symmetry_space_group_name_H-M   'P 1'
_cell_length_a   6.71540300
_cell_length_b   6.70857400
_cell_length_c   6.67360200
_cell_angle_alpha   90.00000000
_cell_angle_beta   90.00000000
_cell_angle_gamma   90.00000000
_symmetry_Int_Tables_number   1
_chemical_formula_structural   Nd2YNp5H24
_chemical_formula_sum   'Nd2 Y1 Np5 H24'
_cell_volume   300.65096193
_cell_formula_units_Z   1
loop_
 _symmetry_equiv_pos_site_id
 _symmetry_equiv_pos_as_xyz
  1  'x, y, z'
loop_
 _atom_site_type_symbol
 _atom_site_label
 _atom_site_symmetry_multiplicity
 _atom_site_fract_x
 _atom_site_fract_y
 _atom_site_fract_z
 _atom_site_occupancy
  Nd  Nd0  1  0.251252  0.000000  0.500000  1
  Nd  Nd1  1  0.748748  0.000000  0.500000  1
  Y  Y2  1  0.500000  0.500000  0.500000  1
  Np  Np3  1  0.000000  0.000000  0.000000  1
  Np  Np4  1  0.000000  0.500000  0.251044  1
  Np  Np5  1  0.000000  0.500000  0.748956  1
  Np  Np6  1  0.500000  0.748880  0.000000  1
  Np  Np7  1  0.500000  0.251120  0.000000  1
  H  H8  1  0.000000  0.159635  0.294483  1
  H  H9  1  0.500000  0.203711  0.661207  1
  H  H10  1  0.500000  0.796289  0.338793  1
  H  H11  1  0.810268  0.649190  0.500000  1
  H  H12  1  0.189732  0.649190  0.500000  1
  H  H13  1  0.344125  0.500000  0.806587  1
  H  H14  1  0.655875  0.500000  0.806587  1
  H  H15  1  0.307636  0.000000  0.147940  1
  H  H16  1  0.155154  0.303194  0.000000  1
  H  H17  1  0.844846  0.696806  0.000000  1
  H  H18  1  0.307636  0.000000  0.852060  1
  H  H19  1  0.844846  0.303194  0.000000  1
  H  H20  1  0.692364  0.000000  0.147940  1
  H  H21  1  0.692364  0.000000  0.852060  1
  H  H22  1  0.155154  0.696806  0.000000  1
  H  H23  1  0.000000  0.840365  0.705517  1
  H  H24  1  0.000000  0.159635  0.705517  1
  H  H25  1  0.000000  0.840365  0.294483  1
  H  H26  1  0.655875  0.500000  0.193413  1
  H  H27  1  0.344125  0.500000  0.193413  1
  H  H28  1  0.810268  0.350810  0.500000  1
  H  H29  1  0.189732  0.350810  0.500000  1
  H  H30  1  0.500000  0.796289  0.661207  1
  H  H31  1  0.500000  0.203711  0.338793  1
