# generated using pymatgen
data_TbCe2Y(B4Ru)4
_symmetry_space_group_name_H-M   'P 1'
_cell_length_a   3.58853000
_cell_length_b   5.98465103
_cell_length_c   11.60135314
_cell_angle_alpha   90.16066381
_cell_angle_beta   90.00000000
_cell_angle_gamma   90.00000000
_symmetry_Int_Tables_number   1
_chemical_formula_structural   TbCe2Y(B4Ru)4
_chemical_formula_sum   'Tb1 Ce2 Y1 B16 Ru4'
_cell_volume   249.15083792
_cell_formula_units_Z   1
loop_
 _symmetry_equiv_pos_site_id
 _symmetry_equiv_pos_as_xyz
  1  'x, y, z'
loop_
 _atom_site_type_symbol
 _atom_site_label
 _atom_site_symmetry_multiplicity
 _atom_site_fract_x
 _atom_site_fract_y
 _atom_site_fract_z
 _atom_site_occupancy
  Tb  Tb0  1  0.500000  0.371832  0.648271  1
  Ce  Ce1  1  0.500000  0.128914  0.150925  1
  Ce  Ce2  1  0.500000  0.871137  0.849127  1
  Y  Y3  1  0.500000  0.628241  0.351769  1
  B  B4  1  0.000000  0.476311  0.192035  1
  B  B5  1  0.000000  0.523671  0.808098  1
  B  B6  1  0.000000  0.973502  0.309841  1
  B  B7  1  0.000000  0.026395  0.690073  1
  B  B8  1  0.000000  0.288520  0.315354  1
  B  B9  1  0.000000  0.711705  0.684596  1
  B  B10  1  0.000000  0.785635  0.186817  1
  B  B11  1  0.000000  0.214434  0.813236  1
  B  B12  1  0.000000  0.363256  0.468823  1
  B  B13  1  0.000000  0.636650  0.531087  1
  B  B14  1  0.000000  0.862428  0.031018  1
  B  B15  1  0.000000  0.137564  0.968991  1
  B  B16  1  0.000000  0.389027  0.046456  1
  B  B17  1  0.000000  0.610996  0.953608  1
  B  B18  1  0.000000  0.887291  0.454187  1
  B  B19  1  0.000000  0.112409  0.545626  1
  Ru  Ru20  1  0.500000  0.138507  0.406989  1
  Ru  Ru21  1  0.500000  0.861542  0.592912  1
  Ru  Ru22  1  0.500000  0.639510  0.093298  1
  Ru  Ru23  1  0.500000  0.360525  0.906863  1
