# generated using pymatgen
data_Dy6InCoSi
_symmetry_space_group_name_H-M   'P 1'
_cell_length_a   8.47352303
_cell_length_b   8.47352386
_cell_length_c   8.47352318
_cell_angle_alpha   113.35005544
_cell_angle_beta   110.79103847
_cell_angle_gamma   104.40009699
_symmetry_Int_Tables_number   1
_chemical_formula_structural   Dy6InCoSi
_chemical_formula_sum   'Dy12 In2 Co2 Si2'
_cell_volume   465.37465116
_cell_formula_units_Z   2
loop_
 _symmetry_equiv_pos_site_id
 _symmetry_equiv_pos_as_xyz
  1  'x, y, z'
loop_
 _atom_site_type_symbol
 _atom_site_label
 _atom_site_symmetry_multiplicity
 _atom_site_fract_x
 _atom_site_fract_y
 _atom_site_fract_z
 _atom_site_occupancy
  Dy  Dy0  1  0.442020  0.240481  0.201540  1
  Dy  Dy1  1  0.557980  0.759519  0.798460  1
  Dy  Dy2  1  0.038941  0.240481  0.798460  1
  Dy  Dy3  1  0.961059  0.759519  0.201540  1
  Dy  Dy4  1  0.188032  0.288201  0.476233  1
  Dy  Dy5  1  0.811968  0.711799  0.523767  1
  Dy  Dy6  1  0.188032  0.711799  0.899831  1
  Dy  Dy7  1  0.811968  0.288201  0.100169  1
  Dy  Dy8  1  0.305514  0.615411  0.309896  1
  Dy  Dy9  1  0.694486  0.384589  0.690104  1
  Dy  Dy10  1  0.305514  0.995618  0.690104  1
  Dy  Dy11  1  0.694486  0.004382  0.309896  1
  In  In12  1  0.500000  0.500000  0.000000  1
  In  In13  1  0.000000  0.000000  0.000000  1
  Co  Co14  1  0.107743  0.607743  0.500000  1
  Co  Co15  1  0.892257  0.392257  0.500000  1
  Si  Si16  1  0.363464  0.000000  0.363464  1
  Si  Si17  1  0.636536  0.000000  0.636536  1
