# generated using pymatgen
data_LiPr2Zn13Ni3
_symmetry_space_group_name_H-M   'P 1'
_cell_length_a   6.77417899
_cell_length_b   6.77417774
_cell_length_c   6.77417800
_cell_angle_alpha   83.40308804
_cell_angle_beta   96.59690222
_cell_angle_gamma   96.59691983
_symmetry_Int_Tables_number   1
_chemical_formula_structural   LiPr2Zn13Ni3
_chemical_formula_sum   'Li1 Pr2 Zn13 Ni3'
_cell_volume   305.12774473
_cell_formula_units_Z   1
loop_
 _symmetry_equiv_pos_site_id
 _symmetry_equiv_pos_as_xyz
  1  'x, y, z'
loop_
 _atom_site_type_symbol
 _atom_site_label
 _atom_site_symmetry_multiplicity
 _atom_site_fract_x
 _atom_site_fract_y
 _atom_site_fract_z
 _atom_site_occupancy
  Li  Li0  1  0.902374  0.097624  0.097625  1
  Pr  Pr1  1  0.662233  0.337766  0.337767  1
  Pr  Pr2  1  0.344585  0.655414  0.655414  1
  Zn  Zn3  1  0.287065  0.291797  0.001357  1
  Zn  Zn4  1  0.708203  0.712935  0.001357  1
  Zn  Zn5  1  0.344183  0.655818  0.145777  1
  Zn  Zn6  1  0.998643  0.712935  0.291796  1
  Zn  Zn7  1  0.287065  0.001357  0.291797  1
  Zn  Zn8  1  0.658579  0.859932  0.341420  1
  Zn  Zn9  1  0.140068  0.341421  0.341422  1
  Zn  Zn10  1  0.854223  0.655818  0.655817  1
  Zn  Zn11  1  0.344182  0.145776  0.655818  1
  Zn  Zn12  1  0.998643  0.291797  0.712934  1
  Zn  Zn13  1  0.708203  0.001357  0.712935  1
  Zn  Zn14  1  0.658579  0.341421  0.859932  1
  Zn  Zn15  1  0.110419  0.889581  0.889580  1
  Ni  Ni16  1  0.492785  0.000017  0.000017  1
  Ni  Ni17  1  0.999983  0.507214  0.000017  1
  Ni  Ni18  1  0.999983  0.000017  0.507215  1
