# generated using pymatgen
data_DyTm(Al5Os)4
_symmetry_space_group_name_H-M   'P 1'
_cell_length_a   6.85538968
_cell_length_b   6.85538996
_cell_length_c   9.15156200
_cell_angle_alpha   90.00000000
_cell_angle_beta   90.00000000
_cell_angle_gamma   96.49216251
_symmetry_Int_Tables_number   1
_chemical_formula_structural   DyTm(Al5Os)4
_chemical_formula_sum   'Dy1 Tm1 Al20 Os4'
_cell_volume   427.33216423
_cell_formula_units_Z   1
loop_
 _symmetry_equiv_pos_site_id
 _symmetry_equiv_pos_as_xyz
  1  'x, y, z'
loop_
 _atom_site_type_symbol
 _atom_site_label
 _atom_site_symmetry_multiplicity
 _atom_site_fract_x
 _atom_site_fract_y
 _atom_site_fract_z
 _atom_site_occupancy
  Dy  Dy0  1  0.370717  0.629283  0.250000  1
  Tm  Tm1  1  0.630150  0.369850  0.750000  1
  Al  Al2  1  0.281766  0.019774  0.750000  1
  Al  Al3  1  0.019612  0.281803  0.250000  1
  Al  Al4  1  0.718197  0.980388  0.250000  1
  Al  Al5  1  0.980226  0.718234  0.750000  1
  Al  Al6  1  0.876354  0.123646  0.951243  1
  Al  Al7  1  0.123314  0.876686  0.044507  1
  Al  Al8  1  0.876354  0.123646  0.548757  1
  Al  Al9  1  0.123314  0.876686  0.455493  1
  Al  Al10  1  0.646291  0.917171  0.750000  1
  Al  Al11  1  0.914494  0.646655  0.250000  1
  Al  Al12  1  0.353345  0.085506  0.250000  1
  Al  Al13  1  0.082829  0.353709  0.750000  1
  Al  Al14  1  0.344942  0.655058  0.898758  1
  Al  Al15  1  0.656682  0.343318  0.100524  1
  Al  Al16  1  0.344942  0.655058  0.601242  1
  Al  Al17  1  0.656682  0.343318  0.399476  1
  Al  Al18  1  0.723670  0.723434  0.999087  1
  Al  Al19  1  0.723670  0.723434  0.500913  1
  Al  Al20  1  0.276566  0.276330  0.999087  1
  Al  Al21  1  0.276566  0.276330  0.500913  1
  Os  Os22  1  0.499907  0.000249  0.999789  1
  Os  Os23  1  0.999751  0.500093  0.999789  1
  Os  Os24  1  0.499907  0.000249  0.500211  1
  Os  Os25  1  0.999751  0.500093  0.500211  1
