# generated using pymatgen
data_Dy3BiMoRh3O14
_symmetry_space_group_name_H-M   'P 1'
_cell_length_a   7.33198915
_cell_length_b   7.33199064
_cell_length_c   7.33198957
_cell_angle_alpha   59.01176257
_cell_angle_beta   59.01176677
_cell_angle_gamma   59.01175854
_symmetry_Int_Tables_number   1
_chemical_formula_structural   Dy3BiMoRh3O14
_chemical_formula_sum   'Dy3 Bi1 Mo1 Rh3 O14'
_cell_volume   272.42645475
_cell_formula_units_Z   1
loop_
 _symmetry_equiv_pos_site_id
 _symmetry_equiv_pos_as_xyz
  1  'x, y, z'
loop_
 _atom_site_type_symbol
 _atom_site_label
 _atom_site_symmetry_multiplicity
 _atom_site_fract_x
 _atom_site_fract_y
 _atom_site_fract_z
 _atom_site_occupancy
  Dy  Dy0  1  0.125000  0.625000  0.125000  1
  Dy  Dy1  1  0.625000  0.125000  0.125000  1
  Dy  Dy2  1  0.125000  0.125000  0.625000  1
  Bi  Bi3  1  0.125000  0.125000  0.125000  1
  Mo  Mo4  1  0.625000  0.625000  0.625000  1
  Rh  Rh5  1  0.625000  0.625000  0.125000  1
  Rh  Rh6  1  0.125000  0.625000  0.625000  1
  Rh  Rh7  1  0.625000  0.125000  0.625000  1
  O  O8  1  0.252466  0.252466  0.252466  1
  O  O9  1  0.286799  0.706016  0.286799  1
  O  O10  1  0.963201  0.963201  0.543984  1
  O  O11  1  0.540063  0.957892  0.540063  1
  O  O12  1  0.709937  0.709937  0.292108  1
  O  O13  1  0.957892  0.540063  0.540063  1
  O  O14  1  0.709937  0.292108  0.709937  1
  O  O15  1  0.286799  0.286799  0.706016  1
  O  O16  1  0.706016  0.286799  0.286799  1
  O  O17  1  0.292108  0.709937  0.709937  1
  O  O18  1  0.963201  0.543984  0.963201  1
  O  O19  1  0.540063  0.540063  0.957892  1
  O  O20  1  0.997534  0.997534  0.997534  1
  O  O21  1  0.543984  0.963201  0.963201  1
