# generated using pymatgen
data_NdHo3IrRh3O14
_symmetry_space_group_name_H-M   'P 1'
_cell_length_a   7.29933137
_cell_length_b   7.29933134
_cell_length_c   7.29933116
_cell_angle_alpha   59.27926862
_cell_angle_beta   59.27927021
_cell_angle_gamma   59.27927387
_symmetry_Int_Tables_number   1
_chemical_formula_structural   NdHo3IrRh3O14
_chemical_formula_sum   'Nd1 Ho3 Ir1 Rh3 O14'
_cell_volume   270.48735422
_cell_formula_units_Z   1
loop_
 _symmetry_equiv_pos_site_id
 _symmetry_equiv_pos_as_xyz
  1  'x, y, z'
loop_
 _atom_site_type_symbol
 _atom_site_label
 _atom_site_symmetry_multiplicity
 _atom_site_fract_x
 _atom_site_fract_y
 _atom_site_fract_z
 _atom_site_occupancy
  Nd  Nd0  1  0.125000  0.125000  0.125000  1
  Ho  Ho1  1  0.625000  0.125000  0.125000  1
  Ho  Ho2  1  0.125000  0.625000  0.125000  1
  Ho  Ho3  1  0.125000  0.125000  0.625000  1
  Ir  Ir4  1  0.625000  0.625000  0.625000  1
  Rh  Rh5  1  0.125000  0.625000  0.625000  1
  Rh  Rh6  1  0.625000  0.125000  0.625000  1
  Rh  Rh7  1  0.625000  0.625000  0.125000  1
  O  O8  1  0.710329  0.710329  0.292353  1
  O  O9  1  0.287624  0.287624  0.701330  1
  O  O10  1  0.710329  0.292353  0.710329  1
  O  O11  1  0.287624  0.701330  0.287624  1
  O  O12  1  0.292353  0.710329  0.710329  1
  O  O13  1  0.701330  0.287624  0.287624  1
  O  O14  1  0.539671  0.539671  0.957647  1
  O  O15  1  0.962376  0.962376  0.548670  1
  O  O16  1  0.539671  0.957647  0.539671  1
  O  O17  1  0.962376  0.548670  0.962376  1
  O  O18  1  0.957647  0.539671  0.539671  1
  O  O19  1  0.548670  0.962376  0.962376  1
  O  O20  1  0.253879  0.253879  0.253879  1
  O  O21  1  0.996121  0.996121  0.996121  1
