# generated using pymatgen
data_Sc3In2SnPd3
_symmetry_space_group_name_H-M   'P 1'
_cell_length_a   7.70713321
_cell_length_b   7.68074292
_cell_length_c   6.93633581
_cell_angle_alpha   89.94881624
_cell_angle_beta   90.02550311
_cell_angle_gamma   119.88679403
_symmetry_Int_Tables_number   1
_chemical_formula_structural   Sc3In2SnPd3
_chemical_formula_sum   'Sc6 In4 Sn2 Pd6'
_cell_volume   356.00078025
_cell_formula_units_Z   2
loop_
 _symmetry_equiv_pos_site_id
 _symmetry_equiv_pos_as_xyz
  1  'x, y, z'
loop_
 _atom_site_type_symbol
 _atom_site_label
 _atom_site_symmetry_multiplicity
 _atom_site_fract_x
 _atom_site_fract_y
 _atom_site_fract_z
 _atom_site_occupancy
  Sc  Sc0  1  0.398318  0.006893  0.249765  1
  Sc  Sc1  1  0.610653  0.598730  0.250019  1
  Sc  Sc2  1  0.990500  0.393984  0.250250  1
  Sc  Sc3  1  0.389347  0.988077  0.750019  1
  Sc  Sc4  1  0.601682  0.608575  0.749765  1
  Sc  Sc5  1  0.009500  0.403484  0.750250  1
  In  In6  1  0.721243  0.998016  0.000135  1
  In  In7  1  0.278757  0.276773  0.500135  1
  In  In8  1  0.002273  0.724871  0.500024  1
  In  In9  1  0.997727  0.722598  0.000024  1
  Sn  Sn10  1  0.274101  0.274258  0.999713  1
  Sn  Sn11  1  0.725899  0.000157  0.499713  1
  Pd  Pd12  1  0.332053  0.664807  0.014786  1
  Pd  Pd13  1  0.337189  0.668520  0.485332  1
  Pd  Pd14  1  0.662811  0.331330  0.985332  1
  Pd  Pd15  1  0.667947  0.332753  0.514786  1
  Pd  Pd16  1  0.000059  0.003116  0.249974  1
  Pd  Pd17  1  0.999941  0.003057  0.749974  1
