# generated using pymatgen
data_Gd2Y2TmIr2
_symmetry_space_group_name_H-M   'P 1'
_cell_length_a   6.51457280
_cell_length_b   7.27425371
_cell_length_c   8.48647100
_cell_angle_alpha   97.14751165
_cell_angle_beta   112.57057699
_cell_angle_gamma   89.99999957
_symmetry_Int_Tables_number   1
_chemical_formula_structural   Gd2Y2TmIr2
_chemical_formula_sum   'Gd4 Y4 Tm2 Ir4'
_cell_volume   367.97312384
_cell_formula_units_Z   2
loop_
 _symmetry_equiv_pos_site_id
 _symmetry_equiv_pos_as_xyz
  1  'x, y, z'
loop_
 _atom_site_type_symbol
 _atom_site_label
 _atom_site_symmetry_multiplicity
 _atom_site_fract_x
 _atom_site_fract_y
 _atom_site_fract_z
 _atom_site_occupancy
  Gd  Gd0  1  0.974536  0.918403  0.183665  1
  Gd  Gd1  1  0.790870  0.581597  0.816335  1
  Gd  Gd2  1  0.025464  0.081597  0.816335  1
  Gd  Gd3  1  0.209130  0.418403  0.183665  1
  Y  Y4  1  0.647965  0.816463  0.439982  1
  Y  Y5  1  0.207983  0.683537  0.560018  1
  Y  Y6  1  0.352035  0.183537  0.560018  1
  Y  Y7  1  0.792017  0.316463  0.439982  1
  Tm  Tm8  1  0.429120  0.750000  0.000000  1
  Tm  Tm9  1  0.570880  0.250000  0.000000  1
  Ir  Ir10  1  0.818059  0.574853  0.217027  1
  Ir  Ir11  1  0.601032  0.925147  0.782973  1
  Ir  Ir12  1  0.181942  0.425147  0.782973  1
  Ir  Ir13  1  0.398968  0.074853  0.217027  1
