# generated using pymatgen
data_Zr2Nb2WN6
_symmetry_space_group_name_H-M   'P 1'
_cell_length_a   5.29149359
_cell_length_b   5.27070761
_cell_length_c   10.71842400
_cell_angle_alpha   90.00000000
_cell_angle_beta   90.00000000
_cell_angle_gamma   119.87015583
_symmetry_Int_Tables_number   1
_chemical_formula_structural   Zr2Nb2WN6
_chemical_formula_sum   'Zr4 Nb4 W2 N12'
_cell_volume   259.22417884
_cell_formula_units_Z   2
loop_
 _symmetry_equiv_pos_site_id
 _symmetry_equiv_pos_as_xyz
  1  'x, y, z'
loop_
 _atom_site_type_symbol
 _atom_site_label
 _atom_site_symmetry_multiplicity
 _atom_site_fract_x
 _atom_site_fract_y
 _atom_site_fract_z
 _atom_site_occupancy
  Zr  Zr0  1  0.328005  0.664003  0.500000  1
  Zr  Zr1  1  0.665954  0.332977  0.000000  1
  Zr  Zr2  1  0.665954  0.332977  0.500000  1
  Zr  Zr3  1  0.328005  0.664003  0.000000  1
  Nb  Nb4  1  0.999855  0.326488  0.250000  1
  Nb  Nb5  1  0.999855  0.673367  0.750000  1
  Nb  Nb6  1  0.326975  0.326741  0.750000  1
  Nb  Nb7  1  0.326975  0.000234  0.250000  1
  W  W8  1  0.675309  0.999852  0.750000  1
  W  W9  1  0.675309  0.675457  0.250000  1
  N  N10  1  0.347325  0.347100  0.371101  1
  N  N11  1  0.659778  0.994457  0.372390  1
  N  N12  1  0.994848  0.662003  0.371762  1
  N  N13  1  0.994848  0.332845  0.871762  1
  N  N14  1  0.659778  0.994457  0.127610  1
  N  N15  1  0.659778  0.665321  0.872390  1
  N  N16  1  0.347325  0.000224  0.871101  1
  N  N17  1  0.659778  0.665321  0.627610  1
  N  N18  1  0.994848  0.332845  0.628238  1
  N  N19  1  0.994848  0.662003  0.128238  1
  N  N20  1  0.347325  0.000224  0.628899  1
  N  N21  1  0.347325  0.347100  0.128899  1
