# generated using pymatgen
data_Nb6Ga4Fe2CN
_symmetry_space_group_name_H-M   'P 1'
_cell_length_a   8.19743448
_cell_length_b   8.19743449
_cell_length_c   8.21425400
_cell_angle_alpha   59.93211177
_cell_angle_beta   59.93211173
_cell_angle_gamma   59.88350332
_symmetry_Int_Tables_number   1
_chemical_formula_structural   Nb6Ga4Fe2CN
_chemical_formula_sum   'Nb12 Ga8 Fe4 C2 N2'
_cell_volume   389.56469886
_cell_formula_units_Z   2
loop_
 _symmetry_equiv_pos_site_id
 _symmetry_equiv_pos_as_xyz
  1  'x, y, z'
loop_
 _atom_site_type_symbol
 _atom_site_label
 _atom_site_symmetry_multiplicity
 _atom_site_fract_x
 _atom_site_fract_y
 _atom_site_fract_z
 _atom_site_occupancy
  Nb  Nb0  1  0.804969  0.804969  0.195031  1
  Nb  Nb1  1  0.196521  0.196521  0.803479  1
  Nb  Nb2  1  0.804050  0.196208  0.804517  1
  Nb  Nb3  1  0.196208  0.804050  0.195225  1
  Nb  Nb4  1  0.196208  0.804050  0.804517  1
  Nb  Nb5  1  0.804050  0.196208  0.195225  1
  Nb  Nb6  1  0.445031  0.445031  0.054969  1
  Nb  Nb7  1  0.053479  0.053479  0.446521  1
  Nb  Nb8  1  0.445950  0.053792  0.445483  1
  Nb  Nb9  1  0.053792  0.445950  0.054775  1
  Nb  Nb10  1  0.053792  0.445950  0.445483  1
  Nb  Nb11  1  0.445950  0.053792  0.054775  1
  Ga  Ga12  1  0.751973  0.415385  0.416322  1
  Ga  Ga13  1  0.415385  0.751973  0.416322  1
  Ga  Ga14  1  0.415885  0.415885  0.751427  1
  Ga  Ga15  1  0.415885  0.415885  0.416806  1
  Ga  Ga16  1  0.498027  0.834615  0.833678  1
  Ga  Ga17  1  0.834615  0.498027  0.833678  1
  Ga  Ga18  1  0.834115  0.834115  0.498573  1
  Ga  Ga19  1  0.834115  0.834115  0.833194  1
  Fe  Fe20  1  0.125000  0.625000  0.625000  1
  Fe  Fe21  1  0.625000  0.125000  0.625000  1
  Fe  Fe22  1  0.625000  0.625000  0.125000  1
  Fe  Fe23  1  0.625000  0.625000  0.625000  1
  C  C24  1  0.125000  0.125000  0.625000  1
  C  C25  1  0.125000  0.125000  0.125000  1
  N  N26  1  0.625000  0.125000  0.125000  1
  N  N27  1  0.125000  0.625000  0.125000  1
