# generated using pymatgen
data_Hf6AlPtPb
_symmetry_space_group_name_H-M   'P 1'
_cell_length_a   7.99847100
_cell_length_b   7.99847032
_cell_length_c   3.45456100
_cell_angle_alpha   90.00000000
_cell_angle_beta   90.00000000
_cell_angle_gamma   120.00000696
_symmetry_Int_Tables_number   1
_chemical_formula_structural   Hf6AlPtPb
_chemical_formula_sum   'Hf6 Al1 Pt1 Pb1'
_cell_volume   191.39799279
_cell_formula_units_Z   1
loop_
 _symmetry_equiv_pos_site_id
 _symmetry_equiv_pos_as_xyz
  1  'x, y, z'
loop_
 _atom_site_type_symbol
 _atom_site_label
 _atom_site_symmetry_multiplicity
 _atom_site_fract_x
 _atom_site_fract_y
 _atom_site_fract_z
 _atom_site_occupancy
  Hf  Hf0  1  0.991905  0.735090  0.500000  1
  Hf  Hf1  1  0.264910  0.256815  0.500000  1
  Hf  Hf2  1  0.743185  0.008095  0.500000  1
  Hf  Hf3  1  0.984294  0.389467  0.000000  1
  Hf  Hf4  1  0.610533  0.594826  0.000000  1
  Hf  Hf5  1  0.405174  0.015706  0.000000  1
  Al  Al6  1  0.666667  0.333333  0.500000  1
  Pt  Pt7  1  0.000000  0.000000  0.000000  1
  Pb  Pb8  1  0.333333  0.666667  0.500000  1
