# generated using pymatgen
data_Ca2MgTeO6
_symmetry_space_group_name_H-M   'P 1'
_cell_length_a   5.62561200
_cell_length_b   5.49200702
_cell_length_c   9.55633300
_cell_angle_alpha   55.06119246
_cell_angle_beta   90.00000000
_cell_angle_gamma   90.00000000
_symmetry_Int_Tables_number   1
_chemical_formula_structural   Ca2MgTeO6
_chemical_formula_sum   'Ca4 Mg2 Te2 O12'
_cell_volume   242.03661069
_cell_formula_units_Z   2
loop_
 _symmetry_equiv_pos_site_id
 _symmetry_equiv_pos_as_xyz
  1  'x, y, z'
loop_
 _atom_site_type_symbol
 _atom_site_label
 _atom_site_symmetry_multiplicity
 _atom_site_fract_x
 _atom_site_fract_y
 _atom_site_fract_z
 _atom_site_occupancy
  Ca  Ca0  1  0.450799  0.263659  0.748707  1
  Ca  Ca1  1  0.950799  0.736341  0.751293  1
  Ca  Ca2  1  0.549201  0.736341  0.251293  1
  Ca  Ca3  1  0.049201  0.263659  0.248707  1
  Mg  Mg4  1  0.500000  0.500000  0.000000  1
  Mg  Mg5  1  0.000000  0.500000  0.500000  1
  Te  Te6  1  0.500000  0.000000  0.500000  1
  Te  Te7  1  0.000000  0.000000  0.000000  1
  O  O8  1  0.196087  0.331453  0.954702  1
  O  O9  1  0.696087  0.668547  0.545298  1
  O  O10  1  0.803913  0.668547  0.045298  1
  O  O11  1  0.303913  0.331453  0.454702  1
  O  O12  1  0.283776  0.757795  0.050308  1
  O  O13  1  0.783776  0.242205  0.449692  1
  O  O14  1  0.716224  0.242205  0.949692  1
  O  O15  1  0.216224  0.757795  0.550308  1
  O  O16  1  0.030321  0.148495  0.760204  1
  O  O17  1  0.530321  0.851505  0.739796  1
  O  O18  1  0.469679  0.148495  0.260204  1
  O  O19  1  0.969679  0.851505  0.239796  1
