# generated using pymatgen
data_Nd6Zn21Cd2S
_symmetry_space_group_name_H-M   'P 1'
_cell_length_a   9.31564031
_cell_length_b   9.31564221
_cell_length_c   9.31564200
_cell_angle_alpha   60.22986048
_cell_angle_beta   60.22985382
_cell_angle_gamma   60.22986190
_symmetry_Int_Tables_number   1
_chemical_formula_structural   Nd6Zn21Cd2S
_chemical_formula_sum   'Nd6 Zn21 Cd2 S1'
_cell_volume   574.61565629
_cell_formula_units_Z   1
loop_
 _symmetry_equiv_pos_site_id
 _symmetry_equiv_pos_as_xyz
  1  'x, y, z'
loop_
 _atom_site_type_symbol
 _atom_site_label
 _atom_site_symmetry_multiplicity
 _atom_site_fract_x
 _atom_site_fract_y
 _atom_site_fract_z
 _atom_site_occupancy
  Nd  Nd0  1  0.782832  0.782832  0.216659  1
  Nd  Nd1  1  0.213490  0.790286  0.213490  1
  Nd  Nd2  1  0.790286  0.213490  0.213490  1
  Nd  Nd3  1  0.213490  0.213490  0.790286  1
  Nd  Nd4  1  0.782832  0.216659  0.782832  1
  Nd  Nd5  1  0.216659  0.782832  0.782832  1
  Zn  Zn6  1  0.828161  0.828161  0.516261  1
  Zn  Zn7  1  0.828161  0.516261  0.828161  1
  Zn  Zn8  1  0.516261  0.828161  0.828161  1
  Zn  Zn9  1  0.827465  0.827465  0.827465  1
  Zn  Zn10  1  0.169253  0.169253  0.486043  1
  Zn  Zn11  1  0.169253  0.486043  0.169253  1
  Zn  Zn12  1  0.486043  0.169253  0.169253  1
  Zn  Zn13  1  0.172669  0.172669  0.172669  1
  Zn  Zn14  1  0.628697  0.628697  0.111503  1
  Zn  Zn15  1  0.628697  0.111503  0.628697  1
  Zn  Zn16  1  0.111503  0.628697  0.628697  1
  Zn  Zn17  1  0.630845  0.630845  0.630845  1
  Zn  Zn18  1  0.369761  0.369761  0.890069  1
  Zn  Zn19  1  0.369761  0.890069  0.369761  1
  Zn  Zn20  1  0.890069  0.369761  0.369761  1
  Zn  Zn21  1  0.999285  0.999285  0.500346  1
  Zn  Zn22  1  0.501058  0.994204  0.501058  1
  Zn  Zn23  1  0.994204  0.501058  0.501058  1
  Zn  Zn24  1  0.501058  0.501058  0.994204  1
  Zn  Zn25  1  0.999285  0.500346  0.999285  1
  Zn  Zn26  1  0.500346  0.999285  0.999285  1
  Cd  Cd27  1  0.375147  0.375147  0.375147  1
  Cd  Cd28  1  0.504794  0.504794  0.504794  1
  S  S29  1  0.998637  0.998637  0.998637  1
