# generated using pymatgen
data_Yb2CeY(B4Ru)4
_symmetry_space_group_name_H-M   'P 1'
_cell_length_a   3.56513700
_cell_length_b   5.96618381
_cell_length_c   11.54020666
_cell_angle_alpha   90.06715657
_cell_angle_beta   90.00000000
_cell_angle_gamma   90.00000000
_symmetry_Int_Tables_number   1
_chemical_formula_structural   Yb2CeY(B4Ru)4
_chemical_formula_sum   'Yb2 Ce1 Y1 B16 Ru4'
_cell_volume   245.46305833
_cell_formula_units_Z   1
loop_
 _symmetry_equiv_pos_site_id
 _symmetry_equiv_pos_as_xyz
  1  'x, y, z'
loop_
 _atom_site_type_symbol
 _atom_site_label
 _atom_site_symmetry_multiplicity
 _atom_site_fract_x
 _atom_site_fract_y
 _atom_site_fract_z
 _atom_site_occupancy
  Yb  Yb0  1  0.500000  0.128138  0.352157  1
  Yb  Yb1  1  0.500000  0.871807  0.649290  1
  Ce  Ce2  1  0.500000  0.629467  0.151716  1
  Y  Y3  1  0.500000  0.370818  0.847697  1
  B  B4  1  0.000000  0.975769  0.191375  1
  B  B5  1  0.000000  0.024501  0.807250  1
  B  B6  1  0.000000  0.476554  0.310341  1
  B  B7  1  0.000000  0.524187  0.691040  1
  B  B8  1  0.000000  0.787504  0.316489  1
  B  B9  1  0.000000  0.211453  0.684137  1
  B  B10  1  0.000000  0.286553  0.185599  1
  B  B11  1  0.000000  0.713855  0.812974  1
  B  B12  1  0.000000  0.863968  0.469890  1
  B  B13  1  0.000000  0.135633  0.530828  1
  B  B14  1  0.000000  0.363560  0.030300  1
  B  B15  1  0.000000  0.636849  0.968390  1
  B  B16  1  0.000000  0.889846  0.045943  1
  B  B17  1  0.000000  0.111657  0.951921  1
  B  B18  1  0.000000  0.385993  0.454275  1
  B  B19  1  0.000000  0.612778  0.546708  1
  Ru  Ru20  1  0.500000  0.636706  0.410253  1
  Ru  Ru21  1  0.500000  0.362797  0.590105  1
  Ru  Ru22  1  0.500000  0.139967  0.092501  1
  Ru  Ru23  1  0.500000  0.859638  0.908821  1
