# generated using pymatgen
data_SmDyAl6Si4Pt
_symmetry_space_group_name_H-M   'P 1'
_cell_length_a   4.18495104
_cell_length_b   4.18498887
_cell_length_c   17.15296373
_cell_angle_alpha   96.80974200
_cell_angle_beta   83.18981647
_cell_angle_gamma   120.11248092
_symmetry_Int_Tables_number   1
_chemical_formula_structural   SmDyAl6Si4Pt
_chemical_formula_sum   'Sm1 Dy1 Al6 Si4 Pt1'
_cell_volume   257.42829127
_cell_formula_units_Z   1
loop_
 _symmetry_equiv_pos_site_id
 _symmetry_equiv_pos_as_xyz
  1  'x, y, z'
loop_
 _atom_site_type_symbol
 _atom_site_label
 _atom_site_symmetry_multiplicity
 _atom_site_fract_x
 _atom_site_fract_y
 _atom_site_fract_z
 _atom_site_occupancy
  Sm  Sm0  1  0.565749  0.434220  0.303046  1
  Dy  Dy1  1  0.434004  0.566026  0.698159  1
  Al  Al2  1  0.318899  0.681110  0.044967  1
  Al  Al3  1  0.948629  0.051334  0.148752  1
  Al  Al4  1  0.184790  0.815182  0.447686  1
  Al  Al5  1  0.813169  0.186849  0.558310  1
  Al  Al6  1  0.052417  0.947618  0.847750  1
  Al  Al7  1  0.682458  0.317536  0.951172  1
  Si  Si8  1  0.265780  0.734182  0.199086  1
  Si  Si9  1  0.863585  0.136395  0.409646  1
  Si  Si10  1  0.134157  0.865859  0.596922  1
  Si  Si11  1  0.735565  0.264480  0.796779  1
  Pt  Pt12  1  0.000796  0.999209  0.997725  1
