# generated using pymatgen
data_NaHo(CO3)2
_symmetry_space_group_name_H-M   'P 1'
_cell_length_a   6.37797675
_cell_length_b   6.37797711
_cell_length_c   6.37797753
_cell_angle_alpha   46.72382656
_cell_angle_beta   46.72382084
_cell_angle_gamma   46.72382824
_symmetry_Int_Tables_number   1
_chemical_formula_structural   NaHo(CO3)2
_chemical_formula_sum   'Na1 Ho1 C2 O6'
_cell_volume   125.63670459
_cell_formula_units_Z   1
loop_
 _symmetry_equiv_pos_site_id
 _symmetry_equiv_pos_as_xyz
  1  'x, y, z'
loop_
 _atom_site_type_symbol
 _atom_site_label
 _atom_site_symmetry_multiplicity
 _atom_site_fract_x
 _atom_site_fract_y
 _atom_site_fract_z
 _atom_site_occupancy
  Na  Na0  1  0.500000  0.500000  0.500000  1
  Ho  Ho1  1  0.000000  0.000000  0.000000  1
  C  C2  1  0.255293  0.255293  0.255293  1
  C  C3  1  0.744707  0.744707  0.744707  1
  O  O4  1  0.477440  0.768019  0.988826  1
  O  O5  1  0.011175  0.522560  0.231980  1
  O  O6  1  0.768020  0.988826  0.477439  1
  O  O7  1  0.231980  0.011174  0.522561  1
  O  O8  1  0.988825  0.477440  0.768020  1
  O  O9  1  0.522560  0.231981  0.011174  1
