# generated using pymatgen
data_Sc2Ti3Co10GeB4
_symmetry_space_group_name_H-M   'P 1'
_cell_length_a   8.55838600
_cell_length_b   8.56601000
_cell_length_c   3.02920000
_cell_angle_alpha   90.00000000
_cell_angle_beta   90.00000000
_cell_angle_gamma   89.99807945
_symmetry_Int_Tables_number   1
_chemical_formula_structural   Sc2Ti3Co10GeB4
_chemical_formula_sum   'Sc2 Ti3 Co10 Ge1 B4'
_cell_volume   222.07434774
_cell_formula_units_Z   1
loop_
 _symmetry_equiv_pos_site_id
 _symmetry_equiv_pos_as_xyz
  1  'x, y, z'
loop_
 _atom_site_type_symbol
 _atom_site_label
 _atom_site_symmetry_multiplicity
 _atom_site_fract_x
 _atom_site_fract_y
 _atom_site_fract_z
 _atom_site_occupancy
  Sc  Sc0  1  0.825770  0.323827  0.000000  1
  Sc  Sc1  1  0.322009  0.172336  0.000000  1
  Ti  Ti2  1  0.500703  0.499201  0.000000  1
  Ti  Ti3  1  0.676107  0.825779  0.000000  1
  Ti  Ti4  1  0.173405  0.676615  0.000000  1
  Co  Co5  1  0.502604  0.990840  0.500000  1
  Co  Co6  1  0.002598  0.509325  0.500000  1
  Co  Co7  1  0.069053  0.225393  0.500000  1
  Co  Co8  1  0.219124  0.919863  0.500000  1
  Co  Co9  1  0.778271  0.060086  0.500000  1
  Co  Co10  1  0.930169  0.784316  0.500000  1
  Co  Co11  1  0.429497  0.717358  0.500000  1
  Co  Co12  1  0.569621  0.273628  0.500000  1
  Co  Co13  1  0.720431  0.580412  0.500000  1
  Co  Co14  1  0.276870  0.438683  0.500000  1
  Ge  Ge15  1  0.001354  0.002485  0.000000  1
  B  B16  1  0.621626  0.113741  0.000000  1
  B  B17  1  0.120788  0.385316  0.000000  1
  B  B18  1  0.880362  0.627752  0.000000  1
  B  B19  1  0.379638  0.873043  0.000000  1
