# generated using pymatgen
data_NdSi4IrRh5
_symmetry_space_group_name_H-M   'P 1'
_cell_length_a   7.02265500
_cell_length_b   7.06095199
_cell_length_c   3.84988300
_cell_angle_alpha   90.00000000
_cell_angle_beta   90.00000000
_cell_angle_gamma   119.82074935
_symmetry_Int_Tables_number   1
_chemical_formula_structural   NdSi4IrRh5
_chemical_formula_sum   'Nd1 Si4 Ir1 Rh5'
_cell_volume   165.62441924
_cell_formula_units_Z   1
loop_
 _symmetry_equiv_pos_site_id
 _symmetry_equiv_pos_as_xyz
  1  'x, y, z'
loop_
 _atom_site_type_symbol
 _atom_site_label
 _atom_site_symmetry_multiplicity
 _atom_site_fract_x
 _atom_site_fract_y
 _atom_site_fract_z
 _atom_site_occupancy
  Nd  Nd0  1  0.999988  0.999977  0.000000  1
  Si  Si1  1  0.332811  0.665621  0.000000  1
  Si  Si2  1  0.402916  0.200792  0.500000  1
  Si  Si3  1  0.797876  0.200792  0.500000  1
  Si  Si4  1  0.799367  0.598734  0.500000  1
  Ir  Ir5  1  0.532527  0.065052  0.000000  1
  Rh  Rh6  1  0.533869  0.468610  0.000000  1
  Rh  Rh7  1  0.934741  0.468610  0.000000  1
  Rh  Rh8  1  0.199107  0.398213  0.500000  1
  Rh  Rh9  1  0.199490  0.800134  0.500000  1
  Rh  Rh10  1  0.600644  0.800134  0.500000  1
