# generated using pymatgen
data_Er7Co2Sn23Rh4
_symmetry_space_group_name_H-M   'P 1'
_cell_length_a   9.78313098
_cell_length_b   9.78908477
_cell_length_c   10.05364811
_cell_angle_alpha   89.99999858
_cell_angle_beta   90.03787271
_cell_angle_gamma   120.02012544
_symmetry_Int_Tables_number   1
_chemical_formula_structural   Er7Co2Sn23Rh4
_chemical_formula_sum   'Er7 Co2 Sn23 Rh4'
_cell_volume   833.65437475
_cell_formula_units_Z   1
loop_
 _symmetry_equiv_pos_site_id
 _symmetry_equiv_pos_as_xyz
  1  'x, y, z'
loop_
 _atom_site_type_symbol
 _atom_site_label
 _atom_site_symmetry_multiplicity
 _atom_site_fract_x
 _atom_site_fract_y
 _atom_site_fract_z
 _atom_site_occupancy
  Er  Er0  1  0.000000  0.000000  0.000000  1
  Er  Er1  1  0.478999  0.521114  0.307140  1
  Er  Er2  1  0.521001  0.478886  0.692860  1
  Er  Er3  1  0.478999  0.957885  0.307140  1
  Er  Er4  1  0.521001  0.042115  0.692860  1
  Er  Er5  1  0.042550  0.521275  0.307044  1
  Er  Er6  1  0.957450  0.478725  0.692956  1
  Co  Co7  1  0.336990  0.168494  0.198402  1
  Co  Co8  1  0.663010  0.831506  0.801598  1
  Sn  Sn9  1  0.350898  0.004671  0.004861  1
  Sn  Sn10  1  0.649102  0.995329  0.995139  1
  Sn  Sn11  1  0.000000  0.351084  0.000000  1
  Sn  Sn12  1  0.000000  0.648916  0.000000  1
  Sn  Sn13  1  0.649102  0.653773  0.995139  1
  Sn  Sn14  1  0.350898  0.346227  0.004861  1
  Sn  Sn15  1  0.338713  0.669357  0.818617  1
  Sn  Sn16  1  0.661287  0.330643  0.181383  1
  Sn  Sn17  1  0.000000  0.000000  0.500000  1
  Sn  Sn18  1  0.778383  0.221668  0.456307  1
  Sn  Sn19  1  0.221617  0.778332  0.543693  1
  Sn  Sn20  1  0.778383  0.556714  0.456307  1
  Sn  Sn21  1  0.221617  0.443286  0.543693  1
  Sn  Sn22  1  0.439344  0.219671  0.450545  1
  Sn  Sn23  1  0.560656  0.780329  0.549455  1
  Sn  Sn24  1  0.333426  0.666713  0.120210  1
  Sn  Sn25  1  0.666574  0.333287  0.879790  1
  Sn  Sn26  1  0.123929  0.886573  0.276683  1
  Sn  Sn27  1  0.876071  0.113427  0.723317  1
  Sn  Sn28  1  0.123929  0.237356  0.276683  1
  Sn  Sn29  1  0.876071  0.762644  0.723317  1
  Sn  Sn30  1  0.758581  0.879290  0.282006  1
  Sn  Sn31  1  0.241419  0.120710  0.717994  1
  Rh  Rh32  1  0.830945  0.167441  0.197580  1
  Rh  Rh33  1  0.169055  0.832559  0.802420  1
  Rh  Rh34  1  0.830945  0.663504  0.197580  1
  Rh  Rh35  1  0.169055  0.336496  0.802420  1
