# generated using pymatgen
data_Tb3PrAl18OsPd5
_symmetry_space_group_name_H-M   'P 1'
_cell_length_a   7.64372604
_cell_length_b   7.63972839
_cell_length_c   9.50070700
_cell_angle_alpha   90.05886527
_cell_angle_beta   90.07202708
_cell_angle_gamma   119.67111922
_symmetry_Int_Tables_number   1
_chemical_formula_structural   Tb3PrAl18OsPd5
_chemical_formula_sum   'Tb3 Pr1 Al18 Os1 Pd5'
_cell_volume   482.05678989
_cell_formula_units_Z   1
loop_
 _symmetry_equiv_pos_site_id
 _symmetry_equiv_pos_as_xyz
  1  'x, y, z'
loop_
 _atom_site_type_symbol
 _atom_site_label
 _atom_site_symmetry_multiplicity
 _atom_site_fract_x
 _atom_site_fract_y
 _atom_site_fract_z
 _atom_site_occupancy
  Tb  Tb0  1  0.006096  0.330046  0.750788  1
  Tb  Tb1  1  0.669467  0.993851  0.249116  1
  Tb  Tb2  1  0.329957  0.004341  0.750988  1
  Pr  Pr3  1  0.995285  0.670050  0.249703  1
  Al  Al4  1  0.130125  0.133558  0.249211  1
  Al  Al5  1  0.869060  0.872007  0.750799  1
  Al  Al6  1  0.995888  0.332028  0.072128  1
  Al  Al7  1  0.995486  0.659542  0.922873  1
  Al  Al8  1  0.998695  0.665798  0.580607  1
  Al  Al9  1  0.336553  0.004064  0.424884  1
  Al  Al10  1  0.001279  0.332744  0.426037  1
  Al  Al11  1  0.665294  0.999212  0.577677  1
  Al  Al12  1  0.666032  0.004031  0.924124  1
  Al  Al13  1  0.341771  0.005950  0.072227  1
  Al  Al14  1  0.333712  0.334335  0.561108  1
  Al  Al15  1  0.663490  0.665625  0.444160  1
  Al  Al16  1  0.666119  0.661877  0.049035  1
  Al  Al17  1  0.337293  0.331929  0.945818  1
  Al  Al18  1  0.339771  0.546116  0.249185  1
  Al  Al19  1  0.659347  0.451979  0.753448  1
  Al  Al20  1  0.545130  0.337563  0.245590  1
  Al  Al21  1  0.453571  0.663142  0.750788  1
  Os  Os22  1  0.671367  0.327449  0.998641  1
  Pd  Pd23  1  0.328668  0.671550  0.999197  1
  Pd  Pd24  1  0.328012  0.672368  0.500824  1
  Pd  Pd25  1  0.671161  0.327840  0.501016  1
  Pd  Pd26  1  0.001130  0.000060  0.999116  1
  Pd  Pd27  1  0.000240  0.000944  0.500912  1
