# generated using pymatgen
data_Ca6Zn16Rh7
_symmetry_space_group_name_H-M   'P 1'
_cell_length_a   9.01092273
_cell_length_b   9.00504951
_cell_length_c   9.00283134
_cell_angle_alpha   60.05582564
_cell_angle_beta   60.00675873
_cell_angle_gamma   59.96232273
_symmetry_Int_Tables_number   1
_chemical_formula_structural   Ca6Zn16Rh7
_chemical_formula_sum   'Ca6 Zn16 Rh7'
_cell_volume   516.65501095
_cell_formula_units_Z   1
loop_
 _symmetry_equiv_pos_site_id
 _symmetry_equiv_pos_as_xyz
  1  'x, y, z'
loop_
 _atom_site_type_symbol
 _atom_site_label
 _atom_site_symmetry_multiplicity
 _atom_site_fract_x
 _atom_site_fract_y
 _atom_site_fract_z
 _atom_site_occupancy
  Ca  Ca0  1  0.212471  0.787525  0.787503  1
  Ca  Ca1  1  0.787525  0.212467  0.212484  1
  Ca  Ca2  1  0.787492  0.212436  0.787544  1
  Ca  Ca3  1  0.787516  0.787584  0.212410  1
  Ca  Ca4  1  0.212490  0.787560  0.212457  1
  Ca  Ca5  1  0.212484  0.212419  0.787574  1
  Zn  Zn6  1  0.829230  0.829446  0.829637  1
  Zn  Zn7  1  0.829478  0.829265  0.511666  1
  Zn  Zn8  1  0.511678  0.829635  0.829471  1
  Zn  Zn9  1  0.829625  0.511661  0.829294  1
  Zn  Zn10  1  0.170775  0.170544  0.170350  1
  Zn  Zn11  1  0.170539  0.170774  0.488324  1
  Zn  Zn12  1  0.170342  0.488335  0.170781  1
  Zn  Zn13  1  0.488310  0.170366  0.170522  1
  Zn  Zn14  1  0.620623  0.620910  0.621098  1
  Zn  Zn15  1  0.620907  0.620682  0.137311  1
  Zn  Zn16  1  0.137306  0.621132  0.620913  1
  Zn  Zn17  1  0.621085  0.137363  0.620656  1
  Zn  Zn18  1  0.379358  0.379084  0.378893  1
  Zn  Zn19  1  0.379101  0.379310  0.862674  1
  Zn  Zn20  1  0.378910  0.862641  0.379330  1
  Zn  Zn21  1  0.862691  0.378874  0.379072  1
  Rh  Rh22  1  0.500046  0.500022  0.499973  1
  Rh  Rh23  1  0.999949  0.500126  0.500106  1
  Rh  Rh24  1  0.499742  0.999891  0.000157  1
  Rh  Rh25  1  0.500172  0.000002  0.499898  1
  Rh  Rh26  1  0.499985  0.499948  0.000031  1
  Rh  Rh27  1  0.000168  0.500043  0.999835  1
  Rh  Rh28  1  0.000005  0.999958  0.500037  1
