# generated using pymatgen
data_Nd4Al18Ir3RuPt2
_symmetry_space_group_name_H-M   'P 1'
_cell_length_a   7.63802707
_cell_length_b   7.63802718
_cell_length_c   9.61085124
_cell_angle_alpha   89.92087024
_cell_angle_beta   89.92087397
_cell_angle_gamma   119.47186464
_symmetry_Int_Tables_number   1
_chemical_formula_structural   Nd4Al18Ir3RuPt2
_chemical_formula_sum   'Nd4 Al18 Ir3 Ru1 Pt2'
_cell_volume   488.13503802
_cell_formula_units_Z   1
loop_
 _symmetry_equiv_pos_site_id
 _symmetry_equiv_pos_as_xyz
  1  'x, y, z'
loop_
 _atom_site_type_symbol
 _atom_site_label
 _atom_site_symmetry_multiplicity
 _atom_site_fract_x
 _atom_site_fract_y
 _atom_site_fract_z
 _atom_site_occupancy
  Nd  Nd0  1  0.994555  0.669685  0.250196  1
  Nd  Nd1  1  0.005445  0.330315  0.749804  1
  Nd  Nd2  1  0.669685  0.994555  0.250196  1
  Nd  Nd3  1  0.330315  0.005445  0.749804  1
  Al  Al4  1  0.127962  0.127962  0.249424  1
  Al  Al5  1  0.872038  0.872038  0.750576  1
  Al  Al6  1  0.003170  0.329700  0.074996  1
  Al  Al7  1  0.996830  0.670300  0.925004  1
  Al  Al8  1  0.998784  0.665249  0.572537  1
  Al  Al9  1  0.334751  0.001216  0.427463  1
  Al  Al10  1  0.001216  0.334751  0.427463  1
  Al  Al11  1  0.665249  0.998784  0.572537  1
  Al  Al12  1  0.670300  0.996830  0.925004  1
  Al  Al13  1  0.329700  0.003170  0.074996  1
  Al  Al14  1  0.333127  0.333127  0.546375  1
  Al  Al15  1  0.666873  0.666873  0.453625  1
  Al  Al16  1  0.669823  0.669823  0.052678  1
  Al  Al17  1  0.330177  0.330177  0.947322  1
  Al  Al18  1  0.340690  0.545165  0.253398  1
  Al  Al19  1  0.659310  0.454835  0.746602  1
  Al  Al20  1  0.545165  0.340690  0.253398  1
  Al  Al21  1  0.454835  0.659310  0.746602  1
  Ir  Ir22  1  0.329092  0.670908  0.500000  1
  Ir  Ir23  1  0.670908  0.329092  0.500000  1
  Ir  Ir24  1  0.000000  0.000000  0.500000  1
  Ru  Ru25  1  0.000000  0.000000  0.000000  1
  Pt  Pt26  1  0.671351  0.328649  0.000000  1
  Pt  Pt27  1  0.328649  0.671351  0.000000  1
