# generated using pymatgen
data_RhF18
_symmetry_space_group_name_H-M   'P 1'
_cell_length_a   5.85743597
_cell_length_b   9.37752285
_cell_length_c   13.56166100
_cell_angle_alpha   101.85032987
_cell_angle_beta   93.26313484
_cell_angle_gamma   102.74165111
_symmetry_Int_Tables_number   1
_chemical_formula_structural   RhF18
_chemical_formula_sum   'Rh2 F36'
_cell_volume   707.00074063
_cell_formula_units_Z   2
loop_
 _symmetry_equiv_pos_site_id
 _symmetry_equiv_pos_as_xyz
  1  'x, y, z'
loop_
 _atom_site_type_symbol
 _atom_site_label
 _atom_site_symmetry_multiplicity
 _atom_site_fract_x
 _atom_site_fract_y
 _atom_site_fract_z
 _atom_site_occupancy
  Rh  Rh0  1  0.158983  0.985679  0.290060  1
  Rh  Rh1  1  0.841017  0.014321  0.709940  1
  F  F2  1  0.682675  0.628650  0.369026  1
  F  F3  1  0.317325  0.371350  0.630974  1
  F  F4  1  0.057679  0.374958  0.382127  1
  F  F5  1  0.942321  0.625042  0.617873  1
  F  F6  1  0.209369  0.897829  0.948029  1
  F  F7  1  0.790631  0.102171  0.051971  1
  F  F8  1  0.890780  0.054311  0.323704  1
  F  F9  1  0.109220  0.945689  0.676296  1
  F  F10  1  0.002681  0.791925  0.298089  1
  F  F11  1  0.997319  0.208075  0.701911  1
  F  F12  1  0.589893  0.490632  0.397067  1
  F  F13  1  0.410107  0.509368  0.602933  1
  F  F14  1  0.044442  0.945233  0.153081  1
  F  F15  1  0.955558  0.054767  0.846919  1
  F  F16  1  0.267536  0.033798  0.428250  1
  F  F17  1  0.732464  0.966202  0.571750  1
  F  F18  1  0.055701  0.397375  0.281471  1
  F  F19  1  0.944299  0.602625  0.718529  1
  F  F20  1  0.724119  0.672587  0.058411  1
  F  F21  1  0.275881  0.327413  0.941589  1
  F  F22  1  0.850531  0.576645  0.001446  1
  F  F23  1  0.149469  0.423355  0.998554  1
  F  F24  1  0.540186  0.560029  0.842849  1
  F  F25  1  0.459814  0.439971  0.157151  1
  F  F26  1  0.322791  0.176685  0.280558  1
  F  F27  1  0.677209  0.823315  0.719442  1
  F  F28  1  0.271227  0.806597  0.500150  1
  F  F29  1  0.728773  0.193403  0.499850  1
  F  F30  1  0.355878  0.842679  0.011233  1
  F  F31  1  0.644122  0.157321  0.988767  1
  F  F32  1  0.422652  0.911147  0.256267  1
  F  F33  1  0.577348  0.088853  0.743733  1
  F  F34  1  0.663770  0.387863  0.179235  1
  F  F35  1  0.336230  0.612137  0.820765  1
  F  F36  1  0.238054  0.648463  0.465805  1
  F  F37  1  0.761946  0.351537  0.534195  1
