# generated using pymatgen
data_Sc2InB2Ir4Rh
_symmetry_space_group_name_H-M   'P 1'
_cell_length_a   9.54830105
_cell_length_b   9.58966302
_cell_length_c   3.12463200
_cell_angle_alpha   90.00000000
_cell_angle_beta   90.00000000
_cell_angle_gamma   90.09132446
_symmetry_Int_Tables_number   1
_chemical_formula_structural   Sc2InB2Ir4Rh
_chemical_formula_sum   'Sc4 In2 B4 Ir8 Rh2'
_cell_volume   286.10653301
_cell_formula_units_Z   2
loop_
 _symmetry_equiv_pos_site_id
 _symmetry_equiv_pos_as_xyz
  1  'x, y, z'
loop_
 _atom_site_type_symbol
 _atom_site_label
 _atom_site_symmetry_multiplicity
 _atom_site_fract_x
 _atom_site_fract_y
 _atom_site_fract_z
 _atom_site_occupancy
  Sc  Sc0  1  0.824399  0.323122  0.000000  1
  Sc  Sc1  1  0.324046  0.175914  0.000000  1
  Sc  Sc2  1  0.675954  0.824086  0.000000  1
  Sc  Sc3  1  0.175601  0.676878  0.000000  1
  In  In4  1  0.000000  0.000000  0.000000  1
  In  In5  1  0.500000  0.500000  0.000000  1
  B  B6  1  0.621890  0.122476  0.000000  1
  B  B7  1  0.121369  0.377463  0.000000  1
  B  B8  1  0.878631  0.622537  0.000000  1
  B  B9  1  0.378110  0.877524  0.000000  1
  Ir  Ir10  1  0.072213  0.225268  0.500000  1
  Ir  Ir11  1  0.224079  0.929269  0.500000  1
  Ir  Ir12  1  0.775921  0.070731  0.500000  1
  Ir  Ir13  1  0.927787  0.774732  0.500000  1
  Ir  Ir14  1  0.428431  0.724429  0.500000  1
  Ir  Ir15  1  0.571569  0.275571  0.500000  1
  Ir  Ir16  1  0.500000  0.000000  0.500000  1
  Ir  Ir17  1  0.000000  0.500000  0.500000  1
  Rh  Rh18  1  0.723750  0.571023  0.500000  1
  Rh  Rh19  1  0.276250  0.428977  0.500000  1
