# generated using pymatgen
data_Nd3Dy7(In2Au)4
_symmetry_space_group_name_H-M   'P 1'
_cell_length_a   3.70848100
_cell_length_b   8.27267052
_cell_length_c   18.64910777
_cell_angle_alpha   89.84783594
_cell_angle_beta   90.00000000
_cell_angle_gamma   90.00000000
_symmetry_Int_Tables_number   1
_chemical_formula_structural   Nd3Dy7(In2Au)4
_chemical_formula_sum   'Nd3 Dy7 In8 Au4'
_cell_volume   572.13473216
_cell_formula_units_Z   1
loop_
 _symmetry_equiv_pos_site_id
 _symmetry_equiv_pos_as_xyz
  1  'x, y, z'
loop_
 _atom_site_type_symbol
 _atom_site_label
 _atom_site_symmetry_multiplicity
 _atom_site_fract_x
 _atom_site_fract_y
 _atom_site_fract_z
 _atom_site_occupancy
  Nd  Nd0  1  0.000000  0.737178  0.283764  1
  Nd  Nd1  1  0.000000  0.000037  0.999010  1
  Nd  Nd2  1  0.000000  0.500068  0.499939  1
  Dy  Dy3  1  0.000000  0.126513  0.421398  1
  Dy  Dy4  1  0.000000  0.875732  0.581566  1
  Dy  Dy5  1  0.000000  0.375246  0.919029  1
  Dy  Dy6  1  0.000000  0.624117  0.079468  1
  Dy  Dy7  1  0.000000  0.236322  0.215852  1
  Dy  Dy8  1  0.000000  0.761571  0.782354  1
  Dy  Dy9  1  0.000000  0.261694  0.717918  1
  In  In10  1  0.500000  0.415073  0.351129  1
  In  In11  1  0.500000  0.577838  0.648882  1
  In  In12  1  0.500000  0.078383  0.851142  1
  In  In13  1  0.500000  0.923949  0.147455  1
  In  In14  1  0.500000  0.294702  0.066999  1
  In  In15  1  0.500000  0.703515  0.931098  1
  In  In16  1  0.500000  0.204725  0.569268  1
  In  In17  1  0.500000  0.800456  0.435249  1
  Au  Au18  1  0.500000  0.037069  0.304274  1
  Au  Au19  1  0.500000  0.972880  0.697274  1
  Au  Au20  1  0.500000  0.473008  0.803013  1
  Au  Au21  1  0.500000  0.519927  0.193919  1
