# generated using pymatgen
data_Tb3DyTm4In3Co
_symmetry_space_group_name_H-M   'P 1'
_cell_length_a   10.30278600
_cell_length_b   10.30278688
_cell_length_c   6.98599600
_cell_angle_alpha   90.00000000
_cell_angle_beta   90.00000000
_cell_angle_gamma   119.99999075
_symmetry_Int_Tables_number   1
_chemical_formula_structural   Tb3DyTm4In3Co
_chemical_formula_sum   'Tb6 Dy2 Tm8 In6 Co2'
_cell_volume   642.19718897
_cell_formula_units_Z   2
loop_
 _symmetry_equiv_pos_site_id
 _symmetry_equiv_pos_as_xyz
  1  'x, y, z'
loop_
 _atom_site_type_symbol
 _atom_site_label
 _atom_site_symmetry_multiplicity
 _atom_site_fract_x
 _atom_site_fract_y
 _atom_site_fract_z
 _atom_site_occupancy
  Tb  Tb0  1  0.534175  0.068422  0.790874  1
  Tb  Tb1  1  0.931645  0.465717  0.790967  1
  Tb  Tb2  1  0.533924  0.465635  0.791065  1
  Tb  Tb3  1  0.465825  0.931578  0.290874  1
  Tb  Tb4  1  0.068355  0.534283  0.290967  1
  Tb  Tb5  1  0.466076  0.534365  0.291065  1
  Dy  Dy6  1  0.000331  0.000247  0.779161  1
  Dy  Dy7  1  0.999669  0.999753  0.279161  1
  Tm  Tm8  1  0.821739  0.643521  0.498528  1
  Tm  Tm9  1  0.356391  0.178206  0.497943  1
  Tm  Tm10  1  0.821814  0.178158  0.498110  1
  Tm  Tm11  1  0.178261  0.356479  0.998528  1
  Tm  Tm12  1  0.643609  0.821794  0.997943  1
  Tm  Tm13  1  0.178186  0.821842  0.998110  1
  Tm  Tm14  1  0.666950  0.333446  0.184459  1
  Tm  Tm15  1  0.333050  0.666554  0.684459  1
  In  In16  1  0.836676  0.673468  0.040682  1
  In  In17  1  0.326584  0.163361  0.040567  1
  In  In18  1  0.836748  0.163204  0.040443  1
  In  In19  1  0.163324  0.326532  0.540682  1
  In  In20  1  0.673416  0.836639  0.540567  1
  In  In21  1  0.163252  0.836796  0.540443  1
  Co  Co22  1  0.666665  0.333308  0.565157  1
  Co  Co23  1  0.333335  0.666692  0.065157  1
