# generated using pymatgen
data_EuTh(AsPt)2
_symmetry_space_group_name_H-M   'P 1'
_cell_length_a   4.38637200
_cell_length_b   4.38637100
_cell_length_c   16.45466400
_cell_angle_alpha   90.00000000
_cell_angle_beta   90.00000000
_cell_angle_gamma   119.99999249
_symmetry_Int_Tables_number   1
_chemical_formula_structural   EuTh(AsPt)2
_chemical_formula_sum   'Eu2 Th2 As4 Pt4'
_cell_volume   274.17667469
_cell_formula_units_Z   2
loop_
 _symmetry_equiv_pos_site_id
 _symmetry_equiv_pos_as_xyz
  1  'x, y, z'
loop_
 _atom_site_type_symbol
 _atom_site_label
 _atom_site_symmetry_multiplicity
 _atom_site_fract_x
 _atom_site_fract_y
 _atom_site_fract_z
 _atom_site_occupancy
  Eu  Eu0  1  0.000000  0.000000  0.500000  1
  Eu  Eu1  1  0.000000  0.000000  0.000000  1
  Th  Th2  1  0.000000  0.000000  0.250000  1
  Th  Th3  1  0.000000  0.000000  0.750000  1
  As  As4  1  0.333333  0.666667  0.879635  1
  As  As5  1  0.666667  0.333333  0.120365  1
  As  As6  1  0.666667  0.333333  0.379635  1
  As  As7  1  0.333333  0.666667  0.620365  1
  Pt  Pt8  1  0.333333  0.666667  0.357873  1
  Pt  Pt9  1  0.666667  0.333333  0.642127  1
  Pt  Pt10  1  0.666667  0.333333  0.857873  1
  Pt  Pt11  1  0.333333  0.666667  0.142127  1
