# generated using pymatgen
data_Sr3Ca6LaV7O28
_symmetry_space_group_name_H-M   'P 1'
_cell_length_a   11.16030204
_cell_length_b   11.16031519
_cell_length_c   14.49294647
_cell_angle_alpha   67.36295470
_cell_angle_beta   67.36311089
_cell_angle_gamma   60.18762143
_symmetry_Int_Tables_number   1
_chemical_formula_structural   Sr3Ca6LaV7O28
_chemical_formula_sum   'Sr6 Ca12 La2 V14 O56'
_cell_volume   1402.72678665
_cell_formula_units_Z   2
loop_
 _symmetry_equiv_pos_site_id
 _symmetry_equiv_pos_as_xyz
  1  'x, y, z'
loop_
 _atom_site_type_symbol
 _atom_site_label
 _atom_site_symmetry_multiplicity
 _atom_site_fract_x
 _atom_site_fract_y
 _atom_site_fract_z
 _atom_site_occupancy
  Sr  Sr0  1  0.553786  0.468621  0.021690  1
  Sr  Sr1  1  0.953925  0.055040  0.020069  1
  Sr  Sr2  1  0.969882  0.453369  0.017600  1
  Sr  Sr3  1  0.055037  0.953928  0.520064  1
  Sr  Sr4  1  0.453370  0.969883  0.517598  1
  Sr  Sr5  1  0.468625  0.553782  0.521686  1
  Ca  Ca6  1  0.503874  0.005379  0.999393  1
  Ca  Ca7  1  0.567239  0.075245  0.201726  1
  Ca  Ca8  1  0.569678  0.660555  0.200436  1
  Ca  Ca9  1  0.157907  0.065082  0.200684  1
  Ca  Ca10  1  0.660551  0.569682  0.700437  1
  Ca  Ca11  1  0.065082  0.157907  0.700685  1
  Ca  Ca12  1  0.075245  0.567238  0.701725  1
  Ca  Ca13  1  0.005378  0.503875  0.499395  1
  Ca  Ca14  1  0.944527  0.850711  0.296051  1
  Ca  Ca15  1  0.350389  0.413742  0.295884  1
  Ca  Ca16  1  0.850713  0.944527  0.796049  1
  Ca  Ca17  1  0.413740  0.350388  0.795884  1
  La  La18  1  0.910481  0.440145  0.298072  1
  La  La19  1  0.440148  0.910479  0.798073  1
  V  V20  1  0.767865  0.267582  0.193868  1
  V  V21  1  0.692255  0.221724  0.896318  1
  V  V22  1  0.721545  0.691794  0.897083  1
  V  V23  1  0.191375  0.191105  0.897717  1
  V  V24  1  0.778206  0.307087  0.597551  1
  V  V25  1  0.809495  0.815311  0.596691  1
  V  V26  1  0.691798  0.721545  0.397083  1
  V  V27  1  0.315130  0.280303  0.596215  1
  V  V28  1  0.191106  0.191375  0.397717  1
  V  V29  1  0.221724  0.692253  0.396314  1
  V  V30  1  0.815311  0.809495  0.096694  1
  V  V31  1  0.280305  0.315131  0.096215  1
  V  V32  1  0.307082  0.778199  0.097542  1
  V  V33  1  0.267579  0.767862  0.693859  1
  O  O34  1  0.599865  0.267319  0.229173  1
  O  O35  1  0.766647  0.403858  0.228420  1
  O  O36  1  0.901662  0.101066  0.229490  1
  O  O37  1  0.665440  0.182788  0.029111  1
  O  O38  1  0.684350  0.618529  0.028574  1
  O  O39  1  0.812847  0.312405  0.059531  1
  O  O40  1  0.618214  0.142190  0.864178  1
  O  O41  1  0.638379  0.877798  0.868473  1
  O  O42  1  0.644492  0.644932  0.840040  1
  O  O43  1  0.605468  0.405013  0.855646  1
  O  O44  1  0.118834  0.167112  0.029274  1
  O  O45  1  0.874262  0.152527  0.843036  1
  O  O46  1  0.903810  0.637711  0.854487  1
  O  O47  1  0.603109  0.398553  0.661703  1
  O  O48  1  0.131160  0.371370  0.842748  1
  O  O49  1  0.623388  0.886717  0.637712  1
  O  O50  1  0.149358  0.093630  0.854863  1
  O  O51  1  0.377526  0.117155  0.867939  1
  O  O52  1  0.853640  0.124102  0.640550  1
  O  O53  1  0.898399  0.840223  0.659962  1
  O  O54  1  0.618531  0.684353  0.528570  1
  O  O55  1  0.876067  0.371736  0.620480  1
  O  O56  1  0.869397  0.629624  0.626923  1
  O  O57  1  0.129518  0.373530  0.627538  1
  O  O58  1  0.781893  0.358936  0.467679  1
  O  O59  1  0.865701  0.877329  0.467032  1
  O  O60  1  0.644928  0.644492  0.340038  1
  O  O61  1  0.339222  0.100873  0.657831  1
  O  O62  1  0.637712  0.903806  0.354488  1
  O  O63  1  0.385229  0.350950  0.639439  1
  O  O64  1  0.167112  0.118840  0.529268  1
  O  O65  1  0.182788  0.665440  0.529103  1
  O  O66  1  0.877801  0.638380  0.368471  1
  O  O67  1  0.117156  0.377526  0.367939  1
  O  O68  1  0.142188  0.618215  0.364177  1
  O  O69  1  0.376454  0.293939  0.466262  1
  O  O70  1  0.152521  0.874269  0.343033  1
  O  O71  1  0.093631  0.149359  0.354862  1
  O  O72  1  0.629624  0.869400  0.126924  1
  O  O73  1  0.840223  0.898404  0.159964  1
  O  O74  1  0.371376  0.131158  0.342746  1
  O  O75  1  0.886717  0.623391  0.137712  1
  O  O76  1  0.405011  0.605467  0.355645  1
  O  O77  1  0.100874  0.339224  0.157830  1
  O  O78  1  0.124091  0.853642  0.140545  1
  O  O79  1  0.877325  0.865701  0.967037  1
  O  O80  1  0.350951  0.385232  0.139438  1
  O  O81  1  0.398553  0.603107  0.161696  1
  O  O82  1  0.373531  0.129519  0.127537  1
  O  O83  1  0.371739  0.876067  0.120469  1
  O  O84  1  0.293941  0.376452  0.966263  1
  O  O85  1  0.358932  0.781889  0.967683  1
  O  O86  1  0.101072  0.901657  0.729487  1
  O  O87  1  0.267320  0.599863  0.729169  1
  O  O88  1  0.403861  0.766647  0.728418  1
  O  O89  1  0.312408  0.812847  0.559523  1
