# generated using pymatgen
data_Nb4Si4Os3Pt
_symmetry_space_group_name_H-M   'P 1'
_cell_length_a   3.87044500
_cell_length_b   6.43924767
_cell_length_c   7.34259778
_cell_angle_alpha   90.40344041
_cell_angle_beta   90.00000000
_cell_angle_gamma   90.00000000
_symmetry_Int_Tables_number   1
_chemical_formula_structural   Nb4Si4Os3Pt
_chemical_formula_sum   'Nb4 Si4 Os3 Pt1'
_cell_volume   182.99322120
_cell_formula_units_Z   1
loop_
 _symmetry_equiv_pos_site_id
 _symmetry_equiv_pos_as_xyz
  1  'x, y, z'
loop_
 _atom_site_type_symbol
 _atom_site_label
 _atom_site_symmetry_multiplicity
 _atom_site_fract_x
 _atom_site_fract_y
 _atom_site_fract_z
 _atom_site_occupancy
  Nb  Nb0  1  0.750000  0.481464  0.328170  1
  Nb  Nb1  1  0.250000  0.017678  0.822239  1
  Nb  Nb2  1  0.750000  0.974647  0.178672  1
  Nb  Nb3  1  0.250000  0.531331  0.672038  1
  Si  Si4  1  0.250000  0.270945  0.130861  1
  Si  Si5  1  0.250000  0.776679  0.372200  1
  Si  Si6  1  0.750000  0.730989  0.877953  1
  Si  Si7  1  0.750000  0.227823  0.620232  1
  Os  Os8  1  0.250000  0.645086  0.059215  1
  Os  Os9  1  0.250000  0.149515  0.441632  1
  Os  Os10  1  0.750000  0.847880  0.561866  1
  Pt  Pt11  1  0.750000  0.345962  0.934922  1
