# generated using pymatgen
data_Na(Cd2Au)2
_symmetry_space_group_name_H-M   'P 1'
_cell_length_a   8.56304800
_cell_length_b   8.56304800
_cell_length_c   4.47952100
_cell_angle_alpha   90.00000000
_cell_angle_beta   90.00000000
_cell_angle_gamma   90.00000000
_symmetry_Int_Tables_number   1
_chemical_formula_structural   Na(Cd2Au)2
_chemical_formula_sum   'Na2 Cd8 Au4'
_cell_volume   328.46442085
_cell_formula_units_Z   2
loop_
 _symmetry_equiv_pos_site_id
 _symmetry_equiv_pos_as_xyz
  1  'x, y, z'
loop_
 _atom_site_type_symbol
 _atom_site_label
 _atom_site_symmetry_multiplicity
 _atom_site_fract_x
 _atom_site_fract_y
 _atom_site_fract_z
 _atom_site_occupancy
  Na  Na0  1  0.500000  0.500000  0.500000  1
  Na  Na1  1  0.000000  0.000000  0.000000  1
  Cd  Cd2  1  0.339704  0.088683  0.500000  1
  Cd  Cd3  1  0.660296  0.911317  0.500000  1
  Cd  Cd4  1  0.839704  0.411317  0.000000  1
  Cd  Cd5  1  0.160296  0.588683  0.000000  1
  Cd  Cd6  1  0.088683  0.339704  0.500000  1
  Cd  Cd7  1  0.911317  0.660296  0.500000  1
  Cd  Cd8  1  0.411317  0.839704  0.000000  1
  Cd  Cd9  1  0.588683  0.160296  0.000000  1
  Au  Au10  1  0.785692  0.214308  0.500000  1
  Au  Au11  1  0.214308  0.785692  0.500000  1
  Au  Au12  1  0.285692  0.285692  0.000000  1
  Au  Au13  1  0.714308  0.714308  0.000000  1
