# generated using pymatgen
data_AgPdF34
_symmetry_space_group_name_H-M   'P 1'
_cell_length_a   8.75121950
_cell_length_b   8.48503995
_cell_length_c   10.10312266
_cell_angle_alpha   81.78673536
_cell_angle_beta   89.18952476
_cell_angle_gamma   64.01733733
_symmetry_Int_Tables_number   1
_chemical_formula_structural   AgPdF34
_chemical_formula_sum   'Ag1 Pd1 F34'
_cell_volume   666.46939384
_cell_formula_units_Z   1
loop_
 _symmetry_equiv_pos_site_id
 _symmetry_equiv_pos_as_xyz
  1  'x, y, z'
loop_
 _atom_site_type_symbol
 _atom_site_label
 _atom_site_symmetry_multiplicity
 _atom_site_fract_x
 _atom_site_fract_y
 _atom_site_fract_z
 _atom_site_occupancy
  Ag  Ag0  1  0.867057  0.248988  0.752773  1
  Pd  Pd1  1  0.133329  0.750444  0.243540  1
  F  F2  1  0.605662  0.212683  0.489822  1
  F  F3  1  0.401210  0.780355  0.514852  1
  F  F4  1  0.830505  0.676287  0.717537  1
  F  F5  1  0.163902  0.312011  0.275259  1
  F  F6  1  0.092360  0.761694  0.871067  1
  F  F7  1  0.902543  0.233119  0.133621  1
  F  F8  1  0.567028  0.148579  0.376883  1
  F  F9  1  0.430108  0.854999  0.624483  1
  F  F10  1  0.635241  0.336338  0.680772  1
  F  F11  1  0.361021  0.664050  0.312811  1
  F  F12  1  0.941490  0.056733  0.647771  1
  F  F13  1  0.061798  0.937691  0.346650  1
  F  F14  1  0.910131  0.390355  0.602493  1
  F  F15  1  0.093146  0.608604  0.388564  1
  F  F16  1  0.841812  0.821525  0.634094  1
  F  F17  1  0.145736  0.195458  0.383141  1
  F  F18  1  0.797043  0.445371  0.853139  1
  F  F19  1  0.202103  0.560936  0.141534  1
  F  F20  1  0.215983  0.686292  0.777453  1
  F  F21  1  0.784611  0.314953  0.229211  1
  F  F22  1  0.907165  0.835770  0.172437  1
  F  F23  1  0.097150  0.162950  0.825909  1
  F  F24  1  0.822262  0.106382  0.900650  1
  F  F25  1  0.176911  0.892237  0.100157  1
  F  F26  1  0.482313  0.589308  0.998424  1
  F  F27  1  0.518858  0.408530  0.000702  1
  F  F28  1  0.469219  0.084351  0.861663  1
  F  F29  1  0.526560  0.912784  0.139578  1
  F  F30  1  0.283589  0.260972  0.603106  1
  F  F31  1  0.727343  0.745440  0.396812  1
  F  F32  1  0.259838  0.403190  0.672644  1
  F  F33  1  0.741826  0.603027  0.330542  1
  F  F34  1  0.548799  0.902169  0.846636  1
  F  F35  1  0.454343  0.095427  0.153272  1
