# generated using pymatgen
data_Na8Li4In4Bi7Sb
_symmetry_space_group_name_H-M   'P 1'
_cell_length_a   10.50110477
_cell_length_b   10.50110542
_cell_length_c   6.48957773
_cell_angle_alpha   90.06373917
_cell_angle_beta   89.93626090
_cell_angle_gamma   98.11949840
_symmetry_Int_Tables_number   1
_chemical_formula_structural   Na8Li4In4Bi7Sb
_chemical_formula_sum   'Na8 Li4 In4 Bi7 Sb1'
_cell_volume   708.45209710
_cell_formula_units_Z   1
loop_
 _symmetry_equiv_pos_site_id
 _symmetry_equiv_pos_as_xyz
  1  'x, y, z'
loop_
 _atom_site_type_symbol
 _atom_site_label
 _atom_site_symmetry_multiplicity
 _atom_site_fract_x
 _atom_site_fract_y
 _atom_site_fract_z
 _atom_site_occupancy
  Na  Na0  1  0.079130  0.424344  0.249419  1
  Na  Na1  1  0.422555  0.078182  0.750073  1
  Na  Na2  1  0.921818  0.577445  0.750073  1
  Na  Na3  1  0.575656  0.920870  0.249419  1
  Na  Na4  1  0.672365  0.327635  0.232053  1
  Na  Na5  1  0.827414  0.172586  0.732074  1
  Na  Na6  1  0.328310  0.671690  0.771998  1
  Na  Na7  1  0.175944  0.824056  0.267150  1
  Li  Li8  1  0.379662  0.382784  0.001948  1
  Li  Li9  1  0.120635  0.120511  0.499656  1
  Li  Li10  1  0.617216  0.620338  0.001948  1
  Li  Li11  1  0.879489  0.879365  0.499656  1
  In  In12  1  0.131382  0.131018  0.999459  1
  In  In13  1  0.368911  0.371053  0.499226  1
  In  In14  1  0.868982  0.868618  0.999459  1
  In  In15  1  0.628947  0.631089  0.499226  1
  Bi  Bi16  1  0.868400  0.629906  0.250017  1
  Bi  Bi17  1  0.629818  0.870539  0.749162  1
  Bi  Bi18  1  0.129460  0.370181  0.749162  1
  Bi  Bi19  1  0.370093  0.131599  0.250017  1
  Bi  Bi20  1  0.883407  0.116593  0.239821  1
  Bi  Bi21  1  0.615759  0.384241  0.740722  1
  Bi  Bi22  1  0.116507  0.883493  0.757979  1
  Sb  Sb23  1  0.388138  0.611862  0.260282  1
