# generated using pymatgen
data_Cs8Ta(NbCl8)3
_symmetry_space_group_name_H-M   'P 1'
_cell_length_a   12.80108186
_cell_length_b   12.80108162
_cell_length_c   12.80108200
_cell_angle_alpha   132.09777491
_cell_angle_beta   132.09777997
_cell_angle_gamma   70.07464416
_symmetry_Int_Tables_number   1
_chemical_formula_structural   Cs8Ta(NbCl8)3
_chemical_formula_sum   'Cs8 Ta1 Nb3 Cl24'
_cell_volume   1132.20838262
_cell_formula_units_Z   1
loop_
 _symmetry_equiv_pos_site_id
 _symmetry_equiv_pos_as_xyz
  1  'x, y, z'
loop_
 _atom_site_type_symbol
 _atom_site_label
 _atom_site_symmetry_multiplicity
 _atom_site_fract_x
 _atom_site_fract_y
 _atom_site_fract_z
 _atom_site_occupancy
  Cs  Cs0  1  0.617990  0.616708  0.488433  1
  Cs  Cs1  1  0.870443  0.382010  0.998718  1
  Cs  Cs2  1  0.128274  0.129557  0.511567  1
  Cs  Cs3  1  0.383292  0.871726  0.001282  1
  Cs  Cs4  1  0.128274  0.616708  0.998718  1
  Cs  Cs5  1  0.870443  0.871726  0.488433  1
  Cs  Cs6  1  0.383292  0.382010  0.511567  1
  Cs  Cs7  1  0.617990  0.129557  0.001282  1
  Ta  Ta8  1  0.000000  0.000000  0.000000  1
  Nb  Nb9  1  0.250000  0.750000  0.500000  1
  Nb  Nb10  1  0.500000  0.500000  0.000000  1
  Nb  Nb11  1  0.750000  0.250000  0.500000  1
  Cl  Cl12  1  0.113748  0.113748  0.000000  1
  Cl  Cl13  1  0.486414  0.750188  0.736226  1
  Cl  Cl14  1  0.869404  0.369404  0.500000  1
  Cl  Cl15  1  0.990364  0.249806  0.740559  1
  Cl  Cl16  1  0.886252  0.886252  0.000000  1
  Cl  Cl17  1  0.249812  0.986037  0.736226  1
  Cl  Cl18  1  0.265876  0.500047  0.765830  1
  Cl  Cl19  1  0.499953  0.265783  0.765830  1
  Cl  Cl20  1  0.499953  0.734124  0.234170  1
  Cl  Cl21  1  0.509246  0.249806  0.259441  1
  Cl  Cl22  1  0.999903  0.770986  0.771083  1
  Cl  Cl23  1  0.249812  0.513586  0.263774  1
  Cl  Cl24  1  0.132664  0.632664  0.500000  1
  Cl  Cl25  1  0.734217  0.500047  0.234170  1
  Cl  Cl26  1  0.229014  0.000097  0.228917  1
  Cl  Cl27  1  0.750194  0.009636  0.259441  1
  Cl  Cl28  1  0.771181  0.000097  0.771083  1
  Cl  Cl29  1  0.630596  0.130596  0.500000  1
  Cl  Cl30  1  0.383188  0.383188  0.000000  1
  Cl  Cl31  1  0.616812  0.616812  0.000000  1
  Cl  Cl32  1  0.750194  0.490754  0.740559  1
  Cl  Cl33  1  0.013963  0.750188  0.263774  1
  Cl  Cl34  1  0.999903  0.228819  0.228917  1
  Cl  Cl35  1  0.367336  0.867336  0.500000  1
