# generated using pymatgen
data_LiGdB14
_symmetry_space_group_name_H-M   'P 1'
_cell_length_a   7.27994904
_cell_length_b   7.27994992
_cell_length_c   7.27994994
_cell_angle_alpha   132.39277283
_cell_angle_beta   110.90372701
_cell_angle_gamma   88.22308289
_symmetry_Int_Tables_number   1
_chemical_formula_structural   LiGdB14
_chemical_formula_sum   'Li2 Gd2 B28'
_cell_volume   253.61443926
_cell_formula_units_Z   2
loop_
 _symmetry_equiv_pos_site_id
 _symmetry_equiv_pos_as_xyz
  1  'x, y, z'
loop_
 _atom_site_type_symbol
 _atom_site_label
 _atom_site_symmetry_multiplicity
 _atom_site_fract_x
 _atom_site_fract_y
 _atom_site_fract_z
 _atom_site_occupancy
  Li  Li0  1  0.000000  0.000000  0.500000  1
  Li  Li1  1  0.000000  0.500000  0.000000  1
  Gd  Gd2  1  0.620466  0.250000  0.370466  1
  Gd  Gd3  1  0.379534  0.750000  0.629534  1
  B  B4  1  0.638163  0.665749  0.972414  1
  B  B5  1  0.361837  0.334251  0.027586  1
  B  B6  1  0.193334  0.165749  0.027586  1
  B  B7  1  0.806666  0.834251  0.972414  1
  B  B8  1  0.778164  0.148874  0.629290  1
  B  B9  1  0.221836  0.851126  0.370710  1
  B  B10  1  0.019582  0.648874  0.370710  1
  B  B11  1  0.980418  0.351126  0.629290  1
  B  B12  1  0.916324  0.088926  0.827399  1
  B  B13  1  0.083676  0.911074  0.172601  1
  B  B14  1  0.761527  0.588926  0.172601  1
  B  B15  1  0.238473  0.411074  0.827399  1
  B  B16  1  0.398193  0.399787  0.681550  1
  B  B17  1  0.601807  0.283356  0.001595  1
  B  B18  1  0.218239  0.899787  0.001595  1
  B  B19  1  0.781761  0.783356  0.681550  1
  B  B20  1  0.601807  0.600213  0.318450  1
  B  B21  1  0.398193  0.716644  0.998405  1
  B  B22  1  0.781761  0.100213  0.998405  1
  B  B23  1  0.218239  0.216644  0.318450  1
  B  B24  1  0.033233  0.829993  0.703621  1
  B  B25  1  0.966767  0.670388  0.796760  1
  B  B26  1  0.626372  0.329993  0.796760  1
  B  B27  1  0.373628  0.170388  0.703621  1
  B  B28  1  0.966767  0.170007  0.296379  1
  B  B29  1  0.033233  0.329612  0.203240  1
  B  B30  1  0.373628  0.670007  0.203240  1
  B  B31  1  0.626372  0.829612  0.296379  1
