# generated using pymatgen
data_Th2Ir7
_symmetry_space_group_name_H-M   'P 1'
_cell_length_a   5.36327584
_cell_length_b   5.36327656
_cell_length_c   13.67739642
_cell_angle_alpha   78.69313676
_cell_angle_beta   78.69313725
_cell_angle_gamma   59.99999826
_symmetry_Int_Tables_number   1
_chemical_formula_structural   Th2Ir7
_chemical_formula_sum   'Th4 Ir14'
_cell_volume   331.87094451
_cell_formula_units_Z   2
loop_
 _symmetry_equiv_pos_site_id
 _symmetry_equiv_pos_as_xyz
  1  'x, y, z'
loop_
 _atom_site_type_symbol
 _atom_site_label
 _atom_site_symmetry_multiplicity
 _atom_site_fract_x
 _atom_site_fract_y
 _atom_site_fract_z
 _atom_site_occupancy
  Th  Th0  1  0.950265  0.950265  0.149205  1
  Th  Th1  1  0.049735  0.049735  0.850795  1
  Th  Th2  1  0.853283  0.853283  0.440153  1
  Th  Th3  1  0.146717  0.146717  0.559847  1
  Ir  Ir4  1  0.389362  0.389362  0.329211  1
  Ir  Ir5  1  0.892064  0.389362  0.329211  1
  Ir  Ir6  1  0.389362  0.892064  0.329211  1
  Ir  Ir7  1  0.610638  0.610638  0.670789  1
  Ir  Ir8  1  0.107936  0.610638  0.670789  1
  Ir  Ir9  1  0.610638  0.107936  0.670789  1
  Ir  Ir10  1  0.000000  0.500000  0.000000  1
  Ir  Ir11  1  0.500000  0.000000  0.000000  1
  Ir  Ir12  1  0.500000  0.500000  0.000000  1
  Ir  Ir13  1  0.722003  0.722003  0.833989  1
  Ir  Ir14  1  0.277997  0.277997  0.166011  1
  Ir  Ir15  1  0.611126  0.611126  0.166622  1
  Ir  Ir16  1  0.388874  0.388874  0.833378  1
  Ir  Ir17  1  0.500000  0.500000  0.500000  1
