# generated using pymatgen
data_Sr8Cd14InPbAu12
_symmetry_space_group_name_H-M   'P 1'
_cell_length_a   15.45178516
_cell_length_b   15.34779729
_cell_length_c   4.56035200
_cell_angle_alpha   90.00000000
_cell_angle_beta   90.00000000
_cell_angle_gamma   119.91646274
_symmetry_Int_Tables_number   1
_chemical_formula_structural   Sr8Cd14InPbAu12
_chemical_formula_sum   'Sr8 Cd14 In1 Pb1 Au12'
_cell_volume   937.38646197
_cell_formula_units_Z   1
loop_
 _symmetry_equiv_pos_site_id
 _symmetry_equiv_pos_as_xyz
  1  'x, y, z'
loop_
 _atom_site_type_symbol
 _atom_site_label
 _atom_site_symmetry_multiplicity
 _atom_site_fract_x
 _atom_site_fract_y
 _atom_site_fract_z
 _atom_site_occupancy
  Sr  Sr0  1  0.452370  0.999371  0.000000  1
  Sr  Sr1  1  0.997279  0.452731  0.000000  1
  Sr  Sr2  1  0.551024  0.549270  0.000000  1
  Sr  Sr3  1  0.335090  0.669121  0.000000  1
  Sr  Sr4  1  0.666152  0.331814  0.000000  1
  Sr  Sr5  1  0.820681  0.998452  0.500000  1
  Sr  Sr6  1  0.999290  0.819882  0.500000  1
  Sr  Sr7  1  0.179169  0.175933  0.500000  1
  Cd  Cd8  1  0.624163  0.802497  0.000000  1
  Cd  Cd9  1  0.379313  0.177357  0.000000  1
  Cd  Cd10  1  0.198507  0.818811  0.000000  1
  Cd  Cd11  1  0.800941  0.620707  0.000000  1
  Cd  Cd12  1  0.818866  0.199216  0.000000  1
  Cd  Cd13  1  0.281411  0.001265  0.500000  1
  Cd  Cd14  1  0.988356  0.274018  0.500000  1
  Cd  Cd15  1  0.719315  0.720782  0.500000  1
  Cd  Cd16  1  0.353564  0.476803  0.500000  1
  Cd  Cd17  1  0.530164  0.875841  0.500000  1
  Cd  Cd18  1  0.470837  0.345259  0.500000  1
  Cd  Cd19  1  0.122445  0.656679  0.500000  1
  Cd  Cd20  1  0.875847  0.530106  0.500000  1
  Cd  Cd21  1  0.654150  0.125532  0.500000  1
  In  In22  1  0.999480  0.997473  0.000000  1
  Pb  Pb23  1  0.181773  0.379712  0.000000  1
  Au  Au24  1  0.168995  0.497854  0.500000  1
  Au  Au25  1  0.508019  0.678121  0.500000  1
  Au  Au26  1  0.494200  0.169087  0.500000  1
  Au  Au27  1  0.324577  0.830372  0.500000  1
  Au  Au28  1  0.675959  0.505903  0.500000  1
  Au  Au29  1  0.829307  0.324488  0.500000  1
  Au  Au30  1  0.175030  0.000503  0.000000  1
  Au  Au31  1  0.996550  0.170899  0.000000  1
  Au  Au32  1  0.824379  0.824483  0.000000  1
  Au  Au33  1  0.656994  0.000521  0.000000  1
  Au  Au34  1  0.999172  0.657477  0.000000  1
  Au  Au35  1  0.346631  0.341661  0.000000  1
