# generated using pymatgen
data_La7Ce3Tc4
_symmetry_space_group_name_H-M   'P 1'
_cell_length_a   9.11721212
_cell_length_b   9.13845712
_cell_length_c   7.31163819
_cell_angle_alpha   86.03705565
_cell_angle_beta   85.14808982
_cell_angle_gamma   42.52374950
_symmetry_Int_Tables_number   1
_chemical_formula_structural   La7Ce3Tc4
_chemical_formula_sum   'La7 Ce3 Tc4'
_cell_volume   410.24976462
_cell_formula_units_Z   1
loop_
 _symmetry_equiv_pos_site_id
 _symmetry_equiv_pos_as_xyz
  1  'x, y, z'
loop_
 _atom_site_type_symbol
 _atom_site_label
 _atom_site_symmetry_multiplicity
 _atom_site_fract_x
 _atom_site_fract_y
 _atom_site_fract_z
 _atom_site_occupancy
  La  La0  1  0.798815  0.017916  0.406093  1
  La  La1  1  0.351382  0.223279  0.821563  1
  La  La2  1  0.786450  0.641464  0.681475  1
  La  La3  1  0.647987  0.782939  0.178829  1
  La  La4  1  0.216389  0.351855  0.318388  1
  La  La5  1  0.574257  0.428755  0.756606  1
  La  La6  1  0.421765  0.577423  0.252863  1
  Ce  Ce7  1  0.000588  0.814406  0.895153  1
  Ce  Ce8  1  0.192914  0.992402  0.606497  1
  Ce  Ce9  1  0.991445  0.190726  0.104901  1
  Tc  Tc10  1  0.154322  0.626066  0.610176  1
  Tc  Tc11  1  0.339336  0.875147  0.898416  1
  Tc  Tc12  1  0.867332  0.345648  0.400397  1
  Tc  Tc13  1  0.657019  0.131975  0.068643  1
