# generated using pymatgen
data_Zr3Cr2P3Os
_symmetry_space_group_name_H-M   'P 1'
_cell_length_a   6.64839804
_cell_length_b   6.63936510
_cell_length_c   3.53003900
_cell_angle_alpha   90.00000000
_cell_angle_beta   90.00000000
_cell_angle_gamma   119.95508030
_symmetry_Int_Tables_number   1
_chemical_formula_structural   Zr3Cr2P3Os
_chemical_formula_sum   'Zr3 Cr2 P3 Os1'
_cell_volume   135.00507695
_cell_formula_units_Z   1
loop_
 _symmetry_equiv_pos_site_id
 _symmetry_equiv_pos_as_xyz
  1  'x, y, z'
loop_
 _atom_site_type_symbol
 _atom_site_label
 _atom_site_symmetry_multiplicity
 _atom_site_fract_x
 _atom_site_fract_y
 _atom_site_fract_z
 _atom_site_occupancy
  Zr  Zr0  1  0.410655  0.410141  0.500000  1
  Zr  Zr1  1  0.589345  0.999486  0.500000  1
  Zr  Zr2  1  0.000000  0.593841  0.500000  1
  Cr  Cr3  1  0.754207  0.755169  0.000000  1
  Cr  Cr4  1  0.245793  0.000962  0.000000  1
  P  P5  1  0.663714  0.335008  0.000000  1
  P  P6  1  0.336286  0.671295  0.000000  1
  P  P7  1  0.000000  0.993714  0.500000  1
  Os  Os8  1  0.000000  0.240383  0.000000  1
