# generated using pymatgen
data_Ce3AlCd2Pd3
_symmetry_space_group_name_H-M   'P 1'
_cell_length_a   7.63255689
_cell_length_b   7.63255635
_cell_length_c   4.01507500
_cell_angle_alpha   90.00000000
_cell_angle_beta   90.00000000
_cell_angle_gamma   120.59937113
_symmetry_Int_Tables_number   1
_chemical_formula_structural   Ce3AlCd2Pd3
_chemical_formula_sum   'Ce3 Al1 Cd2 Pd3'
_cell_volume   201.33049393
_cell_formula_units_Z   1
loop_
 _symmetry_equiv_pos_site_id
 _symmetry_equiv_pos_as_xyz
  1  'x, y, z'
loop_
 _atom_site_type_symbol
 _atom_site_label
 _atom_site_symmetry_multiplicity
 _atom_site_fract_x
 _atom_site_fract_y
 _atom_site_fract_z
 _atom_site_occupancy
  Ce  Ce0  1  0.421527  0.421527  0.000000  1
  Ce  Ce1  1  0.589483  0.999349  0.000000  1
  Ce  Ce2  1  0.999349  0.589483  0.000000  1
  Al  Al3  1  0.751135  0.751135  0.500000  1
  Cd  Cd4  1  0.248765  0.004594  0.500000  1
  Cd  Cd5  1  0.004594  0.248765  0.500000  1
  Pd  Pd6  1  0.673699  0.353446  0.500000  1
  Pd  Pd7  1  0.353446  0.673699  0.500000  1
  Pd  Pd8  1  0.958001  0.958001  0.000000  1
