# generated using pymatgen
data_Na3O2F
_symmetry_space_group_name_H-M   'P 1'
_cell_length_a   3.63798383
_cell_length_b   3.62905253
_cell_length_c   7.31085841
_cell_angle_alpha   76.40459681
_cell_angle_beta   104.26904931
_cell_angle_gamma   120.00782285
_symmetry_Int_Tables_number   1
_chemical_formula_structural   Na3O2F
_chemical_formula_sum   'Na3 O2 F1'
_cell_volume   80.28258683
_cell_formula_units_Z   1
loop_
 _symmetry_equiv_pos_site_id
 _symmetry_equiv_pos_as_xyz
  1  'x, y, z'
loop_
 _atom_site_type_symbol
 _atom_site_label
 _atom_site_symmetry_multiplicity
 _atom_site_fract_x
 _atom_site_fract_y
 _atom_site_fract_z
 _atom_site_occupancy
  Na  Na0  1  0.781744  0.744447  0.167468  1
  Na  Na1  1  0.346157  0.191336  0.849854  1
  Na  Na2  1  0.553170  0.981978  0.470899  1
  O  O3  1  0.077512  0.448448  0.051222  1
  O  O4  1  0.152571  0.380486  0.274734  1
  F  F5  1  0.957805  0.605313  0.651973  1
