# generated using pymatgen
data_Ti3InCu2O
_symmetry_space_group_name_H-M   'P 1'
_cell_length_a   8.22560348
_cell_length_b   8.22560185
_cell_length_c   8.22560300
_cell_angle_alpha   59.99999941
_cell_angle_beta   60.00000594
_cell_angle_gamma   60.00000672
_symmetry_Int_Tables_number   1
_chemical_formula_structural   Ti3InCu2O
_chemical_formula_sum   'Ti12 In4 Cu8 O4'
_cell_volume   393.53942002
_cell_formula_units_Z   4
loop_
 _symmetry_equiv_pos_site_id
 _symmetry_equiv_pos_as_xyz
  1  'x, y, z'
loop_
 _atom_site_type_symbol
 _atom_site_label
 _atom_site_symmetry_multiplicity
 _atom_site_fract_x
 _atom_site_fract_y
 _atom_site_fract_z
 _atom_site_occupancy
  Ti  Ti0  1  0.822355  0.177645  0.822355  1
  Ti  Ti1  1  0.177645  0.822355  0.177645  1
  Ti  Ti2  1  0.427645  0.072355  0.427645  1
  Ti  Ti3  1  0.427645  0.072355  0.072355  1
  Ti  Ti4  1  0.072355  0.427645  0.427645  1
  Ti  Ti5  1  0.072355  0.427645  0.072355  1
  Ti  Ti6  1  0.177645  0.177645  0.822355  1
  Ti  Ti7  1  0.427645  0.427645  0.072355  1
  Ti  Ti8  1  0.177645  0.822355  0.822355  1
  Ti  Ti9  1  0.822355  0.177645  0.177645  1
  Ti  Ti10  1  0.072355  0.072355  0.427645  1
  Ti  Ti11  1  0.822355  0.822355  0.177645  1
  In  In12  1  0.125000  0.625000  0.625000  1
  In  In13  1  0.625000  0.625000  0.125000  1
  In  In14  1  0.625000  0.625000  0.625000  1
  In  In15  1  0.625000  0.125000  0.625000  1
  Cu  Cu16  1  0.409033  0.772902  0.409033  1
  Cu  Cu17  1  0.840967  0.840967  0.477098  1
  Cu  Cu18  1  0.840967  0.840967  0.840967  1
  Cu  Cu19  1  0.477098  0.840967  0.840967  1
  Cu  Cu20  1  0.409033  0.409033  0.409033  1
  Cu  Cu21  1  0.409033  0.409033  0.772902  1
  Cu  Cu22  1  0.840967  0.477098  0.840967  1
  Cu  Cu23  1  0.772902  0.409033  0.409033  1
  O  O24  1  0.125000  0.125000  0.625000  1
  O  O25  1  0.625000  0.125000  0.125000  1
  O  O26  1  0.125000  0.125000  0.125000  1
  O  O27  1  0.125000  0.625000  0.125000  1
