# generated using pymatgen
data_Y2Ag2Ir3RhO14
_symmetry_space_group_name_H-M   'P 1'
_cell_length_a   7.23273213
_cell_length_b   7.15578436
_cell_length_c   7.23273452
_cell_angle_alpha   60.40860646
_cell_angle_beta   61.20931760
_cell_angle_gamma   60.40860186
_symmetry_Int_Tables_number   1
_chemical_formula_structural   Y2Ag2Ir3RhO14
_chemical_formula_sum   'Y2 Ag2 Ir3 Rh1 O14'
_cell_volume   268.69769151
_cell_formula_units_Z   1
loop_
 _symmetry_equiv_pos_site_id
 _symmetry_equiv_pos_as_xyz
  1  'x, y, z'
loop_
 _atom_site_type_symbol
 _atom_site_label
 _atom_site_symmetry_multiplicity
 _atom_site_fract_x
 _atom_site_fract_y
 _atom_site_fract_z
 _atom_site_occupancy
  Y  Y0  1  0.625000  0.125000  0.125000  1
  Y  Y1  1  0.125000  0.125000  0.625000  1
  Ag  Ag2  1  0.125000  0.625000  0.125000  1
  Ag  Ag3  1  0.125000  0.125000  0.125000  1
  Ir  Ir4  1  0.125000  0.625000  0.625000  1
  Ir  Ir5  1  0.625000  0.125000  0.625000  1
  Ir  Ir6  1  0.625000  0.625000  0.125000  1
  Rh  Rh7  1  0.625000  0.625000  0.625000  1
  O  O8  1  0.696592  0.712873  0.294093  1
  O  O9  1  0.300294  0.295102  0.696600  1
  O  O10  1  0.714871  0.283223  0.714871  1
  O  O11  1  0.307622  0.693635  0.307622  1
  O  O12  1  0.294093  0.712873  0.696592  1
  O  O13  1  0.696600  0.295102  0.300294  1
  O  O14  1  0.553408  0.537127  0.955907  1
  O  O15  1  0.949706  0.954898  0.553400  1
  O  O16  1  0.535129  0.966777  0.535129  1
  O  O17  1  0.942378  0.556365  0.942378  1
  O  O18  1  0.955907  0.537127  0.553408  1
  O  O19  1  0.553400  0.954898  0.949706  1
  O  O20  1  0.243229  0.257792  0.243229  1
  O  O21  1  0.006771  0.992208  0.006771  1
