# generated using pymatgen
data_Tb9Nd3(SiI3)4
_symmetry_space_group_name_H-M   'P 1'
_cell_length_a   10.59957660
_cell_length_b   10.59296351
_cell_length_c   10.60121670
_cell_angle_alpha   109.59493832
_cell_angle_beta   109.42051024
_cell_angle_gamma   109.38881323
_symmetry_Int_Tables_number   1
_chemical_formula_structural   Tb9Nd3(SiI3)4
_chemical_formula_sum   'Tb9 Nd3 Si4 I12'
_cell_volume   916.40819627
_cell_formula_units_Z   1
loop_
 _symmetry_equiv_pos_site_id
 _symmetry_equiv_pos_as_xyz
  1  'x, y, z'
loop_
 _atom_site_type_symbol
 _atom_site_label
 _atom_site_symmetry_multiplicity
 _atom_site_fract_x
 _atom_site_fract_y
 _atom_site_fract_z
 _atom_site_occupancy
  Tb  Tb0  1  0.231179  0.460644  0.479055  1
  Tb  Tb1  1  0.268716  0.748207  0.229462  1
  Tb  Tb2  1  0.039970  0.269985  0.019985  1
  Tb  Tb3  1  0.018333  0.039071  0.270341  1
  Tb  Tb4  1  0.479819  0.750466  0.020454  1
  Tb  Tb5  1  0.479821  0.229354  0.459365  1
  Tb  Tb6  1  0.018333  0.479262  0.747992  1
  Tb  Tb7  1  0.268716  0.020508  0.039253  1
  Tb  Tb8  1  0.231179  0.270535  0.752124  1
  Nd  Nd9  1  0.465466  0.482733  0.232732  1
  Nd  Nd10  1  0.749414  0.232814  0.266953  1
  Nd  Nd11  1  0.749415  0.016602  0.482462  1
  Si  Si12  1  0.247236  0.247195  0.249826  1
  Si  Si13  1  0.494524  0.997262  0.247262  1
  Si  Si14  1  0.004935  0.252468  0.502468  1
  Si  Si15  1  0.247236  0.500042  0.997410  1
  I  I16  1  0.249794  0.755196  0.744673  1
  I  I17  1  0.510494  0.505248  0.755249  1
  I  I18  1  0.989485  0.744742  0.994742  1
  I  I19  1  0.744869  0.256641  0.761299  1
  I  I20  1  0.998745  0.988470  0.748334  1
  I  I21  1  0.249792  0.994597  0.505120  1
  I  I22  1  0.759304  0.517102  0.516547  1
  I  I23  1  0.500153  0.242998  0.983322  1
  I  I24  1  0.759303  0.742201  0.242757  1
  I  I25  1  0.744868  0.988227  0.983572  1
  I  I26  1  0.998745  0.510275  0.250411  1
  I  I27  1  0.500155  0.757157  0.516830  1
