# generated using pymatgen
data_Tb8In3Co
_symmetry_space_group_name_H-M   'P 1'
_cell_length_a   10.43449200
_cell_length_b   10.43449324
_cell_length_c   7.06135600
_cell_angle_alpha   90.00000000
_cell_angle_beta   90.00000000
_cell_angle_gamma   120.00000242
_symmetry_Int_Tables_number   1
_chemical_formula_structural   Tb8In3Co
_chemical_formula_sum   'Tb16 In6 Co2'
_cell_volume   665.82699745
_cell_formula_units_Z   2
loop_
 _symmetry_equiv_pos_site_id
 _symmetry_equiv_pos_as_xyz
  1  'x, y, z'
loop_
 _atom_site_type_symbol
 _atom_site_label
 _atom_site_symmetry_multiplicity
 _atom_site_fract_x
 _atom_site_fract_y
 _atom_site_fract_z
 _atom_site_occupancy
  Tb  Tb0  1  0.464113  0.535887  0.482959  1
  Tb  Tb1  1  0.071773  0.535887  0.482959  1
  Tb  Tb2  1  0.464113  0.928227  0.482959  1
  Tb  Tb3  1  0.535887  0.464113  0.982959  1
  Tb  Tb4  1  0.928227  0.464113  0.982959  1
  Tb  Tb5  1  0.535887  0.071773  0.982959  1
  Tb  Tb6  1  0.822376  0.177624  0.275414  1
  Tb  Tb7  1  0.355248  0.177624  0.275414  1
  Tb  Tb8  1  0.822376  0.644752  0.275414  1
  Tb  Tb9  1  0.177624  0.822376  0.775414  1
  Tb  Tb10  1  0.644752  0.822376  0.775414  1
  Tb  Tb11  1  0.177624  0.355248  0.775414  1
  Tb  Tb12  1  0.333333  0.666667  0.091150  1
  Tb  Tb13  1  0.666667  0.333333  0.591150  1
  Tb  Tb14  1  0.000000  0.000000  0.496217  1
  Tb  Tb15  1  0.000000  0.000000  0.996217  1
  In  In16  1  0.163291  0.836709  0.234071  1
  In  In17  1  0.673417  0.836709  0.234071  1
  In  In18  1  0.163291  0.326583  0.234071  1
  In  In19  1  0.836709  0.163291  0.734071  1
  In  In20  1  0.326583  0.163291  0.734071  1
  In  In21  1  0.836709  0.673417  0.734071  1
  Co  Co22  1  0.333333  0.666667  0.707578  1
  Co  Co23  1  0.666667  0.333333  0.207578  1
