# generated using pymatgen
data_TaCo(SeO3)4
_symmetry_space_group_name_H-M   'P 1'
_cell_length_a   8.04223900
_cell_length_b   8.16726028
_cell_length_c   8.18226306
_cell_angle_alpha   89.18608318
_cell_angle_beta   90.00000000
_cell_angle_gamma   90.00000000
_symmetry_Int_Tables_number   1
_chemical_formula_structural   TaCo(SeO3)4
_chemical_formula_sum   'Ta2 Co2 Se8 O24'
_cell_volume   537.38184267
_cell_formula_units_Z   2
loop_
 _symmetry_equiv_pos_site_id
 _symmetry_equiv_pos_as_xyz
  1  'x, y, z'
loop_
 _atom_site_type_symbol
 _atom_site_label
 _atom_site_symmetry_multiplicity
 _atom_site_fract_x
 _atom_site_fract_y
 _atom_site_fract_z
 _atom_site_occupancy
  Ta  Ta0  1  0.000000  0.000000  0.500000  1
  Ta  Ta1  1  0.500000  0.000000  0.000000  1
  Co  Co2  1  0.000000  0.500000  0.000000  1
  Co  Co3  1  0.500000  0.500000  0.500000  1
  Se  Se4  1  0.308142  0.645254  0.190837  1
  Se  Se5  1  0.808142  0.354746  0.309163  1
  Se  Se6  1  0.663285  0.793749  0.660941  1
  Se  Se7  1  0.163285  0.206251  0.839059  1
  Se  Se8  1  0.691858  0.354746  0.809163  1
  Se  Se9  1  0.191858  0.645254  0.690837  1
  Se  Se10  1  0.336715  0.206251  0.339059  1
  Se  Se11  1  0.836715  0.793749  0.160941  1
  O  O12  1  0.236596  0.521373  0.037513  1
  O  O13  1  0.736596  0.478627  0.462487  1
  O  O14  1  0.762457  0.951681  0.550087  1
  O  O15  1  0.262457  0.048319  0.949913  1
  O  O16  1  0.530693  0.920048  0.771738  1
  O  O17  1  0.460306  0.515003  0.267184  1
  O  O18  1  0.960306  0.484997  0.232816  1
  O  O19  1  0.030693  0.079952  0.728262  1
  O  O20  1  0.938611  0.223768  0.428526  1
  O  O21  1  0.526175  0.733383  0.513862  1
  O  O22  1  0.438611  0.776232  0.071474  1
  O  O23  1  0.026175  0.266617  0.986138  1
  O  O24  1  0.763404  0.478627  0.962487  1
  O  O25  1  0.263404  0.521373  0.537513  1
  O  O26  1  0.237543  0.048319  0.449913  1
  O  O27  1  0.737543  0.951681  0.050087  1
  O  O28  1  0.469307  0.079952  0.228262  1
  O  O29  1  0.539694  0.484997  0.732816  1
  O  O30  1  0.039694  0.515003  0.767184  1
  O  O31  1  0.969307  0.920048  0.271738  1
  O  O32  1  0.061389  0.776232  0.571474  1
  O  O33  1  0.473825  0.266617  0.486138  1
  O  O34  1  0.561389  0.223768  0.928526  1
  O  O35  1  0.973825  0.733383  0.013862  1
