# generated using pymatgen
data_Ca3La(Rh2O7)2
_symmetry_space_group_name_H-M   'P 1'
_cell_length_a   7.29744187
_cell_length_b   7.32088074
_cell_length_c   7.29744200
_cell_angle_alpha   60.10585263
_cell_angle_beta   59.99999939
_cell_angle_gamma   60.10585284
_symmetry_Int_Tables_number   1
_chemical_formula_structural   Ca3La(Rh2O7)2
_chemical_formula_sum   'Ca3 La1 Rh4 O14'
_cell_volume   276.11031652
_cell_formula_units_Z   1
loop_
 _symmetry_equiv_pos_site_id
 _symmetry_equiv_pos_as_xyz
  1  'x, y, z'
loop_
 _atom_site_type_symbol
 _atom_site_label
 _atom_site_symmetry_multiplicity
 _atom_site_fract_x
 _atom_site_fract_y
 _atom_site_fract_z
 _atom_site_occupancy
  Ca  Ca0  1  0.625000  0.625000  0.125000  1
  Ca  Ca1  1  0.125000  0.625000  0.625000  1
  Ca  Ca2  1  0.625000  0.625000  0.625000  1
  La  La3  1  0.625000  0.125000  0.625000  1
  Rh  Rh4  1  0.625000  0.125000  0.125000  1
  Rh  Rh5  1  0.125000  0.625000  0.125000  1
  Rh  Rh6  1  0.125000  0.125000  0.625000  1
  Rh  Rh7  1  0.125000  0.125000  0.125000  1
  O  O8  1  0.197974  0.207135  0.797445  1
  O  O9  1  0.198656  0.801904  0.198656  1
  O  O10  1  0.452555  0.042865  0.052026  1
  O  O11  1  0.198656  0.801904  0.800784  1
  O  O12  1  0.051344  0.448096  0.449216  1
  O  O13  1  0.800784  0.801904  0.198656  1
  O  O14  1  0.449216  0.448096  0.051344  1
  O  O15  1  0.499591  0.501228  0.499591  1
  O  O16  1  0.052026  0.042865  0.452555  1
  O  O17  1  0.452555  0.042865  0.452555  1
  O  O18  1  0.051344  0.448096  0.051344  1
  O  O19  1  0.750409  0.748772  0.750409  1
  O  O20  1  0.797445  0.207135  0.797445  1
  O  O21  1  0.797445  0.207135  0.197974  1
