# generated using pymatgen
data_Ti2SnPtRh4
_symmetry_space_group_name_H-M   'P 1'
_cell_length_a   4.06677800
_cell_length_b   5.53955653
_cell_length_c   10.94055341
_cell_angle_alpha   90.79176774
_cell_angle_beta   90.00000000
_cell_angle_gamma   90.00000000
_symmetry_Int_Tables_number   1
_chemical_formula_structural   Ti2SnPtRh4
_chemical_formula_sum   'Ti4 Sn2 Pt2 Rh8'
_cell_volume   246.44685843
_cell_formula_units_Z   2
loop_
 _symmetry_equiv_pos_site_id
 _symmetry_equiv_pos_as_xyz
  1  'x, y, z'
loop_
 _atom_site_type_symbol
 _atom_site_label
 _atom_site_symmetry_multiplicity
 _atom_site_fract_x
 _atom_site_fract_y
 _atom_site_fract_z
 _atom_site_occupancy
  Ti  Ti0  1  0.500000  0.333530  0.142746  1
  Ti  Ti1  1  0.500000  0.666470  0.857254  1
  Ti  Ti2  1  0.500000  0.818116  0.358170  1
  Ti  Ti3  1  0.500000  0.181884  0.641830  1
  Sn  Sn4  1  0.000000  0.000000  0.000000  1
  Sn  Sn5  1  0.000000  0.500000  0.500000  1
  Pt  Pt6  1  0.000000  0.057412  0.250022  1
  Pt  Pt7  1  0.000000  0.942588  0.749978  1
  Rh  Rh8  1  0.000000  0.000000  0.500000  1
  Rh  Rh9  1  0.000000  0.500000  0.000000  1
  Rh  Rh10  1  0.000000  0.558012  0.251662  1
  Rh  Rh11  1  0.000000  0.441988  0.748338  1
  Rh  Rh12  1  0.500000  0.288141  0.381103  1
  Rh  Rh13  1  0.500000  0.711859  0.618897  1
  Rh  Rh14  1  0.500000  0.788993  0.118937  1
  Rh  Rh15  1  0.500000  0.211007  0.881063  1
