# generated using pymatgen
data_YHo11Co4BiIr
_symmetry_space_group_name_H-M   'P 1'
_cell_length_a   8.31359162
_cell_length_b   8.31359904
_cell_length_c   8.30389143
_cell_angle_alpha   111.14102198
_cell_angle_beta   110.60517898
_cell_angle_gamma   106.75261859
_symmetry_Int_Tables_number   1
_chemical_formula_structural   YHo11Co4BiIr
_chemical_formula_sum   'Y1 Ho11 Co4 Bi1 Ir1'
_cell_volume   440.77556279
_cell_formula_units_Z   1
loop_
 _symmetry_equiv_pos_site_id
 _symmetry_equiv_pos_as_xyz
  1  'x, y, z'
loop_
 _atom_site_type_symbol
 _atom_site_label
 _atom_site_symmetry_multiplicity
 _atom_site_fract_x
 _atom_site_fract_y
 _atom_site_fract_z
 _atom_site_occupancy
  Y  Y0  1  0.816227  0.714038  0.530265  1
  Ho  Ho1  1  0.182272  0.285655  0.467927  1
  Ho  Ho2  1  0.182304  0.713737  0.896040  1
  Ho  Ho3  1  0.818049  0.285840  0.103889  1
  Ho  Ho4  1  0.687752  0.378128  0.690590  1
  Ho  Ho5  1  0.311352  0.621385  0.309134  1
  Ho  Ho6  1  0.687749  0.997779  0.309132  1
  Ho  Ho7  1  0.312462  0.002842  0.690592  1
  Ho  Ho8  1  0.590736  0.788836  0.802645  1
  Ho  Ho9  1  0.408246  0.210768  0.196935  1
  Ho  Ho10  1  0.986168  0.788692  0.196938  1
  Ho  Ho11  1  0.013807  0.211906  0.802642  1
  Co  Co12  1  0.623408  0.000176  0.623585  1
  Co  Co13  1  0.376803  0.000093  0.376896  1
  Co  Co14  1  0.112221  0.610243  0.500595  1
  Co  Co15  1  0.890353  0.388372  0.500593  1
  Bi  Bi16  1  0.500151  0.500159  0.000310  1
  Ir  Ir17  1  0.999941  0.001353  0.001294  1
