# generated using pymatgen
data_SrFeNi(Sb6Os)2
_symmetry_space_group_name_H-M   'P 1'
_cell_length_a   8.12111217
_cell_length_b   8.05502108
_cell_length_c   8.11569122
_cell_angle_alpha   109.43416906
_cell_angle_beta   109.68471818
_cell_angle_gamma   109.52366418
_symmetry_Int_Tables_number   1
_chemical_formula_structural   SrFeNi(Sb6Os)2
_chemical_formula_sum   'Sr1 Fe1 Ni1 Sb12 Os2'
_cell_volume   407.52225197
_cell_formula_units_Z   1
loop_
 _symmetry_equiv_pos_site_id
 _symmetry_equiv_pos_as_xyz
  1  'x, y, z'
loop_
 _atom_site_type_symbol
 _atom_site_label
 _atom_site_symmetry_multiplicity
 _atom_site_fract_x
 _atom_site_fract_y
 _atom_site_fract_z
 _atom_site_occupancy
  Sr  Sr0  1  0.000000  0.000000  0.000000  1
  Fe  Fe1  1  0.000000  0.000000  0.500000  1
  Ni  Ni2  1  0.500000  0.000000  0.000000  1
  Sb  Sb3  1  0.843871  0.668256  0.502334  1
  Sb  Sb4  1  0.156129  0.331744  0.497666  1
  Sb  Sb5  1  0.159267  0.660227  0.815730  1
  Sb  Sb6  1  0.840733  0.339773  0.184270  1
  Sb  Sb7  1  0.658877  0.500253  0.842239  1
  Sb  Sb8  1  0.341123  0.499747  0.157761  1
  Sb  Sb9  1  0.666978  0.822513  0.164368  1
  Sb  Sb10  1  0.333022  0.177487  0.835632  1
  Sb  Sb11  1  0.500730  0.845151  0.660425  1
  Sb  Sb12  1  0.499270  0.154849  0.339575  1
  Sb  Sb13  1  0.175688  0.845297  0.343333  1
  Sb  Sb14  1  0.824312  0.154703  0.656667  1
  Os  Os15  1  0.500000  0.500000  0.500000  1
  Os  Os16  1  0.000000  0.500000  0.000000  1
