# generated using pymatgen
data_KSr3SbO6
_symmetry_space_group_name_H-M   'P 1'
_cell_length_a   7.03815358
_cell_length_b   7.03815402
_cell_length_c   7.03815447
_cell_angle_alpha   88.72012022
_cell_angle_beta   88.72011696
_cell_angle_gamma   88.72011277
_symmetry_Int_Tables_number   1
_chemical_formula_structural   KSr3SbO6
_chemical_formula_sum   'K2 Sr6 Sb2 O12'
_cell_volume   348.38214726
_cell_formula_units_Z   2
loop_
 _symmetry_equiv_pos_site_id
 _symmetry_equiv_pos_as_xyz
  1  'x, y, z'
loop_
 _atom_site_type_symbol
 _atom_site_label
 _atom_site_symmetry_multiplicity
 _atom_site_fract_x
 _atom_site_fract_y
 _atom_site_fract_z
 _atom_site_occupancy
  K  K0  1  0.250000  0.250000  0.250000  1
  K  K1  1  0.750000  0.750000  0.750000  1
  Sr  Sr2  1  0.896464  0.603536  0.250000  1
  Sr  Sr3  1  0.250000  0.896464  0.603536  1
  Sr  Sr4  1  0.603536  0.250000  0.896464  1
  Sr  Sr5  1  0.103536  0.396464  0.750000  1
  Sr  Sr6  1  0.750000  0.103536  0.396464  1
  Sr  Sr7  1  0.396464  0.750000  0.103536  1
  Sb  Sb8  1  0.500000  0.500000  0.500000  1
  Sb  Sb9  1  0.000000  0.000000  0.000000  1
  O  O10  1  0.437565  0.222582  0.564883  1
  O  O11  1  0.564883  0.437565  0.222582  1
  O  O12  1  0.222582  0.564883  0.437565  1
  O  O13  1  0.062435  0.935117  0.277418  1
  O  O14  1  0.277418  0.062435  0.935117  1
  O  O15  1  0.935117  0.277418  0.062435  1
  O  O16  1  0.562435  0.777418  0.435117  1
  O  O17  1  0.435117  0.562435  0.777418  1
  O  O18  1  0.777418  0.435117  0.562435  1
  O  O19  1  0.937565  0.064883  0.722582  1
  O  O20  1  0.064883  0.722582  0.937565  1
  O  O21  1  0.722582  0.937565  0.064883  1
