# generated using pymatgen
data_Rb2V(TeO4)3
_symmetry_space_group_name_H-M   'P 1'
_cell_length_a   7.16973222
_cell_length_b   7.28279388
_cell_length_c   7.16938658
_cell_angle_alpha   89.99989872
_cell_angle_beta   61.04816452
_cell_angle_gamma   120.52200647
_symmetry_Int_Tables_number   1
_chemical_formula_structural   Rb2V(TeO4)3
_chemical_formula_sum   'Rb2 V1 Te3 O12'
_cell_volume   266.74954173
_cell_formula_units_Z   1
loop_
 _symmetry_equiv_pos_site_id
 _symmetry_equiv_pos_as_xyz
  1  'x, y, z'
loop_
 _atom_site_type_symbol
 _atom_site_label
 _atom_site_symmetry_multiplicity
 _atom_site_fract_x
 _atom_site_fract_y
 _atom_site_fract_z
 _atom_site_occupancy
  Rb  Rb0  1  0.261768  0.128236  0.630888  1
  Rb  Rb1  1  0.738232  0.866469  0.369112  1
  V  V2  1  0.999999  0.497359  0.000001  1
  Te  Te3  1  0.500012  0.497302  0.000015  1
  Te  Te4  1  0.499987  0.997290  0.999985  1
  Te  Te5  1  0.000000  0.497307  0.500000  1
  O  O6  1  0.652313  0.823446  0.929613  1
  O  O7  1  0.861875  0.428295  0.319658  1
  O  O8  1  0.250604  0.428298  0.930919  1
  O  O9  1  0.255721  0.823462  0.326169  1
  O  O10  1  0.250630  0.817039  0.930925  1
  O  O11  1  0.255777  0.426938  0.326147  1
  O  O12  1  0.347687  0.171139  0.070387  1
  O  O13  1  0.138125  0.566424  0.680341  1
  O  O14  1  0.749379  0.566408  0.069072  1
  O  O15  1  0.744225  0.171164  0.673848  1
  O  O16  1  0.749386  0.177684  0.069084  1
  O  O17  1  0.744277  0.567741  0.673835  1
