# generated using pymatgen
data_ErLu2Zn4InPt4
_symmetry_space_group_name_H-M   'P 1'
_cell_length_a   4.14849200
_cell_length_b   6.80966250
_cell_length_c   8.01669635
_cell_angle_alpha   91.74398832
_cell_angle_beta   90.00000000
_cell_angle_gamma   90.00000000
_symmetry_Int_Tables_number   1
_chemical_formula_structural   ErLu2Zn4InPt4
_chemical_formula_sum   'Er1 Lu2 Zn4 In1 Pt4'
_cell_volume   226.36540872
_cell_formula_units_Z   1
loop_
 _symmetry_equiv_pos_site_id
 _symmetry_equiv_pos_as_xyz
  1  'x, y, z'
loop_
 _atom_site_type_symbol
 _atom_site_label
 _atom_site_symmetry_multiplicity
 _atom_site_fract_x
 _atom_site_fract_y
 _atom_site_fract_z
 _atom_site_occupancy
  Er  Er0  1  0.250000  0.536364  0.169754  1
  Lu  Lu1  1  0.750000  0.965054  0.684945  1
  Lu  Lu2  1  0.250000  0.040632  0.323543  1
  Zn  Zn3  1  0.250000  0.637696  0.555420  1
  Zn  Zn4  1  0.750000  0.361778  0.444298  1
  Zn  Zn5  1  0.750000  0.862230  0.058907  1
  Zn  Zn6  1  0.250000  0.134390  0.942427  1
  In  In7  1  0.750000  0.458914  0.822243  1
  Pt  Pt8  1  0.250000  0.754659  0.870086  1
  Pt  Pt9  1  0.750000  0.244301  0.128791  1
  Pt  Pt10  1  0.750000  0.748881  0.370703  1
  Pt  Pt11  1  0.250000  0.255099  0.628883  1
