# generated using pymatgen
data_HoTm2Th(Al3Ir)6
_symmetry_space_group_name_H-M   'P 1'
_cell_length_a   7.57207142
_cell_length_b   7.58312438
_cell_length_c   9.45920300
_cell_angle_alpha   90.00000000
_cell_angle_beta   90.00000000
_cell_angle_gamma   119.48822647
_symmetry_Int_Tables_number   1
_chemical_formula_structural   HoTm2Th(Al3Ir)6
_chemical_formula_sum   'Ho1 Tm2 Th1 Al18 Ir6'
_cell_volume   472.78607963
_cell_formula_units_Z   1
loop_
 _symmetry_equiv_pos_site_id
 _symmetry_equiv_pos_as_xyz
  1  'x, y, z'
loop_
 _atom_site_type_symbol
 _atom_site_label
 _atom_site_symmetry_multiplicity
 _atom_site_fract_x
 _atom_site_fract_y
 _atom_site_fract_z
 _atom_site_occupancy
  Ho  Ho0  1  0.673055  0.995137  0.250000  1
  Tm  Tm1  1  0.003682  0.327895  0.750000  1
  Tm  Tm2  1  0.327063  0.004478  0.750000  1
  Th  Th3  1  0.994922  0.671366  0.250000  1
  Al  Al4  1  0.131675  0.133372  0.250000  1
  Al  Al5  1  0.871781  0.874181  0.750000  1
  Al  Al6  1  0.001505  0.331058  0.072219  1
  Al  Al7  1  0.999400  0.664063  0.917418  1
  Al  Al8  1  0.999400  0.664063  0.582582  1
  Al  Al9  1  0.340449  0.005352  0.427711  1
  Al  Al10  1  0.001505  0.331058  0.427781  1
  Al  Al11  1  0.664370  0.000535  0.576840  1
  Al  Al12  1  0.664370  0.000535  0.923160  1
  Al  Al13  1  0.340449  0.005352  0.072289  1
  Al  Al14  1  0.332081  0.332159  0.555971  1
  Al  Al15  1  0.662875  0.666540  0.453958  1
  Al  Al16  1  0.662875  0.666540  0.046042  1
  Al  Al17  1  0.332081  0.332159  0.944029  1
  Al  Al18  1  0.344674  0.548873  0.250000  1
  Al  Al19  1  0.657958  0.448383  0.750000  1
  Al  Al20  1  0.544259  0.336889  0.250000  1
  Al  Al21  1  0.449106  0.660477  0.750000  1
  Ir  Ir22  1  0.673410  0.329198  0.000095  1
  Ir  Ir23  1  0.326186  0.671653  0.000142  1
  Ir  Ir24  1  0.326186  0.671653  0.499858  1
  Ir  Ir25  1  0.673410  0.329198  0.499905  1
  Ir  Ir26  1  0.000634  0.998916  0.000250  1
  Ir  Ir27  1  0.000634  0.998916  0.499750  1
