# generated using pymatgen
data_Er2GaB2Ru5
_symmetry_space_group_name_H-M   'P 1'
_cell_length_a   9.54238000
_cell_length_b   9.54238000
_cell_length_c   3.11100500
_cell_angle_alpha   90.00000000
_cell_angle_beta   90.00000000
_cell_angle_gamma   90.00000000
_symmetry_Int_Tables_number   1
_chemical_formula_structural   Er2GaB2Ru5
_chemical_formula_sum   'Er4 Ga2 B4 Ru10'
_cell_volume   283.27883226
_cell_formula_units_Z   2
loop_
 _symmetry_equiv_pos_site_id
 _symmetry_equiv_pos_as_xyz
  1  'x, y, z'
loop_
 _atom_site_type_symbol
 _atom_site_label
 _atom_site_symmetry_multiplicity
 _atom_site_fract_x
 _atom_site_fract_y
 _atom_site_fract_z
 _atom_site_occupancy
  Er  Er0  1  0.674690  0.174690  0.000000  1
  Er  Er1  1  0.325310  0.825310  0.000000  1
  Er  Er2  1  0.174690  0.325310  0.000000  1
  Er  Er3  1  0.825310  0.674690  0.000000  1
  Ga  Ga4  1  0.000000  0.000000  0.000000  1
  Ga  Ga5  1  0.500000  0.500000  0.000000  1
  B  B6  1  0.123737  0.623737  0.000000  1
  B  B7  1  0.876263  0.376263  0.000000  1
  B  B8  1  0.623737  0.876263  0.000000  1
  B  B9  1  0.376263  0.123737  0.000000  1
  Ru  Ru10  1  0.216556  0.070567  0.500000  1
  Ru  Ru11  1  0.783444  0.929433  0.500000  1
  Ru  Ru12  1  0.070567  0.783444  0.500000  1
  Ru  Ru13  1  0.716556  0.429433  0.500000  1
  Ru  Ru14  1  0.929433  0.216556  0.500000  1
  Ru  Ru15  1  0.283444  0.570567  0.500000  1
  Ru  Ru16  1  0.570567  0.716556  0.500000  1
  Ru  Ru17  1  0.429433  0.283444  0.500000  1
  Ru  Ru18  1  0.500000  0.000000  0.500000  1
  Ru  Ru19  1  0.000000  0.500000  0.500000  1
