# generated using pymatgen
data_RbHfRhSe4
_symmetry_space_group_name_H-M   'P 1'
_cell_length_a   6.27256500
_cell_length_b   7.61679500
_cell_length_c   16.91838200
_cell_angle_alpha   90.00000000
_cell_angle_beta   90.00000000
_cell_angle_gamma   90.00000000
_symmetry_Int_Tables_number   1
_chemical_formula_structural   RbHfRhSe4
_chemical_formula_sum   'Rb4 Hf4 Rh4 Se16'
_cell_volume   808.30685913
_cell_formula_units_Z   4
loop_
 _symmetry_equiv_pos_site_id
 _symmetry_equiv_pos_as_xyz
  1  'x, y, z'
loop_
 _atom_site_type_symbol
 _atom_site_label
 _atom_site_symmetry_multiplicity
 _atom_site_fract_x
 _atom_site_fract_y
 _atom_site_fract_z
 _atom_site_occupancy
  Rb  Rb0  1  0.364374  0.000000  0.000000  1
  Rb  Rb1  1  0.635626  0.500000  0.500000  1
  Rb  Rb2  1  0.028343  0.000000  0.500000  1
  Rb  Rb3  1  0.971657  0.500000  0.000000  1
  Hf  Hf4  1  0.050338  0.000000  0.246090  1
  Hf  Hf5  1  0.050338  0.000000  0.753910  1
  Hf  Hf6  1  0.949662  0.500000  0.253910  1
  Hf  Hf7  1  0.949662  0.500000  0.746090  1
  Rh  Rh8  1  0.500000  0.250000  0.250000  1
  Rh  Rh9  1  0.500000  0.750000  0.750000  1
  Rh  Rh10  1  0.500000  0.750000  0.250000  1
  Rh  Rh11  1  0.500000  0.250000  0.750000  1
  Se  Se12  1  0.826380  0.239909  0.341456  1
  Se  Se13  1  0.826380  0.760091  0.658544  1
  Se  Se14  1  0.173620  0.739909  0.158544  1
  Se  Se15  1  0.173620  0.260091  0.841456  1
  Se  Se16  1  0.173620  0.260091  0.158544  1
  Se  Se17  1  0.173620  0.739909  0.841456  1
  Se  Se18  1  0.826380  0.760091  0.341456  1
  Se  Se19  1  0.826380  0.239909  0.658544  1
  Se  Se20  1  0.666023  0.000000  0.170706  1
  Se  Se21  1  0.666023  0.000000  0.829294  1
  Se  Se22  1  0.333977  0.500000  0.329294  1
  Se  Se23  1  0.333977  0.500000  0.670706  1
  Se  Se24  1  0.376052  0.000000  0.340718  1
  Se  Se25  1  0.376052  0.000000  0.659282  1
  Se  Se26  1  0.623948  0.500000  0.159282  1
  Se  Se27  1  0.623948  0.500000  0.840718  1
