# generated using pymatgen
data_Ca3Ga2Si(PbO6)2
_symmetry_space_group_name_H-M   'P 1'
_cell_length_a   11.12171973
_cell_length_b   11.12172025
_cell_length_c   11.12172030
_cell_angle_alpha   108.94069616
_cell_angle_beta   108.94069519
_cell_angle_gamma   110.53756025
_symmetry_Int_Tables_number   1
_chemical_formula_structural   Ca3Ga2Si(PbO6)2
_chemical_formula_sum   'Ca12 Ga8 Si4 Pb8 O48'
_cell_volume   1058.71952783
_cell_formula_units_Z   4
loop_
 _symmetry_equiv_pos_site_id
 _symmetry_equiv_pos_as_xyz
  1  'x, y, z'
loop_
 _atom_site_type_symbol
 _atom_site_label
 _atom_site_symmetry_multiplicity
 _atom_site_fract_x
 _atom_site_fract_y
 _atom_site_fract_z
 _atom_site_occupancy
  Ca  Ca0  1  0.750000  0.750000  0.000000  1
  Ca  Ca1  1  0.875000  0.249310  0.874310  1
  Ca  Ca2  1  0.499310  0.125000  0.874310  1
  Ca  Ca3  1  0.250000  0.250000  0.000000  1
  Ca  Ca4  1  0.875000  0.749310  0.374310  1
  Ca  Ca5  1  0.250690  0.625000  0.125690  1
  Ca  Ca6  1  0.999310  0.125000  0.374310  1
  Ca  Ca7  1  0.000000  0.500000  0.500000  1
  Ca  Ca8  1  0.375000  0.000690  0.125690  1
  Ca  Ca9  1  0.750690  0.625000  0.625690  1
  Ca  Ca10  1  0.375000  0.500690  0.625690  1
  Ca  Ca11  1  0.500000  0.000000  0.500000  1
  Ga  Ga12  1  0.000628  0.625000  0.875628  1
  Ga  Ga13  1  0.375000  0.750628  0.875628  1
  Ga  Ga14  1  0.875000  0.499372  0.124372  1
  Ga  Ga15  1  0.749372  0.125000  0.124372  1
  Ga  Ga16  1  0.500628  0.625000  0.375628  1
  Ga  Ga17  1  0.375000  0.250628  0.375628  1
  Ga  Ga18  1  0.875000  0.999372  0.624372  1
  Ga  Ga19  1  0.249372  0.125000  0.624372  1
  Si  Si20  1  0.000000  0.000000  0.000000  1
  Si  Si21  1  0.500000  0.500000  0.000000  1
  Si  Si22  1  0.250000  0.750000  0.500000  1
  Si  Si23  1  0.750000  0.250000  0.500000  1
  Pb  Pb24  1  0.125000  0.375000  0.750000  1
  Pb  Pb25  1  0.625000  0.875000  0.250000  1
  Pb  Pb26  1  0.125000  0.875000  0.750000  1
  Pb  Pb27  1  0.625000  0.375000  0.250000  1
  Pb  Pb28  1  0.125000  0.375000  0.250000  1
  Pb  Pb29  1  0.125000  0.875000  0.250000  1
  Pb  Pb30  1  0.625000  0.875000  0.750000  1
  Pb  Pb31  1  0.625000  0.375000  0.750000  1
  O  O32  1  0.831595  0.867107  0.861859  1
  O  O33  1  0.028076  0.189092  0.781033  1
  O  O34  1  0.043010  0.476120  0.879377  1
  O  O35  1  0.810908  0.591941  0.838985  1
  O  O36  1  0.528076  0.747043  0.838985  1
  O  O37  1  0.530264  0.494752  0.861859  1
  O  O38  1  0.726120  0.346743  0.933111  1
  O  O39  1  0.908059  0.689092  0.161015  1
  O  O40  1  0.023880  0.456990  0.120623  1
  O  O41  1  0.030264  0.168405  0.035512  1
  O  O42  1  0.413632  0.793010  0.066889  1
  O  O43  1  0.252957  0.091941  0.781033  1
  O  O44  1  0.706990  0.086368  0.933111  1
  O  O45  1  0.331595  0.469736  0.964488  1
  O  O46  1  0.632893  0.668405  0.138141  1
  O  O47  1  0.505248  0.367107  0.035512  1
  O  O48  1  0.153257  0.773880  0.066889  1
  O  O49  1  0.336368  0.903257  0.879377  1
  O  O50  1  0.005248  0.969736  0.138141  1
  O  O51  1  0.841941  0.502957  0.281033  1
  O  O52  1  0.939092  0.278076  0.281033  1
  O  O53  1  0.596743  0.163632  0.120623  1
  O  O54  1  0.497043  0.778076  0.338985  1
  O  O55  1  0.132893  0.994752  0.964488  1
  O  O56  1  0.117107  0.755248  0.535512  1
  O  O57  1  0.752957  0.971924  0.161015  1
  O  O58  1  0.653257  0.586368  0.379377  1
  O  O59  1  0.310908  0.471924  0.218967  1
  O  O60  1  0.408059  0.247043  0.218967  1
  O  O61  1  0.244752  0.780264  0.361859  1
  O  O62  1  0.913632  0.846743  0.620623  1
  O  O63  1  0.096743  0.976120  0.433111  1
  O  O64  1  0.744752  0.382893  0.464488  1
  O  O65  1  0.617107  0.081595  0.361859  1
  O  O66  1  0.918405  0.280264  0.535512  1
  O  O67  1  0.543010  0.663632  0.566889  1
  O  O68  1  0.997043  0.658059  0.718967  1
  O  O69  1  0.836368  0.956990  0.433111  1
  O  O70  1  0.226120  0.293010  0.379377  1
  O  O71  1  0.219736  0.581595  0.464488  1
  O  O72  1  0.341941  0.060908  0.338985  1
  O  O73  1  0.523880  0.403257  0.566889  1
  O  O74  1  0.719736  0.255248  0.638141  1
  O  O75  1  0.721924  0.002957  0.661015  1
  O  O76  1  0.439092  0.158059  0.661015  1
  O  O77  1  0.206990  0.273880  0.620623  1
  O  O78  1  0.221924  0.560908  0.718967  1
  O  O79  1  0.418405  0.882893  0.638141  1
