# generated using pymatgen
data_Tm2Si4W3
_symmetry_space_group_name_H-M   'P 1'
_cell_length_a   6.72408021
_cell_length_b   6.90491745
_cell_length_c   12.84102078
_cell_angle_alpha   90.00938682
_cell_angle_beta   89.99658093
_cell_angle_gamma   90.00006379
_symmetry_Int_Tables_number   1
_chemical_formula_structural   Tm2Si4W3
_chemical_formula_sum   'Tm8 Si16 W12'
_cell_volume   596.19855422
_cell_formula_units_Z   4
loop_
 _symmetry_equiv_pos_site_id
 _symmetry_equiv_pos_as_xyz
  1  'x, y, z'
loop_
 _atom_site_type_symbol
 _atom_site_label
 _atom_site_symmetry_multiplicity
 _atom_site_fract_x
 _atom_site_fract_y
 _atom_site_fract_z
 _atom_site_occupancy
  Tm  Tm0  1  0.495064  0.667987  0.593207  1
  Tm  Tm1  1  0.995194  0.831867  0.907096  1
  Tm  Tm2  1  0.505075  0.331718  0.092992  1
  Tm  Tm3  1  0.004914  0.168270  0.406975  1
  Tm  Tm4  1  0.504557  0.331741  0.406859  1
  Tm  Tm5  1  0.005044  0.168498  0.092756  1
  Tm  Tm6  1  0.495033  0.668564  0.907003  1
  Tm  Tm7  1  0.994932  0.831292  0.593356  1
  Si  Si8  1  0.662428  0.959076  0.453429  1
  Si  Si9  1  0.162921  0.541098  0.046339  1
  Si  Si10  1  0.337625  0.041254  0.953356  1
  Si  Si11  1  0.837423  0.458654  0.546804  1
  Si  Si12  1  0.336958  0.040805  0.546711  1
  Si  Si13  1  0.836789  0.459040  0.953469  1
  Si  Si14  1  0.663096  0.958877  0.046550  1
  Si  Si15  1  0.162654  0.541458  0.453264  1
  Si  Si16  1  0.464536  0.372432  0.750427  1
  Si  Si17  1  0.964585  0.127333  0.749705  1
  Si  Si18  1  0.535583  0.627555  0.249894  1
  Si  Si19  1  0.035471  0.872693  0.249806  1
  Si  Si20  1  0.697503  0.864149  0.750187  1
  Si  Si21  1  0.197492  0.635563  0.750299  1
  Si  Si22  1  0.302422  0.135900  0.249755  1
  Si  Si23  1  0.802616  0.364160  0.249988  1
  W  W24  1  0.668100  0.163472  0.625426  1
  W  W25  1  0.168108  0.336191  0.874659  1
  W  W26  1  0.331479  0.836667  0.124979  1
  W  W27  1  0.831202  0.663508  0.374920  1
  W  W28  1  0.331294  0.836692  0.374641  1
  W  W29  1  0.831437  0.663400  0.125170  1
  W  W30  1  0.669280  0.163210  0.874988  1
  W  W31  1  0.169223  0.336839  0.625045  1
  W  W32  1  0.833418  0.501263  0.750258  1
  W  W33  1  0.333394  0.998477  0.750123  1
  W  W34  1  0.166521  0.498854  0.249658  1
  W  W35  1  0.666627  0.001444  0.249903  1
