# generated using pymatgen
data_YLu11Tc3Pt
_symmetry_space_group_name_H-M   'P 1'
_cell_length_a   6.14726597
_cell_length_b   7.36720408
_cell_length_c   8.92798000
_cell_angle_alpha   90.00000000
_cell_angle_beta   90.00000000
_cell_angle_gamma   90.24079251
_symmetry_Int_Tables_number   1
_chemical_formula_structural   YLu11Tc3Pt
_chemical_formula_sum   'Y1 Lu11 Tc3 Pt1'
_cell_volume   404.32824171
_cell_formula_units_Z   1
loop_
 _symmetry_equiv_pos_site_id
 _symmetry_equiv_pos_as_xyz
  1  'x, y, z'
loop_
 _atom_site_type_symbol
 _atom_site_label
 _atom_site_symmetry_multiplicity
 _atom_site_fract_x
 _atom_site_fract_y
 _atom_site_fract_z
 _atom_site_occupancy
  Y  Y0  1  0.874702  0.968433  0.750000  1
  Lu  Lu1  1  0.120610  0.034792  0.250000  1
  Lu  Lu2  1  0.627199  0.455580  0.750000  1
  Lu  Lu3  1  0.374614  0.542575  0.250000  1
  Lu  Lu4  1  0.659247  0.179056  0.064472  1
  Lu  Lu5  1  0.164411  0.321571  0.943013  1
  Lu  Lu6  1  0.832647  0.672311  0.433098  1
  Lu  Lu7  1  0.343559  0.827810  0.558341  1
  Lu  Lu8  1  0.343559  0.827810  0.941659  1
  Lu  Lu9  1  0.832647  0.672311  0.066902  1
  Lu  Lu10  1  0.164411  0.321571  0.556987  1
  Lu  Lu11  1  0.659247  0.179056  0.435528  1
  Tc  Tc12  1  0.966004  0.382251  0.250000  1
  Tc  Tc13  1  0.449502  0.118411  0.750000  1
  Tc  Tc14  1  0.540432  0.882297  0.250000  1
  Pt  Pt15  1  0.047205  0.614166  0.750000  1
