# generated using pymatgen
data_Hf5Re23Mo
_symmetry_space_group_name_H-M   'P 1'
_cell_length_a   8.48290761
_cell_length_b   8.46162183
_cell_length_c   8.48806870
_cell_angle_alpha   109.38347079
_cell_angle_beta   109.48504887
_cell_angle_gamma   109.46973163
_symmetry_Int_Tables_number   1
_chemical_formula_structural   Hf5Re23Mo
_chemical_formula_sum   'Hf5 Re23 Mo1'
_cell_volume   469.44916708
_cell_formula_units_Z   1
loop_
 _symmetry_equiv_pos_site_id
 _symmetry_equiv_pos_as_xyz
  1  'x, y, z'
loop_
 _atom_site_type_symbol
 _atom_site_label
 _atom_site_symmetry_multiplicity
 _atom_site_fract_x
 _atom_site_fract_y
 _atom_site_fract_z
 _atom_site_occupancy
  Hf  Hf0  1  0.000410  0.000415  0.000000  1
  Hf  Hf1  1  0.628698  0.000353  0.000000  1
  Hf  Hf2  1  0.000290  0.628555  0.000000  1
  Hf  Hf3  1  0.000159  0.999944  0.628753  1
  Hf  Hf4  1  0.371406  0.371191  0.371247  1
  Re  Re5  1  0.719394  0.322547  0.322792  1
  Re  Re6  1  0.396601  0.999755  0.677208  1
  Re  Re7  1  0.676841  0.397502  0.000000  1
  Re  Re8  1  0.998629  0.395603  0.675739  1
  Re  Re9  1  0.322890  0.719865  0.324261  1
  Re  Re10  1  0.322229  0.321797  0.716831  1
  Re  Re11  1  0.999206  0.676401  0.395948  1
  Re  Re12  1  0.677322  0.001318  0.397825  1
  Re  Re13  1  0.605399  0.604967  0.283169  1
  Re  Re14  1  0.279495  0.603493  0.602175  1
  Re  Re15  1  0.603258  0.280452  0.604052  1
  Re  Re16  1  0.376645  0.194482  0.000000  1
  Re  Re17  1  0.182272  0.806697  0.806458  1
  Re  Re18  1  0.375814  0.000240  0.193542  1
  Re  Re19  1  0.192997  0.375773  0.000000  1
  Re  Re20  1  0.999649  0.375731  0.193220  1
  Re  Re21  1  0.806429  0.182511  0.806780  1
  Re  Re22  1  0.807039  0.807093  0.182336  1
  Re  Re23  1  0.999999  0.193613  0.376126  1
  Re  Re24  1  0.193910  0.999961  0.376564  1
  Re  Re25  1  0.624702  0.624757  0.817664  1
  Re  Re26  1  0.817346  0.623397  0.623436  1
  Re  Re27  1  0.623873  0.817487  0.623874  1
  Mo  Mo28  1  0.397098  0.674101  0.000000  1
