# generated using pymatgen
data_Ba5Sr5(InSb3)4
_symmetry_space_group_name_H-M   'P 1'
_cell_length_a   4.83390000
_cell_length_b   13.17628008
_cell_length_c   15.15157382
_cell_angle_alpha   89.83085835
_cell_angle_beta   90.00000000
_cell_angle_gamma   90.00000000
_symmetry_Int_Tables_number   1
_chemical_formula_structural   Ba5Sr5(InSb3)4
_chemical_formula_sum   'Ba5 Sr5 In4 Sb12'
_cell_volume   965.04226336
_cell_formula_units_Z   1
loop_
 _symmetry_equiv_pos_site_id
 _symmetry_equiv_pos_as_xyz
  1  'x, y, z'
loop_
 _atom_site_type_symbol
 _atom_site_label
 _atom_site_symmetry_multiplicity
 _atom_site_fract_x
 _atom_site_fract_y
 _atom_site_fract_z
 _atom_site_occupancy
  Ba  Ba0  1  0.500000  0.086923  0.751085  1
  Ba  Ba1  1  0.500000  0.172524  0.020764  1
  Ba  Ba2  1  0.500000  0.413287  0.251847  1
  Ba  Ba3  1  0.500000  0.824534  0.980575  1
  Ba  Ba4  1  0.500000  0.330205  0.520745  1
  Sr  Sr5  1  0.500000  0.997525  0.498975  1
  Sr  Sr6  1  0.500000  0.589035  0.748204  1
  Sr  Sr7  1  0.500000  0.908875  0.251165  1
  Sr  Sr8  1  0.500000  0.501596  0.998619  1
  Sr  Sr9  1  0.500000  0.675103  0.482933  1
  In  In10  1  0.000000  0.329242  0.712413  1
  In  In11  1  0.000000  0.171804  0.213204  1
  In  In12  1  0.000000  0.672043  0.286401  1
  In  In13  1  0.000000  0.825702  0.784479  1
  Sb  Sb14  1  0.000000  0.646723  0.897948  1
  Sb  Sb15  1  0.500000  0.666096  0.176460  1
  Sb  Sb16  1  0.000000  0.014641  0.909834  1
  Sb  Sb17  1  0.000000  0.488019  0.409492  1
  Sb  Sb18  1  0.500000  0.343433  0.820146  1
  Sb  Sb19  1  0.500000  0.156306  0.321181  1
  Sb  Sb20  1  0.000000  0.349856  0.093638  1
  Sb  Sb21  1  0.000000  0.151844  0.592722  1
  Sb  Sb22  1  0.000000  0.979770  0.099740  1
  Sb  Sb23  1  0.500000  0.833348  0.674844  1
  Sb  Sb24  1  0.000000  0.526295  0.597674  1
  Sb  Sb25  1  0.000000  0.845273  0.404913  1
