# generated using pymatgen
data_Na(ThPd4)3
_symmetry_space_group_name_H-M   'P 1'
_cell_length_a   5.91066000
_cell_length_b   5.91065938
_cell_length_c   9.63937600
_cell_angle_alpha   90.00000000
_cell_angle_beta   90.00000000
_cell_angle_gamma   120.00000346
_symmetry_Int_Tables_number   1
_chemical_formula_structural   Na(ThPd4)3
_chemical_formula_sum   'Na1 Th3 Pd12'
_cell_volume   291.64292702
_cell_formula_units_Z   1
loop_
 _symmetry_equiv_pos_site_id
 _symmetry_equiv_pos_as_xyz
  1  'x, y, z'
loop_
 _atom_site_type_symbol
 _atom_site_label
 _atom_site_symmetry_multiplicity
 _atom_site_fract_x
 _atom_site_fract_y
 _atom_site_fract_z
 _atom_site_occupancy
  Na  Na0  1  0.333333  0.666667  0.250000  1
  Th  Th1  1  0.000000  0.000000  0.488856  1
  Th  Th2  1  0.000000  0.000000  0.011144  1
  Th  Th3  1  0.666667  0.333333  0.750000  1
  Pd  Pd4  1  0.498786  0.501214  0.498425  1
  Pd  Pd5  1  0.498786  0.997571  0.498425  1
  Pd  Pd6  1  0.002429  0.501214  0.498425  1
  Pd  Pd7  1  0.498786  0.501214  0.001575  1
  Pd  Pd8  1  0.498786  0.997571  0.001575  1
  Pd  Pd9  1  0.002429  0.501214  0.001575  1
  Pd  Pd10  1  0.825076  0.650152  0.250000  1
  Pd  Pd11  1  0.349848  0.174924  0.250000  1
  Pd  Pd12  1  0.825076  0.174924  0.250000  1
  Pd  Pd13  1  0.172551  0.345102  0.750000  1
  Pd  Pd14  1  0.654898  0.827449  0.750000  1
  Pd  Pd15  1  0.172551  0.827449  0.750000  1
