# generated using pymatgen
data_Bi3RuRh3AuO14
_symmetry_space_group_name_H-M   'P 1'
_cell_length_a   7.40918124
_cell_length_b   7.21944068
_cell_length_c   7.40917912
_cell_angle_alpha   58.94190828
_cell_angle_beta   59.90988602
_cell_angle_gamma   58.94190621
_symmetry_Int_Tables_number   1
_chemical_formula_structural   Bi3RuRh3AuO14
_chemical_formula_sum   'Bi3 Ru1 Rh3 Au1 O14'
_cell_volume   275.49136968
_cell_formula_units_Z   1
loop_
 _symmetry_equiv_pos_site_id
 _symmetry_equiv_pos_as_xyz
  1  'x, y, z'
loop_
 _atom_site_type_symbol
 _atom_site_label
 _atom_site_symmetry_multiplicity
 _atom_site_fract_x
 _atom_site_fract_y
 _atom_site_fract_z
 _atom_site_occupancy
  Bi  Bi0  1  0.125000  0.125000  0.625000  1
  Bi  Bi1  1  0.625000  0.125000  0.125000  1
  Bi  Bi2  1  0.125000  0.125000  0.125000  1
  Ru  Ru3  1  0.625000  0.625000  0.625000  1
  Rh  Rh4  1  0.625000  0.625000  0.125000  1
  Rh  Rh5  1  0.625000  0.125000  0.625000  1
  Rh  Rh6  1  0.125000  0.625000  0.625000  1
  Au  Au7  1  0.125000  0.625000  0.125000  1
  O  O8  1  0.241847  0.274541  0.241847  1
  O  O9  1  0.008153  0.975459  0.008153  1
  O  O10  1  0.542615  0.958087  0.542615  1
  O  O11  1  0.297018  0.704203  0.297018  1
  O  O12  1  0.559978  0.545703  0.943614  1
  O  O13  1  0.943614  0.545703  0.559978  1
  O  O14  1  0.541319  0.963523  0.958364  1
  O  O15  1  0.958364  0.963523  0.541319  1
  O  O16  1  0.952982  0.545797  0.952982  1
  O  O17  1  0.708681  0.286477  0.291636  1
  O  O18  1  0.306386  0.704297  0.690022  1
  O  O19  1  0.707385  0.291913  0.707385  1
  O  O20  1  0.291636  0.286477  0.708681  1
  O  O21  1  0.690022  0.704297  0.306386  1
