# generated using pymatgen
data_UPaF9
_symmetry_space_group_name_H-M   'P 1'
_cell_length_a   7.38133105
_cell_length_b   7.45685731
_cell_length_c   7.38133044
_cell_angle_alpha   109.48813012
_cell_angle_beta   109.02311478
_cell_angle_gamma   109.48813886
_symmetry_Int_Tables_number   1
_chemical_formula_structural   UPaF9
_chemical_formula_sum   'U2 Pa2 F18'
_cell_volume   314.33797497
_cell_formula_units_Z   2
loop_
 _symmetry_equiv_pos_site_id
 _symmetry_equiv_pos_as_xyz
  1  'x, y, z'
loop_
 _atom_site_type_symbol
 _atom_site_label
 _atom_site_symmetry_multiplicity
 _atom_site_fract_x
 _atom_site_fract_y
 _atom_site_fract_z
 _atom_site_occupancy
  U  U0  1  0.375613  0.000000  0.999436  1
  U  U1  1  0.999436  0.000000  0.375613  1
  Pa  Pa2  1  0.626140  0.628814  0.626140  1
  Pa  Pa3  1  0.997325  0.371186  0.997325  1
  F  F4  1  0.992999  0.768298  0.769919  1
  F  F5  1  0.001621  0.231702  0.224701  1
  F  F6  1  0.226475  0.000000  0.226475  1
  F  F7  1  0.770759  0.000000  0.770759  1
  F  F8  1  0.762012  0.762873  0.415649  1
  F  F9  1  0.652776  0.237127  0.999139  1
  F  F10  1  0.231132  0.640582  0.999973  1
  F  F11  1  0.355778  0.589745  0.355778  1
  F  F12  1  0.648560  0.000000  0.234021  1
  F  F13  1  0.999973  0.640582  0.231132  1
  F  F14  1  0.590549  0.359418  0.359391  1
  F  F15  1  0.415649  0.762873  0.762012  1
  F  F16  1  0.766033  0.410255  0.766033  1
  F  F17  1  0.234021  0.000000  0.648560  1
  F  F18  1  0.999139  0.237127  0.652776  1
  F  F19  1  0.359391  0.359418  0.590549  1
  F  F20  1  0.769919  0.768298  0.992999  1
  F  F21  1  0.224701  0.231702  0.001621  1
