# generated using pymatgen
data_LiEu6Y(BO3)6
_symmetry_space_group_name_H-M   'P 1'
_cell_length_a   7.65409872
_cell_length_b   7.65409757
_cell_length_c   7.65409797
_cell_angle_alpha   104.97247039
_cell_angle_beta   104.97247569
_cell_angle_gamma   104.97246216
_symmetry_Int_Tables_number   1
_chemical_formula_structural   LiEu6Y(BO3)6
_chemical_formula_sum   'Li1 Eu6 Y1 B6 O18'
_cell_volume   392.27372104
_cell_formula_units_Z   1
loop_
 _symmetry_equiv_pos_site_id
 _symmetry_equiv_pos_as_xyz
  1  'x, y, z'
loop_
 _atom_site_type_symbol
 _atom_site_label
 _atom_site_symmetry_multiplicity
 _atom_site_fract_x
 _atom_site_fract_y
 _atom_site_fract_z
 _atom_site_occupancy
  Li  Li0  1  0.500000  0.500000  0.500000  1
  Eu  Eu1  1  0.638510  0.274700  0.169202  1
  Eu  Eu2  1  0.169202  0.638510  0.274699  1
  Eu  Eu3  1  0.725300  0.830798  0.361490  1
  Eu  Eu4  1  0.274700  0.169202  0.638510  1
  Eu  Eu5  1  0.830798  0.361490  0.725300  1
  Eu  Eu6  1  0.361490  0.725300  0.830798  1
  Y  Y7  1  0.000000  0.000000  0.000000  1
  B  B8  1  0.298403  0.386165  0.036390  1
  B  B9  1  0.386165  0.036391  0.298403  1
  B  B10  1  0.036391  0.298403  0.386165  1
  B  B11  1  0.963609  0.701597  0.613835  1
  B  B12  1  0.613835  0.963609  0.701597  1
  B  B13  1  0.701597  0.613835  0.963609  1
  O  O14  1  0.728219  0.810825  0.026161  1
  O  O15  1  0.819039  0.542351  0.073026  1
  O  O16  1  0.973839  0.271781  0.189175  1
  O  O17  1  0.457648  0.926973  0.180961  1
  O  O18  1  0.444410  0.506269  0.207952  1
  O  O19  1  0.189175  0.973839  0.271781  1
  O  O20  1  0.506269  0.207952  0.444409  1
  O  O21  1  0.926973  0.180962  0.457648  1
  O  O22  1  0.207952  0.444410  0.506269  1
  O  O23  1  0.792048  0.555590  0.493731  1
  O  O24  1  0.073027  0.819038  0.542352  1
  O  O25  1  0.493731  0.792048  0.555591  1
  O  O26  1  0.810825  0.026161  0.728219  1
  O  O27  1  0.555590  0.493731  0.792048  1
  O  O28  1  0.542352  0.073027  0.819039  1
  O  O29  1  0.026161  0.728219  0.810825  1
  O  O30  1  0.180961  0.457649  0.926974  1
  O  O31  1  0.271781  0.189175  0.973839  1
