# generated using pymatgen
data_Tm2Lu3Sn3P
_symmetry_space_group_name_H-M   'P 1'
_cell_length_a   8.90563220
_cell_length_b   8.90563245
_cell_length_c   6.56205300
_cell_angle_alpha   90.00000000
_cell_angle_beta   90.00000000
_cell_angle_gamma   119.97596737
_symmetry_Int_Tables_number   1
_chemical_formula_structural   Tm2Lu3Sn3P
_chemical_formula_sum   'Tm4 Lu6 Sn6 P2'
_cell_volume   450.82190426
_cell_formula_units_Z   2
loop_
 _symmetry_equiv_pos_site_id
 _symmetry_equiv_pos_as_xyz
  1  'x, y, z'
loop_
 _atom_site_type_symbol
 _atom_site_label
 _atom_site_symmetry_multiplicity
 _atom_site_fract_x
 _atom_site_fract_y
 _atom_site_fract_z
 _atom_site_occupancy
  Tm  Tm0  1  0.757970  0.757970  0.750000  1
  Tm  Tm1  1  0.241934  0.999963  0.750000  1
  Tm  Tm2  1  0.999963  0.241934  0.750000  1
  Tm  Tm3  1  0.242027  0.242027  0.250000  1
  Lu  Lu4  1  0.666796  0.333388  0.000031  1
  Lu  Lu5  1  0.333388  0.666796  0.000031  1
  Lu  Lu6  1  0.333388  0.666796  0.499969  1
  Lu  Lu7  1  0.666796  0.333388  0.499969  1
  Lu  Lu8  1  0.758804  0.999909  0.250000  1
  Lu  Lu9  1  0.999909  0.758804  0.250000  1
  Sn  Sn10  1  0.400033  0.400033  0.750000  1
  Sn  Sn11  1  0.599906  0.000029  0.750000  1
  Sn  Sn12  1  0.000029  0.599906  0.750000  1
  Sn  Sn13  1  0.600987  0.600987  0.250000  1
  Sn  Sn14  1  0.399746  0.999434  0.250000  1
  Sn  Sn15  1  0.999434  0.399746  0.250000  1
  P  P16  1  0.999445  0.999445  0.000999  1
  P  P17  1  0.999445  0.999445  0.499001  1
