# generated using pymatgen
data_Tb3Ce(ReB6)2
_symmetry_space_group_name_H-M   'P 1'
_cell_length_a   3.72168400
_cell_length_b   9.22759334
_cell_length_c   11.60652001
_cell_angle_alpha   90.13449881
_cell_angle_beta   90.00000000
_cell_angle_gamma   90.00000000
_symmetry_Int_Tables_number   1
_chemical_formula_structural   Tb3Ce(ReB6)2
_chemical_formula_sum   'Tb6 Ce2 Re4 B24'
_cell_volume   398.59217665
_cell_formula_units_Z   2
loop_
 _symmetry_equiv_pos_site_id
 _symmetry_equiv_pos_as_xyz
  1  'x, y, z'
loop_
 _atom_site_type_symbol
 _atom_site_label
 _atom_site_symmetry_multiplicity
 _atom_site_fract_x
 _atom_site_fract_y
 _atom_site_fract_z
 _atom_site_occupancy
  Tb  Tb0  1  0.000000  0.824735  0.085898  1
  Tb  Tb1  1  0.000000  0.175265  0.914102  1
  Tb  Tb2  1  0.000000  0.943857  0.370507  1
  Tb  Tb3  1  0.000000  0.056143  0.629493  1
  Tb  Tb4  1  0.000000  0.443486  0.128905  1
  Tb  Tb5  1  0.000000  0.556514  0.871095  1
  Ce  Ce6  1  0.000000  0.322746  0.413463  1
  Ce  Ce7  1  0.000000  0.677254  0.586537  1
  Re  Re8  1  0.000000  0.637865  0.322466  1
  Re  Re9  1  0.000000  0.362135  0.677534  1
  Re  Re10  1  0.000000  0.139600  0.179745  1
  Re  Re11  1  0.000000  0.860400  0.820255  1
  B  B12  1  0.500000  0.554303  0.431862  1
  B  B13  1  0.500000  0.445697  0.568138  1
  B  B14  1  0.500000  0.053812  0.067047  1
  B  B15  1  0.500000  0.946188  0.932953  1
  B  B16  1  0.500000  0.748824  0.417927  1
  B  B17  1  0.500000  0.251176  0.582073  1
  B  B18  1  0.500000  0.248193  0.080847  1
  B  B19  1  0.500000  0.751807  0.919153  1
  B  B20  1  0.500000  0.792079  0.265897  1
  B  B21  1  0.500000  0.207921  0.734103  1
  B  B22  1  0.500000  0.291469  0.233271  1
  B  B23  1  0.500000  0.708531  0.766729  1
  B  B24  1  0.500000  0.632118  0.185973  1
  B  B25  1  0.500000  0.367882  0.814027  1
  B  B26  1  0.500000  0.131981  0.313039  1
  B  B27  1  0.500000  0.868019  0.686961  1
  B  B28  1  0.500000  0.983995  0.211593  1
  B  B29  1  0.500000  0.016005  0.788407  1
  B  B30  1  0.500000  0.484664  0.287231  1
  B  B31  1  0.500000  0.515336  0.712769  1
  B  B32  1  0.500000  0.603319  0.028929  1
  B  B33  1  0.500000  0.396681  0.971071  1
  B  B34  1  0.500000  0.104802  0.470744  1
  B  B35  1  0.500000  0.895198  0.529256  1
