# generated using pymatgen
data_Zr4Be4AlHg
_symmetry_space_group_name_H-M   'P 1'
_cell_length_a   6.41418500
_cell_length_b   6.41418500
_cell_length_c   7.86164400
_cell_angle_alpha   90.00000000
_cell_angle_beta   90.00000000
_cell_angle_gamma   90.00000000
_symmetry_Int_Tables_number   1
_chemical_formula_structural   Zr4Be4AlHg
_chemical_formula_sum   'Zr8 Be8 Al2 Hg2'
_cell_volume   323.44194309
_cell_formula_units_Z   2
loop_
 _symmetry_equiv_pos_site_id
 _symmetry_equiv_pos_as_xyz
  1  'x, y, z'
loop_
 _atom_site_type_symbol
 _atom_site_label
 _atom_site_symmetry_multiplicity
 _atom_site_fract_x
 _atom_site_fract_y
 _atom_site_fract_z
 _atom_site_occupancy
  Zr  Zr0  1  0.330119  0.830119  0.250000  1
  Zr  Zr1  1  0.669881  0.169881  0.250000  1
  Zr  Zr2  1  0.169881  0.330119  0.750000  1
  Zr  Zr3  1  0.830119  0.669881  0.750000  1
  Zr  Zr4  1  0.830905  0.669095  0.250000  1
  Zr  Zr5  1  0.169095  0.330905  0.250000  1
  Zr  Zr6  1  0.669095  0.169095  0.750000  1
  Zr  Zr7  1  0.330905  0.830905  0.750000  1
  Be  Be8  1  0.123222  0.620417  0.999270  1
  Be  Be9  1  0.876778  0.379583  0.999270  1
  Be  Be10  1  0.376778  0.120417  0.499270  1
  Be  Be11  1  0.623222  0.879583  0.499270  1
  Be  Be12  1  0.879583  0.376778  0.500730  1
  Be  Be13  1  0.120417  0.623222  0.500730  1
  Be  Be14  1  0.620417  0.876778  0.000730  1
  Be  Be15  1  0.379583  0.123222  0.000730  1
  Al  Al16  1  0.000000  0.000000  0.500000  1
  Al  Al17  1  0.500000  0.500000  0.000000  1
  Hg  Hg18  1  0.000000  0.000000  0.000000  1
  Hg  Hg19  1  0.500000  0.500000  0.500000  1
