# generated using pymatgen
data_HfBeCu3Pd
_symmetry_space_group_name_H-M   'P 1'
_cell_length_a   4.85144968
_cell_length_b   4.85145105
_cell_length_c   4.73875713
_cell_angle_alpha   59.21014643
_cell_angle_beta   59.21014084
_cell_angle_gamma   59.99999483
_symmetry_Int_Tables_number   1
_chemical_formula_structural   HfBeCu3Pd
_chemical_formula_sum   'Hf1 Be1 Cu3 Pd1'
_cell_volume   77.91179531
_cell_formula_units_Z   1
loop_
 _symmetry_equiv_pos_site_id
 _symmetry_equiv_pos_as_xyz
  1  'x, y, z'
loop_
 _atom_site_type_symbol
 _atom_site_label
 _atom_site_symmetry_multiplicity
 _atom_site_fract_x
 _atom_site_fract_y
 _atom_site_fract_z
 _atom_site_occupancy
  Hf  Hf0  1  0.000923  0.000923  0.997231  1
  Be  Be1  1  0.622591  0.622591  0.132226  1
  Cu  Cu2  1  0.624353  0.126010  0.625285  1
  Cu  Cu3  1  0.126010  0.624353  0.625285  1
  Cu  Cu4  1  0.624353  0.624353  0.625285  1
  Pd  Pd5  1  0.251771  0.251771  0.244687  1
