# generated using pymatgen
data_Dy5Y5(IrOs)2
_symmetry_space_group_name_H-M   'P 1'
_cell_length_a   6.44287950
_cell_length_b   7.32489684
_cell_length_c   8.48094810
_cell_angle_alpha   96.80971730
_cell_angle_beta   112.16064696
_cell_angle_gamma   89.95290795
_symmetry_Int_Tables_number   1
_chemical_formula_structural   Dy5Y5(IrOs)2
_chemical_formula_sum   'Dy5 Y5 Ir2 Os2'
_cell_volume   367.64416035
_cell_formula_units_Z   1
loop_
 _symmetry_equiv_pos_site_id
 _symmetry_equiv_pos_as_xyz
  1  'x, y, z'
loop_
 _atom_site_type_symbol
 _atom_site_label
 _atom_site_symmetry_multiplicity
 _atom_site_fract_x
 _atom_site_fract_y
 _atom_site_fract_z
 _atom_site_occupancy
  Dy  Dy0  1  0.649494  0.316266  0.438599  1
  Dy  Dy1  1  0.790471  0.818536  0.436733  1
  Dy  Dy2  1  0.354033  0.681070  0.563666  1
  Dy  Dy3  1  0.426257  0.250289  0.999949  1
  Dy  Dy4  1  0.574686  0.749768  0.000112  1
  Y  Y5  1  0.791145  0.084345  0.818187  1
  Y  Y6  1  0.972676  0.415944  0.181742  1
  Y  Y7  1  0.208446  0.917893  0.185200  1
  Y  Y8  1  0.023523  0.581846  0.814081  1
  Y  Y9  1  0.210148  0.184438  0.560522  1
  Ir  Ir10  1  0.398250  0.575891  0.222398  1
  Ir  Ir11  1  0.175768  0.923402  0.778630  1
  Os  Os12  1  0.604385  0.426630  0.781969  1
  Os  Os13  1  0.820720  0.073682  0.218212  1
