# generated using pymatgen
data_La15NdCd4IrRu3
_symmetry_space_group_name_H-M   'P 1'
_cell_length_a   10.08025619
_cell_length_b   10.10692344
_cell_length_c   10.10425500
_cell_angle_alpha   60.00873009
_cell_angle_beta   59.92121006
_cell_angle_gamma   59.77867555
_symmetry_Int_Tables_number   1
_chemical_formula_structural   La15NdCd4IrRu3
_chemical_formula_sum   'La15 Nd1 Cd4 Ir1 Ru3'
_cell_volume   726.30369790
_cell_formula_units_Z   1
loop_
 _symmetry_equiv_pos_site_id
 _symmetry_equiv_pos_as_xyz
  1  'x, y, z'
loop_
 _atom_site_type_symbol
 _atom_site_label
 _atom_site_symmetry_multiplicity
 _atom_site_fract_x
 _atom_site_fract_y
 _atom_site_fract_z
 _atom_site_occupancy
  La  La0  1  0.344170  0.346140  0.347608  1
  La  La1  1  0.344170  0.346140  0.962081  1
  La  La2  1  0.343820  0.960455  0.347863  1
  La  La3  1  0.961827  0.344293  0.346940  1
  La  La4  1  0.813638  0.189258  0.190353  1
  La  La5  1  0.188960  0.811459  0.810371  1
  La  La6  1  0.188960  0.811459  0.189209  1
  La  La7  1  0.813638  0.189258  0.806749  1
  La  La8  1  0.189657  0.188847  0.810748  1
  La  La9  1  0.813929  0.807553  0.189258  1
  La  La10  1  0.940648  0.561124  0.559897  1
  La  La11  1  0.560184  0.940783  0.938644  1
  La  La12  1  0.560184  0.940783  0.560389  1
  La  La13  1  0.940648  0.561124  0.938331  1
  La  La14  1  0.559591  0.561083  0.939663  1
  Nd  Nd15  1  0.939746  0.939997  0.560128  1
  Cd  Cd16  1  0.579176  0.579240  0.579174  1
  Cd  Cd17  1  0.579176  0.579240  0.262408  1
  Cd  Cd18  1  0.580566  0.260865  0.579284  1
  Cd  Cd19  1  0.261289  0.580453  0.579129  1
  Ir  Ir20  1  0.580563  0.139592  0.139922  1
  Ru  Ru21  1  0.138559  0.136515  0.136879  1
  Ru  Ru22  1  0.138559  0.136515  0.588045  1
  Ru  Ru23  1  0.138336  0.587817  0.136922  1
