# generated using pymatgen
data_Ho2Er(TmIr)2
_symmetry_space_group_name_H-M   'P 1'
_cell_length_a   6.42749305
_cell_length_b   7.17155550
_cell_length_c   8.43986004
_cell_angle_alpha   96.64943606
_cell_angle_beta   112.38210924
_cell_angle_gamma   89.99999870
_symmetry_Int_Tables_number   1
_chemical_formula_structural   Ho2Er(TmIr)2
_chemical_formula_sum   'Ho4 Er2 Tm4 Ir4'
_cell_volume   356.89652525
_cell_formula_units_Z   2
loop_
 _symmetry_equiv_pos_site_id
 _symmetry_equiv_pos_as_xyz
  1  'x, y, z'
loop_
 _atom_site_type_symbol
 _atom_site_label
 _atom_site_symmetry_multiplicity
 _atom_site_fract_x
 _atom_site_fract_y
 _atom_site_fract_z
 _atom_site_occupancy
  Ho  Ho0  1  0.971711  0.918958  0.184265  1
  Ho  Ho1  1  0.787446  0.581042  0.815735  1
  Ho  Ho2  1  0.028336  0.081257  0.815732  1
  Ho  Ho3  1  0.212605  0.418743  0.184268  1
  Er  Er4  1  0.652433  0.817400  0.440863  1
  Er  Er5  1  0.211571  0.682600  0.559137  1
  Tm  Tm6  1  0.347599  0.182678  0.559225  1
  Tm  Tm7  1  0.788374  0.317322  0.440775  1
  Tm  Tm8  1  0.427716  0.750000  0.000000  1
  Tm  Tm9  1  0.572322  0.250000  0.000000  1
  Ir  Ir10  1  0.823731  0.573011  0.219512  1
  Ir  Ir11  1  0.604219  0.926989  0.780488  1
  Ir  Ir12  1  0.176084  0.426555  0.780228  1
  Ir  Ir13  1  0.395854  0.073445  0.219772  1
