# generated using pymatgen
data_Yb12Lu8Si15Hg
_symmetry_space_group_name_H-M   'P 1'
_cell_length_a   7.34841143
_cell_length_b   7.75655344
_cell_length_c   15.00156284
_cell_angle_alpha   89.34367465
_cell_angle_beta   90.67042550
_cell_angle_gamma   90.19164760
_symmetry_Int_Tables_number   1
_chemical_formula_structural   Yb12Lu8Si15Hg
_chemical_formula_sum   'Yb12 Lu8 Si15 Hg1'
_cell_volume   854.94522916
_cell_formula_units_Z   1
loop_
 _symmetry_equiv_pos_site_id
 _symmetry_equiv_pos_as_xyz
  1  'x, y, z'
loop_
 _atom_site_type_symbol
 _atom_site_label
 _atom_site_symmetry_multiplicity
 _atom_site_fract_x
 _atom_site_fract_y
 _atom_site_fract_z
 _atom_site_occupancy
  Yb  Yb0  1  0.988523  0.820555  0.403307  1
  Yb  Yb1  1  0.476514  0.681959  0.095189  1
  Yb  Yb2  1  0.504388  0.319258  0.594641  1
  Yb  Yb3  1  0.022369  0.183176  0.905448  1
  Yb  Yb4  1  0.021293  0.174315  0.593676  1
  Yb  Yb5  1  0.523029  0.320047  0.905040  1
  Yb  Yb6  1  0.478982  0.676316  0.404352  1
  Yb  Yb7  1  0.977378  0.817271  0.094928  1
  Yb  Yb8  1  0.345646  0.023239  0.752453  1
  Yb  Yb9  1  0.844935  0.484993  0.751243  1
  Yb  Yb10  1  0.154447  0.518540  0.250352  1
  Yb  Yb11  1  0.653385  0.976399  0.249383  1
  Lu  Lu12  1  0.318574  0.175029  0.120239  1
  Lu  Lu13  1  0.823918  0.315908  0.373536  1
  Lu  Lu14  1  0.181913  0.679001  0.880067  1
  Lu  Lu15  1  0.673570  0.833452  0.628138  1
  Lu  Lu16  1  0.323072  0.176259  0.376361  1
  Lu  Lu17  1  0.817720  0.322397  0.120341  1
  Lu  Lu18  1  0.186577  0.679637  0.621399  1
  Lu  Lu19  1  0.683660  0.825880  0.879834  1
  Si  Si20  1  0.355400  0.967074  0.962410  1
  Si  Si21  1  0.651773  0.028910  0.464335  1
  Si  Si22  1  0.144279  0.466052  0.038818  1
  Si  Si23  1  0.157551  0.457343  0.461127  1
  Si  Si24  1  0.645407  0.034164  0.037996  1
  Si  Si25  1  0.355826  0.965713  0.535951  1
  Si  Si26  1  0.855978  0.533727  0.961896  1
  Si  Si27  1  0.973210  0.880411  0.751875  1
  Si  Si28  1  0.469652  0.625868  0.753979  1
  Si  Si29  1  0.529192  0.373971  0.246470  1
  Si  Si30  1  0.028778  0.118573  0.249132  1
  Si  Si31  1  0.241059  0.400149  0.751712  1
  Si  Si32  1  0.744952  0.108231  0.750800  1
  Si  Si33  1  0.257757  0.895259  0.248893  1
  Si  Si34  1  0.756022  0.599462  0.248643  1
  Hg  Hg35  1  0.833270  0.541462  0.536039  1
