# generated using pymatgen
data_Zr5Al6MoRu12
_symmetry_space_group_name_H-M   'P 1'
_cell_length_a   4.44956700
_cell_length_b   6.28497700
_cell_length_c   13.30880700
_cell_angle_alpha   89.99991137
_cell_angle_beta   89.99979370
_cell_angle_gamma   89.99992490
_symmetry_Int_Tables_number   1
_chemical_formula_structural   Zr5Al6MoRu12
_chemical_formula_sum   'Zr5 Al6 Mo1 Ru12'
_cell_volume   372.18646070
_cell_formula_units_Z   1
loop_
 _symmetry_equiv_pos_site_id
 _symmetry_equiv_pos_as_xyz
  1  'x, y, z'
loop_
 _atom_site_type_symbol
 _atom_site_label
 _atom_site_symmetry_multiplicity
 _atom_site_fract_x
 _atom_site_fract_y
 _atom_site_fract_z
 _atom_site_occupancy
  Zr  Zr0  1  0.499927  0.499998  0.165813  1
  Zr  Zr1  1  0.999917  0.000000  0.332672  1
  Zr  Zr2  1  0.500001  0.500000  0.500000  1
  Zr  Zr3  1  0.000083  0.000000  0.667328  1
  Zr  Zr4  1  0.500071  0.500002  0.834188  1
  Al  Al5  1  0.000000  0.500000  0.000000  1
  Al  Al6  1  0.499922  0.000002  0.166334  1
  Al  Al7  1  0.999924  0.499999  0.331779  1
  Al  Al8  1  0.500001  0.000000  0.500000  1
  Al  Al9  1  0.000076  0.500001  0.668221  1
  Al  Al10  1  0.500080  0.999998  0.833666  1
  Mo  Mo11  1  0.000000  0.000000  0.000000  1
  Ru  Ru12  1  0.500000  0.236670  0.999999  1
  Ru  Ru13  1  0.500002  0.763329  0.000001  1
  Ru  Ru14  1  0.999915  0.244889  0.160004  1
  Ru  Ru15  1  0.999915  0.755110  0.160003  1
  Ru  Ru16  1  0.499908  0.248861  0.331652  1
  Ru  Ru17  1  0.499908  0.751141  0.331651  1
  Ru  Ru18  1  0.000001  0.252069  0.500000  1
  Ru  Ru19  1  0.999999  0.747929  0.500000  1
  Ru  Ru20  1  0.500092  0.248859  0.668349  1
  Ru  Ru21  1  0.500092  0.751139  0.668348  1
  Ru  Ru22  1  0.000085  0.244889  0.839998  1
  Ru  Ru23  1  0.000085  0.755110  0.839997  1
