# generated using pymatgen
data_CeNd15(ZnCo)4
_symmetry_space_group_name_H-M   'P 1'
_cell_length_a   9.67413735
_cell_length_b   9.67413877
_cell_length_c   9.44920700
_cell_angle_alpha   60.76619303
_cell_angle_beta   60.76618831
_cell_angle_gamma   59.84484973
_symmetry_Int_Tables_number   1
_chemical_formula_structural   CeNd15(ZnCo)4
_chemical_formula_sum   'Ce1 Nd15 Zn4 Co4'
_cell_volume   631.70650870
_cell_formula_units_Z   1
loop_
 _symmetry_equiv_pos_site_id
 _symmetry_equiv_pos_as_xyz
  1  'x, y, z'
loop_
 _atom_site_type_symbol
 _atom_site_label
 _atom_site_symmetry_multiplicity
 _atom_site_fract_x
 _atom_site_fract_y
 _atom_site_fract_z
 _atom_site_occupancy
  Ce  Ce0  1  0.430689  0.430689  0.069311  1
  Nd  Nd1  1  0.602967  0.602967  0.597518  1
  Nd  Nd2  1  0.192854  0.806091  0.815085  1
  Nd  Nd3  1  0.055497  0.055497  0.444503  1
  Nd  Nd4  1  0.440641  0.051670  0.061273  1
  Nd  Nd5  1  0.806091  0.192854  0.815085  1
  Nd  Nd6  1  0.440641  0.051670  0.446416  1
  Nd  Nd7  1  0.595546  0.207973  0.598240  1
  Nd  Nd8  1  0.814855  0.814855  0.185145  1
  Nd  Nd9  1  0.207973  0.595546  0.598240  1
  Nd  Nd10  1  0.806091  0.192854  0.185971  1
  Nd  Nd11  1  0.051670  0.440641  0.446416  1
  Nd  Nd12  1  0.192854  0.806091  0.185971  1
  Nd  Nd13  1  0.602967  0.602967  0.196549  1
  Nd  Nd14  1  0.183411  0.183411  0.816589  1
  Nd  Nd15  1  0.051670  0.440641  0.061273  1
  Zn  Zn16  1  0.828073  0.828073  0.519689  1
  Zn  Zn17  1  0.828073  0.828073  0.824164  1
  Zn  Zn18  1  0.518571  0.831478  0.824975  1
  Zn  Zn19  1  0.831478  0.518571  0.824975  1
  Co  Co20  1  0.402820  0.402820  0.342982  1
  Co  Co21  1  0.823218  0.388531  0.394126  1
  Co  Co22  1  0.388531  0.823218  0.394126  1
  Co  Co23  1  0.402820  0.402820  0.851379  1
