# generated using pymatgen
data_In8SnPd13
_symmetry_space_group_name_H-M   'P 1'
_cell_length_a   7.22494801
_cell_length_b   7.23405766
_cell_length_c   9.63703901
_cell_angle_alpha   62.35496248
_cell_angle_beta   62.64495557
_cell_angle_gamma   76.66139970
_symmetry_Int_Tables_number   1
_chemical_formula_structural   In8SnPd13
_chemical_formula_sum   'In8 Sn1 Pd13'
_cell_volume   396.19304849
_cell_formula_units_Z   1
loop_
 _symmetry_equiv_pos_site_id
 _symmetry_equiv_pos_as_xyz
  1  'x, y, z'
loop_
 _atom_site_type_symbol
 _atom_site_label
 _atom_site_symmetry_multiplicity
 _atom_site_fract_x
 _atom_site_fract_y
 _atom_site_fract_z
 _atom_site_occupancy
  In  In0  1  0.174713  0.176554  0.386454  1
  In  In1  1  0.292735  0.292313  0.666625  1
  In  In2  1  0.827406  0.249180  0.191438  1
  In  In3  1  0.708349  0.707367  0.333264  1
  In  In4  1  0.501726  0.497871  0.998984  1
  In  In5  1  0.754505  0.172255  0.807887  1
  In  In6  1  0.170627  0.750850  0.808643  1
  In  In7  1  0.823172  0.824630  0.615034  1
  Sn  Sn8  1  0.249666  0.827750  0.190301  1
  Pd  Pd9  1  0.541888  0.062727  0.159255  1
  Pd  Pd10  1  0.498861  0.000560  0.500508  1
  Pd  Pd11  1  0.544292  0.544715  0.680234  1
  Pd  Pd12  1  0.065919  0.543374  0.158540  1
  Pd  Pd13  1  0.453251  0.458045  0.318404  1
  Pd  Pd14  1  0.255389  0.746606  0.497697  1
  Pd  Pd15  1  0.257691  0.255080  0.993014  1
  Pd  Pd16  1  0.936687  0.456868  0.840409  1
  Pd  Pd17  1  0.742564  0.742517  0.008937  1
  Pd  Pd18  1  0.456608  0.934055  0.843822  1
  Pd  Pd19  1  0.743417  0.255468  0.500463  1
  Pd  Pd20  1  0.000908  0.998382  0.002039  1
  Pd  Pd21  1  0.999627  0.502835  0.498049  1
