# generated using pymatgen
data_GdTh7H30
_symmetry_space_group_name_H-M   'P 1'
_cell_length_a   7.84678085
_cell_length_b   7.84678018
_cell_length_c   7.84677992
_cell_angle_alpha   109.50551875
_cell_angle_beta   109.50552441
_cell_angle_gamma   109.50551204
_symmetry_Int_Tables_number   1
_chemical_formula_structural   GdTh7H30
_chemical_formula_sum   'Gd1 Th7 H30'
_cell_volume   371.44958543
_cell_formula_units_Z   1
loop_
 _symmetry_equiv_pos_site_id
 _symmetry_equiv_pos_as_xyz
  1  'x, y, z'
loop_
 _atom_site_type_symbol
 _atom_site_label
 _atom_site_symmetry_multiplicity
 _atom_site_fract_x
 _atom_site_fract_y
 _atom_site_fract_z
 _atom_site_occupancy
  Gd  Gd0  1  0.915896  0.915896  0.915896  1
  Th  Th1  1  0.499363  0.999311  0.081460  1
  Th  Th2  1  0.999311  0.081460  0.499363  1
  Th  Th3  1  0.081460  0.499363  0.999311  1
  Th  Th4  1  0.999215  0.584140  0.502346  1
  Th  Th5  1  0.584140  0.502346  0.999215  1
  Th  Th6  1  0.502346  0.999215  0.584140  1
  Th  Th7  1  0.416480  0.416480  0.416480  1
  H  H8  1  0.651609  0.967612  0.371272  1
  H  H9  1  0.219478  0.316058  0.847433  1
  H  H10  1  0.185138  0.404582  0.534022  1
  H  H11  1  0.096330  0.282097  0.129132  1
  H  H12  1  0.282097  0.129132  0.096330  1
  H  H13  1  0.129132  0.096330  0.282097  1
  H  H14  1  0.465553  0.152379  0.870377  1
  H  H15  1  0.718459  0.348294  0.814454  1
  H  H16  1  0.626189  0.374934  0.250056  1
  H  H17  1  0.250056  0.626189  0.374934  1
  H  H18  1  0.746660  0.873983  0.128769  1
  H  H19  1  0.128769  0.746660  0.873983  1
  H  H20  1  0.374934  0.250056  0.626189  1
  H  H21  1  0.873983  0.128769  0.746660  1
  H  H22  1  0.780349  0.592141  0.627676  1
  H  H23  1  0.316058  0.847433  0.219478  1
  H  H24  1  0.371272  0.651609  0.967612  1
  H  H25  1  0.967612  0.371272  0.651609  1
  H  H26  1  0.534022  0.185138  0.404582  1
  H  H27  1  0.404582  0.534022  0.185138  1
  H  H28  1  0.847433  0.219478  0.316058  1
  H  H29  1  0.905160  0.687382  0.034212  1
  H  H30  1  0.814454  0.718459  0.348294  1
  H  H31  1  0.152379  0.870377  0.465553  1
  H  H32  1  0.687382  0.034212  0.905160  1
  H  H33  1  0.348294  0.814454  0.718459  1
  H  H34  1  0.870377  0.465553  0.152379  1
  H  H35  1  0.627676  0.780349  0.592141  1
  H  H36  1  0.592141  0.627676  0.780349  1
  H  H37  1  0.034212  0.905160  0.687382  1
