# generated using pymatgen
data_SmNb6InSe12
_symmetry_space_group_name_H-M   'P 1'
_cell_length_a   6.08954900
_cell_length_b   6.08954914
_cell_length_c   15.39761500
_cell_angle_alpha   90.00000000
_cell_angle_beta   90.00000000
_cell_angle_gamma   120.00000469
_symmetry_Int_Tables_number   1
_chemical_formula_structural   SmNb6InSe12
_chemical_formula_sum   'Sm1 Nb6 In1 Se12'
_cell_volume   494.48638233
_cell_formula_units_Z   1
loop_
 _symmetry_equiv_pos_site_id
 _symmetry_equiv_pos_as_xyz
  1  'x, y, z'
loop_
 _atom_site_type_symbol
 _atom_site_label
 _atom_site_symmetry_multiplicity
 _atom_site_fract_x
 _atom_site_fract_y
 _atom_site_fract_z
 _atom_site_occupancy
  Sm  Sm0  1  0.666667  0.333333  0.750000  1
  Nb  Nb1  1  0.333333  0.666667  0.508920  1
  Nb  Nb2  1  0.666667  0.333333  0.989673  1
  Nb  Nb3  1  0.666667  0.333333  0.510327  1
  Nb  Nb4  1  0.333333  0.666667  0.991080  1
  Nb  Nb5  1  0.000000  0.000000  0.508426  1
  Nb  Nb6  1  0.000000  0.000000  0.991574  1
  In  In7  1  0.333333  0.666667  0.250000  1
  Se  Se8  1  0.334424  0.332898  0.098053  1
  Se  Se9  1  0.667102  0.001525  0.098053  1
  Se  Se10  1  0.998475  0.665576  0.098053  1
  Se  Se11  1  0.006347  0.333318  0.618148  1
  Se  Se12  1  0.666682  0.993653  0.881852  1
  Se  Se13  1  0.666682  0.673029  0.618148  1
  Se  Se14  1  0.326971  0.993653  0.618148  1
  Se  Se15  1  0.667102  0.665576  0.401947  1
  Se  Se16  1  0.334424  0.001525  0.401947  1
  Se  Se17  1  0.326971  0.333318  0.881852  1
  Se  Se18  1  0.006347  0.673029  0.881852  1
  Se  Se19  1  0.998475  0.332898  0.401947  1
