# generated using pymatgen
data_NaEr2CuS4
_symmetry_space_group_name_H-M   'P 1'
_cell_length_a   6.74393260
_cell_length_b   3.89241292
_cell_length_c   13.60318600
_cell_angle_alpha   90.00000000
_cell_angle_beta   90.00000000
_cell_angle_gamma   106.77333779
_symmetry_Int_Tables_number   1
_chemical_formula_structural   NaEr2CuS4
_chemical_formula_sum   'Na2 Er4 Cu2 S8'
_cell_volume   341.89333344
_cell_formula_units_Z   2
loop_
 _symmetry_equiv_pos_site_id
 _symmetry_equiv_pos_as_xyz
  1  'x, y, z'
loop_
 _atom_site_type_symbol
 _atom_site_label
 _atom_site_symmetry_multiplicity
 _atom_site_fract_x
 _atom_site_fract_y
 _atom_site_fract_z
 _atom_site_occupancy
  Na  Na0  1  0.224244  0.112123  0.250000  1
  Na  Na1  1  0.775755  0.887877  0.750000  1
  Er  Er2  1  0.730961  0.365480  0.066231  1
  Er  Er3  1  0.730961  0.365480  0.433770  1
  Er  Er4  1  0.269040  0.634520  0.566231  1
  Er  Er5  1  0.269040  0.634520  0.933769  1
  Cu  Cu6  1  0.680803  0.840402  0.250000  1
  Cu  Cu7  1  0.319198  0.159599  0.750000  1
  S  S8  1  0.000000  0.000000  0.000000  1
  S  S9  1  0.461587  0.730793  0.114139  1
  S  S10  1  0.887201  0.443601  0.250000  1
  S  S11  1  0.461587  0.730793  0.385860  1
  S  S12  1  0.000000  0.000000  0.500000  1
  S  S13  1  0.538414  0.269208  0.614139  1
  S  S14  1  0.112800  0.556400  0.750000  1
  S  S15  1  0.538414  0.269208  0.885861  1
