# generated using pymatgen
data_W3F10
_symmetry_space_group_name_H-M   'P 1'
_cell_length_a   5.77178328
_cell_length_b   5.77178319
_cell_length_c   7.90590223
_cell_angle_alpha   69.87755922
_cell_angle_beta   69.87755959
_cell_angle_gamma   88.78056022
_symmetry_Int_Tables_number   1
_chemical_formula_structural   W3F10
_chemical_formula_sum   'W3 F10'
_cell_volume   230.78984063
_cell_formula_units_Z   1
loop_
 _symmetry_equiv_pos_site_id
 _symmetry_equiv_pos_as_xyz
  1  'x, y, z'
loop_
 _atom_site_type_symbol
 _atom_site_label
 _atom_site_symmetry_multiplicity
 _atom_site_fract_x
 _atom_site_fract_y
 _atom_site_fract_z
 _atom_site_occupancy
  W  W0  1  0.500000  0.500000  0.000000  1
  W  W1  1  0.000000  0.500000  0.500000  1
  W  W2  1  0.500000  0.000000  0.500000  1
  F  F3  1  0.284292  0.284292  0.960584  1
  F  F4  1  0.715708  0.715708  0.039416  1
  F  F5  1  0.694958  0.305042  0.500000  1
  F  F6  1  0.305042  0.694958  0.500000  1
  F  F7  1  0.167505  0.167505  0.568591  1
  F  F8  1  0.832494  0.832495  0.431409  1
  F  F9  1  0.805214  0.434627  0.797391  1
  F  F10  1  0.434627  0.805214  0.797391  1
  F  F11  1  0.194786  0.565373  0.202609  1
  F  F12  1  0.565373  0.194786  0.202609  1
