# generated using pymatgen
data_NaPr4(AsRu)10
_symmetry_space_group_name_H-M   'P 1'
_cell_length_a   9.43344400
_cell_length_b   8.49442732
_cell_length_c   9.43344400
_cell_angle_alpha   56.27052131
_cell_angle_beta   90.00000000
_cell_angle_gamma   56.27050509
_symmetry_Int_Tables_number   1
_chemical_formula_structural   NaPr4(AsRu)10
_chemical_formula_sum   'Na1 Pr4 As10 Ru10'
_cell_volume   468.02546856
_cell_formula_units_Z   1
loop_
 _symmetry_equiv_pos_site_id
 _symmetry_equiv_pos_as_xyz
  1  'x, y, z'
loop_
 _atom_site_type_symbol
 _atom_site_label
 _atom_site_symmetry_multiplicity
 _atom_site_fract_x
 _atom_site_fract_y
 _atom_site_fract_z
 _atom_site_occupancy
  Na  Na0  1  0.000000  0.000000  0.000000  1
  Pr  Pr1  1  0.197753  0.000000  0.600895  1
  Pr  Pr2  1  0.399105  0.000000  0.197753  1
  Pr  Pr3  1  0.600895  0.000000  0.802247  1
  Pr  Pr4  1  0.802247  0.000000  0.399105  1
  As  As5  1  0.166862  0.265483  0.766569  1
  As  As6  1  0.368860  0.262278  0.368860  1
  As  As7  1  0.567654  0.265483  0.967947  1
  As  As8  1  0.766569  0.265483  0.567654  1
  As  As9  1  0.967947  0.265483  0.166862  1
  As  As10  1  0.631140  0.737722  0.631140  1
  As  As11  1  0.833138  0.734517  0.233431  1
  As  As12  1  0.032052  0.734517  0.833138  1
  As  As13  1  0.233431  0.734517  0.432346  1
  As  As14  1  0.432346  0.734517  0.032052  1
  Ru  Ru15  1  0.949158  0.501432  0.848738  1
  Ru  Ru16  1  0.151262  0.498568  0.450590  1
  Ru  Ru17  1  0.350169  0.498568  0.050842  1
  Ru  Ru18  1  0.549410  0.501432  0.649831  1
  Ru  Ru19  1  0.750000  0.500000  0.250000  1
  Ru  Ru20  1  0.848738  0.501432  0.549410  1
  Ru  Ru21  1  0.050842  0.498568  0.151262  1
  Ru  Ru22  1  0.250000  0.500000  0.750000  1
  Ru  Ru23  1  0.450590  0.498568  0.350169  1
  Ru  Ru24  1  0.649831  0.501432  0.949158  1
