# generated using pymatgen
data_Ti8BeBi4Os
_symmetry_space_group_name_H-M   'P 1'
_cell_length_a   7.93288995
_cell_length_b   7.93252397
_cell_length_c   7.93288971
_cell_angle_alpha   95.38102098
_cell_angle_beta   95.38693655
_cell_angle_gamma   144.32932109
_symmetry_Int_Tables_number   1
_chemical_formula_structural   Ti8BeBi4Os
_chemical_formula_sum   'Ti8 Be1 Bi4 Os1'
_cell_volume   277.09975776
_cell_formula_units_Z   1
loop_
 _symmetry_equiv_pos_site_id
 _symmetry_equiv_pos_as_xyz
  1  'x, y, z'
loop_
 _atom_site_type_symbol
 _atom_site_label
 _atom_site_symmetry_multiplicity
 _atom_site_fract_x
 _atom_site_fract_y
 _atom_site_fract_z
 _atom_site_occupancy
  Ti  Ti0  1  0.588467  0.703000  0.279708  1
  Ti  Ti1  1  0.911478  0.191182  0.114470  1
  Ti  Ti2  1  0.308795  0.588484  0.885481  1
  Ti  Ti3  1  0.796998  0.911516  0.720311  1
  Ti  Ti4  1  0.702974  0.423223  0.114443  1
  Ti  Ti5  1  0.076708  0.797000  0.885465  1
  Ti  Ti6  1  0.423286  0.308818  0.720296  1
  Ti  Ti7  1  0.191219  0.076777  0.279751  1
  Be  Be8  1  0.749920  0.750000  0.999920  1
  Bi  Bi9  1  0.360367  0.860262  0.220628  1
  Bi  Bi10  1  0.139723  0.360367  0.500095  1
  Bi  Bi11  1  0.639729  0.139633  0.779355  1
  Bi  Bi12  1  0.860365  0.639738  0.500105  1
  Os  Os13  1  0.249972  0.250000  0.999972  1
