# generated using pymatgen
data_TbDy4In4PtRh
_symmetry_space_group_name_H-M   'P 1'
_cell_length_a   3.62771800
_cell_length_b   8.13267476
_cell_length_c   18.29557357
_cell_angle_alpha   90.10872533
_cell_angle_beta   90.00000000
_cell_angle_gamma   90.00000000
_symmetry_Int_Tables_number   1
_chemical_formula_structural   TbDy4In4PtRh
_chemical_formula_sum   'Tb2 Dy8 In8 Pt2 Rh2'
_cell_volume   539.77426144
_cell_formula_units_Z   2
loop_
 _symmetry_equiv_pos_site_id
 _symmetry_equiv_pos_as_xyz
  1  'x, y, z'
loop_
 _atom_site_type_symbol
 _atom_site_label
 _atom_site_symmetry_multiplicity
 _atom_site_fract_x
 _atom_site_fract_y
 _atom_site_fract_z
 _atom_site_occupancy
  Tb  Tb0  1  0.000000  0.000000  0.000000  1
  Tb  Tb1  1  0.000000  0.500000  0.500000  1
  Dy  Dy2  1  0.000000  0.115479  0.412004  1
  Dy  Dy3  1  0.000000  0.884521  0.587996  1
  Dy  Dy4  1  0.000000  0.383066  0.914061  1
  Dy  Dy5  1  0.000000  0.616934  0.085939  1
  Dy  Dy6  1  0.000000  0.240034  0.221383  1
  Dy  Dy7  1  0.000000  0.759966  0.778617  1
  Dy  Dy8  1  0.000000  0.250033  0.720477  1
  Dy  Dy9  1  0.000000  0.749967  0.279523  1
  In  In10  1  0.500000  0.423783  0.351200  1
  In  In11  1  0.500000  0.576217  0.648800  1
  In  In12  1  0.500000  0.072578  0.850147  1
  In  In13  1  0.500000  0.927422  0.149853  1
  In  In14  1  0.500000  0.292552  0.066770  1
  In  In15  1  0.500000  0.707448  0.933230  1
  In  In16  1  0.500000  0.206117  0.568205  1
  In  In17  1  0.500000  0.793883  0.431795  1
  Pt  Pt18  1  0.500000  0.476591  0.803091  1
  Pt  Pt19  1  0.500000  0.523409  0.196909  1
  Rh  Rh20  1  0.500000  0.022817  0.304301  1
  Rh  Rh21  1  0.500000  0.977183  0.695699  1
