# generated using pymatgen
data_CaNd2In3Sn2Rh
_symmetry_space_group_name_H-M   'P 1'
_cell_length_a   7.73021000
_cell_length_b   7.67252407
_cell_length_c   4.54739200
_cell_angle_alpha   90.00000000
_cell_angle_beta   90.00000000
_cell_angle_gamma   120.24903210
_symmetry_Int_Tables_number   1
_chemical_formula_structural   CaNd2In3Sn2Rh
_chemical_formula_sum   'Ca1 Nd2 In3 Sn2 Rh1'
_cell_volume   232.98463129
_cell_formula_units_Z   1
loop_
 _symmetry_equiv_pos_site_id
 _symmetry_equiv_pos_as_xyz
  1  'x, y, z'
loop_
 _atom_site_type_symbol
 _atom_site_label
 _atom_site_symmetry_multiplicity
 _atom_site_fract_x
 _atom_site_fract_y
 _atom_site_fract_z
 _atom_site_occupancy
  Ca  Ca0  1  0.606912  0.000000  0.500000  1
  Nd  Nd1  1  0.395419  0.396046  0.500000  1
  Nd  Nd2  1  0.999373  0.603954  0.500000  1
  In  In3  1  0.231070  0.000000  0.000000  1
  In  In4  1  0.766943  0.768696  0.000000  1
  In  In5  1  0.998247  0.231304  0.000000  1
  Sn  Sn6  1  0.330033  0.665274  0.000000  1
  Sn  Sn7  1  0.664760  0.334726  0.000000  1
  Rh  Rh8  1  0.007245  0.000000  0.500000  1
