# generated using pymatgen
data_Yb7HoSiPd24
_symmetry_space_group_name_H-M   'P 1'
_cell_length_a   8.28974917
_cell_length_b   8.28974917
_cell_length_c   8.28974917
_cell_angle_alpha   89.98343851
_cell_angle_beta   90.01656149
_cell_angle_gamma   90.01656149
_symmetry_Int_Tables_number   1
_chemical_formula_structural   Yb7HoSiPd24
_chemical_formula_sum   'Yb7 Ho1 Si1 Pd24'
_cell_volume   569.67100563
_cell_formula_units_Z   1
loop_
 _symmetry_equiv_pos_site_id
 _symmetry_equiv_pos_as_xyz
  1  'x, y, z'
loop_
 _atom_site_type_symbol
 _atom_site_label
 _atom_site_symmetry_multiplicity
 _atom_site_fract_x
 _atom_site_fract_y
 _atom_site_fract_z
 _atom_site_occupancy
  Yb  Yb0  1  0.253087  0.253169  0.253169  1
  Yb  Yb1  1  0.746827  0.746852  0.746852  1
  Yb  Yb2  1  0.746831  0.746913  0.253169  1
  Yb  Yb3  1  0.746831  0.253169  0.746913  1
  Yb  Yb4  1  0.253148  0.253173  0.746852  1
  Yb  Yb5  1  0.253148  0.746852  0.253173  1
  Yb  Yb6  1  0.253199  0.746801  0.746801  1
  Ho  Ho7  1  0.746390  0.253610  0.253610  1
  Si  Si8  1  0.000176  0.999824  0.999824  1
  Pd  Pd9  1  0.257462  0.500056  0.000102  1
  Pd  Pd10  1  0.742538  0.499940  0.000070  1
  Pd  Pd11  1  0.999930  0.257462  0.499940  1
  Pd  Pd12  1  0.500060  0.257462  0.000070  1
  Pd  Pd13  1  0.999898  0.742538  0.500056  1
  Pd  Pd14  1  0.499944  0.742538  0.000102  1
  Pd  Pd15  1  0.500060  0.000070  0.257462  1
  Pd  Pd16  1  0.257462  0.000102  0.500056  1
  Pd  Pd17  1  0.499944  0.000102  0.742538  1
  Pd  Pd18  1  0.742538  0.000070  0.499940  1
  Pd  Pd19  1  0.999930  0.499940  0.257462  1
  Pd  Pd20  1  0.999898  0.500056  0.742538  1
  Pd  Pd21  1  0.252412  0.499926  0.499926  1
  Pd  Pd22  1  0.747596  0.500090  0.500090  1
  Pd  Pd23  1  0.499910  0.252404  0.500090  1
  Pd  Pd24  1  0.500074  0.747588  0.499926  1
  Pd  Pd25  1  0.499910  0.500090  0.252404  1
  Pd  Pd26  1  0.500074  0.499926  0.747588  1
  Pd  Pd27  1  0.281094  0.000013  0.000013  1
  Pd  Pd28  1  0.718839  0.999591  0.999591  1
  Pd  Pd29  1  0.000409  0.281161  0.999591  1
  Pd  Pd30  1  0.999987  0.718906  0.000013  1
  Pd  Pd31  1  0.000409  0.999591  0.281161  1
  Pd  Pd32  1  0.999987  0.000013  0.718906  1
