# generated using pymatgen
data_Yb5MnN5
_symmetry_space_group_name_H-M   'P 1'
_cell_length_a   6.69219635
_cell_length_b   6.69219580
_cell_length_c   8.64451103
_cell_angle_alpha   80.85920302
_cell_angle_beta   80.85918463
_cell_angle_gamma   59.50634578
_symmetry_Int_Tables_number   1
_chemical_formula_structural   Yb5MnN5
_chemical_formula_sum   'Yb10 Mn2 N10'
_cell_volume   327.96779451
_cell_formula_units_Z   2
loop_
 _symmetry_equiv_pos_site_id
 _symmetry_equiv_pos_as_xyz
  1  'x, y, z'
loop_
 _atom_site_type_symbol
 _atom_site_label
 _atom_site_symmetry_multiplicity
 _atom_site_fract_x
 _atom_site_fract_y
 _atom_site_fract_z
 _atom_site_occupancy
  Yb  Yb0  1  0.882055  0.352739  0.839965  1
  Yb  Yb1  1  0.875745  0.875745  0.823392  1
  Yb  Yb2  1  0.734541  0.734541  0.526647  1
  Yb  Yb3  1  0.746596  0.253390  0.505241  1
  Yb  Yb4  1  0.627013  0.127471  0.147415  1
  Yb  Yb5  1  0.352739  0.882055  0.839965  1
  Yb  Yb6  1  0.253390  0.746596  0.505241  1
  Yb  Yb7  1  0.246134  0.246134  0.491894  1
  Yb  Yb8  1  0.140116  0.140116  0.166379  1
  Yb  Yb9  1  0.127471  0.627013  0.147415  1
  Mn  Mn10  1  0.632334  0.632334  0.226198  1
  Mn  Mn11  1  0.368161  0.368161  0.769620  1
  N  N12  1  0.902900  0.474727  0.323101  1
  N  N13  1  0.997625  0.997625  0.017095  1
  N  N14  1  0.688575  0.688575  0.027657  1
  N  N15  1  0.526728  0.526728  0.699200  1
  N  N16  1  0.474727  0.902900  0.323101  1
  N  N17  1  0.531372  0.095764  0.678649  1
  N  N18  1  0.477782  0.477782  0.287769  1
  N  N19  1  0.315692  0.315692  0.973766  1
  N  N20  1  0.064831  0.064831  0.647451  1
  N  N21  1  0.095764  0.531372  0.678649  1
