# generated using pymatgen
data_Tb4HoPb3S
_symmetry_space_group_name_H-M   'P 1'
_cell_length_a   9.18178900
_cell_length_b   9.18178929
_cell_length_c   6.72485900
_cell_angle_alpha   90.00000000
_cell_angle_beta   90.00000000
_cell_angle_gamma   120.00000975
_symmetry_Int_Tables_number   1
_chemical_formula_structural   Tb4HoPb3S
_chemical_formula_sum   'Tb8 Ho2 Pb6 S2'
_cell_volume   490.98520157
_cell_formula_units_Z   2
loop_
 _symmetry_equiv_pos_site_id
 _symmetry_equiv_pos_as_xyz
  1  'x, y, z'
loop_
 _atom_site_type_symbol
 _atom_site_label
 _atom_site_symmetry_multiplicity
 _atom_site_fract_x
 _atom_site_fract_y
 _atom_site_fract_z
 _atom_site_occupancy
  Tb  Tb0  1  0.756612  0.756612  0.749831  1
  Tb  Tb1  1  0.243388  0.000000  0.749831  1
  Tb  Tb2  1  0.000000  0.243388  0.749831  1
  Tb  Tb3  1  0.243388  0.243388  0.250169  1
  Tb  Tb4  1  0.756612  0.000000  0.250169  1
  Tb  Tb5  1  0.000000  0.756612  0.250169  1
  Tb  Tb6  1  0.666667  0.333333  0.000000  1
  Tb  Tb7  1  0.333333  0.666667  0.000000  1
  Ho  Ho8  1  0.333333  0.666667  0.500000  1
  Ho  Ho9  1  0.666667  0.333333  0.500000  1
  Pb  Pb10  1  0.396918  0.396918  0.749611  1
  Pb  Pb11  1  0.603082  0.000000  0.749611  1
  Pb  Pb12  1  0.000000  0.603082  0.749611  1
  Pb  Pb13  1  0.603082  0.603082  0.250389  1
  Pb  Pb14  1  0.396918  0.000000  0.250389  1
  Pb  Pb15  1  0.000000  0.396918  0.250389  1
  S  S16  1  0.000000  0.000000  0.000000  1
  S  S17  1  0.000000  0.000000  0.500000  1
