# generated using pymatgen
data_Dy4Y2LuCo17P12
_symmetry_space_group_name_H-M   'P 1'
_cell_length_a   3.71870200
_cell_length_b   10.60594000
_cell_length_c   12.35398400
_cell_angle_alpha   90.00000000
_cell_angle_beta   90.00000000
_cell_angle_gamma   90.00000000
_symmetry_Int_Tables_number   1
_chemical_formula_structural   Dy4Y2LuCo17P12
_chemical_formula_sum   'Dy4 Y2 Lu1 Co17 P12'
_cell_volume   487.24520936
_cell_formula_units_Z   1
loop_
 _symmetry_equiv_pos_site_id
 _symmetry_equiv_pos_as_xyz
  1  'x, y, z'
loop_
 _atom_site_type_symbol
 _atom_site_label
 _atom_site_symmetry_multiplicity
 _atom_site_fract_x
 _atom_site_fract_y
 _atom_site_fract_z
 _atom_site_occupancy
  Dy  Dy0  1  0.500000  0.822310  0.207802  1
  Dy  Dy1  1  0.500000  0.177690  0.207802  1
  Dy  Dy2  1  0.000000  0.683326  0.795327  1
  Dy  Dy3  1  0.000000  0.316674  0.795327  1
  Y  Y4  1  0.000000  0.500000  0.530549  1
  Y  Y5  1  0.500000  0.000000  0.478285  1
  Lu  Lu6  1  0.500000  0.500000  0.154308  1
  Co  Co7  1  0.000000  0.000000  0.835205  1
  Co  Co8  1  0.500000  0.500000  0.703765  1
  Co  Co9  1  0.000000  0.000000  0.294876  1
  Co  Co10  1  0.000000  0.500000  0.982178  1
  Co  Co11  1  0.500000  0.000000  0.013012  1
  Co  Co12  1  0.500000  0.324699  0.987030  1
  Co  Co13  1  0.500000  0.675301  0.987030  1
  Co  Co14  1  0.000000  0.159934  0.999307  1
  Co  Co15  1  0.000000  0.840066  0.999307  1
  Co  Co16  1  0.500000  0.293177  0.436076  1
  Co  Co17  1  0.500000  0.706823  0.436076  1
  Co  Co18  1  0.000000  0.201161  0.571057  1
  Co  Co19  1  0.000000  0.798839  0.571057  1
  Co  Co20  1  0.500000  0.880807  0.707436  1
  Co  Co21  1  0.500000  0.119193  0.707436  1
  Co  Co22  1  0.000000  0.622648  0.302309  1
  Co  Co23  1  0.000000  0.377352  0.302309  1
  P  P24  1  0.500000  0.500000  0.882185  1
  P  P25  1  0.000000  0.000000  0.115436  1
  P  P26  1  0.500000  0.500000  0.363359  1
  P  P27  1  0.000000  0.000000  0.654533  1
  P  P28  1  0.500000  0.307874  0.618611  1
  P  P29  1  0.500000  0.692126  0.618611  1
  P  P30  1  0.000000  0.188296  0.387162  1
  P  P31  1  0.000000  0.811704  0.387162  1
  P  P32  1  0.500000  0.853473  0.887437  1
  P  P33  1  0.500000  0.146527  0.887437  1
  P  P34  1  0.000000  0.667481  0.096600  1
  P  P35  1  0.000000  0.332519  0.096600  1
