# generated using pymatgen
data_HfNb5(GaRh2)6
_symmetry_space_group_name_H-M   'P 1'
_cell_length_a   4.06192600
_cell_length_b   7.39106400
_cell_length_c   12.18625300
_cell_angle_alpha   90.00000000
_cell_angle_beta   90.00008933
_cell_angle_gamma   90.00000000
_symmetry_Int_Tables_number   1
_chemical_formula_structural   HfNb5(GaRh2)6
_chemical_formula_sum   'Hf1 Nb5 Ga6 Rh12'
_cell_volume   365.85513954
_cell_formula_units_Z   1
loop_
 _symmetry_equiv_pos_site_id
 _symmetry_equiv_pos_as_xyz
  1  'x, y, z'
loop_
 _atom_site_type_symbol
 _atom_site_label
 _atom_site_symmetry_multiplicity
 _atom_site_fract_x
 _atom_site_fract_y
 _atom_site_fract_z
 _atom_site_occupancy
  Hf  Hf0  1  0.499999  0.000000  0.833316  1
  Nb  Nb1  1  0.000000  0.500000  0.001462  1
  Nb  Nb2  1  0.499999  0.000000  0.166839  1
  Nb  Nb3  1  0.000002  0.500000  0.333348  1
  Nb  Nb4  1  0.500005  0.000000  0.499824  1
  Nb  Nb5  1  0.000001  0.500000  0.665205  1
  Ga  Ga6  1  0.999997  0.000000  0.002422  1
  Ga  Ga7  1  0.500002  0.500000  0.168029  1
  Ga  Ga8  1  0.000002  0.000000  0.333358  1
  Ga  Ga9  1  0.500000  0.500000  0.498639  1
  Ga  Ga10  1  0.000001  0.000000  0.664195  1
  Ga  Ga11  1  0.499994  0.500000  0.833292  1
  Rh  Rh12  1  0.500000  0.252460  0.002271  1
  Rh  Rh13  1  0.500000  0.747540  0.002271  1
  Rh  Rh14  1  0.999992  0.249999  0.167765  1
  Rh  Rh15  1  0.999992  0.750000  0.167765  1
  Rh  Rh16  1  0.500001  0.249824  0.333348  1
  Rh  Rh17  1  0.500001  0.750177  0.333348  1
  Rh  Rh18  1  0.000005  0.249983  0.498931  1
  Rh  Rh19  1  0.000005  0.750016  0.498931  1
  Rh  Rh20  1  0.500002  0.252485  0.664385  1
  Rh  Rh21  1  0.500002  0.747516  0.664385  1
  Rh  Rh22  1  0.000002  0.254676  0.833335  1
  Rh  Rh23  1  0.000002  0.745323  0.833335  1
