# generated using pymatgen
data_Tb4AlMoRu6
_symmetry_space_group_name_H-M   'P 1'
_cell_length_a   5.21121443
_cell_length_b   5.21121468
_cell_length_c   8.98931000
_cell_angle_alpha   90.00000000
_cell_angle_beta   90.00000000
_cell_angle_gamma   114.97431513
_symmetry_Int_Tables_number   1
_chemical_formula_structural   Tb4AlMoRu6
_chemical_formula_sum   'Tb4 Al1 Mo1 Ru6'
_cell_volume   221.29454536
_cell_formula_units_Z   1
loop_
 _symmetry_equiv_pos_site_id
 _symmetry_equiv_pos_as_xyz
  1  'x, y, z'
loop_
 _atom_site_type_symbol
 _atom_site_label
 _atom_site_symmetry_multiplicity
 _atom_site_fract_x
 _atom_site_fract_y
 _atom_site_fract_z
 _atom_site_occupancy
  Tb  Tb0  1  0.325635  0.674365  0.433743  1
  Tb  Tb1  1  0.669334  0.330666  0.567042  1
  Tb  Tb2  1  0.669334  0.330666  0.932958  1
  Tb  Tb3  1  0.325635  0.674365  0.066257  1
  Al  Al4  1  0.164720  0.835280  0.750000  1
  Mo  Mo5  1  0.846959  0.153041  0.250000  1
  Ru  Ru6  1  0.989325  0.010675  0.501586  1
  Ru  Ru7  1  0.989325  0.010675  0.998414  1
  Ru  Ru8  1  0.825228  0.643382  0.250000  1
  Ru  Ru9  1  0.356618  0.174772  0.250000  1
  Ru  Ru10  1  0.183969  0.346081  0.750000  1
  Ru  Ru11  1  0.653919  0.816031  0.750000  1
