# generated using pymatgen
data_GdGaNi4
_symmetry_space_group_name_H-M   'P 1'
_cell_length_a   8.56940800
_cell_length_b   8.56940711
_cell_length_c   4.03402900
_cell_angle_alpha   90.00000000
_cell_angle_beta   90.00000000
_cell_angle_gamma   120.00000342
_symmetry_Int_Tables_number   1
_chemical_formula_structural   GdGaNi4
_chemical_formula_sum   'Gd3 Ga3 Ni12'
_cell_volume   256.54953333
_cell_formula_units_Z   3
loop_
 _symmetry_equiv_pos_site_id
 _symmetry_equiv_pos_as_xyz
  1  'x, y, z'
loop_
 _atom_site_type_symbol
 _atom_site_label
 _atom_site_symmetry_multiplicity
 _atom_site_fract_x
 _atom_site_fract_y
 _atom_site_fract_z
 _atom_site_occupancy
  Gd  Gd0  1  0.333333  0.666667  0.000000  1
  Gd  Gd1  1  0.666667  0.333333  0.000000  1
  Gd  Gd2  1  0.000000  0.000000  0.000000  1
  Ga  Ga3  1  0.500000  0.000000  0.500000  1
  Ga  Ga4  1  0.000000  0.500000  0.500000  1
  Ga  Ga5  1  0.500000  0.500000  0.500000  1
  Ni  Ni6  1  0.168062  0.336123  0.500000  1
  Ni  Ni7  1  0.831938  0.663877  0.500000  1
  Ni  Ni8  1  0.663877  0.831938  0.500000  1
  Ni  Ni9  1  0.336123  0.168062  0.500000  1
  Ni  Ni10  1  0.168062  0.831938  0.500000  1
  Ni  Ni11  1  0.831938  0.168062  0.500000  1
  Ni  Ni12  1  0.328066  0.000000  0.000000  1
  Ni  Ni13  1  0.671934  0.000000  0.000000  1
  Ni  Ni14  1  0.000000  0.328066  0.000000  1
  Ni  Ni15  1  0.000000  0.671934  0.000000  1
  Ni  Ni16  1  0.671934  0.671934  0.000000  1
  Ni  Ni17  1  0.328066  0.328066  0.000000  1
