# generated using pymatgen
data_ErLu11(OsRh)2
_symmetry_space_group_name_H-M   'P 1'
_cell_length_a   7.19937701
_cell_length_b   8.90739700
_cell_length_c   6.23534801
_cell_angle_alpha   90.00000000
_cell_angle_beta   89.99441317
_cell_angle_gamma   90.00000000
_symmetry_Int_Tables_number   1
_chemical_formula_structural   ErLu11(OsRh)2
_chemical_formula_sum   'Er1 Lu11 Os2 Rh2'
_cell_volume   399.85858168
_cell_formula_units_Z   1
loop_
 _symmetry_equiv_pos_site_id
 _symmetry_equiv_pos_as_xyz
  1  'x, y, z'
loop_
 _atom_site_type_symbol
 _atom_site_label
 _atom_site_symmetry_multiplicity
 _atom_site_fract_x
 _atom_site_fract_y
 _atom_site_fract_z
 _atom_site_occupancy
  Er  Er0  1  0.537982  0.250000  0.874074  1
  Lu  Lu1  1  0.676367  0.057422  0.333475  1
  Lu  Lu2  1  0.176180  0.442334  0.167419  1
  Lu  Lu3  1  0.321570  0.565627  0.674362  1
  Lu  Lu4  1  0.822147  0.934476  0.825143  1
  Lu  Lu5  1  0.321570  0.934373  0.674362  1
  Lu  Lu6  1  0.822147  0.565524  0.825143  1
  Lu  Lu7  1  0.676367  0.442578  0.333475  1
  Lu  Lu8  1  0.176180  0.057666  0.167419  1
  Lu  Lu9  1  0.037693  0.250000  0.626180  1
  Lu  Lu10  1  0.464681  0.750000  0.123143  1
  Lu  Lu11  1  0.964895  0.750000  0.376568  1
  Os  Os12  1  0.114706  0.750000  0.965705  1
  Os  Os13  1  0.614845  0.750000  0.534383  1
  Rh  Rh14  1  0.887794  0.250000  0.041940  1
  Rh  Rh15  1  0.384876  0.250000  0.457208  1
