# generated using pymatgen
data_Tm4Si(HgRh2)4
_symmetry_space_group_name_H-M   'P 1'
_cell_length_a   7.38410173
_cell_length_b   7.32413084
_cell_length_c   7.38410193
_cell_angle_alpha   108.57050715
_cell_angle_beta   111.60651202
_cell_angle_gamma   108.57050601
_symmetry_Int_Tables_number   1
_chemical_formula_structural   Tm4Si(HgRh2)4
_chemical_formula_sum   'Tm4 Si1 Hg4 Rh8'
_cell_volume   305.92858291
_cell_formula_units_Z   1
loop_
 _symmetry_equiv_pos_site_id
 _symmetry_equiv_pos_as_xyz
  1  'x, y, z'
loop_
 _atom_site_type_symbol
 _atom_site_label
 _atom_site_symmetry_multiplicity
 _atom_site_fract_x
 _atom_site_fract_y
 _atom_site_fract_z
 _atom_site_occupancy
  Tm  Tm0  1  0.989748  0.979496  0.489748  1
  Tm  Tm1  1  0.039446  0.526309  0.039446  1
  Tm  Tm2  1  0.489748  0.979496  0.989748  1
  Tm  Tm3  1  0.486863  0.526309  0.486863  1
  Si  Si4  1  0.001027  0.002055  0.001027  1
  Hg  Hg5  1  0.745907  0.246346  0.500439  1
  Hg  Hg6  1  0.748484  0.496967  0.248484  1
  Hg  Hg7  1  0.500439  0.246346  0.745907  1
  Hg  Hg8  1  0.248484  0.496967  0.748484  1
  Rh  Rh9  1  0.247999  0.755535  0.507536  1
  Rh  Rh10  1  0.507536  0.755535  0.247999  1
  Rh  Rh11  1  0.733749  0.726389  0.992641  1
  Rh  Rh12  1  0.275535  0.005948  0.275535  1
  Rh  Rh13  1  0.993828  0.261982  0.268154  1
  Rh  Rh14  1  0.268154  0.261982  0.993828  1
  Rh  Rh15  1  0.730414  0.005948  0.730414  1
  Rh  Rh16  1  0.992641  0.726389  0.733749  1
