# generated using pymatgen
data_Sc3TiBe2(B2Ir5)2
_symmetry_space_group_name_H-M   'P 1'
_cell_length_a   9.27579750
_cell_length_b   9.27579750
_cell_length_c   2.97484100
_cell_angle_alpha   90.00000000
_cell_angle_beta   90.00000000
_cell_angle_gamma   89.96228378
_symmetry_Int_Tables_number   1
_chemical_formula_structural   Sc3TiBe2(B2Ir5)2
_chemical_formula_sum   'Sc3 Ti1 Be2 B4 Ir10'
_cell_volume   255.95651155
_cell_formula_units_Z   1
loop_
 _symmetry_equiv_pos_site_id
 _symmetry_equiv_pos_as_xyz
  1  'x, y, z'
loop_
 _atom_site_type_symbol
 _atom_site_label
 _atom_site_symmetry_multiplicity
 _atom_site_fract_x
 _atom_site_fract_y
 _atom_site_fract_z
 _atom_site_occupancy
  Sc  Sc0  1  0.323883  0.176117  0.000000  1
  Sc  Sc1  1  0.823498  0.322936  0.000000  1
  Sc  Sc2  1  0.177064  0.676502  0.000000  1
  Ti  Ti3  1  0.677294  0.822706  0.000000  1
  Be  Be4  1  0.000584  0.000547  0.000000  1
  Be  Be5  1  0.499453  0.499416  0.000000  1
  B  B6  1  0.628397  0.128751  0.000000  1
  B  B7  1  0.128601  0.371399  0.000000  1
  B  B8  1  0.870643  0.629356  0.000000  1
  B  B9  1  0.371249  0.871602  0.000000  1
  Ir  Ir10  1  0.503776  0.996224  0.499999  1
  Ir  Ir11  1  0.789614  0.062478  0.499999  1
  Ir  Ir12  1  0.066528  0.209189  0.499999  1
  Ir  Ir13  1  0.567999  0.290407  0.499999  1
  Ir  Ir14  1  0.290811  0.433473  0.499999  1
  Ir  Ir15  1  0.999092  0.500908  0.499999  1
  Ir  Ir16  1  0.707295  0.572897  0.499999  1
  Ir  Ir17  1  0.437523  0.710385  0.499999  1
  Ir  Ir18  1  0.927102  0.792704  0.499999  1
  Ir  Ir19  1  0.209593  0.932000  0.499999  1
