# generated using pymatgen
data_Ba4ScUO8
_symmetry_space_group_name_H-M   'P 1'
_cell_length_a   7.48387755
_cell_length_b   7.48387710
_cell_length_c   6.04114800
_cell_angle_alpha   90.00000000
_cell_angle_beta   90.00000000
_cell_angle_gamma   132.23079777
_symmetry_Int_Tables_number   1
_chemical_formula_structural   Ba4ScUO8
_chemical_formula_sum   'Ba4 Sc1 U1 O8'
_cell_volume   250.53284827
_cell_formula_units_Z   1
loop_
 _symmetry_equiv_pos_site_id
 _symmetry_equiv_pos_as_xyz
  1  'x, y, z'
loop_
 _atom_site_type_symbol
 _atom_site_label
 _atom_site_symmetry_multiplicity
 _atom_site_fract_x
 _atom_site_fract_y
 _atom_site_fract_z
 _atom_site_occupancy
  Ba  Ba0  1  0.644743  0.355257  0.000000  1
  Ba  Ba1  1  0.149673  0.850327  0.500000  1
  Ba  Ba2  1  0.850327  0.149673  0.500000  1
  Ba  Ba3  1  0.355257  0.644743  0.000000  1
  Sc  Sc4  1  0.500000  0.500000  0.500000  1
  U  U5  1  0.000000  0.000000  0.000000  1
  O  O6  1  0.748009  0.748009  0.751517  1
  O  O7  1  0.251991  0.251991  0.248483  1
  O  O8  1  0.251991  0.251991  0.751517  1
  O  O9  1  0.748009  0.748009  0.248483  1
  O  O10  1  0.840836  0.159164  0.000000  1
  O  O11  1  0.342516  0.657484  0.500000  1
  O  O12  1  0.657484  0.342516  0.500000  1
  O  O13  1  0.159164  0.840836  0.000000  1
