# generated using pymatgen
data_Pr2Th(GaNi)3
_symmetry_space_group_name_H-M   'P 1'
_cell_length_a   7.19926500
_cell_length_b   7.15214214
_cell_length_c   3.94487000
_cell_angle_alpha   90.00000000
_cell_angle_beta   90.00000000
_cell_angle_gamma   120.21818605
_symmetry_Int_Tables_number   1
_chemical_formula_structural   Pr2Th(GaNi)3
_chemical_formula_sum   'Pr2 Th1 Ga3 Ni3'
_cell_volume   175.52079838
_cell_formula_units_Z   1
loop_
 _symmetry_equiv_pos_site_id
 _symmetry_equiv_pos_as_xyz
  1  'x, y, z'
loop_
 _atom_site_type_symbol
 _atom_site_label
 _atom_site_symmetry_multiplicity
 _atom_site_fract_x
 _atom_site_fract_y
 _atom_site_fract_z
 _atom_site_occupancy
  Pr  Pr0  1  0.998474  0.415045  0.500000  1
  Pr  Pr1  1  0.583429  0.584955  0.500000  1
  Th  Th2  1  0.418198  0.000000  0.500000  1
  Ga  Ga3  1  0.997926  0.762351  0.000000  1
  Ga  Ga4  1  0.235575  0.237649  0.000000  1
  Ga  Ga5  1  0.770571  0.000000  0.000000  1
  Ni  Ni6  1  0.336200  0.688535  0.000000  1
  Ni  Ni7  1  0.647666  0.311465  0.000000  1
  Ni  Ni8  1  0.011961  0.000000  0.500000  1
