# generated using pymatgen
data_La7NpGaPd24
_symmetry_space_group_name_H-M   'P 1'
_cell_length_a   8.54447198
_cell_length_b   8.54447198
_cell_length_c   8.54447198
_cell_angle_alpha   89.69853733
_cell_angle_beta   89.69853733
_cell_angle_gamma   89.69853733
_symmetry_Int_Tables_number   1
_chemical_formula_structural   La7NpGaPd24
_chemical_formula_sum   'La7 Np1 Ga1 Pd24'
_cell_volume   623.78900904
_cell_formula_units_Z   1
loop_
 _symmetry_equiv_pos_site_id
 _symmetry_equiv_pos_as_xyz
  1  'x, y, z'
loop_
 _atom_site_type_symbol
 _atom_site_label
 _atom_site_symmetry_multiplicity
 _atom_site_fract_x
 _atom_site_fract_y
 _atom_site_fract_z
 _atom_site_occupancy
  La  La0  1  0.747528  0.747528  0.747528  1
  La  La1  1  0.747641  0.747641  0.252300  1
  La  La2  1  0.747641  0.252300  0.747641  1
  La  La3  1  0.252490  0.252490  0.748596  1
  La  La4  1  0.252490  0.748596  0.252490  1
  La  La5  1  0.252300  0.747641  0.747641  1
  La  La6  1  0.748596  0.252490  0.252490  1
  Np  Np7  1  0.252459  0.252459  0.252459  1
  Ga  Ga8  1  0.998845  0.998845  0.998845  1
  Pd  Pd9  1  0.260877  0.496287  0.005802  1
  Pd  Pd10  1  0.739478  0.499138  0.000207  1
  Pd  Pd11  1  0.005802  0.260877  0.496287  1
  Pd  Pd12  1  0.496287  0.260877  0.005802  1
  Pd  Pd13  1  0.000207  0.739478  0.499138  1
  Pd  Pd14  1  0.499138  0.739478  0.000207  1
  Pd  Pd15  1  0.496287  0.005802  0.260877  1
  Pd  Pd16  1  0.260877  0.005802  0.496287  1
  Pd  Pd17  1  0.499138  0.000207  0.739478  1
  Pd  Pd18  1  0.739478  0.000207  0.499138  1
  Pd  Pd19  1  0.005802  0.496287  0.260877  1
  Pd  Pd20  1  0.000207  0.499138  0.739478  1
  Pd  Pd21  1  0.253386  0.496042  0.496042  1
  Pd  Pd22  1  0.746583  0.499437  0.499437  1
  Pd  Pd23  1  0.496042  0.253386  0.496042  1
  Pd  Pd24  1  0.499437  0.746583  0.499437  1
  Pd  Pd25  1  0.496042  0.496042  0.253386  1
  Pd  Pd26  1  0.499437  0.499437  0.746583  1
  Pd  Pd27  1  0.292173  0.003727  0.003727  1
  Pd  Pd28  1  0.705611  0.000134  0.000134  1
  Pd  Pd29  1  0.003727  0.292173  0.003727  1
  Pd  Pd30  1  0.000134  0.705611  0.000134  1
  Pd  Pd31  1  0.003727  0.003727  0.292173  1
  Pd  Pd32  1  0.000134  0.000134  0.705611  1
