# generated using pymatgen
data_Tb3Lu(GaRu)4
_symmetry_space_group_name_H-M   'P 1'
_cell_length_a   7.15660653
_cell_length_b   4.49195100
_cell_length_c   7.14488500
_cell_angle_alpha   90.00000000
_cell_angle_beta   89.97788743
_cell_angle_gamma   90.00000000
_symmetry_Int_Tables_number   1
_chemical_formula_structural   Tb3Lu(GaRu)4
_chemical_formula_sum   'Tb3 Lu1 Ga4 Ru4'
_cell_volume   229.68750033
_cell_formula_units_Z   1
loop_
 _symmetry_equiv_pos_site_id
 _symmetry_equiv_pos_as_xyz
  1  'x, y, z'
loop_
 _atom_site_type_symbol
 _atom_site_label
 _atom_site_symmetry_multiplicity
 _atom_site_fract_x
 _atom_site_fract_y
 _atom_site_fract_z
 _atom_site_occupancy
  Tb  Tb0  1  0.516675  0.749999  0.302696  1
  Tb  Tb1  1  0.483710  0.249999  0.696560  1
  Tb  Tb2  1  0.984588  0.249999  0.805604  1
  Lu  Lu3  1  0.018471  0.749999  0.200804  1
  Ga  Ga4  1  0.299768  0.249999  0.105050  1
  Ga  Ga5  1  0.804200  0.249999  0.392648  1
  Ga  Ga6  1  0.197113  0.749999  0.604278  1
  Ga  Ga7  1  0.699506  0.749999  0.896247  1
  Ru  Ru8  1  0.659540  0.249999  0.063666  1
  Ru  Ru9  1  0.159585  0.249999  0.432896  1
  Ru  Ru10  1  0.840166  0.749999  0.562379  1
  Ru  Ru11  1  0.336676  0.749999  0.937171  1
