# generated using pymatgen
data_VOs5Ru2
_symmetry_space_group_name_H-M   'P 1'
_cell_length_a   5.49006997
_cell_length_b   5.49007063
_cell_length_c   4.33464200
_cell_angle_alpha   90.00000000
_cell_angle_beta   90.00000000
_cell_angle_gamma   120.11554745
_symmetry_Int_Tables_number   1
_chemical_formula_structural   VOs5Ru2
_chemical_formula_sum   'V1 Os5 Ru2'
_cell_volume   113.01415333
_cell_formula_units_Z   1
loop_
 _symmetry_equiv_pos_site_id
 _symmetry_equiv_pos_as_xyz
  1  'x, y, z'
loop_
 _atom_site_type_symbol
 _atom_site_label
 _atom_site_symmetry_multiplicity
 _atom_site_fract_x
 _atom_site_fract_y
 _atom_site_fract_z
 _atom_site_occupancy
  V  V0  1  0.834774  0.165227  0.749999  1
  Os  Os1  1  0.162247  0.328364  0.250000  1
  Os  Os2  1  0.671636  0.837753  0.250000  1
  Os  Os3  1  0.165622  0.834378  0.250000  1
  Os  Os4  1  0.834383  0.669617  0.749999  1
  Os  Os5  1  0.330382  0.165619  0.749999  1
  Ru  Ru6  1  0.332181  0.667820  0.749999  1
  Ru  Ru7  1  0.668776  0.331223  0.250000  1
