# generated using pymatgen
data_Tb8PPdPt23
_symmetry_space_group_name_H-M   'P 1'
_cell_length_a   8.37947100
_cell_length_b   8.37947100
_cell_length_c   8.39537600
_cell_angle_alpha   90.00000000
_cell_angle_beta   90.00000000
_cell_angle_gamma   90.00000000
_symmetry_Int_Tables_number   1
_chemical_formula_structural   Tb8PPdPt23
_chemical_formula_sum   'Tb8 P1 Pd1 Pt23'
_cell_volume   589.48581098
_cell_formula_units_Z   1
loop_
 _symmetry_equiv_pos_site_id
 _symmetry_equiv_pos_as_xyz
  1  'x, y, z'
loop_
 _atom_site_type_symbol
 _atom_site_label
 _atom_site_symmetry_multiplicity
 _atom_site_fract_x
 _atom_site_fract_y
 _atom_site_fract_z
 _atom_site_occupancy
  Tb  Tb0  1  0.254650  0.254650  0.254827  1
  Tb  Tb1  1  0.745004  0.745004  0.744369  1
  Tb  Tb2  1  0.745350  0.745350  0.254827  1
  Tb  Tb3  1  0.745004  0.254996  0.744369  1
  Tb  Tb4  1  0.254996  0.254996  0.744369  1
  Tb  Tb5  1  0.254650  0.745350  0.254827  1
  Tb  Tb6  1  0.254996  0.745004  0.744369  1
  Tb  Tb7  1  0.745350  0.254650  0.254827  1
  P  P8  1  0.000000  0.000000  0.006093  1
  Pd  Pd9  1  0.000000  0.000000  0.727821  1
  Pt  Pt10  1  0.255703  0.500000  0.999871  1
  Pt  Pt11  1  0.744297  0.500000  0.999871  1
  Pt  Pt12  1  0.000000  0.255846  0.500146  1
  Pt  Pt13  1  0.500000  0.255703  0.999871  1
  Pt  Pt14  1  0.000000  0.744154  0.500146  1
  Pt  Pt15  1  0.500000  0.744297  0.999871  1
  Pt  Pt16  1  0.500000  0.000000  0.254929  1
  Pt  Pt17  1  0.255846  0.000000  0.500146  1
  Pt  Pt18  1  0.500000  0.000000  0.743175  1
  Pt  Pt19  1  0.744154  0.000000  0.500146  1
  Pt  Pt20  1  0.000000  0.500000  0.254929  1
  Pt  Pt21  1  0.000000  0.500000  0.743175  1
  Pt  Pt22  1  0.251251  0.500000  0.499555  1
  Pt  Pt23  1  0.748749  0.500000  0.499555  1
  Pt  Pt24  1  0.500000  0.251251  0.499555  1
  Pt  Pt25  1  0.500000  0.748749  0.499555  1
  Pt  Pt26  1  0.500000  0.500000  0.251400  1
  Pt  Pt27  1  0.500000  0.500000  0.748534  1
  Pt  Pt28  1  0.275389  0.000000  0.998694  1
  Pt  Pt29  1  0.724611  0.000000  0.998694  1
  Pt  Pt30  1  0.000000  0.275389  0.998694  1
  Pt  Pt31  1  0.000000  0.724611  0.998694  1
  Pt  Pt32  1  0.000000  0.000000  0.280095  1
