# generated using pymatgen
data_PrErIrO6
_symmetry_space_group_name_H-M   'P 1'
_cell_length_a   5.37128228
_cell_length_b   9.31566822
_cell_length_c   10.03563600
_cell_angle_alpha   90.00000000
_cell_angle_beta   90.00000000
_cell_angle_gamma   89.92088506
_symmetry_Int_Tables_number   1
_chemical_formula_structural   PrErIrO6
_chemical_formula_sum   'Pr4 Er4 Ir4 O24'
_cell_volume   502.15347919
_cell_formula_units_Z   4
loop_
 _symmetry_equiv_pos_site_id
 _symmetry_equiv_pos_as_xyz
  1  'x, y, z'
loop_
 _atom_site_type_symbol
 _atom_site_label
 _atom_site_symmetry_multiplicity
 _atom_site_fract_x
 _atom_site_fract_y
 _atom_site_fract_z
 _atom_site_occupancy
  Pr  Pr0  1  0.021053  0.394576  0.034668  1
  Pr  Pr1  1  0.042221  0.278623  0.629919  1
  Pr  Pr2  1  0.457779  0.721377  0.129919  1
  Pr  Pr3  1  0.478947  0.605424  0.534668  1
  Er  Er4  1  0.518748  0.097672  0.966061  1
  Er  Er5  1  0.540209  0.215765  0.369217  1
  Er  Er6  1  0.959791  0.784235  0.869217  1
  Er  Er7  1  0.981252  0.902328  0.466061  1
  Ir  Ir8  1  0.039313  0.005808  0.148635  1
  Ir  Ir9  1  0.460687  0.994192  0.648635  1
  Ir  Ir10  1  0.545871  0.499383  0.853655  1
  Ir  Ir11  1  0.954129  0.500617  0.353655  1
  O  O12  1  0.062721  0.656556  0.472724  1
  O  O13  1  0.157242  0.555974  0.207626  1
  O  O14  1  0.174635  0.863107  0.268137  1
  O  O15  1  0.173702  0.866419  0.679824  1
  O  O16  1  0.235470  0.382482  0.425021  1
  O  O17  1  0.258247  0.082137  0.501378  1
  O  O18  1  0.241753  0.917863  0.001378  1
  O  O19  1  0.264530  0.617518  0.925021  1
  O  O20  1  0.326298  0.133581  0.179824  1
  O  O21  1  0.325365  0.136893  0.768137  1
  O  O22  1  0.342758  0.444026  0.707626  1
  O  O23  1  0.437279  0.343444  0.972724  1
  O  O24  1  0.594156  0.850256  0.527356  1
  O  O25  1  0.665526  0.943791  0.799148  1
  O  O26  1  0.692562  0.646179  0.742332  1
  O  O27  1  0.678615  0.629596  0.315622  1
  O  O28  1  0.726373  0.111470  0.566121  1
  O  O29  1  0.746873  0.405154  0.492554  1
  O  O30  1  0.753127  0.594846  0.992554  1
  O  O31  1  0.773627  0.888530  0.066121  1
  O  O32  1  0.821385  0.370404  0.815622  1
  O  O33  1  0.807438  0.353821  0.242332  1
  O  O34  1  0.834474  0.056209  0.299148  1
  O  O35  1  0.905844  0.149744  0.027356  1
