# generated using pymatgen
data_Y6Er7Th3Mg3HgIr4
_symmetry_space_group_name_H-M   'P 1'
_cell_length_a   9.76643050
_cell_length_b   9.77372250
_cell_length_c   9.77372200
_cell_angle_alpha   60.00000171
_cell_angle_beta   59.97530001
_cell_angle_gamma   59.97529677
_symmetry_Int_Tables_number   1
_chemical_formula_structural   Y6Er7Th3Mg3HgIr4
_chemical_formula_sum   'Y6 Er7 Th3 Mg3 Hg1 Ir4'
_cell_volume   659.44504143
_cell_formula_units_Z   1
loop_
 _symmetry_equiv_pos_site_id
 _symmetry_equiv_pos_as_xyz
  1  'x, y, z'
loop_
 _atom_site_type_symbol
 _atom_site_label
 _atom_site_symmetry_multiplicity
 _atom_site_fract_x
 _atom_site_fract_y
 _atom_site_fract_z
 _atom_site_occupancy
  Y  Y0  1  0.183259  0.812201  0.812201  1
  Y  Y1  1  0.813837  0.185046  0.185046  1
  Y  Y2  1  0.813215  0.183281  0.814417  1
  Y  Y3  1  0.186374  0.813305  0.185575  1
  Y  Y4  1  0.813215  0.814417  0.183281  1
  Y  Y5  1  0.186374  0.185575  0.813305  1
  Er  Er6  1  0.205073  0.598197  0.598197  1
  Er  Er7  1  0.063823  0.436959  0.436959  1
  Er  Er8  1  0.435348  0.063645  0.063645  1
  Er  Er9  1  0.435453  0.064410  0.435034  1
  Er  Er10  1  0.062374  0.437477  0.060942  1
  Er  Er11  1  0.435453  0.435034  0.064410  1
  Er  Er12  1  0.062374  0.060942  0.437477  1
  Th  Th13  1  0.595830  0.599028  0.599028  1
  Th  Th14  1  0.596776  0.599235  0.205420  1
  Th  Th15  1  0.596776  0.205420  0.599235  1
  Mg  Mg16  1  0.832782  0.829987  0.512482  1
  Mg  Mg17  1  0.832782  0.512482  0.829987  1
  Mg  Mg18  1  0.509740  0.831434  0.831434  1
  Hg  Hg19  1  0.836830  0.833313  0.833313  1
  Ir  Ir20  1  0.393454  0.391070  0.391070  1
  Ir  Ir21  1  0.393515  0.391214  0.823352  1
  Ir  Ir22  1  0.393515  0.823352  0.391214  1
  Ir  Ir23  1  0.821834  0.392981  0.392981  1
