# generated using pymatgen
data_Pr16Cd2Hg2PdRu3
_symmetry_space_group_name_H-M   'P 1'
_cell_length_a   10.00898350
_cell_length_b   10.05480231
_cell_length_c   10.09041500
_cell_angle_alpha   59.88276364
_cell_angle_beta   59.73049831
_cell_angle_gamma   59.69239982
_symmetry_Int_Tables_number   1
_chemical_formula_structural   Pr16Cd2Hg2PdRu3
_chemical_formula_sum   'Pr16 Cd2 Hg2 Pd1 Ru3'
_cell_volume   714.27685542
_cell_formula_units_Z   1
loop_
 _symmetry_equiv_pos_site_id
 _symmetry_equiv_pos_as_xyz
  1  'x, y, z'
loop_
 _atom_site_type_symbol
 _atom_site_label
 _atom_site_symmetry_multiplicity
 _atom_site_fract_x
 _atom_site_fract_y
 _atom_site_fract_z
 _atom_site_occupancy
  Pr  Pr0  1  0.342900  0.351070  0.351772  1
  Pr  Pr1  1  0.342900  0.351070  0.954260  1
  Pr  Pr2  1  0.343678  0.951546  0.352389  1
  Pr  Pr3  1  0.959736  0.345910  0.347178  1
  Pr  Pr4  1  0.814924  0.191831  0.191580  1
  Pr  Pr5  1  0.190318  0.809273  0.809779  1
  Pr  Pr6  1  0.190318  0.809273  0.190629  1
  Pr  Pr7  1  0.814924  0.191831  0.801665  1
  Pr  Pr8  1  0.190418  0.189947  0.809818  1
  Pr  Pr9  1  0.814798  0.800605  0.192299  1
  Pr  Pr10  1  0.936591  0.561793  0.561802  1
  Pr  Pr11  1  0.558357  0.938267  0.939309  1
  Pr  Pr12  1  0.558357  0.938267  0.564066  1
  Pr  Pr13  1  0.936591  0.561793  0.939815  1
  Pr  Pr14  1  0.557970  0.565054  0.938488  1
  Pr  Pr15  1  0.937196  0.940107  0.561349  1
  Cd  Cd16  1  0.579064  0.261342  0.579796  1
  Cd  Cd17  1  0.260299  0.579299  0.580200  1
  Hg  Hg18  1  0.582854  0.582075  0.583932  1
  Hg  Hg19  1  0.582854  0.582075  0.251137  1
  Pd  Pd20  1  0.575000  0.141569  0.141716  1
  Ru  Ru21  1  0.143039  0.138117  0.137255  1
  Ru  Ru22  1  0.143039  0.138117  0.581588  1
  Ru  Ru23  1  0.143873  0.579770  0.138179  1
