# generated using pymatgen
data_BaMg2V(PO4)3
_symmetry_space_group_name_H-M   'P 1'
_cell_length_a   9.22584269
_cell_length_b   9.22584347
_cell_length_c   9.22584326
_cell_angle_alpha   137.29931533
_cell_angle_beta   109.75022712
_cell_angle_gamma   85.82363109
_symmetry_Int_Tables_number   1
_chemical_formula_structural   BaMg2V(PO4)3
_chemical_formula_sum   'Ba2 Mg4 V2 P6 O24'
_cell_volume   481.89525482
_cell_formula_units_Z   2
loop_
 _symmetry_equiv_pos_site_id
 _symmetry_equiv_pos_as_xyz
  1  'x, y, z'
loop_
 _atom_site_type_symbol
 _atom_site_label
 _atom_site_symmetry_multiplicity
 _atom_site_fract_x
 _atom_site_fract_y
 _atom_site_fract_z
 _atom_site_occupancy
  Ba  Ba0  1  0.750000  0.141423  0.391423  1
  Ba  Ba1  1  0.250000  0.858577  0.608577  1
  Mg  Mg2  1  0.616567  0.616567  0.500000  1
  Mg  Mg3  1  0.883433  0.383433  0.000000  1
  Mg  Mg4  1  0.116567  0.616567  0.000000  1
  Mg  Mg5  1  0.383433  0.383433  0.500000  1
  V  V6  1  0.000000  0.000000  0.000000  1
  V  V7  1  0.500000  0.500000  0.000000  1
  P  P8  1  0.820471  0.820471  0.500000  1
  P  P9  1  0.679529  0.179529  0.000000  1
  P  P10  1  0.320471  0.820471  0.000000  1
  P  P11  1  0.179529  0.179529  0.500000  1
  P  P12  1  0.750000  0.648375  0.898375  1
  P  P13  1  0.250000  0.351625  0.101625  1
  O  O14  1  0.631130  0.510624  0.641756  1
  O  O15  1  0.131130  0.489376  0.120506  1
  O  O16  1  0.368870  0.489376  0.358244  1
  O  O17  1  0.868870  0.510624  0.879494  1
  O  O18  1  0.156537  0.127114  0.970576  1
  O  O19  1  0.843463  0.872886  0.029424  1
  O  O20  1  0.656537  0.685961  0.029424  1
  O  O21  1  0.343463  0.314039  0.970576  1
  O  O22  1  0.855925  0.789269  0.655851  1
  O  O23  1  0.866583  0.210731  0.066656  1
  O  O24  1  0.355925  0.700074  0.066656  1
  O  O25  1  0.366583  0.299926  0.655851  1
  O  O26  1  0.144075  0.210731  0.344149  1
  O  O27  1  0.133417  0.789269  0.933344  1
  O  O28  1  0.644075  0.299926  0.933344  1
  O  O29  1  0.633417  0.700074  0.344149  1
  O  O30  1  0.848230  0.065702  0.649306  1
  O  O31  1  0.583605  0.934298  0.782529  1
  O  O32  1  0.348230  0.698924  0.782529  1
  O  O33  1  0.083605  0.301076  0.649306  1
  O  O34  1  0.151770  0.934298  0.350694  1
  O  O35  1  0.416395  0.065702  0.217471  1
  O  O36  1  0.651770  0.301076  0.217471  1
  O  O37  1  0.916395  0.698924  0.350694  1
