# generated using pymatgen
data_La13Ho7Si15Ni
_symmetry_space_group_name_H-M   'P 1'
_cell_length_a   7.94916396
_cell_length_b   7.96424487
_cell_length_c   14.63590100
_cell_angle_alpha   89.99176273
_cell_angle_beta   89.37564303
_cell_angle_gamma   90.30482379
_symmetry_Int_Tables_number   1
_chemical_formula_structural   La13Ho7Si15Ni
_chemical_formula_sum   'La13 Ho7 Si15 Ni1'
_cell_volume   926.51740423
_cell_formula_units_Z   1
loop_
 _symmetry_equiv_pos_site_id
 _symmetry_equiv_pos_as_xyz
  1  'x, y, z'
loop_
 _atom_site_type_symbol
 _atom_site_label
 _atom_site_symmetry_multiplicity
 _atom_site_fract_x
 _atom_site_fract_y
 _atom_site_fract_z
 _atom_site_occupancy
  La  La0  1  0.136243  0.992674  0.875287  1
  La  La1  1  0.992975  0.634918  0.047989  1
  La  La2  1  0.015686  0.360737  0.534628  1
  La  La3  1  0.637250  0.985994  0.960206  1
  La  La4  1  0.140398  0.507267  0.791398  1
  La  La5  1  0.849236  0.484092  0.286039  1
  La  La6  1  0.499732  0.134128  0.208051  1
  La  La7  1  0.499192  0.865854  0.701346  1
  La  La8  1  0.367702  0.016378  0.459554  1
  La  La9  1  0.709283  0.690347  0.494767  1
  La  La10  1  0.826147  0.177141  0.750723  1
  La  La11  1  0.168448  0.804801  0.272267  1
  La  La12  1  0.306782  0.308428  0.996329  1
  Ho  Ho13  1  0.365674  0.489313  0.377350  1
  Ho  Ho14  1  0.851735  0.016483  0.368066  1
  Ho  Ho15  1  0.989509  0.135992  0.129997  1
  Ho  Ho16  1  0.019498  0.865704  0.620877  1
  Ho  Ho17  1  0.638744  0.509216  0.876732  1
  Ho  Ho18  1  0.500345  0.369648  0.620051  1
  Ho  Ho19  1  0.499398  0.633130  0.127584  1
  Si  Si20  1  0.918354  0.293234  0.946357  1
  Si  Si21  1  0.712189  0.078054  0.556529  1
  Si  Si22  1  0.210258  0.425649  0.194277  1
  Si  Si23  1  0.790886  0.570659  0.690550  1
  Si  Si24  1  0.438445  0.216716  0.801369  1
  Si  Si25  1  0.565121  0.789339  0.307486  1
  Si  Si26  1  0.287836  0.923210  0.066831  1
  Si  Si27  1  0.845274  0.787426  0.807261  1
  Si  Si28  1  0.146996  0.212417  0.315499  1
  Si  Si29  1  0.783834  0.846611  0.187089  1
  Si  Si30  1  0.294572  0.655197  0.554791  1
  Si  Si31  1  0.702439  0.347502  0.064593  1
  Si  Si32  1  0.652690  0.295838  0.437081  1
  Si  Si33  1  0.349274  0.698820  0.946099  1
  Si  Si34  1  0.218300  0.157771  0.680315  1
  Ni  Ni35  1  0.069558  0.719311  0.444629  1
