# generated using pymatgen
data_Tm12GaCo5
_symmetry_space_group_name_H-M   'P 1'
_cell_length_a   8.11629310
_cell_length_b   8.11629321
_cell_length_c   8.11629302
_cell_angle_alpha   110.87862233
_cell_angle_beta   110.83646463
_cell_angle_gamma   106.73279895
_symmetry_Int_Tables_number   1
_chemical_formula_structural   Tm12GaCo5
_chemical_formula_sum   'Tm12 Ga1 Co5'
_cell_volume   410.87623035
_cell_formula_units_Z   1
loop_
 _symmetry_equiv_pos_site_id
 _symmetry_equiv_pos_as_xyz
  1  'x, y, z'
loop_
 _atom_site_type_symbol
 _atom_site_label
 _atom_site_symmetry_multiplicity
 _atom_site_fract_x
 _atom_site_fract_y
 _atom_site_fract_z
 _atom_site_occupancy
  Tm  Tm0  1  0.287473  0.185248  0.472721  1
  Tm  Tm1  1  0.712527  0.814752  0.527279  1
  Tm  Tm2  1  0.287473  0.814752  0.102224  1
  Tm  Tm3  1  0.712527  0.185248  0.897776  1
  Tm  Tm4  1  0.619151  0.316183  0.302968  1
  Tm  Tm5  1  0.380849  0.683817  0.697032  1
  Tm  Tm6  1  0.013215  0.316183  0.697032  1
  Tm  Tm7  1  0.986785  0.683817  0.302968  1
  Tm  Tm8  1  0.217180  0.408661  0.191482  1
  Tm  Tm9  1  0.782820  0.591339  0.808518  1
  Tm  Tm10  1  0.217180  0.025698  0.808518  1
  Tm  Tm11  1  0.782820  0.974302  0.191482  1
  Ga  Ga12  1  0.500000  0.500000  0.000000  1
  Co  Co13  1  0.000000  0.374891  0.374891  1
  Co  Co14  1  0.000000  0.625109  0.625109  1
  Co  Co15  1  0.386089  0.886089  0.500000  1
  Co  Co16  1  0.613911  0.113911  0.500000  1
  Co  Co17  1  0.000000  0.000000  0.000000  1
