# generated using pymatgen
data_LaSmRh2O7
_symmetry_space_group_name_H-M   'P 1'
_cell_length_a   7.42141284
_cell_length_b   7.39359771
_cell_length_c   7.39359883
_cell_angle_alpha   59.73681149
_cell_angle_beta   59.87547897
_cell_angle_gamma   59.87547800
_symmetry_Int_Tables_number   1
_chemical_formula_structural   LaSmRh2O7
_chemical_formula_sum   'La2 Sm2 Rh4 O14'
_cell_volume   285.75595303
_cell_formula_units_Z   2
loop_
 _symmetry_equiv_pos_site_id
 _symmetry_equiv_pos_as_xyz
  1  'x, y, z'
loop_
 _atom_site_type_symbol
 _atom_site_label
 _atom_site_symmetry_multiplicity
 _atom_site_fract_x
 _atom_site_fract_y
 _atom_site_fract_z
 _atom_site_occupancy
  La  La0  1  0.125000  0.125000  0.125000  1
  La  La1  1  0.625000  0.125000  0.125000  1
  Sm  Sm2  1  0.125000  0.125000  0.625000  1
  Sm  Sm3  1  0.125000  0.625000  0.125000  1
  Rh  Rh4  1  0.625000  0.625000  0.625000  1
  Rh  Rh5  1  0.125000  0.625000  0.625000  1
  Rh  Rh6  1  0.625000  0.125000  0.625000  1
  Rh  Rh7  1  0.625000  0.625000  0.125000  1
  O  O8  1  0.292563  0.293523  0.701002  1
  O  O9  1  0.292563  0.701002  0.293523  1
  O  O10  1  0.957437  0.548998  0.956477  1
  O  O11  1  0.705702  0.294298  0.294298  1
  O  O12  1  0.003785  0.996215  0.996215  1
  O  O13  1  0.537088  0.548998  0.956477  1
  O  O14  1  0.292246  0.707754  0.707754  1
  O  O15  1  0.537088  0.956477  0.548998  1
  O  O16  1  0.544298  0.955702  0.955702  1
  O  O17  1  0.712912  0.701002  0.293523  1
  O  O18  1  0.246215  0.253785  0.253785  1
  O  O19  1  0.957437  0.956477  0.548998  1
  O  O20  1  0.957754  0.542246  0.542246  1
  O  O21  1  0.712912  0.293523  0.701002  1
