# generated using pymatgen
data_Tb3(CeMn)2
_symmetry_space_group_name_H-M   'P 1'
_cell_length_a   6.39258804
_cell_length_b   6.83569812
_cell_length_c   8.79633973
_cell_angle_alpha   95.25321912
_cell_angle_beta   111.30708774
_cell_angle_gamma   89.99998590
_symmetry_Int_Tables_number   1
_chemical_formula_structural   Tb3(CeMn)2
_chemical_formula_sum   'Tb6 Ce4 Mn4'
_cell_volume   356.37337563
_cell_formula_units_Z   2
loop_
 _symmetry_equiv_pos_site_id
 _symmetry_equiv_pos_as_xyz
  1  'x, y, z'
loop_
 _atom_site_type_symbol
 _atom_site_label
 _atom_site_symmetry_multiplicity
 _atom_site_fract_x
 _atom_site_fract_y
 _atom_site_fract_z
 _atom_site_occupancy
  Tb  Tb0  1  0.293009  0.312445  0.429882  1
  Tb  Tb1  1  0.706991  0.687555  0.570118  1
  Tb  Tb2  1  0.863128  0.187555  0.570118  1
  Tb  Tb3  1  0.136872  0.812445  0.429882  1
  Tb  Tb4  1  0.076872  0.250000  0.000000  1
  Tb  Tb5  1  0.923128  0.750000  0.000000  1
  Ce  Ce6  1  0.527266  0.114147  0.809246  1
  Ce  Ce7  1  0.472734  0.885853  0.190754  1
  Ce  Ce8  1  0.718020  0.385853  0.190754  1
  Ce  Ce9  1  0.281980  0.614147  0.809246  1
  Mn  Mn10  1  0.361698  0.606891  0.221525  1
  Mn  Mn11  1  0.638302  0.393109  0.778475  1
  Mn  Mn12  1  0.140175  0.893109  0.778475  1
  Mn  Mn13  1  0.859825  0.106891  0.221525  1
