# generated using pymatgen
data_Tb2Pr2Sm2CoBr10
_symmetry_space_group_name_H-M   'P 1'
_cell_length_a   7.48097952
_cell_length_b   9.36101511
_cell_length_c   9.41970916
_cell_angle_alpha   108.76303719
_cell_angle_beta   96.63848096
_cell_angle_gamma   104.58589875
_symmetry_Int_Tables_number   1
_chemical_formula_structural   Tb2Pr2Sm2CoBr10
_chemical_formula_sum   'Tb2 Pr2 Sm2 Co1 Br10'
_cell_volume   590.39448116
_cell_formula_units_Z   1
loop_
 _symmetry_equiv_pos_site_id
 _symmetry_equiv_pos_as_xyz
  1  'x, y, z'
loop_
 _atom_site_type_symbol
 _atom_site_label
 _atom_site_symmetry_multiplicity
 _atom_site_fract_x
 _atom_site_fract_y
 _atom_site_fract_z
 _atom_site_occupancy
  Tb  Tb0  1  0.354809  0.129431  0.676423  1
  Tb  Tb1  1  0.645191  0.870569  0.323577  1
  Pr  Pr2  1  0.031943  0.711838  0.407696  1
  Pr  Pr3  1  0.968057  0.288162  0.592304  1
  Sm  Sm4  1  0.875483  0.954910  0.747002  1
  Sm  Sm5  1  0.124517  0.045090  0.252998  1
  Co  Co6  1  0.000000  0.000000  0.500000  1
  Br  Br7  1  0.457520  0.826233  0.582493  1
  Br  Br8  1  0.542480  0.173767  0.417507  1
  Br  Br9  1  0.911782  0.635297  0.677224  1
  Br  Br10  1  0.088218  0.364703  0.322776  1
  Br  Br11  1  0.252795  0.085458  0.952948  1
  Br  Br12  1  0.747205  0.914542  0.047052  1
  Br  Br13  1  0.359803  0.445423  0.771380  1
  Br  Br14  1  0.640197  0.554577  0.228620  1
  Br  Br15  1  0.771958  0.250198  0.849857  1
  Br  Br16  1  0.228042  0.749802  0.150143  1
