# generated using pymatgen
data_HoTm(ThNi2)2
_symmetry_space_group_name_H-M   'P 1'
_cell_length_a   4.36162600
_cell_length_b   5.41936343
_cell_length_c   6.89276865
_cell_angle_alpha   90.09700704
_cell_angle_beta   90.00000000
_cell_angle_gamma   90.00000000
_symmetry_Int_Tables_number   1
_chemical_formula_structural   HoTm(ThNi2)2
_chemical_formula_sum   'Ho1 Tm1 Th2 Ni4'
_cell_volume   162.92576868
_cell_formula_units_Z   1
loop_
 _symmetry_equiv_pos_site_id
 _symmetry_equiv_pos_as_xyz
  1  'x, y, z'
loop_
 _atom_site_type_symbol
 _atom_site_label
 _atom_site_symmetry_multiplicity
 _atom_site_fract_x
 _atom_site_fract_y
 _atom_site_fract_z
 _atom_site_occupancy
  Ho  Ho0  1  0.250000  0.137900  0.181795  1
  Tm  Tm1  1  0.250000  0.361199  0.682393  1
  Th  Th2  1  0.750000  0.862091  0.816014  1
  Th  Th3  1  0.750000  0.633832  0.317883  1
  Ni  Ni4  1  0.250000  0.637313  0.039221  1
  Ni  Ni5  1  0.750000  0.362346  0.956118  1
  Ni  Ni6  1  0.750000  0.141214  0.465273  1
  Ni  Ni7  1  0.250000  0.864104  0.541304  1
