# generated using pymatgen
data_Dy6Tm6Co4OsPb
_symmetry_space_group_name_H-M   'P 1'
_cell_length_a   8.26918493
_cell_length_b   8.25768821
_cell_length_c   8.25769889
_cell_angle_alpha   110.71086985
_cell_angle_beta   111.37410054
_cell_angle_gamma   106.31959805
_symmetry_Int_Tables_number   1
_chemical_formula_structural   Dy6Tm6Co4OsPb
_chemical_formula_sum   'Dy6 Tm6 Co4 Os1 Pb1'
_cell_volume   433.37798055
_cell_formula_units_Z   1
loop_
 _symmetry_equiv_pos_site_id
 _symmetry_equiv_pos_as_xyz
  1  'x, y, z'
loop_
 _atom_site_type_symbol
 _atom_site_label
 _atom_site_symmetry_multiplicity
 _atom_site_fract_x
 _atom_site_fract_y
 _atom_site_fract_z
 _atom_site_occupancy
  Dy  Dy0  1  0.279729  0.181832  0.464029  1
  Dy  Dy1  1  0.720236  0.818106  0.535945  1
  Dy  Dy2  1  0.279727  0.815679  0.097873  1
  Dy  Dy3  1  0.720235  0.184271  0.902107  1
  Dy  Dy4  1  0.619962  0.312276  0.307687  1
  Dy  Dy5  1  0.379996  0.687762  0.692236  1
  Tm  Tm6  1  0.003927  0.312692  0.691236  1
  Tm  Tm7  1  0.996212  0.687363  0.308850  1
  Tm  Tm8  1  0.215709  0.410814  0.193510  1
  Tm  Tm9  1  0.784331  0.589193  0.806453  1
  Tm  Tm10  1  0.215663  0.022104  0.804846  1
  Tm  Tm11  1  0.784285  0.977782  0.195089  1
  Co  Co12  1  0.000003  0.377292  0.377287  1
  Co  Co13  1  0.000003  0.622867  0.622862  1
  Co  Co14  1  0.387875  0.888750  0.499095  1
  Co  Co15  1  0.612083  0.111178  0.500874  1
  Os  Os16  1  0.000016  0.000010  0.999988  1
  Pb  Pb17  1  0.500008  0.500029  0.000033  1
