# generated using pymatgen
data_La8Cd2IrRh
_symmetry_space_group_name_H-M   'P 1'
_cell_length_a   10.12288515
_cell_length_b   10.12288556
_cell_length_c   10.10424700
_cell_angle_alpha   60.06089198
_cell_angle_beta   60.06089067
_cell_angle_gamma   60.15679994
_symmetry_Int_Tables_number   1
_chemical_formula_structural   La8Cd2IrRh
_chemical_formula_sum   'La16 Cd4 Ir2 Rh2'
_cell_volume   733.68500821
_cell_formula_units_Z   2
loop_
 _symmetry_equiv_pos_site_id
 _symmetry_equiv_pos_as_xyz
  1  'x, y, z'
loop_
 _atom_site_type_symbol
 _atom_site_label
 _atom_site_symmetry_multiplicity
 _atom_site_fract_x
 _atom_site_fract_y
 _atom_site_fract_z
 _atom_site_occupancy
  La  La0  1  0.598310  0.598310  0.597748  1
  La  La1  1  0.598310  0.598310  0.205632  1
  La  La2  1  0.599034  0.204089  0.598439  1
  La  La3  1  0.204089  0.599034  0.598439  1
  La  La4  1  0.059590  0.440192  0.440223  1
  La  La5  1  0.440192  0.059590  0.059995  1
  La  La6  1  0.440192  0.059590  0.440223  1
  La  La7  1  0.059590  0.440192  0.059995  1
  La  La8  1  0.440215  0.440215  0.059785  1
  La  La9  1  0.059668  0.059668  0.440332  1
  La  La10  1  0.189487  0.811281  0.810481  1
  La  La11  1  0.811281  0.189487  0.188751  1
  La  La12  1  0.811281  0.189487  0.810481  1
  La  La13  1  0.189487  0.811281  0.188751  1
  La  La14  1  0.810578  0.810578  0.189422  1
  La  La15  1  0.188813  0.188813  0.811187  1
  Cd  Cd16  1  0.829916  0.829916  0.829737  1
  Cd  Cd17  1  0.829916  0.829916  0.510429  1
  Cd  Cd18  1  0.830135  0.509841  0.830012  1
  Cd  Cd19  1  0.509841  0.830135  0.830012  1
  Ir  Ir20  1  0.391674  0.826018  0.391154  1
  Ir  Ir21  1  0.826018  0.391674  0.391154  1
  Rh  Rh22  1  0.391191  0.391191  0.391062  1
  Rh  Rh23  1  0.391191  0.391191  0.826556  1
