# generated using pymatgen
data_Er5Tm(Lu2Si3)2
_symmetry_space_group_name_H-M   'P 1'
_cell_length_a   8.31151700
_cell_length_b   8.30979404
_cell_length_c   6.20749200
_cell_angle_alpha   90.00000000
_cell_angle_beta   90.00000000
_cell_angle_gamma   120.00686302
_symmetry_Int_Tables_number   1
_chemical_formula_structural   Er5Tm(Lu2Si3)2
_chemical_formula_sum   'Er5 Tm1 Lu4 Si6'
_cell_volume   371.26782939
_cell_formula_units_Z   1
loop_
 _symmetry_equiv_pos_site_id
 _symmetry_equiv_pos_as_xyz
  1  'x, y, z'
loop_
 _atom_site_type_symbol
 _atom_site_label
 _atom_site_symmetry_multiplicity
 _atom_site_fract_x
 _atom_site_fract_y
 _atom_site_fract_z
 _atom_site_occupancy
  Er  Er0  1  0.757452  0.757521  0.250000  1
  Er  Er1  1  0.999931  0.242479  0.250000  1
  Er  Er2  1  0.999964  0.757451  0.750000  1
  Er  Er3  1  0.242513  0.242549  0.750000  1
  Er  Er4  1  0.242653  0.000000  0.250000  1
  Tm  Tm5  1  0.757257  0.000000  0.750000  1
  Lu  Lu6  1  0.666678  0.333258  0.999979  1
  Lu  Lu7  1  0.333419  0.666742  0.500021  1
  Lu  Lu8  1  0.333419  0.666742  0.999979  1
  Lu  Lu9  1  0.666678  0.333258  0.500021  1
  Si  Si10  1  0.395361  0.000000  0.750000  1
  Si  Si11  1  0.395200  0.395193  0.250000  1
  Si  Si12  1  0.000007  0.604807  0.250000  1
  Si  Si13  1  0.999867  0.395020  0.750000  1
  Si  Si14  1  0.604847  0.604980  0.750000  1
  Si  Si15  1  0.604756  0.000000  0.250000  1
