# generated using pymatgen
data_Dy7YRe3TcB24
_symmetry_space_group_name_H-M   'P 1'
_cell_length_a   3.68661400
_cell_length_b   9.17892142
_cell_length_c   11.56445303
_cell_angle_alpha   90.03630257
_cell_angle_beta   90.00000000
_cell_angle_gamma   90.00000000
_symmetry_Int_Tables_number   1
_chemical_formula_structural   Dy7YRe3TcB24
_chemical_formula_sum   'Dy7 Y1 Re3 Tc1 B24'
_cell_volume   391.33106911
_cell_formula_units_Z   1
loop_
 _symmetry_equiv_pos_site_id
 _symmetry_equiv_pos_as_xyz
  1  'x, y, z'
loop_
 _atom_site_type_symbol
 _atom_site_label
 _atom_site_symmetry_multiplicity
 _atom_site_fract_x
 _atom_site_fract_y
 _atom_site_fract_z
 _atom_site_occupancy
  Dy  Dy0  1  0.000000  0.676302  0.585896  1
  Dy  Dy1  1  0.000000  0.823779  0.085981  1
  Dy  Dy2  1  0.000000  0.176507  0.913986  1
  Dy  Dy3  1  0.000000  0.941870  0.369704  1
  Dy  Dy4  1  0.000000  0.056972  0.629744  1
  Dy  Dy5  1  0.000000  0.443552  0.130640  1
  Dy  Dy6  1  0.000000  0.557006  0.870312  1
  Y  Y7  1  0.000000  0.323922  0.413892  1
  Re  Re8  1  0.000000  0.361757  0.679104  1
  Re  Re9  1  0.000000  0.138243  0.179146  1
  Re  Re10  1  0.000000  0.861798  0.820840  1
  Tc  Tc11  1  0.000000  0.638506  0.320820  1
  B  B12  1  0.500000  0.553409  0.432687  1
  B  B13  1  0.500000  0.446925  0.567080  1
  B  B14  1  0.500000  0.053332  0.067121  1
  B  B15  1  0.500000  0.946913  0.932801  1
  B  B16  1  0.500000  0.748405  0.418415  1
  B  B17  1  0.500000  0.251105  0.581412  1
  B  B18  1  0.500000  0.249065  0.081510  1
  B  B19  1  0.500000  0.751254  0.918585  1
  B  B20  1  0.500000  0.791392  0.265302  1
  B  B21  1  0.500000  0.208265  0.734487  1
  B  B22  1  0.500000  0.291697  0.234727  1
  B  B23  1  0.500000  0.708288  0.765441  1
  B  B24  1  0.500000  0.631093  0.185917  1
  B  B25  1  0.500000  0.369139  0.814233  1
  B  B26  1  0.500000  0.130572  0.314251  1
  B  B27  1  0.500000  0.869053  0.685703  1
  B  B28  1  0.500000  0.982374  0.211714  1
  B  B29  1  0.500000  0.017554  0.788096  1
  B  B30  1  0.500000  0.482804  0.288326  1
  B  B31  1  0.500000  0.517563  0.711885  1
  B  B32  1  0.500000  0.600516  0.028201  1
  B  B33  1  0.500000  0.399776  0.972261  1
  B  B34  1  0.500000  0.099860  0.471811  1
  B  B35  1  0.500000  0.899435  0.527968  1
