# generated using pymatgen
data_Pr6Nd9Th(CdIr)4
_symmetry_space_group_name_H-M   'P 1'
_cell_length_a   10.01249304
_cell_length_b   10.01249199
_cell_length_c   10.01249261
_cell_angle_alpha   59.95976691
_cell_angle_beta   59.95977065
_cell_angle_gamma   59.95976825
_symmetry_Int_Tables_number   1
_chemical_formula_structural   Pr6Nd9Th(CdIr)4
_chemical_formula_sum   'Pr6 Nd9 Th1 Cd4 Ir4'
_cell_volume   709.11259323
_cell_formula_units_Z   1
loop_
 _symmetry_equiv_pos_site_id
 _symmetry_equiv_pos_as_xyz
  1  'x, y, z'
loop_
 _atom_site_type_symbol
 _atom_site_label
 _atom_site_symmetry_multiplicity
 _atom_site_fract_x
 _atom_site_fract_y
 _atom_site_fract_z
 _atom_site_occupancy
  Pr  Pr0  1  0.940716  0.561640  0.561640  1
  Pr  Pr1  1  0.559632  0.939387  0.939387  1
  Pr  Pr2  1  0.561640  0.940716  0.561640  1
  Pr  Pr3  1  0.939387  0.559632  0.939387  1
  Pr  Pr4  1  0.561640  0.561640  0.940716  1
  Pr  Pr5  1  0.939387  0.939387  0.559632  1
  Nd  Nd6  1  0.348596  0.348596  0.953979  1
  Nd  Nd7  1  0.348596  0.953979  0.348596  1
  Nd  Nd8  1  0.953979  0.348596  0.348596  1
  Nd  Nd9  1  0.810423  0.189962  0.189962  1
  Nd  Nd10  1  0.189649  0.809355  0.809355  1
  Nd  Nd11  1  0.189962  0.810423  0.189962  1
  Nd  Nd12  1  0.809355  0.189649  0.809355  1
  Nd  Nd13  1  0.189962  0.189962  0.810423  1
  Nd  Nd14  1  0.809355  0.809355  0.189649  1
  Th  Th15  1  0.344377  0.344377  0.344377  1
  Cd  Cd16  1  0.579397  0.579397  0.579397  1
  Cd  Cd17  1  0.579115  0.579115  0.260062  1
  Cd  Cd18  1  0.579115  0.260062  0.579115  1
  Cd  Cd19  1  0.260062  0.579115  0.579115  1
  Ir  Ir20  1  0.141937  0.141937  0.141937  1
  Ir  Ir21  1  0.146101  0.146101  0.571512  1
  Ir  Ir22  1  0.146101  0.571512  0.146101  1
  Ir  Ir23  1  0.571512  0.146101  0.146101  1
