# generated using pymatgen
data_Tb3NdIn2Cu3Rh
_symmetry_space_group_name_H-M   'P 1'
_cell_length_a   7.65910185
_cell_length_b   7.65910221
_cell_length_c   3.73522000
_cell_angle_alpha   90.00000000
_cell_angle_beta   90.00000000
_cell_angle_gamma   90.09501332
_symmetry_Int_Tables_number   1
_chemical_formula_structural   Tb3NdIn2Cu3Rh
_chemical_formula_sum   'Tb3 Nd1 In2 Cu3 Rh1'
_cell_volume   219.11459131
_cell_formula_units_Z   1
loop_
 _symmetry_equiv_pos_site_id
 _symmetry_equiv_pos_as_xyz
  1  'x, y, z'
loop_
 _atom_site_type_symbol
 _atom_site_label
 _atom_site_symmetry_multiplicity
 _atom_site_fract_x
 _atom_site_fract_y
 _atom_site_fract_z
 _atom_site_occupancy
  Tb  Tb0  1  0.316606  0.816606  0.500000  1
  Tb  Tb1  1  0.181577  0.338330  0.500000  1
  Tb  Tb2  1  0.838330  0.681577  0.500000  1
  Nd  Nd3  1  0.671939  0.171939  0.500000  1
  In  In4  1  0.504425  0.503282  0.000000  1
  In  In5  1  0.003282  0.004425  0.000000  1
  Cu  Cu6  1  0.878263  0.378263  0.000000  1
  Cu  Cu7  1  0.613332  0.872139  0.000000  1
  Cu  Cu8  1  0.372139  0.113332  0.000000  1
  Rh  Rh9  1  0.120108  0.620108  0.000000  1
