# generated using pymatgen
data_Pr12Ru2RhAuBr12
_symmetry_space_group_name_H-M   'P 1'
_cell_length_a   10.60882323
_cell_length_b   10.64195283
_cell_length_c   10.64199129
_cell_angle_alpha   109.94385398
_cell_angle_beta   109.72803012
_cell_angle_gamma   109.77727128
_symmetry_Int_Tables_number   1
_chemical_formula_structural   Pr12Ru2RhAuBr12
_chemical_formula_sum   'Pr12 Ru2 Rh1 Au1 Br12'
_cell_volume   912.87548768
_cell_formula_units_Z   1
loop_
 _symmetry_equiv_pos_site_id
 _symmetry_equiv_pos_as_xyz
  1  'x, y, z'
loop_
 _atom_site_type_symbol
 _atom_site_label
 _atom_site_symmetry_multiplicity
 _atom_site_fract_x
 _atom_site_fract_y
 _atom_site_fract_z
 _atom_site_occupancy
  Pr  Pr0  1  0.471624  0.493419  0.230509  1
  Pr  Pr1  1  0.749966  0.234264  0.265741  1
  Pr  Pr2  1  0.749949  0.015245  0.484672  1
  Pr  Pr3  1  0.228250  0.470440  0.495199  1
  Pr  Pr4  1  0.266835  0.754111  0.236168  1
  Pr  Pr5  1  0.028371  0.269454  0.006564  1
  Pr  Pr6  1  0.005685  0.030095  0.272362  1
  Pr  Pr7  1  0.486424  0.753648  0.016974  1
  Pr  Pr8  1  0.494335  0.227677  0.469939  1
  Pr  Pr9  1  0.013626  0.483016  0.746388  1
  Pr  Pr10  1  0.271724  0.004826  0.029544  1
  Pr  Pr11  1  0.233156  0.263822  0.745887  1
  Ru  Ru12  1  0.499695  0.998172  0.249247  1
  Ru  Ru13  1  0.000267  0.250711  0.501860  1
  Rh  Rh14  1  0.250032  0.500501  0.999522  1
  Au  Au15  1  0.249994  0.250258  0.249753  1
  Br  Br16  1  0.250005  0.756841  0.743160  1
  Br  Br17  1  0.508267  0.503011  0.753383  1
  Br  Br18  1  0.991757  0.746663  0.996960  1
  Br  Br19  1  0.743764  0.250345  0.757117  1
  Br  Br20  1  0.997078  0.992192  0.746947  1
  Br  Br21  1  0.250067  0.996435  0.503626  1
  Br  Br22  1  0.753301  0.508868  0.503168  1
  Br  Br23  1  0.503115  0.250199  0.996960  1
  Br  Br24  1  0.756260  0.742894  0.249651  1
  Br  Br25  1  0.746707  0.996886  0.991136  1
  Br  Br26  1  0.996865  0.503003  0.249771  1
  Br  Br27  1  0.502880  0.753005  0.507791  1
