# generated using pymatgen
data_YSc2Ni8Pt
_symmetry_space_group_name_H-M   'P 1'
_cell_length_a   8.66941639
_cell_length_b   8.66941615
_cell_length_c   8.66941763
_cell_angle_alpha   32.67123584
_cell_angle_beta   32.67123771
_cell_angle_gamma   32.67124151
_symmetry_Int_Tables_number   1
_chemical_formula_structural   YSc2Ni8Pt
_chemical_formula_sum   'Y1 Sc2 Ni8 Pt1'
_cell_volume   168.88140992
_cell_formula_units_Z   1
loop_
 _symmetry_equiv_pos_site_id
 _symmetry_equiv_pos_as_xyz
  1  'x, y, z'
loop_
 _atom_site_type_symbol
 _atom_site_label
 _atom_site_symmetry_multiplicity
 _atom_site_fract_x
 _atom_site_fract_y
 _atom_site_fract_z
 _atom_site_occupancy
  Y  Y0  1  0.000000  0.000000  0.000000  1
  Sc  Sc1  1  0.861434  0.861434  0.861434  1
  Sc  Sc2  1  0.138566  0.138566  0.138566  1
  Ni  Ni3  1  0.415806  0.415806  0.923391  1
  Ni  Ni4  1  0.923391  0.415806  0.415806  1
  Ni  Ni5  1  0.584194  0.076609  0.584194  1
  Ni  Ni6  1  0.584194  0.584194  0.076609  1
  Ni  Ni7  1  0.333494  0.333494  0.333494  1
  Ni  Ni8  1  0.415806  0.923391  0.415806  1
  Ni  Ni9  1  0.666506  0.666506  0.666506  1
  Ni  Ni10  1  0.076609  0.584194  0.584194  1
  Pt  Pt11  1  0.500000  0.500000  0.500000  1
