# generated using pymatgen
data_Tb2Y6Zn3Si12Au
_symmetry_space_group_name_H-M   'P 1'
_cell_length_a   8.14389800
_cell_length_b   8.14389715
_cell_length_c   8.14125800
_cell_angle_alpha   90.00000000
_cell_angle_beta   90.00000000
_cell_angle_gamma   120.00001156
_symmetry_Int_Tables_number   1
_chemical_formula_structural   Tb2Y6Zn3Si12Au
_chemical_formula_sum   'Tb2 Y6 Zn3 Si12 Au1'
_cell_volume   467.61313869
_cell_formula_units_Z   1
loop_
 _symmetry_equiv_pos_site_id
 _symmetry_equiv_pos_as_xyz
  1  'x, y, z'
loop_
 _atom_site_type_symbol
 _atom_site_label
 _atom_site_symmetry_multiplicity
 _atom_site_fract_x
 _atom_site_fract_y
 _atom_site_fract_z
 _atom_site_occupancy
  Tb  Tb0  1  0.000000  0.000000  0.250658  1
  Tb  Tb1  1  0.000000  0.000000  0.748646  1
  Y  Y2  1  0.501523  0.003045  0.252330  1
  Y  Y3  1  0.500828  0.001657  0.747948  1
  Y  Y4  1  0.996955  0.498477  0.252330  1
  Y  Y5  1  0.998343  0.499172  0.747948  1
  Y  Y6  1  0.501523  0.498477  0.252330  1
  Y  Y7  1  0.500828  0.499172  0.747948  1
  Zn  Zn8  1  0.666667  0.333333  0.000937  1
  Zn  Zn9  1  0.666667  0.333333  0.500389  1
  Zn  Zn10  1  0.333333  0.666667  0.499604  1
  Si  Si11  1  0.163275  0.326551  0.999282  1
  Si  Si12  1  0.833052  0.666106  0.999814  1
  Si  Si13  1  0.673449  0.836725  0.999282  1
  Si  Si14  1  0.832821  0.665642  0.501596  1
  Si  Si15  1  0.333894  0.166948  0.999814  1
  Si  Si16  1  0.166325  0.332648  0.498385  1
  Si  Si17  1  0.163275  0.836725  0.999282  1
  Si  Si18  1  0.334358  0.167179  0.501596  1
  Si  Si19  1  0.833052  0.166948  0.999814  1
  Si  Si20  1  0.667352  0.833675  0.498385  1
  Si  Si21  1  0.832821  0.167179  0.501596  1
  Si  Si22  1  0.166325  0.833675  0.498385  1
  Au  Au23  1  0.333333  0.666667  0.001705  1
