# generated using pymatgen
data_Zr10Sn6GeAu
_symmetry_space_group_name_H-M   'P 1'
_cell_length_a   8.76464000
_cell_length_b   8.76463922
_cell_length_c   5.92394100
_cell_angle_alpha   90.00000000
_cell_angle_beta   90.00000000
_cell_angle_gamma   120.00000293
_symmetry_Int_Tables_number   1
_chemical_formula_structural   Zr10Sn6GeAu
_chemical_formula_sum   'Zr10 Sn6 Ge1 Au1'
_cell_volume   394.10275425
_cell_formula_units_Z   1
loop_
 _symmetry_equiv_pos_site_id
 _symmetry_equiv_pos_as_xyz
  1  'x, y, z'
loop_
 _atom_site_type_symbol
 _atom_site_label
 _atom_site_symmetry_multiplicity
 _atom_site_fract_x
 _atom_site_fract_y
 _atom_site_fract_z
 _atom_site_occupancy
  Zr  Zr0  1  0.666667  0.333333  0.000000  1
  Zr  Zr1  1  0.333333  0.666667  0.000000  1
  Zr  Zr2  1  0.333333  0.666667  0.500000  1
  Zr  Zr3  1  0.666667  0.333333  0.500000  1
  Zr  Zr4  1  0.730033  0.730033  0.760590  1
  Zr  Zr5  1  0.269967  0.000000  0.760590  1
  Zr  Zr6  1  0.000000  0.269967  0.760590  1
  Zr  Zr7  1  0.269967  0.269967  0.239410  1
  Zr  Zr8  1  0.730033  0.000000  0.239410  1
  Zr  Zr9  1  0.000000  0.730033  0.239410  1
  Sn  Sn10  1  0.387302  0.387302  0.746366  1
  Sn  Sn11  1  0.612698  0.000000  0.746366  1
  Sn  Sn12  1  0.000000  0.612698  0.746366  1
  Sn  Sn13  1  0.612698  0.612698  0.253634  1
  Sn  Sn14  1  0.387302  0.000000  0.253634  1
  Sn  Sn15  1  0.000000  0.387302  0.253634  1
  Ge  Ge16  1  0.000000  0.000000  0.000000  1
  Au  Au17  1  0.000000  0.000000  0.500000  1
