# generated using pymatgen
data_Ho5Er3Np4O24
_symmetry_space_group_name_H-M   'P 1'
_cell_length_a   5.50958703
_cell_length_b   7.80911410
_cell_length_c   11.79237077
_cell_angle_alpha   73.78155527
_cell_angle_beta   89.99306972
_cell_angle_gamma   89.98832628
_symmetry_Int_Tables_number   1
_chemical_formula_structural   Ho5Er3Np4O24
_chemical_formula_sum   'Ho5 Er3 Np4 O24'
_cell_volume   487.17541364
_cell_formula_units_Z   1
loop_
 _symmetry_equiv_pos_site_id
 _symmetry_equiv_pos_as_xyz
  1  'x, y, z'
loop_
 _atom_site_type_symbol
 _atom_site_label
 _atom_site_symmetry_multiplicity
 _atom_site_fract_x
 _atom_site_fract_y
 _atom_site_fract_z
 _atom_site_occupancy
  Ho  Ho0  1  0.185521  0.205575  0.420548  1
  Ho  Ho1  1  0.698043  0.500186  0.249836  1
  Ho  Ho2  1  0.302026  0.500057  0.750012  1
  Ho  Ho3  1  0.745069  0.999870  0.249827  1
  Ho  Ho4  1  0.254903  0.999888  0.750158  1
  Er  Er5  1  0.185494  0.794092  0.079708  1
  Er  Er6  1  0.814376  0.793935  0.579707  1
  Er  Er7  1  0.814467  0.205880  0.920348  1
  Np  Np8  1  0.256657  0.278993  0.113296  1
  Np  Np9  1  0.256513  0.721053  0.386502  1
  Np  Np10  1  0.743450  0.721063  0.886516  1
  Np  Np11  1  0.743554  0.279041  0.613725  1
  O  O12  1  0.450438  0.198428  0.274255  1
  O  O13  1  0.449696  0.801748  0.225163  1
  O  O14  1  0.550274  0.801626  0.725257  1
  O  O15  1  0.550276  0.198373  0.774940  1
  O  O16  1  0.045638  0.054450  0.103393  1
  O  O17  1  0.044907  0.944656  0.396463  1
  O  O18  1  0.954407  0.945540  0.896575  1
  O  O19  1  0.954311  0.054305  0.603610  1
  O  O20  1  0.963437  0.286912  0.232785  1
  O  O21  1  0.963699  0.713103  0.266753  1
  O  O22  1  0.036348  0.713181  0.766872  1
  O  O23  1  0.036483  0.286840  0.733181  1
  O  O24  1  0.872982  0.372584  0.444562  1
  O  O25  1  0.874213  0.628079  0.055481  1
  O  O26  1  0.125795  0.627939  0.555584  1
  O  O27  1  0.125728  0.372003  0.944395  1
  O  O28  1  0.612232  0.520037  0.616902  1
  O  O29  1  0.612370  0.480102  0.883167  1
  O  O30  1  0.388316  0.480682  0.383112  1
  O  O31  1  0.387562  0.519947  0.116824  1
  O  O32  1  0.443821  0.151917  0.569187  1
  O  O33  1  0.442865  0.847747  0.931490  1
  O  O34  1  0.556968  0.847970  0.431500  1
  O  O35  1  0.557160  0.152198  0.068366  1
