# generated using pymatgen
data_HfScCo9SnB6
_symmetry_space_group_name_H-M   'P 1'
_cell_length_a   5.69845411
_cell_length_b   5.69845436
_cell_length_c   5.69845312
_cell_angle_alpha   95.35924450
_cell_angle_beta   95.35924133
_cell_angle_gamma   95.35923902
_symmetry_Int_Tables_number   1
_chemical_formula_structural   HfScCo9SnB6
_chemical_formula_sum   'Hf1 Sc1 Co9 Sn1 B6'
_cell_volume   182.45209472
_cell_formula_units_Z   1
loop_
 _symmetry_equiv_pos_site_id
 _symmetry_equiv_pos_as_xyz
  1  'x, y, z'
loop_
 _atom_site_type_symbol
 _atom_site_label
 _atom_site_symmetry_multiplicity
 _atom_site_fract_x
 _atom_site_fract_y
 _atom_site_fract_z
 _atom_site_occupancy
  Hf  Hf0  1  0.328022  0.328022  0.328022  1
  Sc  Sc1  1  0.673133  0.673133  0.673133  1
  Co  Co2  1  0.498712  0.000462  0.000462  1
  Co  Co3  1  0.000462  0.498712  0.000462  1
  Co  Co4  1  0.000462  0.000462  0.498712  1
  Co  Co5  1  0.701051  0.201238  0.701051  1
  Co  Co6  1  0.701051  0.701051  0.201238  1
  Co  Co7  1  0.201238  0.701051  0.701051  1
  Co  Co8  1  0.298876  0.798794  0.298876  1
  Co  Co9  1  0.298876  0.298876  0.798794  1
  Co  Co10  1  0.798794  0.298876  0.298876  1
  Sn  Sn11  1  0.997995  0.997995  0.997995  1
  B  B12  1  0.386569  0.000082  0.614014  1
  B  B13  1  0.614014  0.386569  0.000082  1
  B  B14  1  0.000082  0.614014  0.386569  1
  B  B15  1  0.614014  0.000082  0.386569  1
  B  B16  1  0.386569  0.614014  0.000082  1
  B  B17  1  0.000082  0.386569  0.614014  1
