# generated using pymatgen
data_KSmSiS4
_symmetry_space_group_name_H-M   'P 1'
_cell_length_a   6.71143800
_cell_length_b   6.51803846
_cell_length_c   8.80008471
_cell_angle_alpha   71.95067262
_cell_angle_beta   90.00000000
_cell_angle_gamma   90.00000000
_symmetry_Int_Tables_number   1
_chemical_formula_structural   KSmSiS4
_chemical_formula_sum   'K2 Sm2 Si2 S8'
_cell_volume   366.01932505
_cell_formula_units_Z   2
loop_
 _symmetry_equiv_pos_site_id
 _symmetry_equiv_pos_as_xyz
  1  'x, y, z'
loop_
 _atom_site_type_symbol
 _atom_site_label
 _atom_site_symmetry_multiplicity
 _atom_site_fract_x
 _atom_site_fract_y
 _atom_site_fract_z
 _atom_site_occupancy
  K  K0  1  0.978085  0.730028  0.064823  1
  K  K1  1  0.478085  0.269972  0.935177  1
  Sm  Sm2  1  0.497125  0.229095  0.450571  1
  Sm  Sm3  1  0.997125  0.770905  0.549429  1
  Si  Si4  1  0.462177  0.781504  0.324981  1
  Si  Si5  1  0.962177  0.218496  0.675019  1
  S  S6  1  0.463242  0.590303  0.170603  1
  S  S7  1  0.232174  0.020724  0.277267  1
  S  S8  1  0.725705  0.975930  0.296265  1
  S  S9  1  0.908492  0.415848  0.434886  1
  S  S10  1  0.408492  0.584152  0.565114  1
  S  S11  1  0.225705  0.024070  0.703735  1
  S  S12  1  0.732174  0.979276  0.722733  1
  S  S13  1  0.963242  0.409697  0.829397  1
