# generated using pymatgen
data_BaLiTmSe3
_symmetry_space_group_name_H-M   'P 1'
_cell_length_a   7.34169231
_cell_length_b   7.34169279
_cell_length_c   10.66540400
_cell_angle_alpha   90.00000000
_cell_angle_beta   90.00000000
_cell_angle_gamma   146.34022889
_symmetry_Int_Tables_number   1
_chemical_formula_structural   BaLiTmSe3
_chemical_formula_sum   'Ba2 Li2 Tm2 Se6'
_cell_volume   318.62757315
_cell_formula_units_Z   2
loop_
 _symmetry_equiv_pos_site_id
 _symmetry_equiv_pos_as_xyz
  1  'x, y, z'
loop_
 _atom_site_type_symbol
 _atom_site_label
 _atom_site_symmetry_multiplicity
 _atom_site_fract_x
 _atom_site_fract_y
 _atom_site_fract_z
 _atom_site_occupancy
  Ba  Ba0  1  0.252836  0.747165  0.250000  1
  Ba  Ba1  1  0.747165  0.252836  0.750000  1
  Li  Li2  1  0.528827  0.471174  0.250000  1
  Li  Li3  1  0.471174  0.528827  0.750000  1
  Tm  Tm4  1  0.000000  0.000000  0.000000  1
  Tm  Tm5  1  0.000000  0.000000  0.500000  1
  Se  Se6  1  0.631187  0.368814  0.056778  1
  Se  Se7  1  0.932255  0.067746  0.250000  1
  Se  Se8  1  0.631187  0.368814  0.443221  1
  Se  Se9  1  0.368814  0.631187  0.556778  1
  Se  Se10  1  0.067746  0.932255  0.750000  1
  Se  Se11  1  0.368814  0.631187  0.943222  1
