# generated using pymatgen
data_LuU3(PO5)4
_symmetry_space_group_name_H-M   'P 1'
_cell_length_a   5.48984281
_cell_length_b   8.74859924
_cell_length_c   9.25079039
_cell_angle_alpha   101.32190014
_cell_angle_beta   103.68087948
_cell_angle_gamma   97.33776347
_symmetry_Int_Tables_number   1
_chemical_formula_structural   LuU3(PO5)4
_chemical_formula_sum   'Lu1 U3 P4 O20'
_cell_volume   416.16245043
_cell_formula_units_Z   1
loop_
 _symmetry_equiv_pos_site_id
 _symmetry_equiv_pos_as_xyz
  1  'x, y, z'
loop_
 _atom_site_type_symbol
 _atom_site_label
 _atom_site_symmetry_multiplicity
 _atom_site_fract_x
 _atom_site_fract_y
 _atom_site_fract_z
 _atom_site_occupancy
  Lu  Lu0  1  0.344081  0.290233  0.044206  1
  U  U1  1  0.650662  0.703806  0.953192  1
  U  U2  1  0.336789  0.800994  0.552225  1
  U  U3  1  0.658221  0.200680  0.445497  1
  P  P4  1  0.094383  0.513147  0.767906  1
  P  P5  1  0.913107  0.482425  0.234588  1
  P  P6  1  0.280968  0.925024  0.177125  1
  P  P7  1  0.725463  0.082153  0.826059  1
  O  O8  1  0.010681  0.135850  0.891715  1
  O  O9  1  0.994886  0.855624  0.101146  1
  O  O10  1  0.973276  0.374810  0.632430  1
  O  O11  1  0.025555  0.622300  0.373240  1
  O  O12  1  0.707290  0.361250  0.264271  1
  O  O13  1  0.278231  0.643445  0.732210  1
  O  O14  1  0.431737  0.817648  0.088658  1
  O  O15  1  0.573176  0.184268  0.908659  1
  O  O16  1  0.426265  0.308286  0.500562  1
  O  O17  1  0.573270  0.690743  0.507319  1
  O  O18  1  0.879639  0.590676  0.824191  1
  O  O19  1  0.115306  0.407881  0.175271  1
  O  O20  1  0.279765  0.472448  0.903567  1
  O  O21  1  0.739569  0.546137  0.101478  1
  O  O22  1  0.882184  0.092072  0.380751  1
  O  O23  1  0.108934  0.910219  0.610568  1
  O  O24  1  0.358737  0.926333  0.348296  1
  O  O25  1  0.638669  0.063157  0.648356  1
  O  O26  1  0.355497  0.098349  0.172344  1
  O  O27  1  0.643658  0.900043  0.834170  1
