# generated using pymatgen
data_LiDy16In3(CoIr)2
_symmetry_space_group_name_H-M   'P 1'
_cell_length_a   9.58959870
_cell_length_b   9.58959909
_cell_length_c   9.56985071
_cell_angle_alpha   59.90006475
_cell_angle_beta   59.90006392
_cell_angle_gamma   60.17210823
_symmetry_Int_Tables_number   1
_chemical_formula_structural   LiDy16In3(CoIr)2
_chemical_formula_sum   'Li1 Dy16 In3 Co2 Ir2'
_cell_volume   622.14751349
_cell_formula_units_Z   1
loop_
 _symmetry_equiv_pos_site_id
 _symmetry_equiv_pos_as_xyz
  1  'x, y, z'
loop_
 _atom_site_type_symbol
 _atom_site_label
 _atom_site_symmetry_multiplicity
 _atom_site_fract_x
 _atom_site_fract_y
 _atom_site_fract_z
 _atom_site_occupancy
  Li  Li0  1  0.821291  0.821291  0.820763  1
  Dy  Dy1  1  0.596369  0.596369  0.603958  1
  Dy  Dy2  1  0.595078  0.595078  0.207818  1
  Dy  Dy3  1  0.592229  0.210467  0.599168  1
  Dy  Dy4  1  0.210467  0.592229  0.599168  1
  Dy  Dy5  1  0.063546  0.442187  0.440320  1
  Dy  Dy6  1  0.437014  0.067182  0.057766  1
  Dy  Dy7  1  0.442187  0.063546  0.440320  1
  Dy  Dy8  1  0.067182  0.437014  0.057766  1
  Dy  Dy9  1  0.440950  0.440950  0.059696  1
  Dy  Dy10  1  0.061706  0.061706  0.436828  1
  Dy  Dy11  1  0.189298  0.811933  0.809634  1
  Dy  Dy12  1  0.811137  0.189257  0.190218  1
  Dy  Dy13  1  0.811933  0.189298  0.809634  1
  Dy  Dy14  1  0.189257  0.811137  0.190218  1
  Dy  Dy15  1  0.808796  0.808796  0.190856  1
  Dy  Dy16  1  0.188258  0.188258  0.811929  1
  In  In17  1  0.832787  0.832787  0.504601  1
  In  In18  1  0.833691  0.504183  0.832179  1
  In  In19  1  0.504183  0.833691  0.832179  1
  Co  Co20  1  0.391541  0.391541  0.392405  1
  Co  Co21  1  0.391656  0.391656  0.828259  1
  Ir  Ir22  1  0.392641  0.826804  0.392159  1
  Ir  Ir23  1  0.826804  0.392641  0.392159  1
