# generated using pymatgen
data_Tm16Al3CdPt4
_symmetry_space_group_name_H-M   'P 1'
_cell_length_a   9.50668370
_cell_length_b   9.49130849
_cell_length_c   9.49130900
_cell_angle_alpha   60.00000172
_cell_angle_beta   60.05348733
_cell_angle_gamma   60.05348350
_symmetry_Int_Tables_number   1
_chemical_formula_structural   Tm16Al3CdPt4
_chemical_formula_sum   'Tm16 Al3 Cd1 Pt4'
_cell_volume   606.06175519
_cell_formula_units_Z   1
loop_
 _symmetry_equiv_pos_site_id
 _symmetry_equiv_pos_as_xyz
  1  'x, y, z'
loop_
 _atom_site_type_symbol
 _atom_site_label
 _atom_site_symmetry_multiplicity
 _atom_site_fract_x
 _atom_site_fract_y
 _atom_site_fract_z
 _atom_site_occupancy
  Tm  Tm0  1  0.354139  0.353936  0.353936  1
  Tm  Tm1  1  0.354139  0.353936  0.937991  1
  Tm  Tm2  1  0.354139  0.937991  0.353936  1
  Tm  Tm3  1  0.936105  0.354632  0.354632  1
  Tm  Tm4  1  0.807162  0.192682  0.192682  1
  Tm  Tm5  1  0.192523  0.809393  0.809393  1
  Tm  Tm6  1  0.192523  0.809393  0.188691  1
  Tm  Tm7  1  0.807162  0.192682  0.807474  1
  Tm  Tm8  1  0.192523  0.188691  0.809393  1
  Tm  Tm9  1  0.807162  0.807474  0.192682  1
  Tm  Tm10  1  0.934021  0.563957  0.563957  1
  Tm  Tm11  1  0.565008  0.935348  0.935348  1
  Tm  Tm12  1  0.565008  0.935348  0.564297  1
  Tm  Tm13  1  0.934021  0.563957  0.938064  1
  Tm  Tm14  1  0.565008  0.564297  0.935348  1
  Tm  Tm15  1  0.934021  0.938064  0.563957  1
  Al  Al16  1  0.581926  0.578695  0.578695  1
  Al  Al17  1  0.581926  0.578695  0.260684  1
  Al  Al18  1  0.581926  0.260684  0.578695  1
  Cd  Cd19  1  0.259404  0.580199  0.580199  1
  Pt  Pt20  1  0.143501  0.143694  0.143694  1
  Pt  Pt21  1  0.143501  0.143694  0.569112  1
  Pt  Pt22  1  0.143501  0.569112  0.143694  1
  Pt  Pt23  1  0.569654  0.143449  0.143449  1
