# generated using pymatgen
data_Dy(AlBr4)3
_symmetry_space_group_name_H-M   'P 1'
_cell_length_a   11.61025900
_cell_length_b   11.61025904
_cell_length_c   17.17868900
_cell_angle_alpha   90.00000000
_cell_angle_beta   90.00000000
_cell_angle_gamma   120.00000273
_symmetry_Int_Tables_number   1
_chemical_formula_structural   Dy(AlBr4)3
_chemical_formula_sum   'Dy3 Al9 Br36'
_cell_volume   2005.41590404
_cell_formula_units_Z   3
loop_
 _symmetry_equiv_pos_site_id
 _symmetry_equiv_pos_as_xyz
  1  'x, y, z'
loop_
 _atom_site_type_symbol
 _atom_site_label
 _atom_site_symmetry_multiplicity
 _atom_site_fract_x
 _atom_site_fract_y
 _atom_site_fract_z
 _atom_site_occupancy
  Dy  Dy0  1  0.986920  0.493460  0.000000  1
  Dy  Dy1  1  0.506540  0.013080  0.666667  1
  Dy  Dy2  1  0.506540  0.493460  0.333333  1
  Al  Al3  1  0.730767  0.269233  0.833333  1
  Al  Al4  1  0.135500  0.768191  0.604542  1
  Al  Al5  1  0.231809  0.367309  0.937875  1
  Al  Al6  1  0.632691  0.864500  0.271208  1
  Al  Al7  1  0.730767  0.461534  0.166667  1
  Al  Al8  1  0.538466  0.269233  0.500000  1
  Al  Al9  1  0.135500  0.367309  0.395458  1
  Al  Al10  1  0.632691  0.768191  0.728792  1
  Al  Al11  1  0.231809  0.864500  0.062125  1
  Br  Br12  1  0.012989  0.844208  0.544017  1
  Br  Br13  1  0.831219  0.987011  0.210684  1
  Br  Br14  1  0.155792  0.168781  0.877351  1
  Br  Br15  1  0.789918  0.589558  0.280342  1
  Br  Br16  1  0.410442  0.200360  0.613676  1
  Br  Br17  1  0.799640  0.210082  0.947009  1
  Br  Br18  1  0.410442  0.210082  0.386324  1
  Br  Br19  1  0.799640  0.589558  0.052991  1
  Br  Br20  1  0.789918  0.200360  0.719658  1
  Br  Br21  1  0.230593  0.342649  0.276737  1
  Br  Br22  1  0.657351  0.887944  0.610070  1
  Br  Br23  1  0.112056  0.769407  0.943404  1
  Br  Br24  1  0.657351  0.769407  0.389930  1
  Br  Br25  1  0.112056  0.342649  0.056596  1
  Br  Br26  1  0.230593  0.887944  0.723263  1
  Br  Br27  1  0.501829  0.655031  0.205990  1
  Br  Br28  1  0.344969  0.846798  0.539324  1
  Br  Br29  1  0.153202  0.498171  0.872657  1
  Br  Br30  1  0.344969  0.498171  0.460676  1
  Br  Br31  1  0.153202  0.655031  0.127343  1
  Br  Br32  1  0.501829  0.846798  0.794010  1
  Br  Br33  1  0.664237  0.498405  0.482409  1
  Br  Br34  1  0.501595  0.165832  0.815743  1
  Br  Br35  1  0.834168  0.335763  0.149076  1
  Br  Br36  1  0.501595  0.335763  0.184257  1
  Br  Br37  1  0.834168  0.498405  0.850924  1
  Br  Br38  1  0.664237  0.165832  0.517591  1
  Br  Br39  1  0.037088  0.491305  0.374558  1
  Br  Br40  1  0.508695  0.545783  0.707891  1
  Br  Br41  1  0.454217  0.962912  0.041224  1
  Br  Br42  1  0.508695  0.962912  0.292109  1
  Br  Br43  1  0.454217  0.491305  0.958776  1
  Br  Br44  1  0.037088  0.545783  0.625442  1
  Br  Br45  1  0.012989  0.168781  0.455983  1
  Br  Br46  1  0.831219  0.844208  0.789316  1
  Br  Br47  1  0.155792  0.987011  0.122649  1
