# generated using pymatgen
data_Fe7Si16Ru
_symmetry_space_group_name_H-M   'P 1'
_cell_length_a   6.31910915
_cell_length_b   6.31910939
_cell_length_c   7.87707215
_cell_angle_alpha   89.89784747
_cell_angle_beta   89.89785243
_cell_angle_gamma   103.47070274
_symmetry_Int_Tables_number   1
_chemical_formula_structural   Fe7Si16Ru
_chemical_formula_sum   'Fe7 Si16 Ru1'
_cell_volume   305.88594626
_cell_formula_units_Z   1
loop_
 _symmetry_equiv_pos_site_id
 _symmetry_equiv_pos_as_xyz
  1  'x, y, z'
loop_
 _atom_site_type_symbol
 _atom_site_label
 _atom_site_symmetry_multiplicity
 _atom_site_fract_x
 _atom_site_fract_y
 _atom_site_fract_z
 _atom_site_occupancy
  Fe  Fe0  1  0.308705  0.308705  0.312878  1
  Fe  Fe1  1  0.692435  0.692435  0.685978  1
  Fe  Fe2  1  0.807393  0.807393  0.187894  1
  Fe  Fe3  1  0.283582  0.716347  0.498077  1
  Fe  Fe4  1  0.217076  0.784200  0.001186  1
  Fe  Fe5  1  0.716347  0.283582  0.498077  1
  Fe  Fe6  1  0.784200  0.217076  0.001186  1
  Si  Si7  1  0.418901  0.671769  0.227119  1
  Si  Si8  1  0.076937  0.818691  0.724156  1
  Si  Si9  1  0.170637  0.918012  0.273251  1
  Si  Si10  1  0.331887  0.588066  0.772148  1
  Si  Si11  1  0.588066  0.331887  0.772148  1
  Si  Si12  1  0.918012  0.170637  0.273251  1
  Si  Si13  1  0.818691  0.076937  0.724156  1
  Si  Si14  1  0.671769  0.418901  0.227119  1
  Si  Si15  1  0.144952  0.407715  0.057345  1
  Si  Si16  1  0.356429  0.096625  0.545175  1
  Si  Si17  1  0.901058  0.645345  0.449176  1
  Si  Si18  1  0.598173  0.854713  0.951545  1
  Si  Si19  1  0.854713  0.598173  0.951545  1
  Si  Si20  1  0.645345  0.901058  0.449176  1
  Si  Si21  1  0.096625  0.356429  0.545175  1
  Si  Si22  1  0.407715  0.144952  0.057345  1
  Ru  Ru23  1  0.190352  0.190352  0.814892  1
