# generated using pymatgen
data_TaGaF6
_symmetry_space_group_name_H-M   'P 1'
_cell_length_a   5.26674600
_cell_length_b   5.26674600
_cell_length_c   9.98644900
_cell_angle_alpha   90.00000000
_cell_angle_beta   90.00000000
_cell_angle_gamma   90.00000000
_symmetry_Int_Tables_number   1
_chemical_formula_structural   TaGaF6
_chemical_formula_sum   'Ta2 Ga2 F12'
_cell_volume   277.01024833
_cell_formula_units_Z   2
loop_
 _symmetry_equiv_pos_site_id
 _symmetry_equiv_pos_as_xyz
  1  'x, y, z'
loop_
 _atom_site_type_symbol
 _atom_site_label
 _atom_site_symmetry_multiplicity
 _atom_site_fract_x
 _atom_site_fract_y
 _atom_site_fract_z
 _atom_site_occupancy
  Ta  Ta0  1  0.000000  0.000000  0.000000  1
  Ta  Ta1  1  0.000000  0.000000  0.500000  1
  Ga  Ga2  1  0.500000  0.500000  0.250000  1
  Ga  Ga3  1  0.500000  0.500000  0.750000  1
  F  F4  1  0.816601  0.183399  0.863534  1
  F  F5  1  0.183399  0.816601  0.863534  1
  F  F6  1  0.183399  0.816601  0.136466  1
  F  F7  1  0.183399  0.183399  0.363534  1
  F  F8  1  0.741025  0.741025  0.000000  1
  F  F9  1  0.258975  0.741025  0.500000  1
  F  F10  1  0.741025  0.258975  0.500000  1
  F  F11  1  0.258975  0.258975  0.000000  1
  F  F12  1  0.816601  0.183399  0.136466  1
  F  F13  1  0.816601  0.816601  0.636466  1
  F  F14  1  0.183399  0.183399  0.636466  1
  F  F15  1  0.816601  0.816601  0.363534  1
