# generated using pymatgen
data_TaNb11Co8(MoN)4
_symmetry_space_group_name_H-M   'P 1'
_cell_length_a   8.16347635
_cell_length_b   8.17099517
_cell_length_c   8.17099519
_cell_angle_alpha   60.03076578
_cell_angle_beta   60.03044106
_cell_angle_gamma   60.03043834
_symmetry_Int_Tables_number   1
_chemical_formula_structural   TaNb11Co8(MoN)4
_chemical_formula_sum   'Ta1 Nb11 Co8 Mo4 N4'
_cell_volume   385.66540508
_cell_formula_units_Z   1
loop_
 _symmetry_equiv_pos_site_id
 _symmetry_equiv_pos_as_xyz
  1  'x, y, z'
loop_
 _atom_site_type_symbol
 _atom_site_label
 _atom_site_symmetry_multiplicity
 _atom_site_fract_x
 _atom_site_fract_y
 _atom_site_fract_z
 _atom_site_occupancy
  Ta  Ta0  1  0.440516  0.059484  0.059484  1
  Nb  Nb1  1  0.810208  0.809369  0.190447  1
  Nb  Nb2  1  0.189976  0.190447  0.809369  1
  Nb  Nb3  1  0.810208  0.190447  0.809369  1
  Nb  Nb4  1  0.189976  0.809369  0.190447  1
  Nb  Nb5  1  0.189587  0.810413  0.810413  1
  Nb  Nb6  1  0.810637  0.189363  0.189363  1
  Nb  Nb7  1  0.439818  0.440005  0.060119  1
  Nb  Nb8  1  0.060058  0.060119  0.440005  1
  Nb  Nb9  1  0.439818  0.060119  0.440005  1
  Nb  Nb10  1  0.060058  0.440005  0.060119  1
  Nb  Nb11  1  0.059969  0.440031  0.440031  1
  Co  Co12  1  0.730610  0.423261  0.423261  1
  Co  Co13  1  0.423139  0.731615  0.422108  1
  Co  Co14  1  0.423139  0.422108  0.731615  1
  Co  Co15  1  0.422868  0.423261  0.423261  1
  Co  Co16  1  0.518830  0.827584  0.827584  1
  Co  Co17  1  0.826797  0.519399  0.827007  1
  Co  Co18  1  0.826797  0.827007  0.519399  1
  Co  Co19  1  0.826001  0.827584  0.827584  1
  Mo  Mo20  1  0.124791  0.625237  0.625237  1
  Mo  Mo21  1  0.624876  0.125287  0.624960  1
  Mo  Mo22  1  0.624876  0.624960  0.125287  1
  Mo  Mo23  1  0.624735  0.625237  0.625237  1
  N  N24  1  0.623626  0.124307  0.124307  1
  N  N25  1  0.125163  0.624750  0.124925  1
  N  N26  1  0.125163  0.124925  0.624750  1
  N  N27  1  0.127761  0.124307  0.124307  1
