# generated using pymatgen
data_Tm13Th3Mg3Ni4Hg
_symmetry_space_group_name_H-M   'P 1'
_cell_length_a   9.52215351
_cell_length_b   9.50432767
_cell_length_c   9.50432684
_cell_angle_alpha   60.07430155
_cell_angle_beta   59.93120935
_cell_angle_gamma   59.93121297
_symmetry_Int_Tables_number   1
_chemical_formula_structural   Tm13Th3Mg3Ni4Hg
_chemical_formula_sum   'Tm13 Th3 Mg3 Ni4 Hg1'
_cell_volume   607.92971878
_cell_formula_units_Z   1
loop_
 _symmetry_equiv_pos_site_id
 _symmetry_equiv_pos_as_xyz
  1  'x, y, z'
loop_
 _atom_site_type_symbol
 _atom_site_label
 _atom_site_symmetry_multiplicity
 _atom_site_fract_x
 _atom_site_fract_y
 _atom_site_fract_z
 _atom_site_occupancy
  Tm  Tm0  1  0.202123  0.600433  0.600433  1
  Tm  Tm1  1  0.064197  0.437396  0.437396  1
  Tm  Tm2  1  0.436363  0.063529  0.063529  1
  Tm  Tm3  1  0.439408  0.061861  0.436423  1
  Tm  Tm4  1  0.062899  0.436978  0.062340  1
  Tm  Tm5  1  0.439408  0.436423  0.061861  1
  Tm  Tm6  1  0.062899  0.062340  0.436978  1
  Tm  Tm7  1  0.184090  0.816591  0.816591  1
  Tm  Tm8  1  0.813482  0.183914  0.183914  1
  Tm  Tm9  1  0.815901  0.183642  0.816529  1
  Tm  Tm10  1  0.183740  0.816761  0.181655  1
  Tm  Tm11  1  0.815901  0.816529  0.183642  1
  Tm  Tm12  1  0.183740  0.181655  0.816761  1
  Th  Th13  1  0.592230  0.597227  0.597227  1
  Th  Th14  1  0.591158  0.600132  0.207068  1
  Th  Th15  1  0.591158  0.207068  0.600132  1
  Mg  Mg16  1  0.833038  0.828300  0.512097  1
  Mg  Mg17  1  0.833038  0.512097  0.828300  1
  Mg  Mg18  1  0.511760  0.830049  0.830049  1
  Ni  Ni19  1  0.396660  0.389089  0.389089  1
  Ni  Ni20  1  0.393607  0.390368  0.823769  1
  Ni  Ni21  1  0.393607  0.823769  0.390368  1
  Ni  Ni22  1  0.819722  0.392074  0.392074  1
  Hg  Hg23  1  0.839873  0.831778  0.831778  1
