# generated using pymatgen
data_Lu2U2Ga12Pd
_symmetry_space_group_name_H-M   'P 1'
_cell_length_a   7.49380776
_cell_length_b   7.41898402
_cell_length_c   7.41898432
_cell_angle_alpha   109.21654053
_cell_angle_beta   109.39514564
_cell_angle_gamma   109.39514378
_symmetry_Int_Tables_number   1
_chemical_formula_structural   Lu2U2Ga12Pd
_chemical_formula_sum   'Lu2 U2 Ga12 Pd1'
_cell_volume   319.10235680
_cell_formula_units_Z   1
loop_
 _symmetry_equiv_pos_site_id
 _symmetry_equiv_pos_as_xyz
  1  'x, y, z'
loop_
 _atom_site_type_symbol
 _atom_site_label
 _atom_site_symmetry_multiplicity
 _atom_site_fract_x
 _atom_site_fract_y
 _atom_site_fract_z
 _atom_site_occupancy
  Lu  Lu0  1  0.500000  0.000000  0.000000  1
  Lu  Lu1  1  0.500000  0.500000  0.500000  1
  U  U2  1  0.000000  0.000000  0.500000  1
  U  U3  1  0.000000  0.500000  0.000000  1
  Ga  Ga4  1  0.749163  0.250614  0.498549  1
  Ga  Ga5  1  0.749163  0.498549  0.250614  1
  Ga  Ga6  1  0.500000  0.250000  0.750000  1
  Ga  Ga7  1  0.250837  0.501451  0.749386  1
  Ga  Ga8  1  0.250837  0.749386  0.501451  1
  Ga  Ga9  1  0.500000  0.750000  0.250000  1
  Ga  Ga10  1  0.706231  0.705176  0.001055  1
  Ga  Ga11  1  0.293769  0.998945  0.294824  1
  Ga  Ga12  1  0.000000  0.295196  0.295196  1
  Ga  Ga13  1  0.293769  0.294824  0.998945  1
  Ga  Ga14  1  0.706231  0.001055  0.705176  1
  Ga  Ga15  1  0.000000  0.704804  0.704804  1
  Pd  Pd16  1  0.000000  0.000000  0.000000  1
