# generated using pymatgen
data_CsNb3InCl9
_symmetry_space_group_name_H-M   'P 1'
_cell_length_a   10.04056925
_cell_length_b   10.45886391
_cell_length_c   10.30485181
_cell_angle_alpha   120.75714281
_cell_angle_beta   94.79824260
_cell_angle_gamma   108.08633371
_symmetry_Int_Tables_number   1
_chemical_formula_structural   CsNb3InCl9
_chemical_formula_sum   'Cs2 Nb6 In2 Cl18'
_cell_volume   844.16407997
_cell_formula_units_Z   2
loop_
 _symmetry_equiv_pos_site_id
 _symmetry_equiv_pos_as_xyz
  1  'x, y, z'
loop_
 _atom_site_type_symbol
 _atom_site_label
 _atom_site_symmetry_multiplicity
 _atom_site_fract_x
 _atom_site_fract_y
 _atom_site_fract_z
 _atom_site_occupancy
  Cs  Cs0  1  0.323475  0.479835  0.268058  1
  Cs  Cs1  1  0.676525  0.520165  0.731942  1
  Nb  Nb2  1  0.125186  0.894718  0.362988  1
  Nb  Nb3  1  0.861036  0.771821  0.442343  1
  Nb  Nb4  1  0.868739  0.959737  0.303609  1
  Nb  Nb5  1  0.874814  0.105282  0.637012  1
  Nb  Nb6  1  0.138964  0.228179  0.557657  1
  Nb  Nb7  1  0.131261  0.040263  0.696391  1
  In  In8  1  0.642345  0.187945  0.047061  1
  In  In9  1  0.357655  0.812055  0.952939  1
  Cl  Cl10  1  0.679493  0.483021  0.369335  1
  Cl  Cl11  1  0.700649  0.901235  0.051696  1
  Cl  Cl12  1  0.317829  0.317975  0.800779  1
  Cl  Cl13  1  0.682171  0.682025  0.199221  1
  Cl  Cl14  1  0.282390  0.758536  0.192178  1
  Cl  Cl15  1  0.698779  0.075937  0.430098  1
  Cl  Cl16  1  0.320507  0.516979  0.630665  1
  Cl  Cl17  1  0.982726  0.606846  0.270333  1
  Cl  Cl18  1  0.688726  0.854512  0.594101  1
  Cl  Cl19  1  0.717610  0.241464  0.807822  1
  Cl  Cl20  1  0.991935  0.776869  0.661630  1
  Cl  Cl21  1  0.004474  0.167347  0.891804  1
  Cl  Cl22  1  0.008065  0.223131  0.338370  1
  Cl  Cl23  1  0.311274  0.145488  0.405899  1
  Cl  Cl24  1  0.299351  0.098765  0.948304  1
  Cl  Cl25  1  0.017274  0.393154  0.729667  1
  Cl  Cl26  1  0.995526  0.832653  0.108196  1
  Cl  Cl27  1  0.301221  0.924063  0.569902  1
