# generated using pymatgen
data_Er3PdRh2Pb3
_symmetry_space_group_name_H-M   'P 1'
_cell_length_a   7.88600700
_cell_length_b   7.88600691
_cell_length_c   3.69697400
_cell_angle_alpha   90.00000000
_cell_angle_beta   90.00000000
_cell_angle_gamma   120.00000459
_symmetry_Int_Tables_number   1
_chemical_formula_structural   Er3PdRh2Pb3
_chemical_formula_sum   'Er3 Pd1 Rh2 Pb3'
_cell_volume   199.10919626
_cell_formula_units_Z   1
loop_
 _symmetry_equiv_pos_site_id
 _symmetry_equiv_pos_as_xyz
  1  'x, y, z'
loop_
 _atom_site_type_symbol
 _atom_site_label
 _atom_site_symmetry_multiplicity
 _atom_site_fract_x
 _atom_site_fract_y
 _atom_site_fract_z
 _atom_site_occupancy
  Er  Er0  1  0.404200  0.392516  0.500000  1
  Er  Er1  1  0.607484  0.011684  0.500000  1
  Er  Er2  1  0.988316  0.595800  0.500000  1
  Pd  Pd3  1  0.333333  0.666667  0.000000  1
  Rh  Rh4  1  0.666667  0.333333  0.000000  1
  Rh  Rh5  1  0.000000  0.000000  0.500000  1
  Pb  Pb6  1  0.730050  0.731971  0.000000  1
  Pb  Pb7  1  0.268029  0.998079  0.000000  1
  Pb  Pb8  1  0.001921  0.269950  0.000000  1
