# generated using pymatgen
data_Tb4Er4B24OsRu3
_symmetry_space_group_name_H-M   'P 1'
_cell_length_a   3.65216100
_cell_length_b   9.13000302
_cell_length_c   11.52217300
_cell_angle_alpha   90.03682634
_cell_angle_beta   90.00000000
_cell_angle_gamma   90.00000000
_symmetry_Int_Tables_number   1
_chemical_formula_structural   Tb4Er4B24OsRu3
_chemical_formula_sum   'Tb4 Er4 B24 Os1 Ru3'
_cell_volume   384.19803379
_cell_formula_units_Z   1
loop_
 _symmetry_equiv_pos_site_id
 _symmetry_equiv_pos_as_xyz
  1  'x, y, z'
loop_
 _atom_site_type_symbol
 _atom_site_label
 _atom_site_symmetry_multiplicity
 _atom_site_fract_x
 _atom_site_fract_y
 _atom_site_fract_z
 _atom_site_occupancy
  Tb  Tb0  1  0.000000  0.322664  0.414068  1
  Tb  Tb1  1  0.000000  0.677880  0.586321  1
  Tb  Tb2  1  0.000000  0.822301  0.085859  1
  Tb  Tb3  1  0.000000  0.177458  0.914009  1
  Er  Er4  1  0.000000  0.943786  0.372154  1
  Er  Er5  1  0.000000  0.056411  0.627072  1
  Er  Er6  1  0.000000  0.443707  0.127918  1
  Er  Er7  1  0.000000  0.555591  0.872639  1
  B  B8  1  0.500000  0.554687  0.432598  1
  B  B9  1  0.500000  0.445563  0.567452  1
  B  B10  1  0.500000  0.054565  0.067522  1
  B  B11  1  0.500000  0.945653  0.932608  1
  B  B12  1  0.500000  0.748746  0.419285  1
  B  B13  1  0.500000  0.251548  0.580595  1
  B  B14  1  0.500000  0.248687  0.080798  1
  B  B15  1  0.500000  0.751160  0.919214  1
  B  B16  1  0.500000  0.791181  0.266392  1
  B  B17  1  0.500000  0.208713  0.733441  1
  B  B18  1  0.500000  0.291228  0.233632  1
  B  B19  1  0.500000  0.708484  0.766423  1
  B  B20  1  0.500000  0.631259  0.185114  1
  B  B21  1  0.500000  0.368486  0.814954  1
  B  B22  1  0.500000  0.131337  0.314930  1
  B  B23  1  0.500000  0.868772  0.685140  1
  B  B24  1  0.500000  0.983642  0.213431  1
  B  B25  1  0.500000  0.016655  0.786479  1
  B  B26  1  0.500000  0.483686  0.286667  1
  B  B27  1  0.500000  0.516281  0.713463  1
  B  B28  1  0.500000  0.605345  0.029275  1
  B  B29  1  0.500000  0.394133  0.970979  1
  B  B30  1  0.500000  0.105900  0.470566  1
  B  B31  1  0.500000  0.894526  0.528957  1
  Os  Os32  1  0.000000  0.861818  0.820768  1
  Ru  Ru33  1  0.000000  0.638268  0.320725  1
  Ru  Ru34  1  0.000000  0.361740  0.679385  1
  Ru  Ru35  1  0.000000  0.138142  0.179166  1
