# generated using pymatgen
data_Nd6BAsBr6
_symmetry_space_group_name_H-M   'P 1'
_cell_length_a   10.39104928
_cell_length_b   10.39105002
_cell_length_c   10.20022685
_cell_angle_alpha   109.48694224
_cell_angle_beta   109.48693973
_cell_angle_gamma   110.18596439
_symmetry_Int_Tables_number   1
_chemical_formula_structural   Nd6BAsBr6
_chemical_formula_sum   'Nd12 B2 As2 Br12'
_cell_volume   839.89662127
_cell_formula_units_Z   2
loop_
 _symmetry_equiv_pos_site_id
 _symmetry_equiv_pos_as_xyz
  1  'x, y, z'
loop_
 _atom_site_type_symbol
 _atom_site_label
 _atom_site_symmetry_multiplicity
 _atom_site_fract_x
 _atom_site_fract_y
 _atom_site_fract_z
 _atom_site_occupancy
  Nd  Nd0  1  0.465943  0.494712  0.221674  1
  Nd  Nd1  1  0.773039  0.244268  0.278326  1
  Nd  Nd2  1  0.769800  0.026630  0.497184  1
  Nd  Nd3  1  0.227384  0.470555  0.497184  1
  Nd  Nd4  1  0.255732  0.726961  0.221674  1
  Nd  Nd5  1  0.029445  0.272616  0.002816  1
  Nd  Nd6  1  0.005288  0.034057  0.278326  1
  Nd  Nd7  1  0.473370  0.730200  0.002816  1
  Nd  Nd8  1  0.490977  0.240977  0.481955  1
  Nd  Nd9  1  0.020463  0.479537  0.750000  1
  Nd  Nd10  1  0.259023  0.009023  0.018045  1
  Nd  Nd11  1  0.229537  0.270463  0.750000  1
  B  B12  1  0.999678  0.249678  0.499357  1
  B  B13  1  0.250322  0.500322  0.000643  1
  As  As14  1  0.249552  0.250448  0.250000  1
  As  As15  1  0.500448  0.999552  0.250000  1
  Br  Br16  1  0.248305  0.755822  0.741703  1
  Br  Br17  1  0.514120  0.506602  0.758297  1
  Br  Br18  1  0.991090  0.744423  0.994484  1
  Br  Br19  1  0.744178  0.251695  0.758297  1
  Br  Br20  1  0.993398  0.985880  0.741703  1
  Br  Br21  1  0.249939  0.996606  0.505516  1
  Br  Br22  1  0.755577  0.508910  0.505516  1
  Br  Br23  1  0.503394  0.250061  0.994484  1
  Br  Br24  1  0.756365  0.743635  0.250000  1
  Br  Br25  1  0.745255  0.995255  0.990510  1
  Br  Br26  1  0.993635  0.506365  0.250000  1
  Br  Br27  1  0.504745  0.754745  0.509490  1
