# generated using pymatgen
data_K2Rb(BeAs)6
_symmetry_space_group_name_H-M   'P 1'
_cell_length_a   5.11773920
_cell_length_b   8.04513204
_cell_length_c   8.08878159
_cell_angle_alpha   107.56543405
_cell_angle_beta   108.44220642
_cell_angle_gamma   89.99999863
_symmetry_Int_Tables_number   1
_chemical_formula_structural   K2Rb(BeAs)6
_chemical_formula_sum   'K2 Rb1 Be6 As6'
_cell_volume   299.52066602
_cell_formula_units_Z   1
loop_
 _symmetry_equiv_pos_site_id
 _symmetry_equiv_pos_as_xyz
  1  'x, y, z'
loop_
 _atom_site_type_symbol
 _atom_site_label
 _atom_site_symmetry_multiplicity
 _atom_site_fract_x
 _atom_site_fract_y
 _atom_site_fract_z
 _atom_site_occupancy
  K  K0  1  0.665767  0.000300  0.331531  1
  K  K1  1  0.334233  0.999700  0.668469  1
  Rb  Rb2  1  0.000000  0.000000  0.000000  1
  Be  Be3  1  0.415702  0.498883  0.333777  1
  Be  Be4  1  0.081924  0.501117  0.666223  1
  Be  Be5  1  0.752335  0.500000  0.000000  1
  Be  Be6  1  0.584298  0.501117  0.666223  1
  Be  Be7  1  0.247665  0.500000  0.000000  1
  Be  Be8  1  0.918076  0.498883  0.333777  1
  As  As9  1  0.219868  0.309618  0.439736  1
  As  As10  1  0.883549  0.310011  0.767098  1
  As  As11  1  0.551815  0.311364  0.103633  1
  As  As12  1  0.780132  0.690382  0.560264  1
  As  As13  1  0.448185  0.688636  0.896367  1
  As  As14  1  0.116451  0.689989  0.232902  1
