# generated using pymatgen
data_YLu3(Al3Pt4)2
_symmetry_space_group_name_H-M   'P 1'
_cell_length_a   8.14251738
_cell_length_b   8.14251726
_cell_length_c   7.59460200
_cell_angle_alpha   90.35281823
_cell_angle_beta   89.64718177
_cell_angle_gamma   140.13007540
_symmetry_Int_Tables_number   1
_chemical_formula_structural   YLu3(Al3Pt4)2
_chemical_formula_sum   'Y1 Lu3 Al6 Pt8'
_cell_volume   322.77720205
_cell_formula_units_Z   1
loop_
 _symmetry_equiv_pos_site_id
 _symmetry_equiv_pos_as_xyz
  1  'x, y, z'
loop_
 _atom_site_type_symbol
 _atom_site_label
 _atom_site_symmetry_multiplicity
 _atom_site_fract_x
 _atom_site_fract_y
 _atom_site_fract_z
 _atom_site_occupancy
  Y  Y0  1  0.105572  0.894428  0.591733  1
  Lu  Lu1  1  0.605544  0.394456  0.908757  1
  Lu  Lu2  1  0.395169  0.604831  0.094280  1
  Lu  Lu3  1  0.892936  0.107064  0.408812  1
  Al  Al4  1  0.496894  0.503106  0.495037  1
  Al  Al5  1  0.998574  0.001426  0.999023  1
  Al  Al6  1  0.521371  0.976595  0.752640  1
  Al  Al7  1  0.978176  0.521069  0.250324  1
  Al  Al8  1  0.478931  0.021824  0.250324  1
  Al  Al9  1  0.023405  0.478629  0.752640  1
  Pt  Pt10  1  0.688898  0.809096  0.750687  1
  Pt  Pt11  1  0.808452  0.690571  0.245209  1
  Pt  Pt12  1  0.309429  0.191548  0.245209  1
  Pt  Pt13  1  0.190904  0.311102  0.750687  1
  Pt  Pt14  1  0.685946  0.314054  0.530009  1
  Pt  Pt15  1  0.318246  0.681754  0.470180  1
  Pt  Pt16  1  0.818757  0.181243  0.030616  1
  Pt  Pt17  1  0.182795  0.817205  0.973834  1
