# generated using pymatgen
data_V2SiRu5
_symmetry_space_group_name_H-M   'P 1'
_cell_length_a   4.06986300
_cell_length_b   5.25245000
_cell_length_c   10.10593700
_cell_angle_alpha   90.00000000
_cell_angle_beta   90.00000000
_cell_angle_gamma   90.00000000
_symmetry_Int_Tables_number   1
_chemical_formula_structural   V2SiRu5
_chemical_formula_sum   'V4 Si2 Ru10'
_cell_volume   216.03210811
_cell_formula_units_Z   2
loop_
 _symmetry_equiv_pos_site_id
 _symmetry_equiv_pos_as_xyz
  1  'x, y, z'
loop_
 _atom_site_type_symbol
 _atom_site_label
 _atom_site_symmetry_multiplicity
 _atom_site_fract_x
 _atom_site_fract_y
 _atom_site_fract_z
 _atom_site_occupancy
  V  V0  1  0.500000  0.853993  0.360598  1
  V  V1  1  0.500000  0.146007  0.639402  1
  V  V2  1  0.500000  0.353993  0.139402  1
  V  V3  1  0.500000  0.646007  0.860598  1
  Si  Si4  1  0.000000  0.500000  0.500000  1
  Si  Si5  1  0.000000  0.000000  0.000000  1
  Ru  Ru6  1  0.000000  0.500000  0.000000  1
  Ru  Ru7  1  0.000000  0.000000  0.500000  1
  Ru  Ru8  1  0.000000  0.621912  0.265057  1
  Ru  Ru9  1  0.000000  0.378088  0.734943  1
  Ru  Ru10  1  0.000000  0.121912  0.234943  1
  Ru  Ru11  1  0.000000  0.878088  0.765057  1
  Ru  Ru12  1  0.500000  0.827296  0.109299  1
  Ru  Ru13  1  0.500000  0.172704  0.890701  1
  Ru  Ru14  1  0.500000  0.327296  0.390701  1
  Ru  Ru15  1  0.500000  0.672704  0.609299  1
