# generated using pymatgen
data_Tb8ZnSiI12
_symmetry_space_group_name_H-M   'P 1'
_cell_length_a   4.18846600
_cell_length_b   14.13720465
_cell_length_c   14.93744849
_cell_angle_alpha   89.81930515
_cell_angle_beta   90.00000000
_cell_angle_gamma   90.00000000
_symmetry_Int_Tables_number   1
_chemical_formula_structural   Tb8ZnSiI12
_chemical_formula_sum   'Tb8 Zn1 Si1 I12'
_cell_volume   884.48974164
_cell_formula_units_Z   1
loop_
 _symmetry_equiv_pos_site_id
 _symmetry_equiv_pos_as_xyz
  1  'x, y, z'
loop_
 _atom_site_type_symbol
 _atom_site_label
 _atom_site_symmetry_multiplicity
 _atom_site_fract_x
 _atom_site_fract_y
 _atom_site_fract_z
 _atom_site_occupancy
  Tb  Tb0  1  0.500000  0.115145  0.346398  1
  Tb  Tb1  1  0.500000  0.884855  0.653602  1
  Tb  Tb2  1  0.500000  0.613142  0.151654  1
  Tb  Tb3  1  0.500000  0.386858  0.848346  1
  Tb  Tb4  1  0.000000  0.115050  0.577886  1
  Tb  Tb5  1  0.000000  0.884950  0.422114  1
  Tb  Tb6  1  0.000000  0.611066  0.925022  1
  Tb  Tb7  1  0.000000  0.388934  0.074978  1
  Zn  Zn8  1  0.500000  0.000000  0.500000  1
  Si  Si9  1  0.500000  0.500000  0.000000  1
  I  I10  1  0.500000  0.247852  0.163595  1
  I  I11  1  0.500000  0.752148  0.836405  1
  I  I12  1  0.500000  0.745522  0.333456  1
  I  I13  1  0.500000  0.254478  0.666544  1
  I  I14  1  0.000000  0.261439  0.414988  1
  I  I15  1  0.000000  0.738561  0.585012  1
  I  I16  1  0.000000  0.757088  0.083815  1
  I  I17  1  0.000000  0.242912  0.916185  1
  I  I18  1  0.000000  0.999007  0.237189  1
  I  I19  1  0.000000  0.000993  0.762811  1
  I  I20  1  0.000000  0.498443  0.258474  1
  I  I21  1  0.000000  0.501557  0.741526  1
