# generated using pymatgen
data_La3Th3(Al3Ru)8
_symmetry_space_group_name_H-M   'P 1'
_cell_length_a   8.96316700
_cell_length_b   8.96316784
_cell_length_c   9.66496700
_cell_angle_alpha   90.00000000
_cell_angle_beta   90.00000000
_cell_angle_gamma   120.00000060
_symmetry_Int_Tables_number   1
_chemical_formula_structural   La3Th3(Al3Ru)8
_chemical_formula_sum   'La3 Th3 Al24 Ru8'
_cell_volume   672.44074651
_cell_formula_units_Z   1
loop_
 _symmetry_equiv_pos_site_id
 _symmetry_equiv_pos_as_xyz
  1  'x, y, z'
loop_
 _atom_site_type_symbol
 _atom_site_label
 _atom_site_symmetry_multiplicity
 _atom_site_fract_x
 _atom_site_fract_y
 _atom_site_fract_z
 _atom_site_occupancy
  La  La0  1  0.614503  0.807252  0.750000  1
  La  La1  1  0.192748  0.807252  0.750000  1
  La  La2  1  0.192748  0.385497  0.750000  1
  Th  Th3  1  0.390125  0.195062  0.250000  1
  Th  Th4  1  0.804938  0.195062  0.250000  1
  Th  Th5  1  0.804938  0.609875  0.250000  1
  Al  Al6  1  0.436111  0.872222  0.250000  1
  Al  Al7  1  0.127778  0.563889  0.250000  1
  Al  Al8  1  0.436111  0.563889  0.250000  1
  Al  Al9  1  0.563612  0.127224  0.750000  1
  Al  Al10  1  0.872776  0.436388  0.750000  1
  Al  Al11  1  0.563612  0.436388  0.750000  1
  Al  Al12  1  0.162019  0.837981  0.421160  1
  Al  Al13  1  0.162019  0.324039  0.421160  1
  Al  Al14  1  0.675961  0.837981  0.421160  1
  Al  Al15  1  0.837301  0.162699  0.577800  1
  Al  Al16  1  0.837301  0.674600  0.577800  1
  Al  Al17  1  0.325400  0.162699  0.577800  1
  Al  Al18  1  0.837301  0.162699  0.922200  1
  Al  Al19  1  0.837301  0.674600  0.922200  1
  Al  Al20  1  0.325400  0.162699  0.922200  1
  Al  Al21  1  0.162019  0.837981  0.078840  1
  Al  Al22  1  0.162019  0.324039  0.078840  1
  Al  Al23  1  0.675961  0.837981  0.078840  1
  Al  Al24  1  0.333333  0.666667  0.501270  1
  Al  Al25  1  0.666667  0.333333  0.491550  1
  Al  Al26  1  0.666667  0.333333  0.008450  1
  Al  Al27  1  0.333333  0.666667  0.998730  1
  Al  Al28  1  0.000000  0.000000  0.250000  1
  Al  Al29  1  0.000000  0.000000  0.750000  1
  Ru  Ru30  1  0.000000  0.000000  0.500943  1
  Ru  Ru31  1  0.000000  0.000000  0.999057  1
  Ru  Ru32  1  0.500871  0.001742  0.495427  1
  Ru  Ru33  1  0.998258  0.499129  0.495427  1
  Ru  Ru34  1  0.500871  0.499129  0.495427  1
  Ru  Ru35  1  0.500871  0.001742  0.004573  1
  Ru  Ru36  1  0.998258  0.499129  0.004573  1
  Ru  Ru37  1  0.500871  0.499129  0.004573  1
