# generated using pymatgen
data_Pa2B(Ir2Rh)2
_symmetry_space_group_name_H-M   'P 1'
_cell_length_a   5.87447549
_cell_length_b   5.87447529
_cell_length_c   5.93198200
_cell_angle_alpha   59.67564240
_cell_angle_beta   59.67564356
_cell_angle_gamma   59.95452398
_symmetry_Int_Tables_number   1
_chemical_formula_structural   Pa2B(Ir2Rh)2
_chemical_formula_sum   'Pa2 B1 Ir4 Rh2'
_cell_volume   143.98866920
_cell_formula_units_Z   1
loop_
 _symmetry_equiv_pos_site_id
 _symmetry_equiv_pos_as_xyz
  1  'x, y, z'
loop_
 _atom_site_type_symbol
 _atom_site_label
 _atom_site_symmetry_multiplicity
 _atom_site_fract_x
 _atom_site_fract_y
 _atom_site_fract_z
 _atom_site_occupancy
  Pa  Pa0  1  0.749873  0.749873  0.749986  1
  Pa  Pa1  1  0.250127  0.250127  0.249732  1
  B  B2  1  0.500000  0.500000  0.501944  1
  Ir  Ir3  1  0.756038  0.756038  0.244018  1
  Ir  Ir4  1  0.756640  0.243360  0.243272  1
  Ir  Ir5  1  0.243360  0.756640  0.243272  1
  Ir  Ir6  1  0.243962  0.243962  0.756094  1
  Rh  Rh7  1  0.756037  0.243963  0.755841  1
  Rh  Rh8  1  0.243963  0.756037  0.755841  1
