# generated using pymatgen
data_Ta12Al5Cu3N4
_symmetry_space_group_name_H-M   'P 1'
_cell_length_a   6.99700144
_cell_length_b   6.99700228
_cell_length_c   6.99700171
_cell_angle_alpha   90.10166549
_cell_angle_beta   90.10167234
_cell_angle_gamma   90.10166841
_symmetry_Int_Tables_number   1
_chemical_formula_structural   Ta12Al5Cu3N4
_chemical_formula_sum   'Ta12 Al5 Cu3 N4'
_cell_volume   342.55783473
_cell_formula_units_Z   1
loop_
 _symmetry_equiv_pos_site_id
 _symmetry_equiv_pos_as_xyz
  1  'x, y, z'
loop_
 _atom_site_type_symbol
 _atom_site_label
 _atom_site_symmetry_multiplicity
 _atom_site_fract_x
 _atom_site_fract_y
 _atom_site_fract_z
 _atom_site_occupancy
  Ta  Ta0  1  0.792130  0.956232  0.376893  1
  Ta  Ta1  1  0.706713  0.042799  0.872194  1
  Ta  Ta2  1  0.206785  0.455755  0.127139  1
  Ta  Ta3  1  0.293757  0.543787  0.625939  1
  Ta  Ta4  1  0.956232  0.376893  0.792130  1
  Ta  Ta5  1  0.042799  0.872194  0.706713  1
  Ta  Ta6  1  0.455755  0.127139  0.206785  1
  Ta  Ta7  1  0.543787  0.625939  0.293757  1
  Ta  Ta8  1  0.376893  0.792130  0.956232  1
  Ta  Ta9  1  0.872194  0.706713  0.042799  1
  Ta  Ta10  1  0.127139  0.206785  0.455755  1
  Ta  Ta11  1  0.625939  0.293757  0.543787  1
  Al  Al12  1  0.677804  0.677804  0.677804  1
  Al  Al13  1  0.570426  0.418481  0.934299  1
  Al  Al14  1  0.418481  0.934299  0.570426  1
  Al  Al15  1  0.934299  0.570426  0.418481  1
  Al  Al16  1  0.073232  0.073232  0.073232  1
  Cu  Cu17  1  0.178450  0.822049  0.318671  1
  Cu  Cu18  1  0.318671  0.178450  0.822049  1
  Cu  Cu19  1  0.822049  0.318671  0.178450  1
  N  N20  1  0.879573  0.125878  0.624057  1
  N  N21  1  0.624057  0.879573  0.125878  1
  N  N22  1  0.125878  0.624057  0.879573  1
  N  N23  1  0.376958  0.376958  0.376958  1
