# generated using pymatgen
data_GdY2Mg3Sn2Au
_symmetry_space_group_name_H-M   'P 1'
_cell_length_a   7.58097200
_cell_length_b   7.58746609
_cell_length_c   4.44411600
_cell_angle_alpha   90.00000000
_cell_angle_beta   90.00000000
_cell_angle_gamma   119.97169118
_symmetry_Int_Tables_number   1
_chemical_formula_structural   GdY2Mg3Sn2Au
_chemical_formula_sum   'Gd1 Y2 Mg3 Sn2 Au1'
_cell_volume   221.44276187
_cell_formula_units_Z   1
loop_
 _symmetry_equiv_pos_site_id
 _symmetry_equiv_pos_as_xyz
  1  'x, y, z'
loop_
 _atom_site_type_symbol
 _atom_site_label
 _atom_site_symmetry_multiplicity
 _atom_site_fract_x
 _atom_site_fract_y
 _atom_site_fract_z
 _atom_site_occupancy
  Gd  Gd0  1  0.594524  0.000000  0.000000  1
  Y  Y1  1  0.999867  0.594592  0.000000  1
  Y  Y2  1  0.405275  0.405408  0.000000  1
  Mg  Mg3  1  0.237511  0.000000  0.500000  1
  Mg  Mg4  1  0.000080  0.237615  0.500000  1
  Mg  Mg5  1  0.762466  0.762385  0.500000  1
  Sn  Sn6  1  0.333237  0.666414  0.500000  1
  Sn  Sn7  1  0.666824  0.333586  0.500000  1
  Au  Au8  1  0.000216  0.000000  0.000000  1
