# generated using pymatgen
data_TbHo11(BCl3)4
_symmetry_space_group_name_H-M   'P 1'
_cell_length_a   9.40100458
_cell_length_b   9.40100415
_cell_length_c   9.40459603
_cell_angle_alpha   109.48355120
_cell_angle_beta   109.48355018
_cell_angle_gamma   109.43594411
_symmetry_Int_Tables_number   1
_chemical_formula_structural   TbHo11(BCl3)4
_chemical_formula_sum   'Tb1 Ho11 B4 Cl12'
_cell_volume   639.91689606
_cell_formula_units_Z   1
loop_
 _symmetry_equiv_pos_site_id
 _symmetry_equiv_pos_as_xyz
  1  'x, y, z'
loop_
 _atom_site_type_symbol
 _atom_site_label
 _atom_site_symmetry_multiplicity
 _atom_site_fract_x
 _atom_site_fract_y
 _atom_site_fract_z
 _atom_site_occupancy
  Tb  Tb0  1  0.235623  0.264377  0.750000  1
  Ho  Ho1  1  0.468800  0.484472  0.234588  1
  Ho  Ho2  1  0.749694  0.234508  0.265358  1
  Ho  Ho3  1  0.749952  0.015745  0.484448  1
  Ho  Ho4  1  0.234375  0.468816  0.484378  1
  Ho  Ho5  1  0.265492  0.750306  0.234642  1
  Ho  Ho6  1  0.031184  0.265625  0.015622  1
  Ho  Ho7  1  0.015528  0.031200  0.265412  1
  Ho  Ho8  1  0.484255  0.750048  0.015552  1
  Ho  Ho9  1  0.484360  0.234437  0.468760  1
  Ho  Ho10  1  0.015420  0.484580  0.750000  1
  Ho  Ho11  1  0.265563  0.015640  0.031240  1
  B  B12  1  0.249993  0.250007  0.250000  1
  B  B13  1  0.499940  0.000060  0.250000  1
  B  B14  1  0.999140  0.250035  0.499122  1
  B  B15  1  0.249965  0.500860  0.000878  1
  Cl  Cl16  1  0.249967  0.755730  0.744341  1
  Cl  Cl17  1  0.512598  0.507211  0.755608  1
  Cl  Cl18  1  0.988672  0.744395  0.994307  1
  Cl  Cl19  1  0.744270  0.250033  0.755659  1
  Cl  Cl20  1  0.992789  0.987402  0.744392  1
  Cl  Cl21  1  0.249892  0.992969  0.504221  1
  Cl  Cl22  1  0.755605  0.511328  0.505693  1
  Cl  Cl23  1  0.507031  0.250108  0.995779  1
  Cl  Cl24  1  0.755546  0.744454  0.250000  1
  Cl  Cl25  1  0.744372  0.994410  0.988820  1
  Cl  Cl26  1  0.994382  0.505618  0.250000  1
  Cl  Cl27  1  0.505590  0.755628  0.511180  1
