# generated using pymatgen
data_Cs6Li4TiSiAs6
_symmetry_space_group_name_H-M   'P 1'
_cell_length_a   10.23092903
_cell_length_b   10.23092786
_cell_length_c   17.37129400
_cell_angle_alpha   90.00000000
_cell_angle_beta   90.00000000
_cell_angle_gamma   142.72221050
_symmetry_Int_Tables_number   1
_chemical_formula_structural   Cs6Li4TiSiAs6
_chemical_formula_sum   'Cs12 Li8 Ti2 Si2 As12'
_cell_volume   1101.29962813
_cell_formula_units_Z   2
loop_
 _symmetry_equiv_pos_site_id
 _symmetry_equiv_pos_as_xyz
  1  'x, y, z'
loop_
 _atom_site_type_symbol
 _atom_site_label
 _atom_site_symmetry_multiplicity
 _atom_site_fract_x
 _atom_site_fract_y
 _atom_site_fract_z
 _atom_site_occupancy
  Cs  Cs0  1  0.944821  0.604888  0.835535  1
  Cs  Cs1  1  0.555179  0.895112  0.335535  1
  Cs  Cs2  1  0.395112  0.055179  0.164465  1
  Cs  Cs3  1  0.049429  0.395759  0.164609  1
  Cs  Cs4  1  0.895759  0.549429  0.335391  1
  Cs  Cs5  1  0.450571  0.104241  0.664609  1
  Cs  Cs6  1  0.604241  0.950571  0.835391  1
  Cs  Cs7  1  0.281383  0.283898  0.324210  1
  Cs  Cs8  1  0.783898  0.781383  0.175790  1
  Cs  Cs9  1  0.218617  0.216102  0.824210  1
  Cs  Cs10  1  0.716102  0.718617  0.675790  1
  Cs  Cs11  1  0.104888  0.444821  0.664465  1
  Li  Li12  1  0.920084  0.079916  0.000000  1
  Li  Li13  1  0.579916  0.420084  0.500000  1
  Li  Li14  1  0.084181  0.915819  0.000000  1
  Li  Li15  1  0.415819  0.584181  0.500000  1
  Li  Li16  1  0.748764  0.251236  0.000000  1
  Li  Li17  1  0.751236  0.248764  0.500000  1
  Li  Li18  1  0.250317  0.749683  0.000000  1
  Li  Li19  1  0.249683  0.750317  0.500000  1
  Ti  Ti20  1  0.417110  0.582890  0.000000  1
  Ti  Ti21  1  0.082890  0.917110  0.500000  1
  Si  Si22  1  0.584338  0.415662  0.000000  1
  Si  Si23  1  0.915662  0.084338  0.500000  1
  As  As24  1  0.876487  0.563659  0.077321  1
  As  As25  1  0.436341  0.123513  0.922679  1
  As  As26  1  0.623513  0.936341  0.577321  1
  As  As27  1  0.931797  0.614628  0.577196  1
  As  As28  1  0.114628  0.431797  0.922804  1
  As  As29  1  0.568203  0.885372  0.077196  1
  As  As30  1  0.385372  0.068203  0.422804  1
  As  As31  1  0.208596  0.214188  0.577248  1
  As  As32  1  0.714188  0.708596  0.922752  1
  As  As33  1  0.291404  0.285812  0.077248  1
  As  As34  1  0.063659  0.376487  0.422679  1
  As  As35  1  0.785812  0.791404  0.422752  1
