# generated using pymatgen
data_Dy5Si3Mo3P9Ir16
_symmetry_space_group_name_H-M   'P 1'
_cell_length_a   12.72412500
_cell_length_b   12.72412432
_cell_length_c   3.99192900
_cell_angle_alpha   90.00000000
_cell_angle_beta   90.00000000
_cell_angle_gamma   119.99999916
_symmetry_Int_Tables_number   1
_chemical_formula_structural   Dy5Si3Mo3P9Ir16
_chemical_formula_sum   'Dy5 Si3 Mo3 P9 Ir16'
_cell_volume   559.71800116
_cell_formula_units_Z   1
loop_
 _symmetry_equiv_pos_site_id
 _symmetry_equiv_pos_as_xyz
  1  'x, y, z'
loop_
 _atom_site_type_symbol
 _atom_site_label
 _atom_site_symmetry_multiplicity
 _atom_site_fract_x
 _atom_site_fract_y
 _atom_site_fract_z
 _atom_site_occupancy
  Dy  Dy0  1  0.333333  0.666667  0.500000  1
  Dy  Dy1  1  0.666667  0.333333  0.500000  1
  Dy  Dy2  1  0.001445  0.813179  0.000000  1
  Dy  Dy3  1  0.186821  0.188266  0.000000  1
  Dy  Dy4  1  0.811734  0.998555  0.000000  1
  Si  Si5  1  0.518122  0.683112  0.000000  1
  Si  Si6  1  0.316888  0.835009  0.000000  1
  Si  Si7  1  0.164991  0.481878  0.000000  1
  Mo  Mo8  1  0.996526  0.448511  0.500000  1
  Mo  Mo9  1  0.551489  0.548015  0.500000  1
  Mo  Mo10  1  0.451985  0.003474  0.500000  1
  P  P11  1  0.004339  0.637862  0.500000  1
  P  P12  1  0.362138  0.366477  0.500000  1
  P  P13  1  0.633523  0.995661  0.500000  1
  P  P14  1  0.482397  0.167019  0.000000  1
  P  P15  1  0.684622  0.517603  0.000000  1
  P  P16  1  0.832981  0.315378  0.000000  1
  P  P17  1  0.998418  0.177316  0.500000  1
  P  P18  1  0.822684  0.821101  0.500000  1
  P  P19  1  0.178899  0.001582  0.500000  1
  Ir  Ir20  1  0.516707  0.873732  0.000000  1
  Ir  Ir21  1  0.126268  0.642977  0.000000  1
  Ir  Ir22  1  0.357023  0.483293  0.000000  1
  Ir  Ir23  1  0.493708  0.356765  0.000000  1
  Ir  Ir24  1  0.863059  0.506292  0.000000  1
  Ir  Ir25  1  0.643235  0.136941  0.000000  1
  Ir  Ir26  1  0.995162  0.277764  0.000000  1
  Ir  Ir27  1  0.722236  0.717398  0.000000  1
  Ir  Ir28  1  0.282602  0.004838  0.000000  1
  Ir  Ir29  1  0.627524  0.803583  0.500000  1
  Ir  Ir30  1  0.196417  0.823941  0.500000  1
  Ir  Ir31  1  0.176059  0.372476  0.500000  1
  Ir  Ir32  1  0.373741  0.182927  0.500000  1
  Ir  Ir33  1  0.809186  0.626259  0.500000  1
  Ir  Ir34  1  0.817073  0.190814  0.500000  1
  Ir  Ir35  1  0.000000  0.000000  0.500000  1
