# generated using pymatgen
data_Tb4Al3GaRu4
_symmetry_space_group_name_H-M   'P 1'
_cell_length_a   4.54863000
_cell_length_b   7.30380754
_cell_length_c   7.05538463
_cell_angle_alpha   89.52707764
_cell_angle_beta   90.00000000
_cell_angle_gamma   90.00000000
_symmetry_Int_Tables_number   1
_chemical_formula_structural   Tb4Al3GaRu4
_chemical_formula_sum   'Tb4 Al3 Ga1 Ru4'
_cell_volume   234.38824765
_cell_formula_units_Z   1
loop_
 _symmetry_equiv_pos_site_id
 _symmetry_equiv_pos_as_xyz
  1  'x, y, z'
loop_
 _atom_site_type_symbol
 _atom_site_label
 _atom_site_symmetry_multiplicity
 _atom_site_fract_x
 _atom_site_fract_y
 _atom_site_fract_z
 _atom_site_occupancy
  Tb  Tb0  1  0.250000  0.978110  0.805022  1
  Tb  Tb1  1  0.750000  0.024486  0.193628  1
  Tb  Tb2  1  0.250000  0.474591  0.691962  1
  Tb  Tb3  1  0.750000  0.524083  0.308514  1
  Al  Al4  1  0.250000  0.311132  0.108573  1
  Al  Al5  1  0.750000  0.688036  0.892161  1
  Al  Al6  1  0.250000  0.809052  0.393123  1
  Ga  Ga7  1  0.750000  0.194030  0.604990  1
  Ru  Ru8  1  0.750000  0.841715  0.563697  1
  Ru  Ru9  1  0.250000  0.155178  0.436072  1
  Ru  Ru10  1  0.750000  0.341766  0.938174  1
  Ru  Ru11  1  0.250000  0.657821  0.064083  1
