# generated using pymatgen
data_NaHo6Co(P3Rh4)4
_symmetry_space_group_name_H-M   'P 1'
_cell_length_a   3.90847300
_cell_length_b   11.19770300
_cell_length_c   12.80961700
_cell_angle_alpha   90.00000000
_cell_angle_beta   90.00000000
_cell_angle_gamma   90.00000000
_symmetry_Int_Tables_number   1
_chemical_formula_structural   NaHo6Co(P3Rh4)4
_chemical_formula_sum   'Na1 Ho6 Co1 P12 Rh16'
_cell_volume   560.62467077
_cell_formula_units_Z   1
loop_
 _symmetry_equiv_pos_site_id
 _symmetry_equiv_pos_as_xyz
  1  'x, y, z'
loop_
 _atom_site_type_symbol
 _atom_site_label
 _atom_site_symmetry_multiplicity
 _atom_site_fract_x
 _atom_site_fract_y
 _atom_site_fract_z
 _atom_site_occupancy
  Na  Na0  1  0.500000  0.500000  0.154622  1
  Ho  Ho1  1  0.000000  0.500000  0.519784  1
  Ho  Ho2  1  0.500000  0.000000  0.478400  1
  Ho  Ho3  1  0.500000  0.818942  0.204111  1
  Ho  Ho4  1  0.500000  0.181058  0.204111  1
  Ho  Ho5  1  0.000000  0.687066  0.796267  1
  Ho  Ho6  1  0.000000  0.312934  0.796267  1
  Co  Co7  1  0.500000  0.000000  0.020356  1
  P  P8  1  0.500000  0.314785  0.620040  1
  P  P9  1  0.500000  0.685215  0.620040  1
  P  P10  1  0.000000  0.185754  0.382269  1
  P  P11  1  0.000000  0.814246  0.382269  1
  P  P12  1  0.500000  0.500000  0.879867  1
  P  P13  1  0.000000  0.000000  0.119755  1
  P  P14  1  0.500000  0.856305  0.893962  1
  P  P15  1  0.500000  0.143695  0.893962  1
  P  P16  1  0.000000  0.664100  0.105590  1
  P  P17  1  0.000000  0.335900  0.105590  1
  P  P18  1  0.500000  0.500000  0.355684  1
  P  P19  1  0.000000  0.000000  0.647409  1
  Rh  Rh20  1  0.000000  0.500000  0.979588  1
  Rh  Rh21  1  0.500000  0.289843  0.434187  1
  Rh  Rh22  1  0.500000  0.710157  0.434187  1
  Rh  Rh23  1  0.000000  0.203540  0.571837  1
  Rh  Rh24  1  0.000000  0.796460  0.571837  1
  Rh  Rh25  1  0.500000  0.874675  0.711389  1
  Rh  Rh26  1  0.500000  0.125325  0.711389  1
  Rh  Rh27  1  0.000000  0.628679  0.291836  1
  Rh  Rh28  1  0.000000  0.371321  0.291836  1
  Rh  Rh29  1  0.500000  0.326694  0.990390  1
  Rh  Rh30  1  0.500000  0.673306  0.990390  1
  Rh  Rh31  1  0.000000  0.158288  0.005127  1
  Rh  Rh32  1  0.000000  0.841712  0.005127  1
  Rh  Rh33  1  0.000000  0.000000  0.829430  1
  Rh  Rh34  1  0.500000  0.500000  0.702438  1
  Rh  Rh35  1  0.000000  0.000000  0.298656  1
