# generated using pymatgen
data_Ce5Sm3(Nb3Ge4)4
_symmetry_space_group_name_H-M   'P 1'
_cell_length_a   7.09960305
_cell_length_b   7.26469133
_cell_length_c   13.73072013
_cell_angle_alpha   89.97599530
_cell_angle_beta   90.03024773
_cell_angle_gamma   90.02379604
_symmetry_Int_Tables_number   1
_chemical_formula_structural   Ce5Sm3(Nb3Ge4)4
_chemical_formula_sum   'Ce5 Sm3 Nb12 Ge16'
_cell_volume   708.18123191
_cell_formula_units_Z   1
loop_
 _symmetry_equiv_pos_site_id
 _symmetry_equiv_pos_as_xyz
  1  'x, y, z'
loop_
 _atom_site_type_symbol
 _atom_site_label
 _atom_site_symmetry_multiplicity
 _atom_site_fract_x
 _atom_site_fract_y
 _atom_site_fract_z
 _atom_site_occupancy
  Ce  Ce0  1  0.498381  0.329854  0.093562  1
  Ce  Ce1  1  0.998352  0.172343  0.405574  1
  Ce  Ce2  1  0.501489  0.672023  0.593864  1
  Ce  Ce3  1  0.001890  0.827329  0.905753  1
  Ce  Ce4  1  0.501849  0.671541  0.906642  1
  Sm  Sm5  1  0.003679  0.827867  0.593436  1
  Sm  Sm6  1  0.497054  0.327541  0.405454  1
  Sm  Sm7  1  0.996564  0.172191  0.095210  1
  Nb  Nb8  1  0.665253  0.009588  0.750283  1
  Nb  Nb9  1  0.166937  0.489771  0.750387  1
  Nb  Nb10  1  0.334195  0.989133  0.249747  1
  Nb  Nb11  1  0.834890  0.511261  0.250915  1
  Nb  Nb12  1  0.839332  0.330287  0.626023  1
  Nb  Nb13  1  0.338791  0.167911  0.873603  1
  Nb  Nb14  1  0.161909  0.668170  0.126027  1
  Nb  Nb15  1  0.661723  0.831499  0.374015  1
  Nb  Nb16  1  0.159171  0.669679  0.373014  1
  Nb  Nb17  1  0.657595  0.830241  0.126591  1
  Nb  Nb18  1  0.839588  0.331704  0.872956  1
  Nb  Nb19  1  0.340871  0.169090  0.626960  1
  Ge  Ge20  1  0.806702  0.633339  0.749247  1
  Ge  Ge21  1  0.306034  0.866562  0.749606  1
  Ge  Ge22  1  0.194418  0.366588  0.249997  1
  Ge  Ge23  1  0.693659  0.133862  0.250147  1
  Ge  Ge24  1  0.539426  0.373474  0.750101  1
  Ge  Ge25  1  0.039317  0.126909  0.749727  1
  Ge  Ge26  1  0.460972  0.626686  0.250541  1
  Ge  Ge27  1  0.960366  0.873179  0.249624  1
  Ge  Ge28  1  0.672033  0.042473  0.543418  1
  Ge  Ge29  1  0.170566  0.455708  0.956618  1
  Ge  Ge30  1  0.327566  0.957754  0.044119  1
  Ge  Ge31  1  0.827284  0.542375  0.456509  1
  Ge  Ge32  1  0.329928  0.957607  0.455963  1
  Ge  Ge33  1  0.831040  0.543256  0.044539  1
  Ge  Ge34  1  0.671091  0.043566  0.956458  1
  Ge  Ge35  1  0.170081  0.457633  0.543370  1
