# generated using pymatgen
data_Tb2Sm5FeI12
_symmetry_space_group_name_H-M   'P 1'
_cell_length_a   9.90484257
_cell_length_b   9.81852004
_cell_length_c   9.88938594
_cell_angle_alpha   106.66486424
_cell_angle_beta   106.92420261
_cell_angle_gamma   106.91439729
_symmetry_Int_Tables_number   1
_chemical_formula_structural   Tb2Sm5FeI12
_chemical_formula_sum   'Tb2 Sm5 Fe1 I12'
_cell_volume   804.54077223
_cell_formula_units_Z   1
loop_
 _symmetry_equiv_pos_site_id
 _symmetry_equiv_pos_as_xyz
  1  'x, y, z'
loop_
 _atom_site_type_symbol
 _atom_site_label
 _atom_site_symmetry_multiplicity
 _atom_site_fract_x
 _atom_site_fract_y
 _atom_site_fract_z
 _atom_site_occupancy
  Tb  Tb0  1  0.977668  0.907178  0.708382  1
  Tb  Tb1  1  0.708079  0.977990  0.905579  1
  Sm  Sm2  1  0.499595  0.499921  0.499399  1
  Sm  Sm3  1  0.089242  0.281706  0.021533  1
  Sm  Sm4  1  0.022658  0.094100  0.296589  1
  Sm  Sm5  1  0.296480  0.021674  0.094057  1
  Sm  Sm6  1  0.909687  0.718205  0.978568  1
  Fe  Fe7  1  0.999926  0.999730  0.000177  1
  I  I8  1  0.461301  0.386403  0.158742  1
  I  I9  1  0.159642  0.463771  0.384070  1
  I  I10  1  0.385406  0.157831  0.463077  1
  I  I11  1  0.538756  0.617839  0.840785  1
  I  I12  1  0.841560  0.540395  0.615866  1
  I  I13  1  0.618479  0.844347  0.541007  1
  I  I14  1  0.772183  0.315008  0.926817  1
  I  I15  1  0.926946  0.772354  0.320073  1
  I  I16  1  0.317749  0.926754  0.770762  1
  I  I17  1  0.223964  0.679738  0.071654  1
  I  I18  1  0.072030  0.223884  0.681058  1
  I  I19  1  0.678649  0.071171  0.221805  1
