# generated using pymatgen
data_Al8Fe3Ir4Rh
_symmetry_space_group_name_H-M   'P 1'
_cell_length_a   5.94858600
_cell_length_b   4.18423400
_cell_length_c   8.38788200
_cell_angle_alpha   90.00000000
_cell_angle_beta   90.00163840
_cell_angle_gamma   90.00000000
_symmetry_Int_Tables_number   1
_chemical_formula_structural   Al8Fe3Ir4Rh
_chemical_formula_sum   'Al8 Fe3 Ir4 Rh1'
_cell_volume   208.77669626
_cell_formula_units_Z   1
loop_
 _symmetry_equiv_pos_site_id
 _symmetry_equiv_pos_as_xyz
  1  'x, y, z'
loop_
 _atom_site_type_symbol
 _atom_site_label
 _atom_site_symmetry_multiplicity
 _atom_site_fract_x
 _atom_site_fract_y
 _atom_site_fract_z
 _atom_site_occupancy
  Al  Al0  1  0.008143  0.750001  0.125064  1
  Al  Al1  1  0.491850  0.750001  0.125064  1
  Al  Al2  1  0.004590  0.250001  0.379712  1
  Al  Al3  1  0.495407  0.250001  0.379717  1
  Al  Al4  1  0.499051  0.750001  0.624975  1
  Al  Al5  1  0.000953  0.750001  0.624977  1
  Al  Al6  1  0.495483  0.250001  0.870247  1
  Al  Al7  1  0.004522  0.250001  0.870248  1
  Fe  Fe8  1  0.249995  0.750001  0.374816  1
  Fe  Fe9  1  0.750002  0.250001  0.624968  1
  Fe  Fe10  1  0.250002  0.750001  0.875229  1
  Ir  Ir11  1  0.249997  0.250001  0.124964  1
  Ir  Ir12  1  0.749997  0.750001  0.376094  1
  Ir  Ir13  1  0.249999  0.250001  0.625015  1
  Ir  Ir14  1  0.749999  0.750001  0.873913  1
  Rh  Rh15  1  0.750011  0.250001  0.124996  1
