# generated using pymatgen
data_Re2O5F
_symmetry_space_group_name_H-M   'P 1'
_cell_length_a   5.45662701
_cell_length_b   5.45662701
_cell_length_c   3.79250200
_cell_angle_alpha   90.00000000
_cell_angle_beta   90.00000000
_cell_angle_gamma   92.37609686
_symmetry_Int_Tables_number   1
_chemical_formula_structural   Re2O5F
_chemical_formula_sum   'Re2 O5 F1'
_cell_volume   112.82381845
_cell_formula_units_Z   1
loop_
 _symmetry_equiv_pos_site_id
 _symmetry_equiv_pos_as_xyz
  1  'x, y, z'
loop_
 _atom_site_type_symbol
 _atom_site_label
 _atom_site_symmetry_multiplicity
 _atom_site_fract_x
 _atom_site_fract_y
 _atom_site_fract_z
 _atom_site_occupancy
  Re  Re0  1  0.484992  0.517263  0.500000  1
  Re  Re1  1  0.017263  0.984992  0.500000  1
  O  O2  1  0.759470  0.740759  0.500000  1
  O  O3  1  0.240759  0.259470  0.500000  1
  O  O4  1  0.260037  0.760037  0.500000  1
  O  O5  1  0.496799  0.503814  0.000000  1
  O  O6  1  0.003814  0.996799  0.000000  1
  F  F7  1  0.736865  0.236865  0.500000  1
