# generated using pymatgen
data_Dy8Si13Ge
_symmetry_space_group_name_H-M   'P 1'
_cell_length_a   7.26295468
_cell_length_b   7.26295549
_cell_length_c   11.36553821
_cell_angle_alpha   89.96950042
_cell_angle_beta   89.96949732
_cell_angle_gamma   133.94847271
_symmetry_Int_Tables_number   1
_chemical_formula_structural   Dy8Si13Ge
_chemical_formula_sum   'Dy8 Si13 Ge1'
_cell_volume   431.64552280
_cell_formula_units_Z   1
loop_
 _symmetry_equiv_pos_site_id
 _symmetry_equiv_pos_as_xyz
  1  'x, y, z'
loop_
 _atom_site_type_symbol
 _atom_site_label
 _atom_site_symmetry_multiplicity
 _atom_site_fract_x
 _atom_site_fract_y
 _atom_site_fract_z
 _atom_site_occupancy
  Dy  Dy0  1  0.491492  0.982873  0.378968  1
  Dy  Dy1  1  0.984761  0.490678  0.620939  1
  Dy  Dy2  1  0.509322  0.015239  0.879061  1
  Dy  Dy3  1  0.017127  0.508508  0.121032  1
  Dy  Dy4  1  0.998380  0.001620  0.250000  1
  Dy  Dy5  1  0.001290  0.998710  0.750000  1
  Dy  Dy6  1  0.492450  0.491808  0.497736  1
  Dy  Dy7  1  0.508192  0.507550  0.002264  1
  Si  Si8  1  0.923955  0.097601  0.992389  1
  Si  Si9  1  0.099669  0.923345  0.007895  1
  Si  Si10  1  0.076655  0.900331  0.492105  1
  Si  Si11  1  0.902399  0.076045  0.507611  1
  Si  Si12  1  0.579514  0.916360  0.129005  1
  Si  Si13  1  0.918434  0.579609  0.872059  1
  Si  Si14  1  0.420391  0.081566  0.627941  1
  Si  Si15  1  0.083640  0.420486  0.370995  1
  Si  Si16  1  0.461453  0.152721  0.151576  1
  Si  Si17  1  0.152251  0.459617  0.850496  1
  Si  Si18  1  0.540383  0.847749  0.649504  1
  Si  Si19  1  0.847279  0.538547  0.348424  1
  Si  Si20  1  0.437271  0.562729  0.250000  1
  Ge  Ge21  1  0.553691  0.446309  0.750000  1
