# generated using pymatgen
data_Y(ZnAu)6
_symmetry_space_group_name_H-M   'P 1'
_cell_length_a   7.05999551
_cell_length_b   7.05999541
_cell_length_c   7.05999508
_cell_angle_alpha   100.17413635
_cell_angle_beta   95.78076431
_cell_angle_gamma   136.27263793
_symmetry_Int_Tables_number   1
_chemical_formula_structural   Y(ZnAu)6
_chemical_formula_sum   'Y1 Zn6 Au6'
_cell_volume   225.52468371
_cell_formula_units_Z   1
loop_
 _symmetry_equiv_pos_site_id
 _symmetry_equiv_pos_as_xyz
  1  'x, y, z'
loop_
 _atom_site_type_symbol
 _atom_site_label
 _atom_site_symmetry_multiplicity
 _atom_site_fract_x
 _atom_site_fract_y
 _atom_site_fract_z
 _atom_site_occupancy
  Y  Y0  1  0.000000  0.000000  0.000000  1
  Zn  Zn1  1  0.500000  0.000000  0.000000  1
  Zn  Zn2  1  0.000000  0.000000  0.500000  1
  Zn  Zn3  1  0.500000  0.500000  0.500000  1
  Zn  Zn4  1  0.000000  0.500000  0.000000  1
  Zn  Zn5  1  0.500000  0.259424  0.759424  1
  Zn  Zn6  1  0.500000  0.740576  0.240576  1
  Au  Au7  1  0.323036  0.500000  0.823036  1
  Au  Au8  1  0.661106  0.000000  0.661106  1
  Au  Au9  1  0.000000  0.335024  0.335024  1
  Au  Au10  1  0.000000  0.664976  0.664976  1
  Au  Au11  1  0.338894  0.000000  0.338894  1
  Au  Au12  1  0.676964  0.500000  0.176964  1
