# generated using pymatgen
data_La14RuRh5
_symmetry_space_group_name_H-M   'P 1'
_cell_length_a   10.18794300
_cell_length_b   10.16156392
_cell_length_c   6.61533289
_cell_angle_alpha   89.90972272
_cell_angle_beta   90.00000000
_cell_angle_gamma   120.08592087
_symmetry_Int_Tables_number   1
_chemical_formula_structural   La14RuRh5
_chemical_formula_sum   'La14 Ru1 Rh5'
_cell_volume   592.58685413
_cell_formula_units_Z   1
loop_
 _symmetry_equiv_pos_site_id
 _symmetry_equiv_pos_as_xyz
  1  'x, y, z'
loop_
 _atom_site_type_symbol
 _atom_site_label
 _atom_site_symmetry_multiplicity
 _atom_site_fract_x
 _atom_site_fract_y
 _atom_site_fract_z
 _atom_site_occupancy
  La  La0  1  0.666615  0.333229  0.555643  1
  La  La1  1  0.333281  0.666564  0.053357  1
  La  La2  1  0.875066  0.750132  0.793228  1
  La  La3  1  0.248439  0.127672  0.792111  1
  La  La4  1  0.879233  0.127672  0.792111  1
  La  La5  1  0.123806  0.247613  0.285700  1
  La  La6  1  0.748879  0.873511  0.294526  1
  La  La7  1  0.124632  0.873511  0.294526  1
  La  La8  1  0.463234  0.926470  0.595097  1
  La  La9  1  0.078708  0.536087  0.597488  1
  La  La10  1  0.457378  0.536087  0.597488  1
  La  La11  1  0.537761  0.075521  0.092561  1
  La  La12  1  0.925261  0.460091  0.096034  1
  La  La13  1  0.534830  0.460091  0.096034  1
  Ru  Ru14  1  0.187914  0.375827  0.835900  1
  Rh  Rh15  1  0.629415  0.815936  0.827044  1
  Rh  Rh16  1  0.186522  0.815936  0.827044  1
  Rh  Rh17  1  0.813152  0.626304  0.328408  1
  Rh  Rh18  1  0.374268  0.185873  0.330375  1
  Rh  Rh19  1  0.811604  0.185873  0.330375  1
