# generated using pymatgen
data_Nd6Y10MgAg3Rh4
_symmetry_space_group_name_H-M   'P 1'
_cell_length_a   9.71167715
_cell_length_b   9.70526868
_cell_length_c   9.70526900
_cell_angle_alpha   60.00000232
_cell_angle_beta   60.02182834
_cell_angle_gamma   60.02182755
_symmetry_Int_Tables_number   1
_chemical_formula_structural   Nd6Y10MgAg3Rh4
_chemical_formula_sum   'Nd6 Y10 Mg1 Ag3 Rh4'
_cell_volume   647.04963149
_cell_formula_units_Z   1
loop_
 _symmetry_equiv_pos_site_id
 _symmetry_equiv_pos_as_xyz
  1  'x, y, z'
loop_
 _atom_site_type_symbol
 _atom_site_label
 _atom_site_symmetry_multiplicity
 _atom_site_fract_x
 _atom_site_fract_y
 _atom_site_fract_z
 _atom_site_occupancy
  Nd  Nd0  1  0.186583  0.813230  0.813230  1
  Nd  Nd1  1  0.811544  0.187380  0.187380  1
  Nd  Nd2  1  0.811544  0.187380  0.813697  1
  Nd  Nd3  1  0.186583  0.813230  0.186956  1
  Nd  Nd4  1  0.811544  0.813697  0.187380  1
  Nd  Nd5  1  0.186583  0.186956  0.813230  1
  Y  Y6  1  0.599784  0.599516  0.599516  1
  Y  Y7  1  0.599784  0.599516  0.201183  1
  Y  Y8  1  0.599784  0.201183  0.599516  1
  Y  Y9  1  0.190482  0.603173  0.603173  1
  Y  Y10  1  0.062042  0.437423  0.437423  1
  Y  Y11  1  0.434725  0.064286  0.064286  1
  Y  Y12  1  0.434725  0.064286  0.436702  1
  Y  Y13  1  0.062042  0.437423  0.063112  1
  Y  Y14  1  0.434725  0.436702  0.064286  1
  Y  Y15  1  0.062042  0.063112  0.437423  1
  Mg  Mg16  1  0.536829  0.821058  0.821058  1
  Ag  Ag17  1  0.830888  0.832459  0.832459  1
  Ag  Ag18  1  0.830888  0.832459  0.504196  1
  Ag  Ag19  1  0.830888  0.504196  0.832459  1
  Rh  Rh20  1  0.391275  0.393447  0.393447  1
  Rh  Rh21  1  0.391275  0.393447  0.821830  1
  Rh  Rh22  1  0.391275  0.821830  0.393447  1
  Rh  Rh23  1  0.822162  0.392612  0.392612  1
