# generated using pymatgen
data_Ac3La(Yb3Si4)2
_symmetry_space_group_name_H-M   'P 1'
_cell_length_a   8.06539580
_cell_length_b   8.06468868
_cell_length_c   14.95036639
_cell_angle_alpha   90.04742627
_cell_angle_beta   90.13847425
_cell_angle_gamma   89.99635574
_symmetry_Int_Tables_number   1
_chemical_formula_structural   Ac3La(Yb3Si4)2
_chemical_formula_sum   'Ac6 La2 Yb12 Si16'
_cell_volume   972.44200500
_cell_formula_units_Z   2
loop_
 _symmetry_equiv_pos_site_id
 _symmetry_equiv_pos_as_xyz
  1  'x, y, z'
loop_
 _atom_site_type_symbol
 _atom_site_label
 _atom_site_symmetry_multiplicity
 _atom_site_fract_x
 _atom_site_fract_y
 _atom_site_fract_z
 _atom_site_occupancy
  Ac  Ac0  1  0.987947  0.628408  0.046202  1
  Ac  Ac1  1  0.012692  0.370466  0.544484  1
  Ac  Ac2  1  0.627726  0.987191  0.953909  1
  Ac  Ac3  1  0.129283  0.513114  0.794151  1
  Ac  Ac4  1  0.871495  0.488359  0.296606  1
  Ac  Ac5  1  0.512445  0.129681  0.205784  1
  La  La6  1  0.491930  0.878468  0.700899  1
  La  La7  1  0.376298  0.007466  0.452899  1
  Yb  Yb8  1  0.369152  0.493998  0.376241  1
  Yb  Yb9  1  0.870007  0.005737  0.375963  1
  Yb  Yb10  1  0.993722  0.130883  0.125682  1
  Yb  Yb11  1  0.006939  0.869796  0.624608  1
  Yb  Yb12  1  0.630193  0.507215  0.874040  1
  Yb  Yb13  1  0.492295  0.369244  0.624223  1
  Yb  Yb14  1  0.506120  0.630519  0.125592  1
  Yb  Yb15  1  0.131344  0.992008  0.873892  1
  Yb  Yb16  1  0.684661  0.688818  0.500932  1
  Yb  Yb17  1  0.811608  0.185448  0.749458  1
  Yb  Yb18  1  0.188138  0.813714  0.251171  1
  Yb  Yb19  1  0.312889  0.312363  0.999704  1
  Si  Si20  1  0.084922  0.717452  0.442536  1
  Si  Si21  1  0.919039  0.286665  0.941112  1
  Si  Si22  1  0.706543  0.077653  0.558270  1
  Si  Si23  1  0.213918  0.417615  0.192959  1
  Si  Si24  1  0.783492  0.582987  0.690625  1
  Si  Si25  1  0.421149  0.208818  0.807093  1
  Si  Si26  1  0.579771  0.787637  0.309647  1
  Si  Si27  1  0.285855  0.919148  0.058564  1
  Si  Si28  1  0.834411  0.795700  0.803809  1
  Si  Si29  1  0.162953  0.204794  0.308928  1
  Si  Si30  1  0.793214  0.838952  0.195535  1
  Si  Si31  1  0.297780  0.668421  0.557154  1
  Si  Si32  1  0.706676  0.339501  0.055588  1
  Si  Si33  1  0.656342  0.289037  0.443992  1
  Si  Si34  1  0.337841  0.705187  0.944689  1
  Si  Si35  1  0.209211  0.157538  0.693060  1
