# generated using pymatgen
data_Hf2Zr2CuSi4
_symmetry_space_group_name_H-M   'P 1'
_cell_length_a   5.24788507
_cell_length_b   5.24788439
_cell_length_c   8.73242377
_cell_angle_alpha   71.45766816
_cell_angle_beta   71.45766989
_cell_angle_gamma   42.17945323
_symmetry_Int_Tables_number   1
_chemical_formula_structural   Hf2Zr2CuSi4
_chemical_formula_sum   'Hf2 Zr2 Cu1 Si4'
_cell_volume   151.81159970
_cell_formula_units_Z   1
loop_
 _symmetry_equiv_pos_site_id
 _symmetry_equiv_pos_as_xyz
  1  'x, y, z'
loop_
 _atom_site_type_symbol
 _atom_site_label
 _atom_site_symmetry_multiplicity
 _atom_site_fract_x
 _atom_site_fract_y
 _atom_site_fract_z
 _atom_site_occupancy
  Hf  Hf0  1  0.754185  0.754185  0.843985  1
  Hf  Hf1  1  0.245815  0.245815  0.156015  1
  Zr  Zr2  1  0.107937  0.107937  0.619404  1
  Zr  Zr3  1  0.892063  0.892063  0.380596  1
  Cu  Cu4  1  0.000000  0.000000  0.000000  1
  Si  Si5  1  0.385656  0.385656  0.615159  1
  Si  Si6  1  0.614344  0.614344  0.384841  1
  Si  Si7  1  0.462490  0.462490  0.851531  1
  Si  Si8  1  0.537510  0.537510  0.148469  1
