# generated using pymatgen
data_La20Ir11Rh
_symmetry_space_group_name_H-M   'P 1'
_cell_length_a   11.37387500
_cell_length_b   11.37387500
_cell_length_c   6.77341300
_cell_angle_alpha   90.00000000
_cell_angle_beta   90.00000000
_cell_angle_gamma   90.00000000
_symmetry_Int_Tables_number   1
_chemical_formula_structural   La20Ir11Rh
_chemical_formula_sum   'La20 Ir11 Rh1'
_cell_volume   876.24279299
_cell_formula_units_Z   1
loop_
 _symmetry_equiv_pos_site_id
 _symmetry_equiv_pos_as_xyz
  1  'x, y, z'
loop_
 _atom_site_type_symbol
 _atom_site_label
 _atom_site_symmetry_multiplicity
 _atom_site_fract_x
 _atom_site_fract_y
 _atom_site_fract_z
 _atom_site_occupancy
  La  La0  1  0.293005  0.092134  0.389686  1
  La  La1  1  0.292603  0.907795  0.887687  1
  La  La2  1  0.707397  0.092205  0.887687  1
  La  La3  1  0.706995  0.907866  0.389686  1
  La  La4  1  0.592205  0.792603  0.887687  1
  La  La5  1  0.592134  0.206995  0.389686  1
  La  La6  1  0.407866  0.793005  0.389686  1
  La  La7  1  0.407795  0.207397  0.887687  1
  La  La8  1  0.206452  0.408386  0.611750  1
  La  La9  1  0.206426  0.592008  0.111837  1
  La  La10  1  0.793574  0.407992  0.111837  1
  La  La11  1  0.793548  0.591614  0.611750  1
  La  La12  1  0.907992  0.706426  0.111837  1
  La  La13  1  0.908386  0.293548  0.611750  1
  La  La14  1  0.091614  0.706452  0.611750  1
  La  La15  1  0.092008  0.293574  0.111837  1
  La  La16  1  0.000000  0.000000  0.499953  1
  La  La17  1  0.000000  0.000000  0.999924  1
  La  La18  1  0.500000  0.500000  0.999924  1
  La  La19  1  0.500000  0.500000  0.499953  1
  Ir  Ir20  1  0.845993  0.152184  0.249913  1
  Ir  Ir21  1  0.846712  0.847172  0.749540  1
  Ir  Ir22  1  0.153288  0.152828  0.749540  1
  Ir  Ir23  1  0.154007  0.847816  0.249913  1
  Ir  Ir24  1  0.652828  0.346712  0.749540  1
  Ir  Ir25  1  0.652184  0.654007  0.249913  1
  Ir  Ir26  1  0.347816  0.345993  0.249913  1
  Ir  Ir27  1  0.347172  0.653288  0.749540  1
  Ir  Ir28  1  0.500000  0.000000  0.620876  1
  Ir  Ir29  1  0.000000  0.500000  0.881738  1
  Ir  Ir30  1  0.000000  0.500000  0.382621  1
  Rh  Rh31  1  0.500000  0.000000  0.113363  1
