# generated using pymatgen
data_CaLu(Al5Ru)4
_symmetry_space_group_name_H-M   'P 1'
_cell_length_a   6.86590290
_cell_length_b   6.86590322
_cell_length_c   9.12845700
_cell_angle_alpha   90.00000000
_cell_angle_beta   90.00000000
_cell_angle_gamma   96.63055284
_symmetry_Int_Tables_number   1
_chemical_formula_structural   CaLu(Al5Ru)4
_chemical_formula_sum   'Ca1 Lu1 Al20 Ru4'
_cell_volume   427.44289243
_cell_formula_units_Z   1
loop_
 _symmetry_equiv_pos_site_id
 _symmetry_equiv_pos_as_xyz
  1  'x, y, z'
loop_
 _atom_site_type_symbol
 _atom_site_label
 _atom_site_symmetry_multiplicity
 _atom_site_fract_x
 _atom_site_fract_y
 _atom_site_fract_z
 _atom_site_occupancy
  Ca  Ca0  1  0.873333  0.126667  0.750000  1
  Lu  Lu1  1  0.128213  0.871787  0.250000  1
  Al  Al2  1  0.522479  0.782261  0.750000  1
  Al  Al3  1  0.781825  0.521050  0.250000  1
  Al  Al4  1  0.478950  0.218175  0.250000  1
  Al  Al5  1  0.217739  0.477521  0.750000  1
  Al  Al6  1  0.623740  0.376260  0.959921  1
  Al  Al7  1  0.376092  0.623908  0.048880  1
  Al  Al8  1  0.623740  0.376260  0.540079  1
  Al  Al9  1  0.376092  0.623908  0.451120  1
  Al  Al10  1  0.413112  0.143838  0.750000  1
  Al  Al11  1  0.144115  0.418458  0.250000  1
  Al  Al12  1  0.581542  0.855885  0.250000  1
  Al  Al13  1  0.856162  0.586888  0.750000  1
  Al  Al14  1  0.847370  0.152630  0.400211  1
  Al  Al15  1  0.157510  0.842490  0.599290  1
  Al  Al16  1  0.847370  0.152630  0.099789  1
  Al  Al17  1  0.157510  0.842490  0.900710  1
  Al  Al18  1  0.774811  0.775659  0.001720  1
  Al  Al19  1  0.774811  0.775659  0.498280  1
  Al  Al20  1  0.224341  0.225189  0.001720  1
  Al  Al21  1  0.224341  0.225189  0.498280  1
  Ru  Ru22  1  0.497547  0.000149  0.001400  1
  Ru  Ru23  1  0.999851  0.502453  0.001400  1
  Ru  Ru24  1  0.497547  0.000149  0.498600  1
  Ru  Ru25  1  0.999851  0.502453  0.498600  1
