# generated using pymatgen
data_Pr5Ru2Au
_symmetry_space_group_name_H-M   'P 1'
_cell_length_a   8.95007785
_cell_length_b   8.95007789
_cell_length_c   8.95007730
_cell_angle_alpha   127.54290335
_cell_angle_beta   127.54290132
_cell_angle_gamma   77.36668606
_symmetry_Int_Tables_number   1
_chemical_formula_structural   Pr5Ru2Au
_chemical_formula_sum   'Pr10 Ru4 Au2'
_cell_volume   437.24780461
_cell_formula_units_Z   2
loop_
 _symmetry_equiv_pos_site_id
 _symmetry_equiv_pos_as_xyz
  1  'x, y, z'
loop_
 _atom_site_type_symbol
 _atom_site_label
 _atom_site_symmetry_multiplicity
 _atom_site_fract_x
 _atom_site_fract_y
 _atom_site_fract_z
 _atom_site_occupancy
  Pr  Pr0  1  0.000000  0.000000  0.000000  1
  Pr  Pr1  1  0.500000  0.500000  0.000000  1
  Pr  Pr2  1  0.800481  0.300481  0.829540  1
  Pr  Pr3  1  0.199519  0.699519  0.170460  1
  Pr  Pr4  1  0.470942  0.970942  0.170460  1
  Pr  Pr5  1  0.300481  0.470942  0.500000  1
  Pr  Pr6  1  0.029058  0.199519  0.500000  1
  Pr  Pr7  1  0.529058  0.029058  0.829540  1
  Pr  Pr8  1  0.699519  0.529058  0.500000  1
  Pr  Pr9  1  0.970942  0.800481  0.500000  1
  Ru  Ru10  1  0.137023  0.637023  0.774047  1
  Ru  Ru11  1  0.862977  0.362977  0.225953  1
  Ru  Ru12  1  0.637023  0.862977  0.500000  1
  Ru  Ru13  1  0.362977  0.137023  0.500000  1
  Au  Au14  1  0.250000  0.250000  0.000000  1
  Au  Au15  1  0.750000  0.750000  0.000000  1
