# generated using pymatgen
data_KNp2F8
_symmetry_space_group_name_H-M   'P 1'
_cell_length_a   6.57214053
_cell_length_b   6.57130367
_cell_length_c   4.45325427
_cell_angle_alpha   95.47626064
_cell_angle_beta   95.54111482
_cell_angle_gamma   113.15951761
_symmetry_Int_Tables_number   1
_chemical_formula_structural   KNp2F8
_chemical_formula_sum   'K1 Np2 F8'
_cell_volume   174.11965371
_cell_formula_units_Z   1
loop_
 _symmetry_equiv_pos_site_id
 _symmetry_equiv_pos_as_xyz
  1  'x, y, z'
loop_
 _atom_site_type_symbol
 _atom_site_label
 _atom_site_symmetry_multiplicity
 _atom_site_fract_x
 _atom_site_fract_y
 _atom_site_fract_z
 _atom_site_occupancy
  K  K0  1  0.000000  0.000000  0.000000  1
  Np  Np1  1  0.677157  0.322725  0.499691  1
  Np  Np2  1  0.322844  0.677276  0.500311  1
  F  F3  1  0.739304  0.260784  0.999904  1
  F  F4  1  0.260695  0.739215  0.000096  1
  F  F5  1  0.396516  0.396622  0.229842  1
  F  F6  1  0.953577  0.664289  0.433042  1
  F  F7  1  0.664233  0.953522  0.433279  1
  F  F8  1  0.335767  0.046477  0.566721  1
  F  F9  1  0.046422  0.335711  0.566958  1
  F  F10  1  0.603483  0.603377  0.770158  1
