# generated using pymatgen
data_ErUSn3Se7
_symmetry_space_group_name_H-M   'P 1'
_cell_length_a   7.31043502
_cell_length_b   7.31043610
_cell_length_c   12.93212781
_cell_angle_alpha   74.49045498
_cell_angle_beta   74.49045388
_cell_angle_gamma   32.84970969
_symmetry_Int_Tables_number   1
_chemical_formula_structural   ErUSn3Se7
_chemical_formula_sum   'Er1 U1 Sn3 Se7'
_cell_volume   360.02978745
_cell_formula_units_Z   1
loop_
 _symmetry_equiv_pos_site_id
 _symmetry_equiv_pos_as_xyz
  1  'x, y, z'
loop_
 _atom_site_type_symbol
 _atom_site_label
 _atom_site_symmetry_multiplicity
 _atom_site_fract_x
 _atom_site_fract_y
 _atom_site_fract_z
 _atom_site_occupancy
  Er  Er0  1  0.993092  0.993092  0.002650  1
  U  U1  1  0.885718  0.885718  0.422541  1
  Sn  Sn2  1  0.672908  0.672908  0.159030  1
  Sn  Sn3  1  0.329874  0.329874  0.839630  1
  Sn  Sn4  1  0.132567  0.132567  0.573922  1
  Se  Se5  1  0.017449  0.017449  0.219041  1
  Se  Se6  1  0.972785  0.972785  0.794679  1
  Se  Se7  1  0.343152  0.343152  0.052240  1
  Se  Se8  1  0.638692  0.638692  0.961103  1
  Se  Se9  1  0.750487  0.750487  0.624231  1
  Se  Se10  1  0.276492  0.276492  0.363195  1
  Se  Se11  1  0.486783  0.486783  0.487739  1
