# generated using pymatgen
data_HoTh7InS17
_symmetry_space_group_name_H-M   'P 1'
_cell_length_a   8.06991154
_cell_length_b   8.05925329
_cell_length_c   10.69870000
_cell_angle_alpha   80.69805583
_cell_angle_beta   80.88125128
_cell_angle_gamma   65.07597430
_symmetry_Int_Tables_number   1
_chemical_formula_structural   HoTh7InS17
_chemical_formula_sum   'Ho1 Th7 In1 S17'
_cell_volume   619.53285193
_cell_formula_units_Z   1
loop_
 _symmetry_equiv_pos_site_id
 _symmetry_equiv_pos_as_xyz
  1  'x, y, z'
loop_
 _atom_site_type_symbol
 _atom_site_label
 _atom_site_symmetry_multiplicity
 _atom_site_fract_x
 _atom_site_fract_y
 _atom_site_fract_z
 _atom_site_occupancy
  Ho  Ho0  1  0.811816  0.306601  0.300279  1
  Th  Th1  1  0.304683  0.810634  0.297216  1
  Th  Th2  1  0.186947  0.696131  0.700867  1
  Th  Th3  1  0.696072  0.189498  0.697930  1
  Th  Th4  1  0.207050  0.206437  0.539590  1
  Th  Th5  1  0.792355  0.794783  0.455381  1
  Th  Th6  1  0.683258  0.677208  0.978252  1
  Th  Th7  1  0.318608  0.318579  0.026932  1
  In  In8  1  0.996715  0.004208  0.002290  1
  S  S9  1  0.825354  0.428047  0.528950  1
  S  S10  1  0.431083  0.821892  0.531667  1
  S  S11  1  0.175908  0.569341  0.466927  1
  S  S12  1  0.571601  0.177899  0.466637  1
  S  S13  1  0.944771  0.331050  0.039487  1
  S  S14  1  0.332847  0.944114  0.034555  1
  S  S15  1  0.055956  0.670003  0.964954  1
  S  S16  1  0.667922  0.055539  0.962322  1
  S  S17  1  0.205432  0.205139  0.280333  1
  S  S18  1  0.792331  0.791383  0.720160  1
  S  S19  1  0.059452  0.059661  0.765858  1
  S  S20  1  0.937641  0.950549  0.237178  1
  S  S21  1  0.303509  0.304139  0.754301  1
  S  S22  1  0.695886  0.693445  0.245428  1
  S  S23  1  0.521231  0.521767  0.830736  1
  S  S24  1  0.478929  0.477925  0.167830  1
  S  S25  1  0.002642  0.994027  0.503938  1
