# generated using pymatgen
data_DyErMnC2
_symmetry_space_group_name_H-M   'P 1'
_cell_length_a   5.01717800
_cell_length_b   6.32679100
_cell_length_c   9.60997800
_cell_angle_alpha   90.00000000
_cell_angle_beta   90.00000000
_cell_angle_gamma   90.00000000
_symmetry_Int_Tables_number   1
_chemical_formula_structural   DyErMnC2
_chemical_formula_sum   'Dy4 Er4 Mn4 C8'
_cell_volume   305.04603954
_cell_formula_units_Z   4
loop_
 _symmetry_equiv_pos_site_id
 _symmetry_equiv_pos_as_xyz
  1  'x, y, z'
loop_
 _atom_site_type_symbol
 _atom_site_label
 _atom_site_symmetry_multiplicity
 _atom_site_fract_x
 _atom_site_fract_y
 _atom_site_fract_z
 _atom_site_occupancy
  Dy  Dy0  1  0.250000  0.475890  0.213605  1
  Dy  Dy1  1  0.250000  0.975890  0.286395  1
  Dy  Dy2  1  0.750000  0.524110  0.786395  1
  Dy  Dy3  1  0.750000  0.024110  0.713605  1
  Er  Er4  1  0.250000  0.818819  0.944693  1
  Er  Er5  1  0.250000  0.318819  0.555307  1
  Er  Er6  1  0.750000  0.181181  0.055307  1
  Er  Er7  1  0.750000  0.681181  0.444693  1
  Mn  Mn8  1  0.250000  0.270987  0.857469  1
  Mn  Mn9  1  0.250000  0.770987  0.642531  1
  Mn  Mn10  1  0.750000  0.729013  0.142531  1
  Mn  Mn11  1  0.750000  0.229013  0.357469  1
  C  C12  1  0.250000  0.037426  0.739272  1
  C  C13  1  0.250000  0.537426  0.760728  1
  C  C14  1  0.750000  0.962574  0.260728  1
  C  C15  1  0.750000  0.462574  0.239272  1
  C  C16  1  0.250000  0.687861  0.463776  1
  C  C17  1  0.250000  0.187861  0.036224  1
  C  C18  1  0.750000  0.312139  0.536224  1
  C  C19  1  0.750000  0.812139  0.963776  1
