# generated using pymatgen
data_Na(HgPd)6
_symmetry_space_group_name_H-M   'P 1'
_cell_length_a   5.70159400
_cell_length_b   5.70159379
_cell_length_c   9.32748000
_cell_angle_alpha   90.00000000
_cell_angle_beta   90.00000000
_cell_angle_gamma   120.00000124
_symmetry_Int_Tables_number   1
_chemical_formula_structural   Na(HgPd)6
_chemical_formula_sum   'Na1 Hg6 Pd6'
_cell_volume   262.59564185
_cell_formula_units_Z   1
loop_
 _symmetry_equiv_pos_site_id
 _symmetry_equiv_pos_as_xyz
  1  'x, y, z'
loop_
 _atom_site_type_symbol
 _atom_site_label
 _atom_site_symmetry_multiplicity
 _atom_site_fract_x
 _atom_site_fract_y
 _atom_site_fract_z
 _atom_site_occupancy
  Na  Na0  1  0.000000  0.000000  0.000000  1
  Hg  Hg1  1  0.666667  0.333333  0.000000  1
  Hg  Hg2  1  0.333333  0.666667  0.000000  1
  Hg  Hg3  1  0.000000  0.000000  0.317234  1
  Hg  Hg4  1  0.666667  0.333333  0.500000  1
  Hg  Hg5  1  0.333333  0.666667  0.500000  1
  Hg  Hg6  1  0.000000  0.000000  0.682766  1
  Pd  Pd7  1  0.500001  0.000000  0.250205  1
  Pd  Pd8  1  0.000000  0.499999  0.250205  1
  Pd  Pd9  1  0.500000  0.499999  0.250205  1
  Pd  Pd10  1  0.500001  0.000000  0.749795  1
  Pd  Pd11  1  0.000000  0.499999  0.749795  1
  Pd  Pd12  1  0.500000  0.499999  0.749795  1
