# generated using pymatgen
data_Os(Se4Cl)2
_symmetry_space_group_name_H-M   'P 1'
_cell_length_a   8.41773931
_cell_length_b   8.41774076
_cell_length_c   9.76488092
_cell_angle_alpha   78.42140149
_cell_angle_beta   78.42139006
_cell_angle_gamma   118.29904038
_symmetry_Int_Tables_number   1
_chemical_formula_structural   Os(Se4Cl)2
_chemical_formula_sum   'Os2 Se16 Cl4'
_cell_volume   560.62325516
_cell_formula_units_Z   2
loop_
 _symmetry_equiv_pos_site_id
 _symmetry_equiv_pos_as_xyz
  1  'x, y, z'
loop_
 _atom_site_type_symbol
 _atom_site_label
 _atom_site_symmetry_multiplicity
 _atom_site_fract_x
 _atom_site_fract_y
 _atom_site_fract_z
 _atom_site_occupancy
  Os  Os0  1  0.000000  0.000000  0.000000  1
  Os  Os1  1  0.000000  0.000000  0.500000  1
  Se  Se2  1  0.785137  0.069241  0.157428  1
  Se  Se3  1  0.930759  0.214863  0.342572  1
  Se  Se4  1  0.214863  0.930759  0.842572  1
  Se  Se5  1  0.069241  0.785137  0.657428  1
  Se  Se6  1  0.978802  0.766596  0.214460  1
  Se  Se7  1  0.233404  0.021198  0.285540  1
  Se  Se8  1  0.021198  0.233404  0.785540  1
  Se  Se9  1  0.766596  0.978802  0.714460  1
  Se  Se10  1  0.752883  0.715583  0.459610  1
  Se  Se11  1  0.284417  0.247117  0.040390  1
  Se  Se12  1  0.247117  0.284417  0.540390  1
  Se  Se13  1  0.715583  0.752883  0.959610  1
  Se  Se14  1  0.544505  0.787345  0.362362  1
  Se  Se15  1  0.212655  0.455495  0.137638  1
  Se  Se16  1  0.455495  0.212655  0.637638  1
  Se  Se17  1  0.787345  0.544505  0.862362  1
  Cl  Cl18  1  0.593320  0.406680  0.250000  1
  Cl  Cl19  1  0.406680  0.593320  0.750000  1
  Cl  Cl20  1  0.000000  0.500000  0.500000  1
  Cl  Cl21  1  0.500000  0.000000  0.000000  1
