# generated using pymatgen
data_KCeAgS3
_symmetry_space_group_name_H-M   'P 1'
_cell_length_a   4.17372600
_cell_length_b   7.37926571
_cell_length_c   10.61352100
_cell_angle_alpha   90.00000000
_cell_angle_beta   90.00000000
_cell_angle_gamma   73.57255734
_symmetry_Int_Tables_number   1
_chemical_formula_structural   KCeAgS3
_chemical_formula_sum   'K2 Ce2 Ag2 S6'
_cell_volume   313.54224440
_cell_formula_units_Z   2
loop_
 _symmetry_equiv_pos_site_id
 _symmetry_equiv_pos_as_xyz
  1  'x, y, z'
loop_
 _atom_site_type_symbol
 _atom_site_label
 _atom_site_symmetry_multiplicity
 _atom_site_fract_x
 _atom_site_fract_y
 _atom_site_fract_z
 _atom_site_occupancy
  K  K0  1  0.738950  0.522100  0.250000  1
  K  K1  1  0.261050  0.477901  0.750000  1
  Ce  Ce2  1  0.000000  0.000000  0.000000  1
  Ce  Ce3  1  0.000000  0.000000  0.500000  1
  Ag  Ag4  1  0.453494  0.093013  0.250000  1
  Ag  Ag5  1  0.546506  0.906987  0.750000  1
  S  S6  1  0.375387  0.249227  0.040805  1
  S  S7  1  0.061078  0.877846  0.250000  1
  S  S8  1  0.375387  0.249227  0.459195  1
  S  S9  1  0.624613  0.750773  0.540805  1
  S  S10  1  0.938922  0.122154  0.750000  1
  S  S11  1  0.624613  0.750773  0.959195  1
