# generated using pymatgen
data_HfSc2Ti2Sn3
_symmetry_space_group_name_H-M   'P 1'
_cell_length_a   8.30904021
_cell_length_b   8.30904044
_cell_length_c   5.66858400
_cell_angle_alpha   90.00000000
_cell_angle_beta   90.00000000
_cell_angle_gamma   119.79566497
_symmetry_Int_Tables_number   1
_chemical_formula_structural   HfSc2Ti2Sn3
_chemical_formula_sum   'Hf2 Sc4 Ti4 Sn6'
_cell_volume   339.62331234
_cell_formula_units_Z   2
loop_
 _symmetry_equiv_pos_site_id
 _symmetry_equiv_pos_as_xyz
  1  'x, y, z'
loop_
 _atom_site_type_symbol
 _atom_site_label
 _atom_site_symmetry_multiplicity
 _atom_site_fract_x
 _atom_site_fract_y
 _atom_site_fract_z
 _atom_site_occupancy
  Hf  Hf0  1  0.761271  0.998630  0.250000  1
  Hf  Hf1  1  0.998630  0.761271  0.250000  1
  Sc  Sc2  1  0.761111  0.761111  0.750000  1
  Sc  Sc3  1  0.238742  0.998686  0.750000  1
  Sc  Sc4  1  0.998686  0.238742  0.750000  1
  Sc  Sc5  1  0.237628  0.237628  0.250000  1
  Ti  Ti6  1  0.668193  0.333710  0.001638  1
  Ti  Ti7  1  0.333710  0.668193  0.001638  1
  Ti  Ti8  1  0.333710  0.668193  0.498362  1
  Ti  Ti9  1  0.668193  0.333710  0.498362  1
  Sn  Sn10  1  0.399183  0.399183  0.750000  1
  Sn  Sn11  1  0.601180  0.000073  0.750000  1
  Sn  Sn12  1  0.000073  0.601180  0.750000  1
  Sn  Sn13  1  0.599992  0.599992  0.250000  1
  Sn  Sn14  1  0.398998  0.000700  0.250000  1
  Sn  Sn15  1  0.000700  0.398998  0.250000  1
