# generated using pymatgen
data_TmTa2(Nb2Sn3)2
_symmetry_space_group_name_H-M   'P 1'
_cell_length_a   5.79952600
_cell_length_b   5.79727839
_cell_length_c   9.58038100
_cell_angle_alpha   90.00000000
_cell_angle_beta   90.00000000
_cell_angle_gamma   119.98717726
_symmetry_Int_Tables_number   1
_chemical_formula_structural   TmTa2(Nb2Sn3)2
_chemical_formula_sum   'Tm1 Ta2 Nb4 Sn6'
_cell_volume   278.98841497
_cell_formula_units_Z   1
loop_
 _symmetry_equiv_pos_site_id
 _symmetry_equiv_pos_as_xyz
  1  'x, y, z'
loop_
 _atom_site_type_symbol
 _atom_site_label
 _atom_site_symmetry_multiplicity
 _atom_site_fract_x
 _atom_site_fract_y
 _atom_site_fract_z
 _atom_site_occupancy
  Tm  Tm0  1  0.000000  0.000000  0.999804  1
  Ta  Ta1  1  0.500000  0.500000  0.751391  1
  Ta  Ta2  1  0.500000  0.000000  0.751391  1
  Nb  Nb3  1  0.000000  0.500000  0.750803  1
  Nb  Nb4  1  0.000000  0.500000  0.249155  1
  Nb  Nb5  1  0.500000  0.500000  0.249343  1
  Nb  Nb6  1  0.500000  0.000000  0.249343  1
  Sn  Sn7  1  0.666082  0.333040  0.499895  1
  Sn  Sn8  1  0.333918  0.666960  0.499895  1
  Sn  Sn9  1  0.666628  0.333314  0.000269  1
  Sn  Sn10  1  0.333372  0.666686  0.000269  1
  Sn  Sn11  1  0.000000  0.000000  0.669279  1
  Sn  Sn12  1  0.000000  0.000000  0.329163  1
