# generated using pymatgen
data_Ce14Dy6Ir11Os
_symmetry_space_group_name_H-M   'P 1'
_cell_length_a   11.10024648
_cell_length_b   11.12688387
_cell_length_c   6.28653034
_cell_angle_alpha   89.97867230
_cell_angle_beta   89.79687087
_cell_angle_gamma   90.03974012
_symmetry_Int_Tables_number   1
_chemical_formula_structural   Ce14Dy6Ir11Os
_chemical_formula_sum   'Ce14 Dy6 Ir11 Os1'
_cell_volume   776.45149361
_cell_formula_units_Z   1
loop_
 _symmetry_equiv_pos_site_id
 _symmetry_equiv_pos_as_xyz
  1  'x, y, z'
loop_
 _atom_site_type_symbol
 _atom_site_label
 _atom_site_symmetry_multiplicity
 _atom_site_fract_x
 _atom_site_fract_y
 _atom_site_fract_z
 _atom_site_occupancy
  Ce  Ce0  1  0.291429  0.089956  0.377273  1
  Ce  Ce1  1  0.291273  0.909888  0.881068  1
  Ce  Ce2  1  0.709749  0.090345  0.882683  1
  Ce  Ce3  1  0.709386  0.910236  0.379267  1
  Ce  Ce4  1  0.589571  0.789645  0.882906  1
  Ce  Ce5  1  0.589739  0.210818  0.378511  1
  Ce  Ce6  1  0.408204  0.789320  0.379546  1
  Ce  Ce7  1  0.408166  0.210669  0.883043  1
  Ce  Ce8  1  0.209039  0.410453  0.619820  1
  Ce  Ce9  1  0.208962  0.589204  0.119514  1
  Ce  Ce10  1  0.790863  0.409079  0.121312  1
  Ce  Ce11  1  0.791006  0.590629  0.620873  1
  Ce  Ce12  1  0.910981  0.712018  0.118289  1
  Ce  Ce13  1  0.910485  0.287663  0.619429  1
  Dy  Dy14  1  0.088957  0.711065  0.621808  1
  Dy  Dy15  1  0.088323  0.288939  0.121493  1
  Dy  Dy16  1  0.000323  0.998180  0.496991  1
  Dy  Dy17  1  0.000152  0.001986  0.996739  1
  Dy  Dy18  1  0.500494  0.499240  0.001442  1
  Dy  Dy19  1  0.500400  0.500681  0.501675  1
  Ir  Ir20  1  0.844378  0.156198  0.249983  1
  Ir  Ir21  1  0.843366  0.844699  0.749568  1
  Ir  Ir22  1  0.156498  0.154067  0.741478  1
  Ir  Ir23  1  0.155378  0.845147  0.241517  1
  Ir  Ir24  1  0.656860  0.343619  0.749996  1
  Ir  Ir25  1  0.657532  0.655330  0.249707  1
  Ir  Ir26  1  0.344142  0.344193  0.252861  1
  Ir  Ir27  1  0.345061  0.656710  0.752736  1
  Ir  Ir28  1  0.500606  0.000147  0.623090  1
  Ir  Ir29  1  0.998985  0.498415  0.881022  1
  Ir  Ir30  1  0.999114  0.501183  0.381038  1
  Os  Os31  1  0.500578  0.000276  0.123316  1
