# generated using pymatgen
data_Hf6Ti4Al4Ga8Co7
_symmetry_space_group_name_H-M   'P 1'
_cell_length_a   8.52517155
_cell_length_b   8.52517212
_cell_length_c   8.52517200
_cell_angle_alpha   60.00000047
_cell_angle_beta   59.99999824
_cell_angle_gamma   60.00000106
_symmetry_Int_Tables_number   1
_chemical_formula_structural   Hf6Ti4Al4Ga8Co7
_chemical_formula_sum   'Hf6 Ti4 Al4 Ga8 Co7'
_cell_volume   438.12136706
_cell_formula_units_Z   1
loop_
 _symmetry_equiv_pos_site_id
 _symmetry_equiv_pos_as_xyz
  1  'x, y, z'
loop_
 _atom_site_type_symbol
 _atom_site_label
 _atom_site_symmetry_multiplicity
 _atom_site_fract_x
 _atom_site_fract_y
 _atom_site_fract_z
 _atom_site_occupancy
  Hf  Hf0  1  0.693773  0.693773  0.306227  1
  Hf  Hf1  1  0.306227  0.693773  0.306227  1
  Hf  Hf2  1  0.693773  0.306227  0.306227  1
  Hf  Hf3  1  0.306227  0.306227  0.693773  1
  Hf  Hf4  1  0.693773  0.306227  0.693773  1
  Hf  Hf5  1  0.306227  0.693773  0.693773  1
  Ti  Ti6  1  0.879972  0.879972  0.360085  1
  Ti  Ti7  1  0.879972  0.360085  0.879972  1
  Ti  Ti8  1  0.360085  0.879972  0.879972  1
  Ti  Ti9  1  0.879972  0.879972  0.879972  1
  Al  Al10  1  0.119368  0.119368  0.641895  1
  Al  Al11  1  0.119368  0.641895  0.119368  1
  Al  Al12  1  0.641895  0.119368  0.119368  1
  Al  Al13  1  0.119368  0.119368  0.119368  1
  Ga  Ga14  1  0.661668  0.661668  0.014996  1
  Ga  Ga15  1  0.661668  0.014996  0.661668  1
  Ga  Ga16  1  0.014996  0.661668  0.661668  1
  Ga  Ga17  1  0.661668  0.661668  0.661668  1
  Ga  Ga18  1  0.337829  0.337829  0.986512  1
  Ga  Ga19  1  0.337829  0.986512  0.337829  1
  Ga  Ga20  1  0.986512  0.337829  0.337829  1
  Ga  Ga21  1  0.337829  0.337829  0.337829  1
  Co  Co22  1  0.000000  0.000000  0.000000  1
  Co  Co23  1  0.997893  0.997893  0.502107  1
  Co  Co24  1  0.502107  0.997893  0.502107  1
  Co  Co25  1  0.997893  0.502107  0.502107  1
  Co  Co26  1  0.502107  0.502107  0.997893  1
  Co  Co27  1  0.997893  0.502107  0.997893  1
  Co  Co28  1  0.502107  0.997893  0.997893  1
