# generated using pymatgen
data_Zn12CuPd5Pt6
_symmetry_space_group_name_H-M   'P 1'
_cell_length_a   4.09327300
_cell_length_b   6.92402800
_cell_length_c   12.29434301
_cell_angle_alpha   90.00000000
_cell_angle_beta   90.00434134
_cell_angle_gamma   90.00000000
_symmetry_Int_Tables_number   1
_chemical_formula_structural   Zn12CuPd5Pt6
_chemical_formula_sum   'Zn12 Cu1 Pd5 Pt6'
_cell_volume   348.44549259
_cell_formula_units_Z   1
loop_
 _symmetry_equiv_pos_site_id
 _symmetry_equiv_pos_as_xyz
  1  'x, y, z'
loop_
 _atom_site_type_symbol
 _atom_site_label
 _atom_site_symmetry_multiplicity
 _atom_site_fract_x
 _atom_site_fract_y
 _atom_site_fract_z
 _atom_site_occupancy
  Zn  Zn0  1  0.499969  0.250005  0.999401  1
  Zn  Zn1  1  0.499969  0.749996  0.999401  1
  Zn  Zn2  1  0.999823  0.250343  0.165833  1
  Zn  Zn3  1  0.999823  0.749658  0.165833  1
  Zn  Zn4  1  0.499826  0.250096  0.333331  1
  Zn  Zn5  1  0.499826  0.749903  0.333331  1
  Zn  Zn6  1  0.999991  0.250341  0.500829  1
  Zn  Zn7  1  0.999991  0.749658  0.500829  1
  Zn  Zn8  1  0.500136  0.250009  0.667265  1
  Zn  Zn9  1  0.500136  0.749990  0.667265  1
  Zn  Zn10  1  0.000106  0.248083  0.833331  1
  Zn  Zn11  1  0.000106  0.751918  0.833331  1
  Cu  Cu12  1  0.500826  0.500000  0.833387  1
  Pd  Pd13  1  0.999985  0.000000  0.999278  1
  Pd  Pd14  1  0.499798  0.500000  0.164699  1
  Pd  Pd15  1  0.999818  0.000000  0.333331  1
  Pd  Pd16  1  0.499987  0.500000  0.501957  1
  Pd  Pd17  1  0.000113  0.000000  0.667383  1
  Pt  Pt18  1  0.999918  0.500000  0.993141  1
  Pt  Pt19  1  0.499842  0.000000  0.166154  1
  Pt  Pt20  1  0.999830  0.500000  0.333330  1
  Pt  Pt21  1  0.499965  0.000000  0.500507  1
  Pt  Pt22  1  0.000118  0.500000  0.673520  1
  Pt  Pt23  1  0.500099  0.000000  0.833332  1
