# generated using pymatgen
data_Na4Ir2O9
_symmetry_space_group_name_H-M   'P 1'
_cell_length_a   5.90822913
_cell_length_b   5.90822859
_cell_length_c   13.71503915
_cell_angle_alpha   85.72800067
_cell_angle_beta   85.72800271
_cell_angle_gamma   118.71182498
_symmetry_Int_Tables_number   1
_chemical_formula_structural   Na4Ir2O9
_chemical_formula_sum   'Na8 Ir4 O18'
_cell_volume   415.38069205
_cell_formula_units_Z   2
loop_
 _symmetry_equiv_pos_site_id
 _symmetry_equiv_pos_as_xyz
  1  'x, y, z'
loop_
 _atom_site_type_symbol
 _atom_site_label
 _atom_site_symmetry_multiplicity
 _atom_site_fract_x
 _atom_site_fract_y
 _atom_site_fract_z
 _atom_site_occupancy
  Na  Na0  1  0.320456  0.661655  0.600595  1
  Na  Na1  1  0.954464  0.045536  0.750000  1
  Na  Na2  1  0.338345  0.679544  0.899405  1
  Na  Na3  1  0.679544  0.338345  0.399405  1
  Na  Na4  1  0.045536  0.954464  0.250000  1
  Na  Na5  1  0.661655  0.320456  0.100595  1
  Na  Na6  1  0.000000  0.000000  0.000000  1
  Na  Na7  1  0.000000  0.000000  0.500000  1
  Ir  Ir8  1  0.725785  0.395514  0.848129  1
  Ir  Ir9  1  0.395514  0.725785  0.348129  1
  Ir  Ir10  1  0.274215  0.604486  0.151871  1
  Ir  Ir11  1  0.604486  0.274215  0.651871  1
  O  O12  1  0.090067  0.265021  0.125648  1
  O  O13  1  0.734979  0.909933  0.374352  1
  O  O14  1  0.909933  0.734979  0.874352  1
  O  O15  1  0.265021  0.090067  0.625648  1
  O  O16  1  0.709612  0.063933  0.592583  1
  O  O17  1  0.936067  0.290388  0.907417  1
  O  O18  1  0.290388  0.936067  0.407417  1
  O  O19  1  0.063933  0.709612  0.092583  1
  O  O20  1  0.723640  0.539988  0.550657  1
  O  O21  1  0.460012  0.276360  0.949343  1
  O  O22  1  0.276360  0.460012  0.449343  1
  O  O23  1  0.539988  0.723640  0.050657  1
  O  O24  1  0.065172  0.541504  0.284564  1
  O  O25  1  0.458496  0.934828  0.215436  1
  O  O26  1  0.934828  0.458496  0.715436  1
  O  O27  1  0.541504  0.065172  0.784564  1
  O  O28  1  0.470984  0.529016  0.250000  1
  O  O29  1  0.529016  0.470984  0.750000  1
