# generated using pymatgen
data_Er4Co12P12Ru5Rh3
_symmetry_space_group_name_H-M   'P 1'
_cell_length_a   3.73707700
_cell_length_b   10.45168728
_cell_length_c   11.98253333
_cell_angle_alpha   90.02668017
_cell_angle_beta   90.00000000
_cell_angle_gamma   90.00000000
_symmetry_Int_Tables_number   1
_chemical_formula_structural   Er4Co12P12Ru5Rh3
_chemical_formula_sum   'Er4 Co12 P12 Ru5 Rh3'
_cell_volume   468.02284447
_cell_formula_units_Z   1
loop_
 _symmetry_equiv_pos_site_id
 _symmetry_equiv_pos_as_xyz
  1  'x, y, z'
loop_
 _atom_site_type_symbol
 _atom_site_label
 _atom_site_symmetry_multiplicity
 _atom_site_fract_x
 _atom_site_fract_y
 _atom_site_fract_z
 _atom_site_occupancy
  Er  Er0  1  0.250000  0.585328  0.709660  1
  Er  Er1  1  0.250000  0.914262  0.210393  1
  Er  Er2  1  0.750000  0.414326  0.290721  1
  Er  Er3  1  0.750000  0.086044  0.789672  1
  Co  Co4  1  0.250000  0.223434  0.179221  1
  Co  Co5  1  0.250000  0.274955  0.678039  1
  Co  Co6  1  0.750000  0.776520  0.821668  1
  Co  Co7  1  0.750000  0.723837  0.321194  1
  Co  Co8  1  0.250000  0.884336  0.698637  1
  Co  Co9  1  0.250000  0.616078  0.199164  1
  Co  Co10  1  0.750000  0.115890  0.301340  1
  Co  Co11  1  0.750000  0.384359  0.799524  1
  Co  Co12  1  0.250000  0.463082  0.932159  1
  Co  Co13  1  0.250000  0.037051  0.432256  1
  Co  Co14  1  0.750000  0.536663  0.067190  1
  Co  Co15  1  0.750000  0.962929  0.567271  1
  P  P16  1  0.250000  0.421769  0.112133  1
  P  P17  1  0.250000  0.077416  0.611873  1
  P  P18  1  0.750000  0.577839  0.887664  1
  P  P19  1  0.750000  0.921787  0.387805  1
  P  P20  1  0.250000  0.274342  0.862552  1
  P  P21  1  0.250000  0.228090  0.365457  1
  P  P22  1  0.750000  0.725639  0.136953  1
  P  P23  1  0.750000  0.774491  0.637036  1
  P  P24  1  0.250000  0.600806  0.382561  1
  P  P25  1  0.250000  0.895993  0.881085  1
  P  P26  1  0.750000  0.396869  0.615299  1
  P  P27  1  0.750000  0.104550  0.119405  1
  Ru  Ru28  1  0.250000  0.709139  0.985257  1
  Ru  Ru29  1  0.250000  0.791284  0.484073  1
  Ru  Ru30  1  0.750000  0.290725  0.014531  1
  Ru  Ru31  1  0.750000  0.207628  0.514956  1
  Ru  Ru32  1  0.250000  0.405132  0.485561  1
  Rh  Rh33  1  0.250000  0.094908  0.982809  1
  Rh  Rh34  1  0.750000  0.597143  0.517684  1
  Rh  Rh35  1  0.750000  0.905357  0.017194  1
