# generated using pymatgen
data_Sr4GaSnPd4
_symmetry_space_group_name_H-M   'P 1'
_cell_length_a   5.98386693
_cell_length_b   5.98386736
_cell_length_c   8.34766866
_cell_angle_alpha   79.08962845
_cell_angle_beta   79.08962877
_cell_angle_gamma   60.91869218
_symmetry_Int_Tables_number   1
_chemical_formula_structural   Sr4GaSnPd4
_chemical_formula_sum   'Sr4 Ga1 Sn1 Pd4'
_cell_volume   254.84479620
_cell_formula_units_Z   1
loop_
 _symmetry_equiv_pos_site_id
 _symmetry_equiv_pos_as_xyz
  1  'x, y, z'
loop_
 _atom_site_type_symbol
 _atom_site_label
 _atom_site_symmetry_multiplicity
 _atom_site_fract_x
 _atom_site_fract_y
 _atom_site_fract_z
 _atom_site_occupancy
  Sr  Sr0  1  0.785813  0.514094  0.349547  1
  Sr  Sr1  1  0.485906  0.214187  0.150453  1
  Sr  Sr2  1  0.212576  0.488302  0.648280  1
  Sr  Sr3  1  0.511698  0.787424  0.851720  1
  Ga  Ga4  1  0.881957  0.118043  0.750000  1
  Sn  Sn5  1  0.136120  0.863880  0.250000  1
  Pd  Pd6  1  0.997583  0.739794  0.991284  1
  Pd  Pd7  1  0.260206  0.002417  0.508716  1
  Pd  Pd8  1  0.989765  0.261625  0.987371  1
  Pd  Pd9  1  0.738375  0.010235  0.512629  1
