# generated using pymatgen
data_Zr2Be2GeIr5
_symmetry_space_group_name_H-M   'P 1'
_cell_length_a   9.31050000
_cell_length_b   9.31050000
_cell_length_c   3.33471500
_cell_angle_alpha   90.00000000
_cell_angle_beta   90.00000000
_cell_angle_gamma   90.00000000
_symmetry_Int_Tables_number   1
_chemical_formula_structural   Zr2Be2GeIr5
_chemical_formula_sum   'Zr4 Be4 Ge2 Ir10'
_cell_volume   289.07113784
_cell_formula_units_Z   2
loop_
 _symmetry_equiv_pos_site_id
 _symmetry_equiv_pos_as_xyz
  1  'x, y, z'
loop_
 _atom_site_type_symbol
 _atom_site_label
 _atom_site_symmetry_multiplicity
 _atom_site_fract_x
 _atom_site_fract_y
 _atom_site_fract_z
 _atom_site_occupancy
  Zr  Zr0  1  0.675097  0.175097  0.000000  1
  Zr  Zr1  1  0.324903  0.824903  0.000000  1
  Zr  Zr2  1  0.175097  0.324903  0.000000  1
  Zr  Zr3  1  0.824903  0.675097  0.000000  1
  Be  Be4  1  0.121577  0.621577  0.000000  1
  Be  Be5  1  0.878423  0.378423  0.000000  1
  Be  Be6  1  0.621577  0.878423  0.000000  1
  Be  Be7  1  0.378423  0.121577  0.000000  1
  Ge  Ge8  1  0.000000  0.000000  0.000000  1
  Ge  Ge9  1  0.500000  0.500000  0.000000  1
  Ir  Ir10  1  0.210721  0.069677  0.500000  1
  Ir  Ir11  1  0.789279  0.930323  0.500000  1
  Ir  Ir12  1  0.069677  0.789279  0.500000  1
  Ir  Ir13  1  0.710721  0.430323  0.500000  1
  Ir  Ir14  1  0.930323  0.210721  0.500000  1
  Ir  Ir15  1  0.289279  0.569677  0.500000  1
  Ir  Ir16  1  0.569677  0.710721  0.500000  1
  Ir  Ir17  1  0.430323  0.289279  0.500000  1
  Ir  Ir18  1  0.500000  0.000000  0.500000  1
  Ir  Ir19  1  0.000000  0.500000  0.500000  1
