# generated using pymatgen
data_CaCrSbAs2O7
_symmetry_space_group_name_H-M   'P 1'
_cell_length_a   12.87240781
_cell_length_b   12.87240750
_cell_length_c   12.87240754
_cell_angle_alpha   100.29965516
_cell_angle_beta   100.29965726
_cell_angle_gamma   129.97156577
_symmetry_Int_Tables_number   1
_chemical_formula_structural   CaCrSbAs2O7
_chemical_formula_sum   'Ca8 Cr8 Sb8 As16 O56'
_cell_volume   1481.28806299
_cell_formula_units_Z   8
loop_
 _symmetry_equiv_pos_site_id
 _symmetry_equiv_pos_as_xyz
  1  'x, y, z'
loop_
 _atom_site_type_symbol
 _atom_site_label
 _atom_site_symmetry_multiplicity
 _atom_site_fract_x
 _atom_site_fract_y
 _atom_site_fract_z
 _atom_site_occupancy
  Ca  Ca0  1  0.803778  0.461381  0.962367  1
  Ca  Ca1  1  0.711381  0.249014  0.157603  1
  Ca  Ca2  1  0.158589  0.196222  0.657603  1
  Ca  Ca3  1  0.538619  0.500986  0.342397  1
  Ca  Ca4  1  0.446222  0.288619  0.537633  1
  Ca  Ca5  1  0.750986  0.908589  0.462367  1
  Ca  Ca6  1  0.091411  0.553778  0.842397  1
  Ca  Ca7  1  0.499014  0.841411  0.037633  1
  Cr  Cr8  1  0.364534  0.109437  0.732276  1
  Cr  Cr9  1  0.377161  0.632258  0.267724  1
  Cr  Cr10  1  0.367742  0.635466  0.744902  1
  Cr  Cr11  1  0.359437  0.127161  0.244902  1
  Cr  Cr12  1  0.882258  0.114534  0.755098  1
  Cr  Cr13  1  0.885466  0.640563  0.767724  1
  Cr  Cr14  1  0.890563  0.622839  0.255098  1
  Cr  Cr15  1  0.872839  0.117742  0.232276  1
  Sb  Sb16  1  0.934823  0.786010  0.503119  1
  Sb  Sb17  1  0.282890  0.431704  0.496881  1
  Sb  Sb18  1  0.315177  0.963990  0.996881  1
  Sb  Sb19  1  0.568296  0.065177  0.851186  1
  Sb  Sb20  1  0.967110  0.318296  0.003119  1
  Sb  Sb21  1  0.681704  0.684823  0.648814  1
  Sb  Sb22  1  0.213990  0.717110  0.148814  1
  Sb  Sb23  1  0.036010  0.032890  0.351186  1
  As  As24  1  0.263293  0.937674  0.428591  1
  As  As25  1  0.528858  0.361350  0.041799  1
  As  As26  1  0.930450  0.262942  0.541799  1
  As  As27  1  0.084702  0.013293  0.825619  1
  As  As28  1  0.737058  0.278858  0.667508  1
  As  As29  1  0.509083  0.834702  0.571409  1
  As  As30  1  0.062326  0.490917  0.325619  1
  As  As31  1  0.512942  0.471142  0.832492  1
  As  As32  1  0.187674  0.259083  0.174381  1
  As  As33  1  0.740917  0.915298  0.928591  1
  As  As34  1  0.721142  0.388650  0.458201  1
  As  As35  1  0.611350  0.069550  0.332492  1
  As  As36  1  0.986707  0.812326  0.071409  1
  As  As37  1  0.319550  0.487058  0.958201  1
  As  As38  1  0.638650  0.680450  0.167508  1
  As  As39  1  0.165298  0.736707  0.674381  1
  O  O40  1  0.577455  0.701517  0.275106  1
  O  O41  1  0.730079  0.093991  0.458910  1
  O  O42  1  0.294845  0.446608  0.659709  1
  O  O43  1  0.758030  0.996389  0.067419  1
  O  O44  1  0.696608  0.536899  0.651763  1
  O  O45  1  0.364864  0.705155  0.151763  1
  O  O46  1  0.064734  0.809325  0.389726  1
  O  O47  1  0.321030  0.059389  0.567419  1
  O  O48  1  0.740125  0.725875  0.516280  1
  O  O49  1  0.940611  0.508030  0.261641  1
  O  O50  1  0.274125  0.790405  0.014250  1
  O  O51  1  0.003611  0.071030  0.761641  1
  O  O52  1  0.519921  0.656009  0.041090  1
  O  O53  1  0.885136  0.044845  0.348237  1
  O  O54  1  0.552350  0.327455  0.375938  1
  O  O55  1  0.698652  0.923428  0.634050  1
  O  O56  1  0.614919  0.478831  0.958910  1
  O  O57  1  0.830400  0.074992  0.889726  1
  O  O58  1  0.697650  0.422545  0.124062  1
  O  O59  1  0.672545  0.048483  0.224894  1
  O  O60  1  0.190675  0.580400  0.255408  1
  O  O61  1  0.635081  0.271169  0.541090  1
  O  O62  1  0.491970  0.753611  0.432581  1
  O  O63  1  0.823589  0.447650  0.775106  1
  O  O64  1  0.960622  0.685398  0.134050  1
  O  O65  1  0.975875  0.959595  0.485750  1
  O  O66  1  0.209595  0.223845  0.483720  1
  O  O67  1  0.173428  0.039378  0.724776  1
  O  O68  1  0.776155  0.259875  0.985750  1
  O  O69  1  0.521169  0.480079  0.136087  1
  O  O70  1  0.509875  0.024125  0.983720  1
  O  O71  1  0.059325  0.169600  0.244592  1
  O  O72  1  0.076572  0.710622  0.775224  1
  O  O73  1  0.343991  0.385081  0.863913  1
  O  O74  1  0.246389  0.678970  0.738359  1
  O  O75  1  0.324992  0.935266  0.744592  1
  O  O76  1  0.955155  0.303392  0.840291  1
  O  O77  1  0.935398  0.301348  0.224776  1
  O  O78  1  0.314602  0.448652  0.275224  1
  O  O79  1  0.463101  0.114864  0.159709  1
  O  O80  1  0.185266  0.940675  0.110274  1
  O  O81  1  0.786899  0.635136  0.340291  1
  O  O82  1  0.473845  0.490125  0.514250  1
  O  O83  1  0.925008  0.814734  0.755408  1
  O  O84  1  0.551348  0.826572  0.865950  1
  O  O85  1  0.426411  0.302350  0.724894  1
  O  O86  1  0.289378  0.064602  0.365950  1
  O  O87  1  0.906009  0.364919  0.636087  1
  O  O88  1  0.928970  0.690611  0.932581  1
  O  O89  1  0.419600  0.675008  0.610274  1
  O  O90  1  0.951517  0.176411  0.624062  1
  O  O91  1  0.298483  0.573589  0.875938  1
  O  O92  1  0.553392  0.213101  0.848237  1
  O  O93  1  0.728831  0.269921  0.363913  1
  O  O94  1  0.040405  0.526155  0.016280  1
  O  O95  1  0.309389  0.241970  0.238359  1
