# generated using pymatgen
data_U4Ga2Re7Si4
_symmetry_space_group_name_H-M   'P 1'
_cell_length_a   7.18431638
_cell_length_b   7.18604154
_cell_length_c   7.18431538
_cell_angle_alpha   109.33002925
_cell_angle_beta   109.74428796
_cell_angle_gamma   109.33003093
_symmetry_Int_Tables_number   1
_chemical_formula_structural   U4Ga2Re7Si4
_chemical_formula_sum   'U4 Ga2 Re7 Si4'
_cell_volume   285.55048191
_cell_formula_units_Z   1
loop_
 _symmetry_equiv_pos_site_id
 _symmetry_equiv_pos_as_xyz
  1  'x, y, z'
loop_
 _atom_site_type_symbol
 _atom_site_label
 _atom_site_symmetry_multiplicity
 _atom_site_fract_x
 _atom_site_fract_y
 _atom_site_fract_z
 _atom_site_occupancy
  U  U0  1  0.515500  0.514314  0.515500  1
  U  U1  1  0.998895  0.997790  0.498895  1
  U  U2  1  0.498895  0.997790  0.998895  1
  U  U3  1  0.998814  0.514314  0.998814  1
  Ga  Ga4  1  0.296484  0.300835  0.004351  1
  Ga  Ga5  1  0.004351  0.300835  0.296484  1
  Re  Re6  1  0.751397  0.252810  0.501413  1
  Re  Re7  1  0.501413  0.252810  0.751397  1
  Re  Re8  1  0.502200  0.756502  0.254303  1
  Re  Re9  1  0.251949  0.503898  0.751949  1
  Re  Re10  1  0.751949  0.503898  0.251949  1
  Re  Re11  1  0.254303  0.756502  0.502200  1
  Re  Re12  1  0.982282  0.964564  0.982282  1
  Si  Si13  1  0.003179  0.685450  0.682270  1
  Si  Si14  1  0.694531  0.006120  0.694531  1
  Si  Si15  1  0.311589  0.006120  0.311589  1
  Si  Si16  1  0.682270  0.685450  0.003179  1
