# generated using pymatgen
data_PrCuSeS
_symmetry_space_group_name_H-M   'P 1'
_cell_length_a   7.40883500
_cell_length_b   6.57491880
_cell_length_c   7.16807000
_cell_angle_alpha   83.83894392
_cell_angle_beta   90.00000000
_cell_angle_gamma   90.00000000
_symmetry_Int_Tables_number   1
_chemical_formula_structural   PrCuSeS
_chemical_formula_sum   'Pr4 Cu4 Se4 S4'
_cell_volume   347.15774501
_cell_formula_units_Z   4
loop_
 _symmetry_equiv_pos_site_id
 _symmetry_equiv_pos_as_xyz
  1  'x, y, z'
loop_
 _atom_site_type_symbol
 _atom_site_label
 _atom_site_symmetry_multiplicity
 _atom_site_fract_x
 _atom_site_fract_y
 _atom_site_fract_z
 _atom_site_occupancy
  Pr  Pr0  1  0.959167  0.824253  0.789482  1
  Pr  Pr1  1  0.459167  0.175747  0.710518  1
  Pr  Pr2  1  0.040833  0.175747  0.210518  1
  Pr  Pr3  1  0.540833  0.824253  0.289482  1
  Cu  Cu4  1  0.839893  0.421078  0.545944  1
  Cu  Cu5  1  0.339893  0.578922  0.954056  1
  Cu  Cu6  1  0.160107  0.578922  0.454056  1
  Cu  Cu7  1  0.660107  0.421078  0.045944  1
  Se  Se8  1  0.388696  0.398319  0.278716  1
  Se  Se9  1  0.888696  0.601681  0.221284  1
  Se  Se10  1  0.611304  0.601681  0.721284  1
  Se  Se11  1  0.111304  0.398319  0.778716  1
  S  S12  1  0.772957  0.084984  0.500617  1
  S  S13  1  0.272957  0.915016  0.999383  1
  S  S14  1  0.227043  0.915016  0.499383  1
  S  S15  1  0.727043  0.084984  0.000617  1
