# generated using pymatgen
data_LiPr8LuSi6
_symmetry_space_group_name_H-M   'P 1'
_cell_length_a   7.65921407
_cell_length_b   7.65921304
_cell_length_c   8.99343594
_cell_angle_alpha   115.20273511
_cell_angle_beta   115.20272827
_cell_angle_gamma   90.00000422
_symmetry_Int_Tables_number   1
_chemical_formula_structural   LiPr8LuSi6
_chemical_formula_sum   'Li1 Pr8 Lu1 Si6'
_cell_volume   421.19495856
_cell_formula_units_Z   1
loop_
 _symmetry_equiv_pos_site_id
 _symmetry_equiv_pos_as_xyz
  1  'x, y, z'
loop_
 _atom_site_type_symbol
 _atom_site_label
 _atom_site_symmetry_multiplicity
 _atom_site_fract_x
 _atom_site_fract_y
 _atom_site_fract_z
 _atom_site_occupancy
  Li  Li0  1  0.500000  0.500000  0.000000  1
  Pr  Pr1  1  0.957315  0.815480  0.286198  1
  Pr  Pr2  1  0.328883  0.470719  0.286198  1
  Pr  Pr3  1  0.815480  0.328883  0.286198  1
  Pr  Pr4  1  0.470719  0.957315  0.286198  1
  Pr  Pr5  1  0.042685  0.184520  0.713802  1
  Pr  Pr6  1  0.671117  0.529281  0.713802  1
  Pr  Pr7  1  0.184520  0.671117  0.713802  1
  Pr  Pr8  1  0.529281  0.042685  0.713802  1
  Lu  Lu9  1  0.000000  0.000000  0.000000  1
  Si  Si10  1  0.768093  0.768093  0.536187  1
  Si  Si11  1  0.231907  0.231907  0.463813  1
  Si  Si12  1  0.619589  0.889338  0.000000  1
  Si  Si13  1  0.380411  0.110662  0.000000  1
  Si  Si14  1  0.889338  0.380411  0.000000  1
  Si  Si15  1  0.110662  0.619589  0.000000  1
