# generated using pymatgen
data_Ac8Co7O24
_symmetry_space_group_name_H-M   'P 1'
_cell_length_a   8.00806132
_cell_length_b   8.00724290
_cell_length_c   9.66168800
_cell_angle_alpha   113.76284820
_cell_angle_beta   113.75579869
_cell_angle_gamma   90.56642638
_symmetry_Int_Tables_number   1
_chemical_formula_structural   Ac8Co7O24
_chemical_formula_sum   'Ac8 Co7 O24'
_cell_volume   507.88098139
_cell_formula_units_Z   1
loop_
 _symmetry_equiv_pos_site_id
 _symmetry_equiv_pos_as_xyz
  1  'x, y, z'
loop_
 _atom_site_type_symbol
 _atom_site_label
 _atom_site_symmetry_multiplicity
 _atom_site_fract_x
 _atom_site_fract_y
 _atom_site_fract_z
 _atom_site_occupancy
  Ac  Ac0  1  0.864785  0.380442  0.243362  1
  Ac  Ac1  1  0.621945  0.134304  0.756792  1
  Ac  Ac2  1  0.622463  0.619090  0.757791  1
  Ac  Ac3  1  0.863334  0.867511  0.242632  1
  Ac  Ac4  1  0.378055  0.865696  0.243208  1
  Ac  Ac5  1  0.135215  0.619558  0.756638  1
  Ac  Ac6  1  0.136666  0.132489  0.757368  1
  Ac  Ac7  1  0.377537  0.380910  0.242209  1
  Co  Co8  1  0.500000  0.000000  0.000000  1
  Co  Co9  1  0.749812  0.250472  0.499742  1
  Co  Co10  1  0.756835  0.755480  0.511922  1
  Co  Co11  1  0.000000  0.500000  0.000000  1
  Co  Co12  1  0.250188  0.749528  0.500257  1
  Co  Co13  1  0.243165  0.244520  0.488078  1
  Co  Co14  1  0.000000  0.000000  0.000000  1
  O  O15  1  0.964419  0.740150  0.973985  1
  O  O16  1  0.899351  0.350254  0.752829  1
  O  O17  1  0.851591  0.899029  0.750865  1
  O  O18  1  0.763223  0.476184  0.985415  1
  O  O19  1  0.975636  0.216508  0.470377  1
  O  O20  1  0.786500  0.505455  0.529058  1
  O  O21  1  0.719050  0.001814  0.479542  1
  O  O22  1  0.478381  0.220250  0.981101  1
  O  O23  1  0.400462  0.849638  0.751071  1
  O  O24  1  0.767732  0.033715  0.027391  1
  O  O25  1  0.656972  0.629322  0.283007  1
  O  O26  1  0.521727  0.279439  0.520828  1
  O  O27  1  0.343028  0.370678  0.716993  1
  O  O28  1  0.478273  0.720561  0.479172  1
  O  O29  1  0.232268  0.966285  0.972609  1
  O  O30  1  0.599538  0.150362  0.248929  1
  O  O31  1  0.280950  0.998186  0.520458  1
  O  O32  1  0.521619  0.779750  0.018899  1
  O  O33  1  0.213500  0.494545  0.470942  1
  O  O34  1  0.236777  0.523816  0.014585  1
  O  O35  1  0.024364  0.783492  0.529623  1
  O  O36  1  0.148409  0.100971  0.249135  1
  O  O37  1  0.100649  0.649746  0.247171  1
  O  O38  1  0.035581  0.259850  0.026015  1
