# generated using pymatgen
data_YbEu3(YSe2)8
_symmetry_space_group_name_H-M   'P 1'
_cell_length_a   4.08647300
_cell_length_b   13.60310712
_cell_length_c   13.88857613
_cell_angle_alpha   89.98449400
_cell_angle_beta   90.00000000
_cell_angle_gamma   90.00000000
_symmetry_Int_Tables_number   1
_chemical_formula_structural   YbEu3(YSe2)8
_chemical_formula_sum   'Yb1 Eu3 Y8 Se16'
_cell_volume   772.04827987
_cell_formula_units_Z   1
loop_
 _symmetry_equiv_pos_site_id
 _symmetry_equiv_pos_as_xyz
  1  'x, y, z'
loop_
 _atom_site_type_symbol
 _atom_site_label
 _atom_site_symmetry_multiplicity
 _atom_site_fract_x
 _atom_site_fract_y
 _atom_site_fract_z
 _atom_site_occupancy
  Yb  Yb0  1  0.750000  0.130852  0.082000  1
  Eu  Eu1  1  0.250000  0.367445  0.584662  1
  Eu  Eu2  1  0.250000  0.868536  0.915478  1
  Eu  Eu3  1  0.750000  0.632255  0.414309  1
  Y  Y4  1  0.250000  0.105419  0.415867  1
  Y  Y5  1  0.250000  0.605719  0.082445  1
  Y  Y6  1  0.750000  0.895093  0.582447  1
  Y  Y7  1  0.750000  0.392549  0.919837  1
  Y  Y8  1  0.250000  0.148805  0.799744  1
  Y  Y9  1  0.250000  0.649006  0.701565  1
  Y  Y10  1  0.750000  0.853834  0.199778  1
  Y  Y11  1  0.750000  0.348813  0.297329  1
  Se  Se12  1  0.250000  0.213342  0.235278  1
  Se  Se13  1  0.250000  0.717208  0.261467  1
  Se  Se14  1  0.750000  0.785258  0.762395  1
  Se  Se15  1  0.750000  0.284864  0.738899  1
  Se  Se16  1  0.250000  0.256388  0.977335  1
  Se  Se17  1  0.250000  0.759307  0.525779  1
  Se  Se18  1  0.750000  0.741299  0.025526  1
  Se  Se19  1  0.750000  0.240181  0.474059  1
  Se  Se20  1  0.250000  0.467564  0.381925  1
  Se  Se21  1  0.250000  0.973050  0.116897  1
  Se  Se22  1  0.750000  0.531682  0.617197  1
  Se  Se23  1  0.750000  0.032832  0.886195  1
  Se  Se24  1  0.250000  0.036911  0.619268  1
  Se  Se25  1  0.250000  0.534897  0.881669  1
  Se  Se26  1  0.750000  0.963060  0.381306  1
  Se  Se27  1  0.750000  0.463832  0.119343  1
