# generated using pymatgen
data_La12Co5Sn
_symmetry_space_group_name_H-M   'P 1'
_cell_length_a   8.72993982
_cell_length_b   8.73125533
_cell_length_c   8.72993812
_cell_angle_alpha   109.59440994
_cell_angle_beta   111.57243413
_cell_angle_gamma   107.26958422
_symmetry_Int_Tables_number   1
_chemical_formula_structural   La12Co5Sn
_chemical_formula_sum   'La12 Co5 Sn1'
_cell_volume   511.55850496
_cell_formula_units_Z   1
loop_
 _symmetry_equiv_pos_site_id
 _symmetry_equiv_pos_as_xyz
  1  'x, y, z'
loop_
 _atom_site_type_symbol
 _atom_site_label
 _atom_site_symmetry_multiplicity
 _atom_site_fract_x
 _atom_site_fract_y
 _atom_site_fract_z
 _atom_site_occupancy
  La  La0  1  0.310562  0.178914  0.489446  1
  La  La1  1  0.689438  0.821086  0.510554  1
  La  La2  1  0.310531  0.821086  0.131648  1
  La  La3  1  0.689469  0.178914  0.868352  1
  La  La4  1  0.641526  0.326355  0.315106  1
  La  La5  1  0.358474  0.673645  0.684894  1
  La  La6  1  0.011249  0.326355  0.684830  1
  La  La7  1  0.988751  0.673645  0.315170  1
  La  La8  1  0.192882  0.377292  0.184410  1
  La  La9  1  0.807118  0.622708  0.815590  1
  La  La10  1  0.192870  0.008508  0.815638  1
  La  La11  1  0.807130  0.991492  0.184362  1
  Co  Co12  1  0.999986  0.358156  0.358170  1
  Co  Co13  1  0.000014  0.641844  0.641830  1
  Co  Co14  1  0.370841  0.870858  0.500017  1
  Co  Co15  1  0.629159  0.129142  0.499983  1
  Co  Co16  1  0.000000  0.000000  0.000000  1
  Sn  Sn17  1  0.500000  0.500000  0.000000  1
