# generated using pymatgen
data_Ca2As3IO6
_symmetry_space_group_name_H-M   'P 1'
_cell_length_a   5.42880500
_cell_length_b   8.40167295
_cell_length_c   10.54753886
_cell_angle_alpha   73.28039636
_cell_angle_beta   90.00000000
_cell_angle_gamma   90.00000000
_symmetry_Int_Tables_number   1
_chemical_formula_structural   Ca2As3IO6
_chemical_formula_sum   'Ca4 As6 I2 O12'
_cell_volume   460.74599889
_cell_formula_units_Z   2
loop_
 _symmetry_equiv_pos_site_id
 _symmetry_equiv_pos_as_xyz
  1  'x, y, z'
loop_
 _atom_site_type_symbol
 _atom_site_label
 _atom_site_symmetry_multiplicity
 _atom_site_fract_x
 _atom_site_fract_y
 _atom_site_fract_z
 _atom_site_occupancy
  Ca  Ca0  1  0.250000  0.133772  0.402067  1
  Ca  Ca1  1  0.750000  0.866228  0.597933  1
  Ca  Ca2  1  0.250000  0.067820  0.760557  1
  Ca  Ca3  1  0.750000  0.932180  0.239443  1
  As  As4  1  0.250000  0.723619  0.433164  1
  As  As5  1  0.750000  0.276381  0.566836  1
  As  As6  1  0.250000  0.571561  0.176323  1
  As  As7  1  0.750000  0.428439  0.823677  1
  As  As8  1  0.250000  0.625618  0.811159  1
  As  As9  1  0.750000  0.374382  0.188841  1
  I  I10  1  0.750000  0.827985  0.955018  1
  I  I11  1  0.250000  0.172015  0.044982  1
  O  O12  1  0.989040  0.559596  0.719826  1
  O  O13  1  0.489040  0.440404  0.280174  1
  O  O14  1  0.010960  0.440404  0.280174  1
  O  O15  1  0.510960  0.559596  0.719826  1
  O  O16  1  0.009454  0.872204  0.418413  1
  O  O17  1  0.509454  0.127796  0.581587  1
  O  O18  1  0.990546  0.127796  0.581587  1
  O  O19  1  0.490546  0.872204  0.418413  1
  O  O20  1  0.750000  0.257624  0.751985  1
  O  O21  1  0.250000  0.742376  0.248015  1
  O  O22  1  0.250000  0.828433  0.708467  1
  O  O23  1  0.750000  0.171567  0.291533  1
