# generated using pymatgen
data_Rb8GdDy3F20
_symmetry_space_group_name_H-M   'P 1'
_cell_length_a   6.98749668
_cell_length_b   7.49510800
_cell_length_c   11.56971310
_cell_angle_alpha   90.00000000
_cell_angle_beta   90.12662765
_cell_angle_gamma   90.00000000
_symmetry_Int_Tables_number   1
_chemical_formula_structural   Rb8GdDy3F20
_chemical_formula_sum   'Rb8 Gd1 Dy3 F20'
_cell_volume   605.92802398
_cell_formula_units_Z   1
loop_
 _symmetry_equiv_pos_site_id
 _symmetry_equiv_pos_as_xyz
  1  'x, y, z'
loop_
 _atom_site_type_symbol
 _atom_site_label
 _atom_site_symmetry_multiplicity
 _atom_site_fract_x
 _atom_site_fract_y
 _atom_site_fract_z
 _atom_site_occupancy
  Rb  Rb0  1  0.531939  0.497435  0.829240  1
  Rb  Rb1  1  0.467948  0.501440  0.170721  1
  Rb  Rb2  1  0.031645  0.500983  0.672372  1
  Rb  Rb3  1  0.467948  0.998560  0.170721  1
  Rb  Rb4  1  0.968223  0.496953  0.327840  1
  Rb  Rb5  1  0.531939  0.002565  0.829240  1
  Rb  Rb6  1  0.968223  0.003047  0.327840  1
  Rb  Rb7  1  0.031645  0.999017  0.672372  1
  Gd  Gd8  1  0.559915  0.750000  0.501111  1
  Dy  Dy9  1  0.439944  0.250000  0.498992  1
  Dy  Dy10  1  0.058209  0.250000  0.999052  1
  Dy  Dy11  1  0.941263  0.750000  0.001089  1
  F  F12  1  0.847156  0.750000  0.817819  1
  F  F13  1  0.152359  0.250000  0.182009  1
  F  F14  1  0.346497  0.250000  0.682400  1
  F  F15  1  0.655225  0.750000  0.314702  1
  F  F16  1  0.374368  0.750000  0.659801  1
  F  F17  1  0.623576  0.250000  0.343267  1
  F  F18  1  0.875872  0.250000  0.842977  1
  F  F19  1  0.123379  0.750000  0.157224  1
  F  F20  1  0.880137  0.750000  0.515092  1
  F  F21  1  0.124945  0.250000  0.484808  1
  F  F22  1  0.372660  0.250000  0.983907  1
  F  F23  1  0.626957  0.750000  0.015986  1
  F  F24  1  0.639682  0.037009  0.573305  1
  F  F25  1  0.360087  0.970350  0.426305  1
  F  F26  1  0.138455  0.966502  0.928783  1
  F  F27  1  0.360087  0.529650  0.426305  1
  F  F28  1  0.860791  0.033835  0.071317  1
  F  F29  1  0.639682  0.462991  0.573305  1
  F  F30  1  0.860791  0.466165  0.071317  1
  F  F31  1  0.138455  0.533498  0.928783  1
