# generated using pymatgen
data_Sc5VSi7Ni16
_symmetry_space_group_name_H-M   'P 1'
_cell_length_a   8.04253146
_cell_length_b   8.04253153
_cell_length_c   8.01670700
_cell_angle_alpha   60.10616624
_cell_angle_beta   60.10616597
_cell_angle_gamma   59.78767724
_symmetry_Int_Tables_number   1
_chemical_formula_structural   Sc5VSi7Ni16
_chemical_formula_sum   'Sc5 V1 Si7 Ni16'
_cell_volume   366.65503864
_cell_formula_units_Z   1
loop_
 _symmetry_equiv_pos_site_id
 _symmetry_equiv_pos_as_xyz
  1  'x, y, z'
loop_
 _atom_site_type_symbol
 _atom_site_label
 _atom_site_symmetry_multiplicity
 _atom_site_fract_x
 _atom_site_fract_y
 _atom_site_fract_z
 _atom_site_occupancy
  Sc  Sc0  1  0.299332  0.704684  0.295316  1
  Sc  Sc1  1  0.704684  0.299332  0.295316  1
  Sc  Sc2  1  0.289215  0.289215  0.710785  1
  Sc  Sc3  1  0.704684  0.299332  0.700668  1
  Sc  Sc4  1  0.299332  0.704684  0.700668  1
  V  V5  1  0.707136  0.707136  0.292864  1
  Si  Si6  1  0.003808  0.003808  0.996192  1
  Si  Si7  1  0.998867  0.998867  0.501133  1
  Si  Si8  1  0.506631  0.994871  0.493369  1
  Si  Si9  1  0.994871  0.506631  0.493369  1
  Si  Si10  1  0.498867  0.498867  0.001133  1
  Si  Si11  1  0.994871  0.506631  0.005129  1
  Si  Si12  1  0.506631  0.994871  0.005129  1
  Ni  Ni13  1  0.880297  0.880297  0.352424  1
  Ni  Ni14  1  0.879577  0.358320  0.881051  1
  Ni  Ni15  1  0.358320  0.879577  0.881051  1
  Ni  Ni16  1  0.880297  0.880297  0.886981  1
  Ni  Ni17  1  0.118949  0.118949  0.641680  1
  Ni  Ni18  1  0.113019  0.647576  0.119703  1
  Ni  Ni19  1  0.647576  0.113019  0.119703  1
  Ni  Ni20  1  0.118949  0.118949  0.120423  1
  Ni  Ni21  1  0.668120  0.668120  0.995345  1
  Ni  Ni22  1  0.667725  0.993077  0.669598  1
  Ni  Ni23  1  0.993077  0.667725  0.669598  1
  Ni  Ni24  1  0.668120  0.668120  0.668415  1
  Ni  Ni25  1  0.330402  0.330402  0.006923  1
  Ni  Ni26  1  0.331585  0.004655  0.331880  1
  Ni  Ni27  1  0.004655  0.331585  0.331880  1
  Ni  Ni28  1  0.330402  0.330402  0.332275  1
