# generated using pymatgen
data_Ca4Pr8Zr4Ga15FeO48
_symmetry_space_group_name_H-M   'P 1'
_cell_length_a   11.00739546
_cell_length_b   11.08727008
_cell_length_c   11.10256800
_cell_angle_alpha   109.27729315
_cell_angle_beta   109.40869228
_cell_angle_gamma   109.25721155
_symmetry_Int_Tables_number   1
_chemical_formula_structural   Ca4Pr8Zr4Ga15FeO48
_chemical_formula_sum   'Ca4 Pr8 Zr4 Ga15 Fe1 O48'
_cell_volume   1049.07436682
_cell_formula_units_Z   1
loop_
 _symmetry_equiv_pos_site_id
 _symmetry_equiv_pos_as_xyz
  1  'x, y, z'
loop_
 _atom_site_type_symbol
 _atom_site_label
 _atom_site_symmetry_multiplicity
 _atom_site_fract_x
 _atom_site_fract_y
 _atom_site_fract_z
 _atom_site_occupancy
  Ca  Ca0  1  0.621683  0.234478  0.369588  1
  Ca  Ca1  1  0.872229  0.119965  0.241683  1
  Ca  Ca2  1  0.127771  0.880035  0.758317  1
  Ca  Ca3  1  0.378317  0.765522  0.630412  1
  Pr  Pr4  1  0.249734  0.624392  0.875837  1
  Pr  Pr5  1  0.628464  0.370963  0.749102  1
  Pr  Pr6  1  0.126396  0.251132  0.880783  1
  Pr  Pr7  1  0.250267  0.122868  0.369563  1
  Pr  Pr8  1  0.873604  0.748868  0.119217  1
  Pr  Pr9  1  0.749733  0.877132  0.630437  1
  Pr  Pr10  1  0.371536  0.629037  0.250898  1
  Pr  Pr11  1  0.750266  0.375608  0.124163  1
  Zr  Zr12  1  0.000000  0.000000  0.500000  1
  Zr  Zr13  1  0.500000  0.000000  0.000000  1
  Zr  Zr14  1  0.000000  0.500000  0.500000  1
  Zr  Zr15  1  0.500000  0.500000  0.500000  1
  Ga  Ga16  1  0.885213  0.636758  0.762009  1
  Ga  Ga17  1  0.622576  0.748355  0.872443  1
  Ga  Ga18  1  0.867390  0.252318  0.627832  1
  Ga  Ga19  1  0.246635  0.869891  0.128610  1
  Ga  Ga20  1  0.255074  0.374936  0.633025  1
  Ga  Ga21  1  0.500000  0.500000  0.000000  1
  Ga  Ga22  1  0.625265  0.874950  0.249991  1
  Ga  Ga23  1  0.374735  0.125050  0.750009  1
  Ga  Ga24  1  0.500000  0.000000  0.500000  1
  Ga  Ga25  1  0.753365  0.130109  0.871389  1
  Ga  Ga26  1  0.744926  0.625064  0.366975  1
  Ga  Ga27  1  0.132610  0.747682  0.372168  1
  Ga  Ga28  1  0.000000  0.500000  0.000000  1
  Ga  Ga29  1  0.377424  0.251645  0.127557  1
  Ga  Ga30  1  0.114787  0.363242  0.237991  1
  Fe  Fe31  1  0.000000  0.000000  0.000000  1
  O  O32  1  0.296121  0.878075  0.984174  1
  O  O33  1  0.420592  0.292640  0.320729  1
  O  O34  1  0.690715  0.490931  0.610496  1
  O  O35  1  0.029049  0.627423  0.710017  1
  O  O36  1  0.473224  0.791970  0.876444  1
  O  O37  1  0.205312  0.517773  0.623389  1
  O  O38  1  0.876947  0.297660  0.482750  1
  O  O39  1  0.019613  0.402857  0.820544  1
  O  O40  1  0.671464  0.200644  0.579982  1
  O  O41  1  0.398587  0.014929  0.320018  1
  O  O42  1  0.624046  0.021720  0.204132  1
  O  O43  1  0.616585  0.595169  0.914737  1
  O  O44  1  0.079601  0.174400  0.200324  1
  O  O45  1  0.404686  0.377460  0.586820  1
  O  O46  1  0.300100  0.417579  0.825687  1
  O  O47  1  0.105418  0.185136  0.483049  1
  O  O48  1  0.883788  0.584635  0.907038  1
  O  O49  1  0.816342  0.897856  0.015503  1
  O  O50  1  0.914541  0.100812  0.623251  1
  O  O51  1  0.198840  0.674820  0.081340  1
  O  O52  1  0.585705  0.881657  0.403805  1
  O  O53  1  0.819114  0.915360  0.291970  1
  O  O54  1  0.522517  0.320202  0.901780  1
  O  O55  1  0.094864  0.914767  0.119773  1
  O  O56  1  0.905136  0.085233  0.880227  1
  O  O57  1  0.477483  0.679798  0.098220  1
  O  O58  1  0.180886  0.084640  0.708030  1
  O  O59  1  0.414295  0.118343  0.596195  1
  O  O60  1  0.801160  0.325180  0.918660  1
  O  O61  1  0.085459  0.899188  0.376749  1
  O  O62  1  0.183658  0.102144  0.984497  1
  O  O63  1  0.116212  0.415365  0.092962  1
  O  O64  1  0.894582  0.814864  0.516951  1
  O  O65  1  0.699900  0.582421  0.174313  1
  O  O66  1  0.595314  0.622540  0.413180  1
  O  O67  1  0.920399  0.825600  0.799676  1
  O  O68  1  0.383415  0.404831  0.085263  1
  O  O69  1  0.375954  0.978280  0.795868  1
  O  O70  1  0.601413  0.985071  0.679982  1
  O  O71  1  0.328536  0.799356  0.420018  1
  O  O72  1  0.980387  0.597143  0.179456  1
  O  O73  1  0.123053  0.702340  0.517250  1
  O  O74  1  0.794688  0.482227  0.376611  1
  O  O75  1  0.526776  0.208030  0.123556  1
  O  O76  1  0.970951  0.372577  0.289983  1
  O  O77  1  0.309285  0.509069  0.389504  1
  O  O78  1  0.579408  0.707360  0.679271  1
  O  O79  1  0.703879  0.121925  0.015826  1
