# generated using pymatgen
data_SrDy2Th(NiP)4
_symmetry_space_group_name_H-M   'P 1'
_cell_length_a   3.94049700
_cell_length_b   3.94049818
_cell_length_c   16.17720900
_cell_angle_alpha   90.00000000
_cell_angle_beta   90.00000000
_cell_angle_gamma   120.00001529
_symmetry_Int_Tables_number   1
_chemical_formula_structural   SrDy2Th(NiP)4
_chemical_formula_sum   'Sr1 Dy2 Th1 Ni4 P4'
_cell_volume   217.53858204
_cell_formula_units_Z   1
loop_
 _symmetry_equiv_pos_site_id
 _symmetry_equiv_pos_as_xyz
  1  'x, y, z'
loop_
 _atom_site_type_symbol
 _atom_site_label
 _atom_site_symmetry_multiplicity
 _atom_site_fract_x
 _atom_site_fract_y
 _atom_site_fract_z
 _atom_site_occupancy
  Sr  Sr0  1  0.000000  0.000000  0.500000  1
  Dy  Dy1  1  0.000000  0.000000  0.245708  1
  Dy  Dy2  1  0.000000  0.000000  0.754292  1
  Th  Th3  1  0.000000  0.000000  0.000000  1
  Ni  Ni4  1  0.333333  0.666667  0.356750  1
  Ni  Ni5  1  0.666667  0.333333  0.643250  1
  Ni  Ni6  1  0.666667  0.333333  0.877788  1
  Ni  Ni7  1  0.333333  0.666667  0.122212  1
  P  P8  1  0.333333  0.666667  0.875304  1
  P  P9  1  0.666667  0.333333  0.124696  1
  P  P10  1  0.666667  0.333333  0.363024  1
  P  P11  1  0.333333  0.666667  0.636976  1
