# generated using pymatgen
data_Tb2Ho(Ni3P2)3
_symmetry_space_group_name_H-M   'P 1'
_cell_length_a   3.79194400
_cell_length_b   10.47909600
_cell_length_c   12.32299100
_cell_angle_alpha   90.00000000
_cell_angle_beta   90.00000000
_cell_angle_gamma   90.00000000
_symmetry_Int_Tables_number   1
_chemical_formula_structural   Tb2Ho(Ni3P2)3
_chemical_formula_sum   'Tb4 Ho2 Ni18 P12'
_cell_volume   489.66815971
_cell_formula_units_Z   2
loop_
 _symmetry_equiv_pos_site_id
 _symmetry_equiv_pos_as_xyz
  1  'x, y, z'
loop_
 _atom_site_type_symbol
 _atom_site_label
 _atom_site_symmetry_multiplicity
 _atom_site_fract_x
 _atom_site_fract_y
 _atom_site_fract_z
 _atom_site_occupancy
  Tb  Tb0  1  0.000000  0.500000  0.520326  1
  Tb  Tb1  1  0.500000  0.000000  0.479145  1
  Tb  Tb2  1  0.000000  0.684171  0.794507  1
  Tb  Tb3  1  0.000000  0.315829  0.794507  1
  Ho  Ho4  1  0.500000  0.816253  0.205787  1
  Ho  Ho5  1  0.500000  0.183747  0.205787  1
  Ni  Ni6  1  0.500000  0.500000  0.157688  1
  Ni  Ni7  1  0.000000  0.000000  0.842120  1
  Ni  Ni8  1  0.500000  0.500000  0.699656  1
  Ni  Ni9  1  0.000000  0.000000  0.300260  1
  Ni  Ni10  1  0.000000  0.500000  0.984432  1
  Ni  Ni11  1  0.500000  0.000000  0.017815  1
  Ni  Ni12  1  0.500000  0.332140  0.995849  1
  Ni  Ni13  1  0.500000  0.667860  0.995849  1
  Ni  Ni14  1  0.000000  0.166687  0.004730  1
  Ni  Ni15  1  0.000000  0.833313  0.004730  1
  Ni  Ni16  1  0.500000  0.300944  0.428170  1
  Ni  Ni17  1  0.500000  0.699056  0.428170  1
  Ni  Ni18  1  0.000000  0.198704  0.571199  1
  Ni  Ni19  1  0.000000  0.801296  0.571199  1
  Ni  Ni20  1  0.500000  0.879624  0.711065  1
  Ni  Ni21  1  0.500000  0.120376  0.711065  1
  Ni  Ni22  1  0.000000  0.620622  0.288219  1
  Ni  Ni23  1  0.000000  0.379378  0.288219  1
  P  P24  1  0.500000  0.500000  0.876965  1
  P  P25  1  0.000000  0.000000  0.124275  1
  P  P26  1  0.500000  0.500000  0.342555  1
  P  P27  1  0.000000  0.000000  0.657060  1
  P  P28  1  0.500000  0.312617  0.613764  1
  P  P29  1  0.500000  0.687383  0.613764  1
  P  P30  1  0.000000  0.187364  0.385207  1
  P  P31  1  0.000000  0.812636  0.385207  1
  P  P32  1  0.500000  0.849050  0.893349  1
  P  P33  1  0.500000  0.150950  0.893349  1
  P  P34  1  0.000000  0.652509  0.107008  1
  P  P35  1  0.000000  0.347491  0.107008  1
