# generated using pymatgen
data_Dy4LuPt9
_symmetry_space_group_name_H-M   'P 1'
_cell_length_a   9.74967200
_cell_length_b   9.74967200
_cell_length_c   5.76405500
_cell_angle_alpha   90.00000000
_cell_angle_beta   90.00000000
_cell_angle_gamma   90.00000000
_symmetry_Int_Tables_number   1
_chemical_formula_structural   Dy4LuPt9
_chemical_formula_sum   'Dy8 Lu2 Pt18'
_cell_volume   547.90861216
_cell_formula_units_Z   2
loop_
 _symmetry_equiv_pos_site_id
 _symmetry_equiv_pos_as_xyz
  1  'x, y, z'
loop_
 _atom_site_type_symbol
 _atom_site_label
 _atom_site_symmetry_multiplicity
 _atom_site_fract_x
 _atom_site_fract_y
 _atom_site_fract_z
 _atom_site_occupancy
  Dy  Dy0  1  0.452027  0.809341  0.000000  1
  Dy  Dy1  1  0.547973  0.190659  0.000000  1
  Dy  Dy2  1  0.190659  0.547973  0.000000  1
  Dy  Dy3  1  0.809341  0.452027  0.000000  1
  Dy  Dy4  1  0.309341  0.047973  0.500000  1
  Dy  Dy5  1  0.690659  0.952027  0.500000  1
  Dy  Dy6  1  0.952027  0.690659  0.500000  1
  Dy  Dy7  1  0.047973  0.309341  0.500000  1
  Lu  Lu8  1  0.500000  0.500000  0.500000  1
  Lu  Lu9  1  0.000000  0.000000  0.000000  1
  Pt  Pt10  1  0.190529  0.809471  0.250803  1
  Pt  Pt11  1  0.809471  0.190529  0.749197  1
  Pt  Pt12  1  0.809471  0.190529  0.250803  1
  Pt  Pt13  1  0.190529  0.809471  0.749197  1
  Pt  Pt14  1  0.440029  0.779405  0.500000  1
  Pt  Pt15  1  0.559971  0.220595  0.500000  1
  Pt  Pt16  1  0.220595  0.559971  0.500000  1
  Pt  Pt17  1  0.779405  0.440029  0.500000  1
  Pt  Pt18  1  0.309471  0.309471  0.249197  1
  Pt  Pt19  1  0.690529  0.690529  0.750803  1
  Pt  Pt20  1  0.690529  0.690529  0.249197  1
  Pt  Pt21  1  0.309471  0.309471  0.750803  1
  Pt  Pt22  1  0.279405  0.059971  0.000000  1
  Pt  Pt23  1  0.720595  0.940029  0.000000  1
  Pt  Pt24  1  0.940029  0.720595  0.000000  1
  Pt  Pt25  1  0.059971  0.279405  0.000000  1
  Pt  Pt26  1  0.000000  0.000000  0.500000  1
  Pt  Pt27  1  0.500000  0.500000  0.000000  1
