# generated using pymatgen
data_CaAl4Si2Ni
_symmetry_space_group_name_H-M   'P 1'
_cell_length_a   4.13566100
_cell_length_b   4.13566100
_cell_length_c   7.98396100
_cell_angle_alpha   90.00000000
_cell_angle_beta   90.00000000
_cell_angle_gamma   90.00000000
_symmetry_Int_Tables_number   1
_chemical_formula_structural   CaAl4Si2Ni
_chemical_formula_sum   'Ca1 Al4 Si2 Ni1'
_cell_volume   136.55520914
_cell_formula_units_Z   1
loop_
 _symmetry_equiv_pos_site_id
 _symmetry_equiv_pos_as_xyz
  1  'x, y, z'
loop_
 _atom_site_type_symbol
 _atom_site_label
 _atom_site_symmetry_multiplicity
 _atom_site_fract_x
 _atom_site_fract_y
 _atom_site_fract_z
 _atom_site_occupancy
  Ca  Ca0  1  0.000000  0.000000  0.500000  1
  Al  Al1  1  0.000000  0.500000  0.164904  1
  Al  Al2  1  0.000000  0.500000  0.835096  1
  Al  Al3  1  0.500000  0.000000  0.164904  1
  Al  Al4  1  0.500000  0.000000  0.835096  1
  Si  Si5  1  0.500000  0.500000  0.354808  1
  Si  Si6  1  0.500000  0.500000  0.645192  1
  Ni  Ni7  1  0.000000  0.000000  0.000000  1
