# generated using pymatgen
data_Er7TmSc12Si15Rh
_symmetry_space_group_name_H-M   'P 1'
_cell_length_a   7.08231126
_cell_length_b   7.35130840
_cell_length_c   13.95513628
_cell_angle_alpha   89.90542665
_cell_angle_beta   89.80594122
_cell_angle_gamma   90.18606207
_symmetry_Int_Tables_number   1
_chemical_formula_structural   Er7TmSc12Si15Rh
_chemical_formula_sum   'Er7 Tm1 Sc12 Si15 Rh1'
_cell_volume   726.55476209
_cell_formula_units_Z   1
loop_
 _symmetry_equiv_pos_site_id
 _symmetry_equiv_pos_as_xyz
  1  'x, y, z'
loop_
 _atom_site_type_symbol
 _atom_site_label
 _atom_site_symmetry_multiplicity
 _atom_site_fract_x
 _atom_site_fract_y
 _atom_site_fract_z
 _atom_site_occupancy
  Er  Er0  1  0.012446  0.176327  0.096692  1
  Er  Er1  1  0.987963  0.823691  0.903209  1
  Er  Er2  1  0.486880  0.677417  0.903149  1
  Er  Er3  1  0.989262  0.820909  0.596198  1
  Er  Er4  1  0.512257  0.323359  0.095982  1
  Er  Er5  1  0.011489  0.180554  0.403720  1
  Er  Er6  1  0.507938  0.324286  0.403869  1
  Tm  Tm7  1  0.485904  0.671060  0.597598  1
  Sc  Sc8  1  0.163222  0.503697  0.745116  1
  Sc  Sc9  1  0.838192  0.497161  0.251953  1
  Sc  Sc10  1  0.339226  0.000574  0.250432  1
  Sc  Sc11  1  0.662274  0.996097  0.749378  1
  Sc  Sc12  1  0.330597  0.187183  0.621424  1
  Sc  Sc13  1  0.668185  0.823503  0.373816  1
  Sc  Sc14  1  0.171130  0.665392  0.378106  1
  Sc  Sc15  1  0.671405  0.824241  0.126438  1
  Sc  Sc16  1  0.834489  0.326532  0.623586  1
  Sc  Sc17  1  0.328138  0.177102  0.875504  1
  Sc  Sc18  1  0.831386  0.321786  0.875487  1
  Sc  Sc19  1  0.170011  0.676934  0.125084  1
  Si  Si20  1  0.033291  0.112519  0.749732  1
  Si  Si21  1  0.970086  0.885247  0.251448  1
  Si  Si22  1  0.467469  0.612801  0.248386  1
  Si  Si23  1  0.536786  0.385906  0.752892  1
  Si  Si24  1  0.286056  0.874930  0.750411  1
  Si  Si25  1  0.714076  0.130466  0.249620  1
  Si  Si26  1  0.215896  0.368573  0.247768  1
  Si  Si27  1  0.784002  0.628776  0.752725  1
  Si  Si28  1  0.835010  0.536136  0.460787  1
  Si  Si29  1  0.342536  0.963535  0.461049  1
  Si  Si30  1  0.842330  0.535884  0.038703  1
  Si  Si31  1  0.656828  0.033379  0.538877  1
  Si  Si32  1  0.156835  0.465944  0.960993  1
  Si  Si33  1  0.658178  0.034027  0.961760  1
  Si  Si34  1  0.343150  0.964896  0.038876  1
  Rh  Rh35  1  0.155079  0.469176  0.539230  1
