# generated using pymatgen
data_Er20RuPt11
_symmetry_space_group_name_H-M   'P 1'
_cell_length_a   10.94213000
_cell_length_b   10.94213000
_cell_length_c   6.37801800
_cell_angle_alpha   90.00000000
_cell_angle_beta   90.00000000
_cell_angle_gamma   90.00000000
_symmetry_Int_Tables_number   1
_chemical_formula_structural   Er20RuPt11
_chemical_formula_sum   'Er20 Ru1 Pt11'
_cell_volume   763.64142774
_cell_formula_units_Z   1
loop_
 _symmetry_equiv_pos_site_id
 _symmetry_equiv_pos_as_xyz
  1  'x, y, z'
loop_
 _atom_site_type_symbol
 _atom_site_label
 _atom_site_symmetry_multiplicity
 _atom_site_fract_x
 _atom_site_fract_y
 _atom_site_fract_z
 _atom_site_occupancy
  Er  Er0  1  0.292283  0.087742  0.377014  1
  Er  Er1  1  0.292182  0.911559  0.876106  1
  Er  Er2  1  0.707818  0.088441  0.876106  1
  Er  Er3  1  0.707717  0.912258  0.377014  1
  Er  Er4  1  0.588441  0.792182  0.876106  1
  Er  Er5  1  0.587742  0.207717  0.377014  1
  Er  Er6  1  0.412258  0.792283  0.377014  1
  Er  Er7  1  0.411559  0.207818  0.876106  1
  Er  Er8  1  0.206290  0.412347  0.620167  1
  Er  Er9  1  0.207138  0.587619  0.128386  1
  Er  Er10  1  0.792862  0.412381  0.128386  1
  Er  Er11  1  0.793710  0.587653  0.620167  1
  Er  Er12  1  0.912381  0.707138  0.128386  1
  Er  Er13  1  0.912347  0.293710  0.620167  1
  Er  Er14  1  0.087653  0.706290  0.620167  1
  Er  Er15  1  0.087619  0.292862  0.128386  1
  Er  Er16  1  0.000000  0.000000  0.500848  1
  Er  Er17  1  0.000000  0.000000  0.000149  1
  Er  Er18  1  0.500000  0.500000  0.000149  1
  Er  Er19  1  0.500000  0.500000  0.500848  1
  Ru  Ru20  1  0.000000  0.500000  0.378597  1
  Pt  Pt21  1  0.845670  0.153069  0.249726  1
  Pt  Pt22  1  0.846208  0.846496  0.750069  1
  Pt  Pt23  1  0.153792  0.153504  0.750069  1
  Pt  Pt24  1  0.154330  0.846931  0.249726  1
  Pt  Pt25  1  0.653504  0.346208  0.750069  1
  Pt  Pt26  1  0.653069  0.654330  0.249726  1
  Pt  Pt27  1  0.346931  0.345670  0.249726  1
  Pt  Pt28  1  0.346496  0.653792  0.750069  1
  Pt  Pt29  1  0.500000  0.000000  0.116440  1
  Pt  Pt30  1  0.500000  0.000000  0.617101  1
  Pt  Pt31  1  0.000000  0.500000  0.879992  1
