# generated using pymatgen
data_Tb6Nd5In9NiRh3
_symmetry_space_group_name_H-M   'P 1'
_cell_length_a   13.25298495
_cell_length_b   13.24140922
_cell_length_c   3.75949800
_cell_angle_alpha   90.00000000
_cell_angle_beta   90.00000000
_cell_angle_gamma   111.54891878
_symmetry_Int_Tables_number   1
_chemical_formula_structural   Tb6Nd5In9NiRh3
_chemical_formula_sum   'Tb6 Nd5 In9 Ni1 Rh3'
_cell_volume   613.63401935
_cell_formula_units_Z   1
loop_
 _symmetry_equiv_pos_site_id
 _symmetry_equiv_pos_as_xyz
  1  'x, y, z'
loop_
 _atom_site_type_symbol
 _atom_site_label
 _atom_site_symmetry_multiplicity
 _atom_site_fract_x
 _atom_site_fract_y
 _atom_site_fract_z
 _atom_site_occupancy
  Tb  Tb0  1  0.080376  0.420315  0.000000  1
  Tb  Tb1  1  0.919516  0.579799  0.000000  1
  Tb  Tb2  1  0.421378  0.079852  0.000000  1
  Tb  Tb3  1  0.579567  0.918907  0.000000  1
  Tb  Tb4  1  0.625870  0.373522  0.000000  1
  Tb  Tb5  1  0.371131  0.625751  0.000000  1
  Nd  Nd6  1  0.841397  0.157585  0.000000  1
  Nd  Nd7  1  0.159322  0.841219  0.000000  1
  Nd  Nd8  1  0.998822  0.999850  0.000000  1
  Nd  Nd9  1  0.312913  0.312332  0.000000  1
  Nd  Nd10  1  0.687247  0.687257  0.000000  1
  In  In11  1  0.839529  0.367899  0.500000  1
  In  In12  1  0.161237  0.631838  0.500000  1
  In  In13  1  0.370156  0.839813  0.500000  1
  In  In14  1  0.632311  0.160238  0.500000  1
  In  In15  1  0.078687  0.222361  0.500000  1
  In  In16  1  0.921159  0.777429  0.500000  1
  In  In17  1  0.222260  0.077746  0.500000  1
  In  In18  1  0.775901  0.920968  0.500000  1
  In  In19  1  0.498913  0.502815  0.500000  1
  Ni  Ni20  1  0.546368  0.755365  0.500000  1
  Rh  Rh21  1  0.245801  0.455857  0.500000  1
  Rh  Rh22  1  0.754711  0.546614  0.500000  1
  Rh  Rh23  1  0.455432  0.244665  0.500000  1
