# generated using pymatgen
data_Pr3Ho(Ga5Pd3)2
_symmetry_space_group_name_H-M   'P 1'
_cell_length_a   8.74645057
_cell_length_b   8.74471273
_cell_length_c   8.74471300
_cell_angle_alpha   140.64524371
_cell_angle_beta   107.86880139
_cell_angle_gamma   85.40464651
_symmetry_Int_Tables_number   1
_chemical_formula_structural   Pr3Ho(Ga5Pd3)2
_chemical_formula_sum   'Pr3 Ho1 Ga10 Pd6'
_cell_volume   389.74383882
_cell_formula_units_Z   1
loop_
 _symmetry_equiv_pos_site_id
 _symmetry_equiv_pos_as_xyz
  1  'x, y, z'
loop_
 _atom_site_type_symbol
 _atom_site_label
 _atom_site_symmetry_multiplicity
 _atom_site_fract_x
 _atom_site_fract_y
 _atom_site_fract_z
 _atom_site_occupancy
  Pr  Pr0  1  0.636887  0.862340  0.774552  1
  Pr  Pr1  1  0.363324  0.137759  0.225568  1
  Pr  Pr2  1  0.087565  0.361958  0.725616  1
  Ho  Ho3  1  0.913544  0.638323  0.275218  1
  Ga  Ga4  1  0.288939  0.039646  0.749449  1
  Ga  Ga5  1  0.710653  0.958800  0.250238  1
  Ga  Ga6  1  0.710646  0.460415  0.751842  1
  Ga  Ga7  1  0.288928  0.539465  0.249288  1
  Ga  Ga8  1  0.431667  0.596807  0.834883  1
  Ga  Ga9  1  0.569428  0.404159  0.165240  1
  Ga  Ga10  1  0.762967  0.097125  0.665859  1
  Ga  Ga11  1  0.238670  0.902848  0.335789  1
  Ga  Ga12  1  0.999436  0.749927  0.748416  1
  Ga  Ga13  1  0.999421  0.251017  0.249501  1
  Pd  Pd14  1  0.238855  0.643809  0.595053  1
  Pd  Pd15  1  0.759465  0.355751  0.403718  1
  Pd  Pd16  1  0.045314  0.143734  0.901565  1
  Pd  Pd17  1  0.952750  0.855463  0.097305  1
  Pd  Pd18  1  0.500761  0.750144  0.250268  1
  Pd  Pd19  1  0.500781  0.250506  0.750630  1
