# generated using pymatgen
data_Ce2GePdI2
_symmetry_space_group_name_H-M   'P 1'
_cell_length_a   4.39536900
_cell_length_b   4.39536907
_cell_length_c   11.91607400
_cell_angle_alpha   90.00000000
_cell_angle_beta   90.00000000
_cell_angle_gamma   120.00000703
_symmetry_Int_Tables_number   1
_chemical_formula_structural   Ce2GePdI2
_chemical_formula_sum   'Ce2 Ge1 Pd1 I2'
_cell_volume   199.36755399
_cell_formula_units_Z   1
loop_
 _symmetry_equiv_pos_site_id
 _symmetry_equiv_pos_as_xyz
  1  'x, y, z'
loop_
 _atom_site_type_symbol
 _atom_site_label
 _atom_site_symmetry_multiplicity
 _atom_site_fract_x
 _atom_site_fract_y
 _atom_site_fract_z
 _atom_site_occupancy
  Ce  Ce0  1  0.000000  0.000000  0.157800  1
  Ce  Ce1  1  0.000000  0.000000  0.843643  1
  Ge  Ge2  1  0.666667  0.333333  0.010630  1
  Pd  Pd3  1  0.333333  0.666667  0.991617  1
  I  I4  1  0.666667  0.333333  0.665065  1
  I  I5  1  0.333333  0.666667  0.331244  1
