# generated using pymatgen
data_PrLu2TaO7
_symmetry_space_group_name_H-M   'P 1'
_cell_length_a   6.42852748
_cell_length_b   6.42852819
_cell_length_c   7.55060500
_cell_angle_alpha   90.00000000
_cell_angle_beta   90.00000000
_cell_angle_gamma   109.16208493
_symmetry_Int_Tables_number   1
_chemical_formula_structural   PrLu2TaO7
_chemical_formula_sum   'Pr2 Lu4 Ta2 O14'
_cell_volume   294.74733955
_cell_formula_units_Z   2
loop_
 _symmetry_equiv_pos_site_id
 _symmetry_equiv_pos_as_xyz
  1  'x, y, z'
loop_
 _atom_site_type_symbol
 _atom_site_label
 _atom_site_symmetry_multiplicity
 _atom_site_fract_x
 _atom_site_fract_y
 _atom_site_fract_z
 _atom_site_occupancy
  Pr  Pr0  1  0.500000  0.500000  0.500000  1
  Pr  Pr1  1  0.500000  0.500000  0.000000  1
  Lu  Lu2  1  0.531269  0.001843  0.750000  1
  Lu  Lu3  1  0.001843  0.531269  0.250000  1
  Lu  Lu4  1  0.468731  0.998157  0.250000  1
  Lu  Lu5  1  0.998157  0.468731  0.750000  1
  Ta  Ta6  1  0.000000  0.000000  0.500000  1
  Ta  Ta7  1  0.000000  0.000000  0.000000  1
  O  O8  1  0.676870  0.932085  0.466285  1
  O  O9  1  0.932085  0.676870  0.533715  1
  O  O10  1  0.676870  0.932085  0.033715  1
  O  O11  1  0.932085  0.676870  0.966285  1
  O  O12  1  0.323130  0.067915  0.533715  1
  O  O13  1  0.067915  0.323130  0.466285  1
  O  O14  1  0.323130  0.067915  0.966285  1
  O  O15  1  0.067915  0.323130  0.033715  1
  O  O16  1  0.933997  0.066003  0.750000  1
  O  O17  1  0.066003  0.933997  0.250000  1
  O  O18  1  0.358551  0.641449  0.750000  1
  O  O19  1  0.641449  0.358551  0.250000  1
  O  O20  1  0.648164  0.351836  0.750000  1
  O  O21  1  0.351836  0.648164  0.250000  1
