# generated using pymatgen
data_LiY(CuO2)4
_symmetry_space_group_name_H-M   'P 1'
_cell_length_a   6.16968174
_cell_length_b   6.16968061
_cell_length_c   6.16968072
_cell_angle_alpha   125.64044863
_cell_angle_beta   125.64044161
_cell_angle_gamma   80.47990063
_symmetry_Int_Tables_number   1
_chemical_formula_structural   LiY(CuO2)4
_chemical_formula_sum   'Li1 Y1 Cu4 O8'
_cell_volume   149.62052184
_cell_formula_units_Z   1
loop_
 _symmetry_equiv_pos_site_id
 _symmetry_equiv_pos_as_xyz
  1  'x, y, z'
loop_
 _atom_site_type_symbol
 _atom_site_label
 _atom_site_symmetry_multiplicity
 _atom_site_fract_x
 _atom_site_fract_y
 _atom_site_fract_z
 _atom_site_occupancy
  Li  Li0  1  0.000000  0.000000  0.000000  1
  Y  Y1  1  0.750000  0.250000  0.500000  1
  Cu  Cu2  1  0.876954  0.627411  0.256392  1
  Cu  Cu3  1  0.371018  0.620561  0.743608  1
  Cu  Cu4  1  0.379439  0.123046  0.750457  1
  Cu  Cu5  1  0.372589  0.628982  0.249543  1
  O  O6  1  0.345402  0.981894  0.928364  1
  O  O7  1  0.053530  0.417038  0.071636  1
  O  O8  1  0.695685  0.837804  0.431252  1
  O  O9  1  0.406552  0.264433  0.568748  1
  O  O10  1  0.162196  0.593448  0.857881  1
  O  O11  1  0.735567  0.304315  0.142119  1
  O  O12  1  0.582962  0.654598  0.636491  1
  O  O13  1  0.018106  0.946470  0.363509  1
