# generated using pymatgen
data_Cs2Hf4O9
_symmetry_space_group_name_H-M   'P 1'
_cell_length_a   4.01417100
_cell_length_b   10.91248467
_cell_length_c   12.94118969
_cell_angle_alpha   107.07494139
_cell_angle_beta   90.00000000
_cell_angle_gamma   100.59849744
_symmetry_Int_Tables_number   1
_chemical_formula_structural   Cs2Hf4O9
_chemical_formula_sum   'Cs4 Hf8 O18'
_cell_volume   531.77085184
_cell_formula_units_Z   2
loop_
 _symmetry_equiv_pos_site_id
 _symmetry_equiv_pos_as_xyz
  1  'x, y, z'
loop_
 _atom_site_type_symbol
 _atom_site_label
 _atom_site_symmetry_multiplicity
 _atom_site_fract_x
 _atom_site_fract_y
 _atom_site_fract_z
 _atom_site_occupancy
  Cs  Cs0  1  0.582529  0.165057  0.581176  1
  Cs  Cs1  1  0.417471  0.834943  0.418824  1
  Cs  Cs2  1  0.512416  0.024832  0.827812  1
  Cs  Cs3  1  0.487584  0.975168  0.172188  1
  Hf  Hf4  1  0.754908  0.509815  0.335964  1
  Hf  Hf5  1  0.245092  0.490185  0.664036  1
  Hf  Hf6  1  0.205754  0.411509  0.896163  1
  Hf  Hf7  1  0.794246  0.588491  0.103837  1
  Hf  Hf8  1  0.832512  0.665025  0.875367  1
  Hf  Hf9  1  0.167488  0.334975  0.124633  1
  Hf  Hf10  1  0.870246  0.740492  0.640923  1
  Hf  Hf11  1  0.129754  0.259508  0.359077  1
  O  O12  1  0.768778  0.537556  0.703795  1
  O  O13  1  0.231222  0.462444  0.296205  1
  O  O14  1  0.829024  0.658047  0.261274  1
  O  O15  1  0.170976  0.341953  0.738726  1
  O  O16  1  0.131941  0.263882  0.960828  1
  O  O17  1  0.868059  0.736118  0.039172  1
  O  O18  1  0.301953  0.603905  0.858839  1
  O  O19  1  0.698047  0.396095  0.141161  1
  O  O20  1  0.955201  0.910403  0.625437  1
  O  O21  1  0.044799  0.089597  0.374563  1
  O  O22  1  0.815169  0.630338  0.479322  1
  O  O23  1  0.184831  0.369662  0.520678  1
  O  O24  1  0.733864  0.467727  0.924040  1
  O  O25  1  0.266136  0.532273  0.075960  1
  O  O26  1  0.659310  0.318620  0.352783  1
  O  O27  1  0.340690  0.681380  0.647217  1
  O  O28  1  0.904963  0.809927  0.816667  1
  O  O29  1  0.095037  0.190073  0.183333  1
