# generated using pymatgen
data_Er5Tm3Re(B8Ir)3
_symmetry_space_group_name_H-M   'P 1'
_cell_length_a   3.63330000
_cell_length_b   9.12506228
_cell_length_c   11.45909700
_cell_angle_alpha   90.14077856
_cell_angle_beta   90.00000000
_cell_angle_gamma   90.00000000
_symmetry_Int_Tables_number   1
_chemical_formula_structural   Er5Tm3Re(B8Ir)3
_chemical_formula_sum   'Er5 Tm3 Re1 B24 Ir3'
_cell_volume   379.91477265
_cell_formula_units_Z   1
loop_
 _symmetry_equiv_pos_site_id
 _symmetry_equiv_pos_as_xyz
  1  'x, y, z'
loop_
 _atom_site_type_symbol
 _atom_site_label
 _atom_site_symmetry_multiplicity
 _atom_site_fract_x
 _atom_site_fract_y
 _atom_site_fract_z
 _atom_site_occupancy
  Er  Er0  1  0.000000  0.320338  0.413788  1
  Er  Er1  1  0.000000  0.683559  0.590667  1
  Er  Er2  1  0.000000  0.820075  0.082560  1
  Er  Er3  1  0.000000  0.176402  0.912108  1
  Er  Er4  1  0.000000  0.943614  0.373191  1
  Tm  Tm5  1  0.000000  0.053765  0.626443  1
  Tm  Tm6  1  0.000000  0.443518  0.125989  1
  Tm  Tm7  1  0.000000  0.557505  0.874985  1
  Re  Re8  1  0.000000  0.862453  0.821372  1
  B  B9  1  0.500000  0.553265  0.434494  1
  B  B10  1  0.500000  0.447672  0.566477  1
  B  B11  1  0.500000  0.053515  0.065975  1
  B  B12  1  0.500000  0.946959  0.933491  1
  B  B13  1  0.500000  0.750270  0.420682  1
  B  B14  1  0.500000  0.250141  0.579080  1
  B  B15  1  0.500000  0.249604  0.078815  1
  B  B16  1  0.500000  0.751472  0.920135  1
  B  B17  1  0.500000  0.792086  0.264759  1
  B  B18  1  0.500000  0.207614  0.733616  1
  B  B19  1  0.500000  0.293233  0.235021  1
  B  B20  1  0.500000  0.707782  0.766039  1
  B  B21  1  0.500000  0.630635  0.184158  1
  B  B22  1  0.500000  0.368680  0.816026  1
  B  B23  1  0.500000  0.132116  0.315576  1
  B  B24  1  0.500000  0.869145  0.685213  1
  B  B25  1  0.500000  0.981305  0.212657  1
  B  B26  1  0.500000  0.017988  0.786451  1
  B  B27  1  0.500000  0.480601  0.287297  1
  B  B28  1  0.500000  0.518667  0.714307  1
  B  B29  1  0.500000  0.607066  0.030805  1
  B  B30  1  0.500000  0.390574  0.970468  1
  B  B31  1  0.500000  0.109123  0.469671  1
  B  B32  1  0.500000  0.892018  0.528849  1
  Ir  Ir33  1  0.000000  0.636682  0.322479  1
  Ir  Ir34  1  0.000000  0.362777  0.678074  1
  Ir  Ir35  1  0.000000  0.137782  0.178279  1
