# generated using pymatgen
data_Tm6Zn22CoP
_symmetry_space_group_name_H-M   'P 1'
_cell_length_a   8.99303682
_cell_length_b   8.99303723
_cell_length_c   8.99303800
_cell_angle_alpha   59.99999718
_cell_angle_beta   59.99999565
_cell_angle_gamma   59.99999863
_symmetry_Int_Tables_number   1
_chemical_formula_structural   Tm6Zn22CoP
_chemical_formula_sum   'Tm6 Zn22 Co1 P1'
_cell_volume   514.28536469
_cell_formula_units_Z   1
loop_
 _symmetry_equiv_pos_site_id
 _symmetry_equiv_pos_as_xyz
  1  'x, y, z'
loop_
 _atom_site_type_symbol
 _atom_site_label
 _atom_site_symmetry_multiplicity
 _atom_site_fract_x
 _atom_site_fract_y
 _atom_site_fract_z
 _atom_site_occupancy
  Tm  Tm0  1  0.710035  0.289964  0.289965  1
  Tm  Tm1  1  0.710036  0.289964  0.710036  1
  Tm  Tm2  1  0.710036  0.710036  0.289964  1
  Tm  Tm3  1  0.289965  0.710036  0.710035  1
  Tm  Tm4  1  0.289964  0.710036  0.289964  1
  Tm  Tm5  1  0.289964  0.289964  0.710036  1
  Zn  Zn6  1  0.649480  0.116842  0.116842  1
  Zn  Zn7  1  0.116842  0.649480  0.116841  1
  Zn  Zn8  1  0.116842  0.116842  0.649478  1
  Zn  Zn9  1  0.116836  0.116837  0.116838  1
  Zn  Zn10  1  0.350520  0.883158  0.883158  1
  Zn  Zn11  1  0.883158  0.350520  0.883159  1
  Zn  Zn12  1  0.883158  0.883158  0.350522  1
  Zn  Zn13  1  0.883164  0.883163  0.883162  1
  Zn  Zn14  1  0.500000  0.000000  0.000000  1
  Zn  Zn15  1  0.500000  0.000000  0.500000  1
  Zn  Zn16  1  0.500000  0.500000  0.000000  1
  Zn  Zn17  1  0.000000  0.500000  0.500000  1
  Zn  Zn18  1  0.000000  0.500000  0.000000  1
  Zn  Zn19  1  0.000000  0.000000  0.500000  1
  Zn  Zn20  1  0.011992  0.329338  0.329337  1
  Zn  Zn21  1  0.329338  0.011990  0.329337  1
  Zn  Zn22  1  0.329337  0.329337  0.011992  1
  Zn  Zn23  1  0.329334  0.329334  0.329334  1
  Zn  Zn24  1  0.988008  0.670662  0.670663  1
  Zn  Zn25  1  0.670662  0.988010  0.670663  1
  Zn  Zn26  1  0.670663  0.670663  0.988008  1
  Zn  Zn27  1  0.670666  0.670666  0.670666  1
  Co  Co28  1  0.000000  0.000000  0.000000  1
  P  P29  1  0.500000  0.500000  0.500000  1
