# generated using pymatgen
data_RbS2IO8
_symmetry_space_group_name_H-M   'P 1'
_cell_length_a   4.54053770
_cell_length_b   5.27529398
_cell_length_c   9.16450349
_cell_angle_alpha   102.71804625
_cell_angle_beta   87.97291585
_cell_angle_gamma   105.15875957
_symmetry_Int_Tables_number   1
_chemical_formula_structural   RbS2IO8
_chemical_formula_sum   'Rb1 S2 I1 O8'
_cell_volume   206.62055201
_cell_formula_units_Z   1
loop_
 _symmetry_equiv_pos_site_id
 _symmetry_equiv_pos_as_xyz
  1  'x, y, z'
loop_
 _atom_site_type_symbol
 _atom_site_label
 _atom_site_symmetry_multiplicity
 _atom_site_fract_x
 _atom_site_fract_y
 _atom_site_fract_z
 _atom_site_occupancy
  Rb  Rb0  1  0.000000  0.500000  0.000000  1
  S  S1  1  0.554407  0.118650  0.257340  1
  S  S2  1  0.445593  0.881350  0.742660  1
  I  I3  1  0.000000  0.000000  0.500000  1
  O  O4  1  0.522843  0.651203  0.777072  1
  O  O5  1  0.309192  0.043368  0.860593  1
  O  O6  1  0.690808  0.956632  0.139407  1
  O  O7  1  0.233215  0.766704  0.600641  1
  O  O8  1  0.766785  0.233296  0.399359  1
  O  O9  1  0.265631  0.916760  0.303022  1
  O  O10  1  0.734369  0.083240  0.696978  1
  O  O11  1  0.477157  0.348797  0.222928  1
