# generated using pymatgen
data_Sm6TaAs12Rh17
_symmetry_space_group_name_H-M   'P 1'
_cell_length_a   4.04840500
_cell_length_b   11.47702100
_cell_length_c   13.12171900
_cell_angle_alpha   90.00000000
_cell_angle_beta   90.00000000
_cell_angle_gamma   90.00000000
_symmetry_Int_Tables_number   1
_chemical_formula_structural   Sm6TaAs12Rh17
_chemical_formula_sum   'Sm6 Ta1 As12 Rh17'
_cell_volume   609.68268610
_cell_formula_units_Z   1
loop_
 _symmetry_equiv_pos_site_id
 _symmetry_equiv_pos_as_xyz
  1  'x, y, z'
loop_
 _atom_site_type_symbol
 _atom_site_label
 _atom_site_symmetry_multiplicity
 _atom_site_fract_x
 _atom_site_fract_y
 _atom_site_fract_z
 _atom_site_occupancy
  Sm  Sm0  1  0.000000  0.500000  0.521803  1
  Sm  Sm1  1  0.500000  0.000000  0.476523  1
  Sm  Sm2  1  0.500000  0.815305  0.206376  1
  Sm  Sm3  1  0.500000  0.184695  0.206376  1
  Sm  Sm4  1  0.000000  0.683712  0.799102  1
  Sm  Sm5  1  0.000000  0.316288  0.799102  1
  Ta  Ta6  1  0.500000  0.500000  0.153745  1
  As  As7  1  0.500000  0.500000  0.875367  1
  As  As8  1  0.000000  0.000000  0.123735  1
  As  As9  1  0.500000  0.500000  0.351625  1
  As  As10  1  0.000000  0.000000  0.649668  1
  As  As11  1  0.500000  0.314059  0.618110  1
  As  As12  1  0.500000  0.685941  0.618110  1
  As  As13  1  0.000000  0.186383  0.383326  1
  As  As14  1  0.000000  0.813617  0.383326  1
  As  As15  1  0.500000  0.851526  0.887921  1
  As  As16  1  0.500000  0.148474  0.887921  1
  As  As17  1  0.000000  0.657197  0.109971  1
  As  As18  1  0.000000  0.342803  0.109971  1
  Rh  Rh19  1  0.000000  0.000000  0.835608  1
  Rh  Rh20  1  0.500000  0.500000  0.697114  1
  Rh  Rh21  1  0.000000  0.000000  0.302430  1
  Rh  Rh22  1  0.000000  0.500000  0.985728  1
  Rh  Rh23  1  0.500000  0.000000  0.022411  1
  Rh  Rh24  1  0.500000  0.331898  0.991473  1
  Rh  Rh25  1  0.500000  0.668102  0.991473  1
  Rh  Rh26  1  0.000000  0.165205  0.006420  1
  Rh  Rh27  1  0.000000  0.834795  0.006420  1
  Rh  Rh28  1  0.500000  0.294037  0.432016  1
  Rh  Rh29  1  0.500000  0.705963  0.432016  1
  Rh  Rh30  1  0.000000  0.203882  0.569551  1
  Rh  Rh31  1  0.000000  0.796118  0.569551  1
  Rh  Rh32  1  0.500000  0.875939  0.705480  1
  Rh  Rh33  1  0.500000  0.124061  0.705480  1
  Rh  Rh34  1  0.000000  0.623875  0.292376  1
  Rh  Rh35  1  0.000000  0.376125  0.292376  1
