# generated using pymatgen
data_PrAg3(Ir2O7)2
_symmetry_space_group_name_H-M   'P 1'
_cell_length_a   7.25650107
_cell_length_b   7.29531097
_cell_length_c   7.25650100
_cell_angle_alpha   60.17581924
_cell_angle_beta   59.99999576
_cell_angle_gamma   60.17581542
_symmetry_Int_Tables_number   1
_chemical_formula_structural   PrAg3(Ir2O7)2
_chemical_formula_sum   'Pr1 Ag3 Ir4 O14'
_cell_volume   272.35311729
_cell_formula_units_Z   1
loop_
 _symmetry_equiv_pos_site_id
 _symmetry_equiv_pos_as_xyz
  1  'x, y, z'
loop_
 _atom_site_type_symbol
 _atom_site_label
 _atom_site_symmetry_multiplicity
 _atom_site_fract_x
 _atom_site_fract_y
 _atom_site_fract_z
 _atom_site_occupancy
  Pr  Pr0  1  0.125000  0.625000  0.125000  1
  Ag  Ag1  1  0.125000  0.125000  0.625000  1
  Ag  Ag2  1  0.125000  0.125000  0.125000  1
  Ag  Ag3  1  0.625000  0.125000  0.125000  1
  Ir  Ir4  1  0.625000  0.625000  0.625000  1
  Ir  Ir5  1  0.125000  0.625000  0.625000  1
  Ir  Ir6  1  0.625000  0.125000  0.625000  1
  Ir  Ir7  1  0.625000  0.625000  0.125000  1
  O  O8  1  0.952699  0.549025  0.545576  1
  O  O9  1  0.303973  0.307220  0.694403  1
  O  O10  1  0.952699  0.549025  0.952699  1
  O  O11  1  0.694403  0.307220  0.303973  1
  O  O12  1  0.545576  0.549025  0.952699  1
  O  O13  1  0.555597  0.942780  0.555597  1
  O  O14  1  0.555597  0.942780  0.946027  1
  O  O15  1  0.260079  0.219762  0.260079  1
  O  O16  1  0.297301  0.700975  0.704424  1
  O  O17  1  0.694403  0.307220  0.694403  1
  O  O18  1  0.989921  0.030238  0.989921  1
  O  O19  1  0.946027  0.942780  0.555597  1
  O  O20  1  0.297301  0.700975  0.297301  1
  O  O21  1  0.704424  0.700975  0.297301  1
