# generated using pymatgen
data_Hf3Al3OsPt2
_symmetry_space_group_name_H-M   'P 1'
_cell_length_a   7.33775500
_cell_length_b   7.33775504
_cell_length_c   6.75859300
_cell_angle_alpha   90.00000000
_cell_angle_beta   90.00000000
_cell_angle_gamma   120.00000431
_symmetry_Int_Tables_number   1
_chemical_formula_structural   Hf3Al3OsPt2
_chemical_formula_sum   'Hf6 Al6 Os2 Pt4'
_cell_volume   315.14710628
_cell_formula_units_Z   2
loop_
 _symmetry_equiv_pos_site_id
 _symmetry_equiv_pos_as_xyz
  1  'x, y, z'
loop_
 _atom_site_type_symbol
 _atom_site_label
 _atom_site_symmetry_multiplicity
 _atom_site_fract_x
 _atom_site_fract_y
 _atom_site_fract_z
 _atom_site_occupancy
  Hf  Hf0  1  0.607569  0.009492  0.750000  1
  Hf  Hf1  1  0.990508  0.598078  0.750000  1
  Hf  Hf2  1  0.401922  0.392431  0.750000  1
  Hf  Hf3  1  0.989308  0.598049  0.250000  1
  Hf  Hf4  1  0.608741  0.010692  0.250000  1
  Hf  Hf5  1  0.401951  0.391259  0.250000  1
  Al  Al6  1  0.732659  0.732270  0.999618  1
  Al  Al7  1  0.267730  0.000389  0.999618  1
  Al  Al8  1  0.999611  0.267341  0.999618  1
  Al  Al9  1  0.732659  0.732270  0.500382  1
  Al  Al10  1  0.267730  0.000389  0.500382  1
  Al  Al11  1  0.999611  0.267341  0.500382  1
  Os  Os12  1  0.666667  0.333333  0.999491  1
  Os  Os13  1  0.666667  0.333333  0.500509  1
  Pt  Pt14  1  0.000000  0.000000  0.750000  1
  Pt  Pt15  1  0.000000  0.000000  0.250000  1
  Pt  Pt16  1  0.333333  0.666667  0.498322  1
  Pt  Pt17  1  0.333333  0.666667  0.001679  1
