# generated using pymatgen
data_MnMo2O7
_symmetry_space_group_name_H-M   'P 1'
_cell_length_a   5.80858371
_cell_length_b   7.68605030
_cell_length_c   10.07382904
_cell_angle_alpha   113.43410503
_cell_angle_beta   89.71445207
_cell_angle_gamma   92.93707777
_symmetry_Int_Tables_number   1
_chemical_formula_structural   MnMo2O7
_chemical_formula_sum   'Mn2 Mo4 O14'
_cell_volume   412.05056949
_cell_formula_units_Z   2
loop_
 _symmetry_equiv_pos_site_id
 _symmetry_equiv_pos_as_xyz
  1  'x, y, z'
loop_
 _atom_site_type_symbol
 _atom_site_label
 _atom_site_symmetry_multiplicity
 _atom_site_fract_x
 _atom_site_fract_y
 _atom_site_fract_z
 _atom_site_occupancy
  Mn  Mn0  1  0.241354  0.292151  0.730727  1
  Mn  Mn1  1  0.758646  0.707849  0.269273  1
  Mo  Mo2  1  0.706420  0.942760  0.664868  1
  Mo  Mo3  1  0.221302  0.356693  0.134157  1
  Mo  Mo4  1  0.778698  0.643307  0.865843  1
  Mo  Mo5  1  0.293580  0.057240  0.335132  1
  O  O6  1  0.738995  0.857892  0.818660  1
  O  O7  1  0.047447  0.545465  0.803671  1
  O  O8  1  0.769275  0.713076  0.055025  1
  O  O9  1  0.555446  0.469462  0.783634  1
  O  O10  1  0.230725  0.286924  0.944975  1
  O  O11  1  0.567256  0.963963  0.328442  1
  O  O12  1  0.735500  0.751838  0.495422  1
  O  O13  1  0.264500  0.248162  0.504578  1
  O  O14  1  0.261005  0.142108  0.181340  1
  O  O15  1  0.432744  0.036037  0.671558  1
  O  O16  1  0.444554  0.530538  0.216366  1
  O  O17  1  0.952553  0.454535  0.196329  1
  O  O18  1  0.920816  0.122562  0.685423  1
  O  O19  1  0.079184  0.877438  0.314577  1
