# generated using pymatgen
data_LuSc19GaBi11
_symmetry_space_group_name_H-M   'P 1'
_cell_length_a   7.74812414
_cell_length_b   8.98499500
_cell_length_c   11.36828913
_cell_angle_alpha   90.00000000
_cell_angle_beta   89.77317325
_cell_angle_gamma   90.00000000
_symmetry_Int_Tables_number   1
_chemical_formula_structural   LuSc19GaBi11
_chemical_formula_sum   'Lu1 Sc19 Ga1 Bi11'
_cell_volume   791.41835325
_cell_formula_units_Z   1
loop_
 _symmetry_equiv_pos_site_id
 _symmetry_equiv_pos_as_xyz
  1  'x, y, z'
loop_
 _atom_site_type_symbol
 _atom_site_label
 _atom_site_symmetry_multiplicity
 _atom_site_fract_x
 _atom_site_fract_y
 _atom_site_fract_z
 _atom_site_occupancy
  Lu  Lu0  1  0.673616  0.250000  0.710792  1
  Sc  Sc1  1  0.034964  0.250000  0.511305  1
  Sc  Sc2  1  0.982176  0.750000  0.488200  1
  Sc  Sc3  1  0.478126  0.750000  0.011516  1
  Sc  Sc4  1  0.521176  0.250000  0.989926  1
  Sc  Sc5  1  0.354272  0.250000  0.291698  1
  Sc  Sc6  1  0.649468  0.750000  0.718777  1
  Sc  Sc7  1  0.151130  0.750000  0.781914  1
  Sc  Sc8  1  0.851226  0.250000  0.218851  1
  Sc  Sc9  1  0.191217  0.250000  0.775100  1
  Sc  Sc10  1  0.811709  0.750000  0.219263  1
  Sc  Sc11  1  0.313283  0.750000  0.279758  1
  Sc  Sc12  1  0.196034  0.066129  0.061532  1
  Sc  Sc13  1  0.803894  0.933402  0.940324  1
  Sc  Sc14  1  0.308315  0.948986  0.558922  1
  Sc  Sc15  1  0.803894  0.566598  0.940324  1
  Sc  Sc16  1  0.684730  0.074600  0.443497  1
  Sc  Sc17  1  0.196034  0.433871  0.061532  1
  Sc  Sc18  1  0.684730  0.425400  0.443497  1
  Sc  Sc19  1  0.308315  0.551014  0.558922  1
  Ga  Ga20  1  0.403859  0.250000  0.535563  1
  Bi  Bi21  1  0.592488  0.750000  0.459833  1
  Bi  Bi22  1  0.092378  0.750000  0.040552  1
  Bi  Bi23  1  0.909175  0.250000  0.959016  1
  Bi  Bi24  1  0.065858  0.004468  0.325482  1
  Bi  Bi25  1  0.937805  0.993701  0.673905  1
  Bi  Bi26  1  0.431943  0.994783  0.825959  1
  Bi  Bi27  1  0.937805  0.506299  0.673905  1
  Bi  Bi28  1  0.566289  0.004787  0.174346  1
  Bi  Bi29  1  0.065858  0.495532  0.325482  1
  Bi  Bi30  1  0.566289  0.495213  0.174346  1
  Bi  Bi31  1  0.431943  0.505217  0.825959  1
