# generated using pymatgen
data_BaNd2Tm(AsPt)4
_symmetry_space_group_name_H-M   'P 1'
_cell_length_a   4.34165500
_cell_length_b   4.34165530
_cell_length_c   16.66485700
_cell_angle_alpha   90.00000000
_cell_angle_beta   90.00000000
_cell_angle_gamma   120.00002060
_symmetry_Int_Tables_number   1
_chemical_formula_structural   BaNd2Tm(AsPt)4
_chemical_formula_sum   'Ba1 Nd2 Tm1 As4 Pt4'
_cell_volume   272.04627454
_cell_formula_units_Z   1
loop_
 _symmetry_equiv_pos_site_id
 _symmetry_equiv_pos_as_xyz
  1  'x, y, z'
loop_
 _atom_site_type_symbol
 _atom_site_label
 _atom_site_symmetry_multiplicity
 _atom_site_fract_x
 _atom_site_fract_y
 _atom_site_fract_z
 _atom_site_occupancy
  Ba  Ba0  1  0.000000  0.000000  0.250000  1
  Nd  Nd1  1  0.000000  0.000000  0.515157  1
  Nd  Nd2  1  0.000000  0.000000  0.984843  1
  Tm  Tm3  1  0.000000  0.000000  0.750000  1
  As  As4  1  0.333333  0.666667  0.870028  1
  As  As5  1  0.666667  0.333333  0.105191  1
  As  As6  1  0.666667  0.333333  0.394809  1
  As  As7  1  0.333333  0.666667  0.629972  1
  Pt  Pt8  1  0.333333  0.666667  0.398885  1
  Pt  Pt9  1  0.666667  0.333333  0.650394  1
  Pt  Pt10  1  0.666667  0.333333  0.849606  1
  Pt  Pt11  1  0.333333  0.666667  0.101115  1
