# generated using pymatgen
data_Dy3ErZr4F28
_symmetry_space_group_name_H-M   'P 1'
_cell_length_a   5.74326139
_cell_length_b   9.08645020
_cell_length_c   12.22397987
_cell_angle_alpha   62.38814817
_cell_angle_beta   90.02005014
_cell_angle_gamma   89.99821892
_symmetry_Int_Tables_number   1
_chemical_formula_structural   Dy3ErZr4F28
_chemical_formula_sum   'Dy3 Er1 Zr4 F28'
_cell_volume   565.26480461
_cell_formula_units_Z   1
loop_
 _symmetry_equiv_pos_site_id
 _symmetry_equiv_pos_as_xyz
  1  'x, y, z'
loop_
 _atom_site_type_symbol
 _atom_site_label
 _atom_site_symmetry_multiplicity
 _atom_site_fract_x
 _atom_site_fract_y
 _atom_site_fract_z
 _atom_site_occupancy
  Dy  Dy0  1  0.743339  0.815495  0.266244  1
  Dy  Dy1  1  0.243479  0.184288  0.233814  1
  Dy  Dy2  1  0.257074  0.182598  0.734014  1
  Er  Er3  1  0.756584  0.815537  0.765993  1
  Zr  Zr4  1  0.744599  0.273681  0.455416  1
  Zr  Zr5  1  0.244007  0.725937  0.044274  1
  Zr  Zr6  1  0.255095  0.725701  0.545824  1
  Zr  Zr7  1  0.755360  0.274886  0.954557  1
  F  F8  1  0.468784  0.712517  0.920359  1
  F  F9  1  0.967882  0.288805  0.579062  1
  F  F10  1  0.532858  0.288682  0.078961  1
  F  F11  1  0.034197  0.710945  0.421217  1
  F  F12  1  0.452832  0.280749  0.549948  1
  F  F13  1  0.951866  0.720465  0.948897  1
  F  F14  1  0.545659  0.718930  0.450517  1
  F  F15  1  0.046743  0.280964  0.049787  1
  F  F16  1  0.767662  0.527471  0.857587  1
  F  F17  1  0.267451  0.473687  0.641966  1
  F  F18  1  0.233087  0.474248  0.142488  1
  F  F19  1  0.732799  0.525671  0.357632  1
  F  F20  1  0.759741  0.023617  0.057863  1
  F  F21  1  0.259858  0.977063  0.441631  1
  F  F22  1  0.240249  0.977470  0.941380  1
  F  F23  1  0.739798  0.022379  0.559555  1
  F  F24  1  0.982346  0.734694  0.650025  1
  F  F25  1  0.483659  0.266198  0.850073  1
  F  F26  1  0.014655  0.266225  0.349907  1
  F  F27  1  0.514005  0.733788  0.149977  1
  F  F28  1  0.034354  0.746241  0.173104  1
  F  F29  1  0.533019  0.254024  0.327040  1
  F  F30  1  0.967352  0.253134  0.827199  1
  F  F31  1  0.469006  0.747216  0.673242  1
  F  F32  1  0.429160  0.973108  0.235022  1
  F  F33  1  0.928424  0.026958  0.265133  1
  F  F34  1  0.574029  0.025203  0.765138  1
  F  F35  1  0.068988  0.971426  0.735151  1
