# generated using pymatgen
data_HoPaBRh6
_symmetry_space_group_name_H-M   'P 1'
_cell_length_a   5.82637992
_cell_length_b   5.82637971
_cell_length_c   5.82637900
_cell_angle_alpha   59.99999833
_cell_angle_beta   59.99999955
_cell_angle_gamma   59.99999848
_symmetry_Int_Tables_number   1
_chemical_formula_structural   HoPaBRh6
_chemical_formula_sum   'Ho1 Pa1 B1 Rh6'
_cell_volume   139.85606551
_cell_formula_units_Z   1
loop_
 _symmetry_equiv_pos_site_id
 _symmetry_equiv_pos_as_xyz
  1  'x, y, z'
loop_
 _atom_site_type_symbol
 _atom_site_label
 _atom_site_symmetry_multiplicity
 _atom_site_fract_x
 _atom_site_fract_y
 _atom_site_fract_z
 _atom_site_occupancy
  Ho  Ho0  1  0.750000  0.750000  0.750000  1
  Pa  Pa1  1  0.250000  0.250000  0.250000  1
  B  B2  1  0.000000  0.000000  0.000000  1
  Rh  Rh3  1  0.743820  0.256181  0.256181  1
  Rh  Rh4  1  0.256181  0.743820  0.256181  1
  Rh  Rh5  1  0.743818  0.743818  0.256183  1
  Rh  Rh6  1  0.256181  0.256181  0.743820  1
  Rh  Rh7  1  0.743818  0.256183  0.743818  1
  Rh  Rh8  1  0.256183  0.743818  0.743818  1
