# generated using pymatgen
data_LuTh2(AlCo)3
_symmetry_space_group_name_H-M   'P 1'
_cell_length_a   6.95225200
_cell_length_b   7.10125176
_cell_length_c   3.85239800
_cell_angle_alpha   90.00000000
_cell_angle_beta   90.00000000
_cell_angle_gamma   119.30829941
_symmetry_Int_Tables_number   1
_chemical_formula_structural   LuTh2(AlCo)3
_chemical_formula_sum   'Lu1 Th2 Al3 Co3'
_cell_volume   165.84685500
_cell_formula_units_Z   1
loop_
 _symmetry_equiv_pos_site_id
 _symmetry_equiv_pos_as_xyz
  1  'x, y, z'
loop_
 _atom_site_type_symbol
 _atom_site_label
 _atom_site_symmetry_multiplicity
 _atom_site_fract_x
 _atom_site_fract_y
 _atom_site_fract_z
 _atom_site_occupancy
  Lu  Lu0  1  0.586288  0.000000  0.000000  1
  Th  Th1  1  0.999331  0.575293  0.000000  1
  Th  Th2  1  0.424038  0.424707  0.000000  1
  Al  Al3  1  0.242656  0.000000  0.500000  1
  Al  Al4  1  0.989682  0.220572  0.500000  1
  Al  Al5  1  0.769110  0.779428  0.500000  1
  Co  Co6  1  0.318388  0.650042  0.500000  1
  Co  Co7  1  0.668348  0.349958  0.500000  1
  Co  Co8  1  0.002160  0.000000  0.000000  1
