# generated using pymatgen
data_Y19Ho(Al3Ru)2
_symmetry_space_group_name_H-M   'P 1'
_cell_length_a   9.56603900
_cell_length_b   9.56603807
_cell_length_c   9.66809700
_cell_angle_alpha   90.00000000
_cell_angle_beta   90.00000000
_cell_angle_gamma   119.99999977
_symmetry_Int_Tables_number   1
_chemical_formula_structural   Y19Ho(Al3Ru)2
_chemical_formula_sum   'Y19 Ho1 Al6 Ru2'
_cell_volume   766.18894895
_cell_formula_units_Z   1
loop_
 _symmetry_equiv_pos_site_id
 _symmetry_equiv_pos_as_xyz
  1  'x, y, z'
loop_
 _atom_site_type_symbol
 _atom_site_label
 _atom_site_symmetry_multiplicity
 _atom_site_fract_x
 _atom_site_fract_y
 _atom_site_fract_z
 _atom_site_occupancy
  Y  Y0  1  0.000000  0.000000  0.000000  1
  Y  Y1  1  0.206809  0.793191  0.440003  1
  Y  Y2  1  0.206809  0.413619  0.440003  1
  Y  Y3  1  0.586381  0.793191  0.440003  1
  Y  Y4  1  0.793191  0.206809  0.559997  1
  Y  Y5  1  0.793191  0.586381  0.559997  1
  Y  Y6  1  0.413619  0.206809  0.559997  1
  Y  Y7  1  0.792817  0.207183  0.939713  1
  Y  Y8  1  0.792817  0.585633  0.939713  1
  Y  Y9  1  0.414367  0.207183  0.939713  1
  Y  Y10  1  0.207183  0.792817  0.060287  1
  Y  Y11  1  0.207183  0.414367  0.060287  1
  Y  Y12  1  0.585633  0.792817  0.060287  1
  Y  Y13  1  0.540112  0.459888  0.250034  1
  Y  Y14  1  0.540112  0.080224  0.250034  1
  Y  Y15  1  0.919776  0.459888  0.250034  1
  Y  Y16  1  0.459888  0.540112  0.749966  1
  Y  Y17  1  0.459888  0.919776  0.749966  1
  Y  Y18  1  0.080224  0.540112  0.749966  1
  Ho  Ho19  1  0.000000  0.000000  0.500000  1
  Al  Al20  1  0.888340  0.111660  0.250390  1
  Al  Al21  1  0.888340  0.776680  0.250390  1
  Al  Al22  1  0.223320  0.111660  0.250390  1
  Al  Al23  1  0.111660  0.888340  0.749610  1
  Al  Al24  1  0.111660  0.223320  0.749610  1
  Al  Al25  1  0.776680  0.888340  0.749610  1
  Ru  Ru26  1  0.333333  0.666667  0.249954  1
  Ru  Ru27  1  0.666667  0.333333  0.750046  1
