# generated using pymatgen
data_La12Os3AuI12
_symmetry_space_group_name_H-M   'P 1'
_cell_length_a   11.09351158
_cell_length_b   11.09311011
_cell_length_c   11.09399666
_cell_angle_alpha   109.81629173
_cell_angle_beta   109.84317541
_cell_angle_gamma   109.81538667
_symmetry_Int_Tables_number   1
_chemical_formula_structural   La12Os3AuI12
_chemical_formula_sum   'La12 Os3 Au1 I12'
_cell_volume   1036.97327380
_cell_formula_units_Z   1
loop_
 _symmetry_equiv_pos_site_id
 _symmetry_equiv_pos_as_xyz
  1  'x, y, z'
loop_
 _atom_site_type_symbol
 _atom_site_label
 _atom_site_symmetry_multiplicity
 _atom_site_fract_x
 _atom_site_fract_y
 _atom_site_fract_z
 _atom_site_occupancy
  La  La0  1  0.458880  0.489636  0.220951  1
  La  La1  1  0.749981  0.228764  0.271211  1
  La  La2  1  0.749976  0.021739  0.478228  1
  La  La3  1  0.221000  0.458864  0.489647  1
  La  La4  1  0.271232  0.749994  0.228771  1
  La  La5  1  0.041157  0.279019  0.010363  1
  La  La6  1  0.010389  0.041118  0.279042  1
  La  La7  1  0.478263  0.750021  0.021771  1
  La  La8  1  0.489636  0.220973  0.458859  1
  La  La9  1  0.021772  0.478262  0.750026  1
  La  La10  1  0.279083  0.010380  0.041178  1
  La  La11  1  0.228795  0.271196  0.749987  1
  Os  Os12  1  0.498933  0.001075  0.249923  1
  Os  Os13  1  0.001041  0.250002  0.498938  1
  Os  Os14  1  0.249945  0.498935  0.001187  1
  Au  Au15  1  0.249883  0.250019  0.249949  1
  I  I16  1  0.250002  0.760038  0.739958  1
  I  I17  1  0.515877  0.507658  0.758144  1
  I  I18  1  0.984127  0.741853  0.992335  1
  I  I19  1  0.739968  0.250003  0.760034  1
  I  I20  1  0.992346  0.984131  0.741852  1
  I  I21  1  0.250001  0.992281  0.507724  1
  I  I22  1  0.758143  0.515870  0.507652  1
  I  I23  1  0.507723  0.250002  0.992275  1
  I  I24  1  0.760044  0.739962  0.250002  1
  I  I25  1  0.741858  0.992341  0.984121  1
  I  I26  1  0.992282  0.507723  0.250001  1
  I  I27  1  0.507665  0.758143  0.515871  1
