# generated using pymatgen
data_Y12Ir2PdPt
_symmetry_space_group_name_H-M   'P 1'
_cell_length_a   6.47450101
_cell_length_b   7.17840835
_cell_length_c   9.51620600
_cell_angle_alpha   90.00000000
_cell_angle_beta   90.00000000
_cell_angle_gamma   89.98602736
_symmetry_Int_Tables_number   1
_chemical_formula_structural   Y12Ir2PdPt
_chemical_formula_sum   'Y12 Ir2 Pd1 Pt1'
_cell_volume   442.28100190
_cell_formula_units_Z   1
loop_
 _symmetry_equiv_pos_site_id
 _symmetry_equiv_pos_as_xyz
  1  'x, y, z'
loop_
 _atom_site_type_symbol
 _atom_site_label
 _atom_site_symmetry_multiplicity
 _atom_site_fract_x
 _atom_site_fract_y
 _atom_site_fract_z
 _atom_site_occupancy
  Y  Y0  1  0.628269  0.037775  0.250000  1
  Y  Y1  1  0.369838  0.963247  0.750000  1
  Y  Y2  1  0.135256  0.472889  0.750000  1
  Y  Y3  1  0.863066  0.524727  0.250000  1
  Y  Y4  1  0.176818  0.183664  0.062274  1
  Y  Y5  1  0.822583  0.817585  0.936378  1
  Y  Y6  1  0.672327  0.321523  0.938362  1
  Y  Y7  1  0.822583  0.817585  0.563622  1
  Y  Y8  1  0.329935  0.677237  0.060744  1
  Y  Y9  1  0.176818  0.183664  0.437726  1
  Y  Y10  1  0.329935  0.677237  0.439256  1
  Y  Y11  1  0.672327  0.321523  0.561638  1
  Ir  Ir12  1  0.449502  0.386370  0.250000  1
  Ir  Ir13  1  0.549467  0.613770  0.750000  1
  Pd  Pd14  1  0.049745  0.886801  0.250000  1
  Pt  Pt15  1  0.951531  0.114404  0.750000  1
