# generated using pymatgen
data_YHo3(HfRh)4
_symmetry_space_group_name_H-M   'P 1'
_cell_length_a   4.58593500
_cell_length_b   7.01854903
_cell_length_c   8.24945909
_cell_angle_alpha   90.01360967
_cell_angle_beta   90.00000000
_cell_angle_gamma   90.00000000
_symmetry_Int_Tables_number   1
_chemical_formula_structural   YHo3(HfRh)4
_chemical_formula_sum   'Y1 Ho3 Hf4 Rh4'
_cell_volume   265.52211192
_cell_formula_units_Z   1
loop_
 _symmetry_equiv_pos_site_id
 _symmetry_equiv_pos_as_xyz
  1  'x, y, z'
loop_
 _atom_site_type_symbol
 _atom_site_label
 _atom_site_symmetry_multiplicity
 _atom_site_fract_x
 _atom_site_fract_y
 _atom_site_fract_z
 _atom_site_occupancy
  Y  Y0  1  0.750000  0.517046  0.821881  1
  Ho  Ho1  1  0.250000  0.982307  0.322541  1
  Ho  Ho2  1  0.250000  0.481945  0.177309  1
  Ho  Ho3  1  0.750000  0.017818  0.677156  1
  Hf  Hf4  1  0.250000  0.359880  0.571931  1
  Hf  Hf5  1  0.250000  0.859626  0.927701  1
  Hf  Hf6  1  0.750000  0.641041  0.426549  1
  Hf  Hf7  1  0.750000  0.139777  0.073311  1
  Rh  Rh8  1  0.250000  0.229542  0.910086  1
  Rh  Rh9  1  0.250000  0.731590  0.589648  1
  Rh  Rh10  1  0.750000  0.769751  0.092285  1
  Rh  Rh11  1  0.750000  0.269679  0.409602  1
