# generated using pymatgen
data_DyLu7Tc3OsC8
_symmetry_space_group_name_H-M   'P 1'
_cell_length_a   4.98581100
_cell_length_b   6.46238083
_cell_length_c   9.67879547
_cell_angle_alpha   89.60687311
_cell_angle_beta   90.00000000
_cell_angle_gamma   90.00000000
_symmetry_Int_Tables_number   1
_chemical_formula_structural   DyLu7Tc3OsC8
_chemical_formula_sum   'Dy1 Lu7 Tc3 Os1 C8'
_cell_volume   311.84547622
_cell_formula_units_Z   1
loop_
 _symmetry_equiv_pos_site_id
 _symmetry_equiv_pos_as_xyz
  1  'x, y, z'
loop_
 _atom_site_type_symbol
 _atom_site_label
 _atom_site_symmetry_multiplicity
 _atom_site_fract_x
 _atom_site_fract_y
 _atom_site_fract_z
 _atom_site_occupancy
  Dy  Dy0  1  0.250000  0.033653  0.284504  1
  Lu  Lu1  1  0.250000  0.673833  0.559057  1
  Lu  Lu2  1  0.750000  0.326657  0.440950  1
  Lu  Lu3  1  0.750000  0.826410  0.058704  1
  Lu  Lu4  1  0.250000  0.171823  0.941424  1
  Lu  Lu5  1  0.250000  0.533952  0.217408  1
  Lu  Lu6  1  0.750000  0.463143  0.782015  1
  Lu  Lu7  1  0.750000  0.965001  0.714905  1
  Tc  Tc8  1  0.250000  0.713484  0.868557  1
  Tc  Tc9  1  0.750000  0.286642  0.129342  1
  Tc  Tc10  1  0.750000  0.784528  0.369933  1
  Os  Os11  1  0.250000  0.215259  0.631533  1
  C  C12  1  0.250000  0.446746  0.759462  1
  C  C13  1  0.750000  0.553505  0.240772  1
  C  C14  1  0.750000  0.053932  0.258961  1
  C  C15  1  0.250000  0.947855  0.740990  1
  C  C16  1  0.250000  0.824505  0.053115  1
  C  C17  1  0.750000  0.173949  0.944359  1
  C  C18  1  0.750000  0.673095  0.556324  1
  C  C19  1  0.250000  0.332028  0.447687  1
