# generated using pymatgen
data_LaTh7(Si3Pd)4
_symmetry_space_group_name_H-M   'P 1'
_cell_length_a   8.24825400
_cell_length_b   8.24825443
_cell_length_c   8.54977300
_cell_angle_alpha   90.00000000
_cell_angle_beta   90.00000000
_cell_angle_gamma   119.99999827
_symmetry_Int_Tables_number   1
_chemical_formula_structural   LaTh7(Si3Pd)4
_chemical_formula_sum   'La1 Th7 Si12 Pd4'
_cell_volume   503.74331853
_cell_formula_units_Z   1
loop_
 _symmetry_equiv_pos_site_id
 _symmetry_equiv_pos_as_xyz
  1  'x, y, z'
loop_
 _atom_site_type_symbol
 _atom_site_label
 _atom_site_symmetry_multiplicity
 _atom_site_fract_x
 _atom_site_fract_y
 _atom_site_fract_z
 _atom_site_occupancy
  La  La0  1  0.000000  0.000000  0.250000  1
  Th  Th1  1  0.499431  0.500569  0.750000  1
  Th  Th2  1  0.500567  0.499433  0.250000  1
  Th  Th3  1  0.001137  0.500569  0.750000  1
  Th  Th4  1  0.998867  0.499433  0.250000  1
  Th  Th5  1  0.499431  0.998863  0.750000  1
  Th  Th6  1  0.500567  0.001133  0.250000  1
  Th  Th7  1  0.000000  0.000000  0.750000  1
  Si  Si8  1  0.834077  0.165923  0.999568  1
  Si  Si9  1  0.165921  0.834079  0.000343  1
  Si  Si10  1  0.331847  0.165923  0.999568  1
  Si  Si11  1  0.165921  0.834079  0.499657  1
  Si  Si12  1  0.668157  0.834079  0.000343  1
  Si  Si13  1  0.834077  0.165923  0.500432  1
  Si  Si14  1  0.834077  0.668153  0.999568  1
  Si  Si15  1  0.668157  0.834079  0.499657  1
  Si  Si16  1  0.165921  0.331843  0.000343  1
  Si  Si17  1  0.331847  0.165923  0.500432  1
  Si  Si18  1  0.165921  0.331843  0.499657  1
  Si  Si19  1  0.834077  0.668153  0.500432  1
  Pd  Pd20  1  0.666667  0.333333  0.996811  1
  Pd  Pd21  1  0.333333  0.666667  0.001285  1
  Pd  Pd22  1  0.333333  0.666667  0.498715  1
  Pd  Pd23  1  0.666667  0.333333  0.503189  1
