# generated using pymatgen
data_Ti8VRe(Si3C)2
_symmetry_space_group_name_H-M   'P 1'
_cell_length_a   7.40853100
_cell_length_b   7.40853071
_cell_length_c   5.10685400
_cell_angle_alpha   90.00000000
_cell_angle_beta   90.00000000
_cell_angle_gamma   119.99999685
_symmetry_Int_Tables_number   1
_chemical_formula_structural   Ti8VRe(Si3C)2
_chemical_formula_sum   'Ti8 V1 Re1 Si6 C2'
_cell_volume   242.74387205
_cell_formula_units_Z   1
loop_
 _symmetry_equiv_pos_site_id
 _symmetry_equiv_pos_as_xyz
  1  'x, y, z'
loop_
 _atom_site_type_symbol
 _atom_site_label
 _atom_site_symmetry_multiplicity
 _atom_site_fract_x
 _atom_site_fract_y
 _atom_site_fract_z
 _atom_site_occupancy
  Ti  Ti0  1  0.666667  0.333333  0.500000  1
  Ti  Ti1  1  0.333333  0.666667  0.500000  1
  Ti  Ti2  1  0.232030  0.999357  0.252269  1
  Ti  Ti3  1  0.767326  0.999357  0.747731  1
  Ti  Ti4  1  0.000643  0.232674  0.252269  1
  Ti  Ti5  1  0.000643  0.767970  0.747731  1
  Ti  Ti6  1  0.767326  0.767970  0.252269  1
  Ti  Ti7  1  0.232030  0.232674  0.747731  1
  V  V8  1  0.333333  0.666667  0.000000  1
  Re  Re9  1  0.666667  0.333333  0.000000  1
  Si  Si10  1  0.591658  0.997779  0.238037  1
  Si  Si11  1  0.406121  0.997779  0.761963  1
  Si  Si12  1  0.002221  0.593879  0.238037  1
  Si  Si13  1  0.002221  0.408342  0.761963  1
  Si  Si14  1  0.406121  0.408342  0.238037  1
  Si  Si15  1  0.591658  0.593879  0.761963  1
  C  C16  1  0.000000  0.000000  0.000000  1
  C  C17  1  0.000000  0.000000  0.500000  1
