# generated using pymatgen
data_Tb8Dy8Ho3ScSi15Tc
_symmetry_space_group_name_H-M   'P 1'
_cell_length_a   7.33915001
_cell_length_b   7.76157475
_cell_length_c   14.54480800
_cell_angle_alpha   90.00000000
_cell_angle_beta   90.00000000
_cell_angle_gamma   90.20707362
_symmetry_Int_Tables_number   1
_chemical_formula_structural   Tb8Dy8Ho3ScSi15Tc
_chemical_formula_sum   'Tb8 Dy8 Ho3 Sc1 Si15 Tc1'
_cell_volume   828.51574276
_cell_formula_units_Z   1
loop_
 _symmetry_equiv_pos_site_id
 _symmetry_equiv_pos_as_xyz
  1  'x, y, z'
loop_
 _atom_site_type_symbol
 _atom_site_label
 _atom_site_symmetry_multiplicity
 _atom_site_fract_x
 _atom_site_fract_y
 _atom_site_fract_z
 _atom_site_occupancy
  Tb  Tb0  1  0.022167  0.183118  0.097960  1
  Tb  Tb1  1  0.982911  0.826403  0.905910  1
  Tb  Tb2  1  0.480865  0.682363  0.904917  1
  Tb  Tb3  1  0.982911  0.826403  0.594090  1
  Tb  Tb4  1  0.519162  0.316073  0.097925  1
  Tb  Tb5  1  0.022167  0.183118  0.402040  1
  Tb  Tb6  1  0.519162  0.316073  0.402075  1
  Tb  Tb7  1  0.480865  0.682363  0.595083  1
  Dy  Dy8  1  0.311070  0.174702  0.626568  1
  Dy  Dy9  1  0.677326  0.824022  0.374187  1
  Dy  Dy10  1  0.178771  0.681160  0.374165  1
  Dy  Dy11  1  0.677326  0.824022  0.125813  1
  Dy  Dy12  1  0.832520  0.315604  0.624773  1
  Dy  Dy13  1  0.311070  0.174702  0.873432  1
  Dy  Dy14  1  0.832520  0.315604  0.875227  1
  Dy  Dy15  1  0.178771  0.681160  0.125835  1
  Ho  Ho16  1  0.152576  0.515521  0.750000  1
  Ho  Ho17  1  0.844567  0.485252  0.250000  1
  Ho  Ho18  1  0.662995  0.987024  0.750000  1
  Sc  Sc19  1  0.342560  0.017393  0.250000  1
  Si  Si20  1  0.978136  0.903666  0.250000  1
  Si  Si21  1  0.476189  0.598875  0.250000  1
  Si  Si22  1  0.526329  0.397970  0.750000  1
  Si  Si23  1  0.275252  0.865869  0.750000  1
  Si  Si24  1  0.718286  0.129857  0.250000  1
  Si  Si25  1  0.227528  0.363226  0.250000  1
  Si  Si26  1  0.765493  0.624673  0.750000  1
  Si  Si27  1  0.154821  0.473913  0.537119  1
  Si  Si28  1  0.849112  0.531346  0.461038  1
  Si  Si29  1  0.348122  0.971272  0.458750  1
  Si  Si30  1  0.849112  0.531346  0.038962  1
  Si  Si31  1  0.646510  0.029919  0.537343  1
  Si  Si32  1  0.154821  0.473913  0.962881  1
  Si  Si33  1  0.646510  0.029919  0.962657  1
  Si  Si34  1  0.348122  0.971272  0.041250  1
  Tc  Tc35  1  0.023374  0.090883  0.750000  1
