# generated using pymatgen
data_Li3Tb2YAgSn4
_symmetry_space_group_name_H-M   'P 1'
_cell_length_a   4.60824216
_cell_length_b   7.19242056
_cell_length_c   8.66712791
_cell_angle_alpha   114.43470658
_cell_angle_beta   105.41722621
_cell_angle_gamma   89.99999914
_symmetry_Int_Tables_number   1
_chemical_formula_structural   Li3Tb2YAgSn4
_chemical_formula_sum   'Li3 Tb2 Y1 Ag1 Sn4'
_cell_volume   250.13914246
_cell_formula_units_Z   1
loop_
 _symmetry_equiv_pos_site_id
 _symmetry_equiv_pos_as_xyz
  1  'x, y, z'
loop_
 _atom_site_type_symbol
 _atom_site_label
 _atom_site_symmetry_multiplicity
 _atom_site_fract_x
 _atom_site_fract_y
 _atom_site_fract_z
 _atom_site_occupancy
  Li  Li0  1  0.327051  0.014171  0.654102  1
  Li  Li1  1  0.671009  0.981372  0.342018  1
  Li  Li2  1  0.325231  0.634514  0.650463  1
  Tb  Tb3  1  0.872100  0.375329  0.744200  1
  Tb  Tb4  1  0.128264  0.628931  0.256527  1
  Y  Y5  1  0.001959  0.002274  0.003919  1
  Ag  Ag6  1  0.674530  0.366765  0.349061  1
  Sn  Sn7  1  0.215926  0.203324  0.431854  1
  Sn  Sn8  1  0.787780  0.794865  0.575559  1
  Sn  Sn9  1  0.497246  0.298628  0.994491  1
  Sn  Sn10  1  0.498903  0.699828  0.997806  1
