# generated using pymatgen
data_Sr2UCuS5
_symmetry_space_group_name_H-M   'P 1'
_cell_length_a   11.58510119
_cell_length_b   8.28449700
_cell_length_c   8.82779100
_cell_angle_alpha   90.00000000
_cell_angle_beta   89.98963393
_cell_angle_gamma   90.00000000
_symmetry_Int_Tables_number   1
_chemical_formula_structural   Sr2UCuS5
_chemical_formula_sum   'Sr8 U4 Cu4 S20'
_cell_volume   847.26255284
_cell_formula_units_Z   4
loop_
 _symmetry_equiv_pos_site_id
 _symmetry_equiv_pos_as_xyz
  1  'x, y, z'
loop_
 _atom_site_type_symbol
 _atom_site_label
 _atom_site_symmetry_multiplicity
 _atom_site_fract_x
 _atom_site_fract_y
 _atom_site_fract_z
 _atom_site_occupancy
  Sr  Sr0  1  0.834490  0.004346  0.110509  1
  Sr  Sr1  1  0.834490  0.495654  0.110509  1
  Sr  Sr2  1  0.334624  0.004309  0.389557  1
  Sr  Sr3  1  0.334624  0.495691  0.389557  1
  Sr  Sr4  1  0.665434  0.504318  0.610142  1
  Sr  Sr5  1  0.665434  0.995682  0.610142  1
  Sr  Sr6  1  0.165405  0.504302  0.889936  1
  Sr  Sr7  1  0.165405  0.995698  0.889936  1
  U  U8  1  0.504342  0.750000  0.026851  1
  U  U9  1  0.004405  0.750000  0.473040  1
  U  U10  1  0.995615  0.249999  0.527379  1
  U  U11  1  0.495539  0.249999  0.972485  1
  Cu  Cu12  1  0.101291  0.249999  0.187039  1
  Cu  Cu13  1  0.601112  0.249999  0.313050  1
  Cu  Cu14  1  0.398949  0.750000  0.686218  1
  Cu  Cu15  1  0.899062  0.750000  0.813549  1
  S  S16  1  0.007113  0.750000  0.026016  1
  S  S17  1  0.296042  0.249999  0.112902  1
  S  S18  1  0.300349  0.750000  0.133821  1
  S  S19  1  0.565821  0.024549  0.168407  1
  S  S20  1  0.565821  0.475451  0.168407  1
  S  S21  1  0.065851  0.024616  0.331522  1
  S  S22  1  0.065851  0.475384  0.331522  1
  S  S23  1  0.800352  0.750000  0.366268  1
  S  S24  1  0.795975  0.249999  0.387172  1
  S  S25  1  0.507257  0.750000  0.473870  1
  S  S26  1  0.492777  0.249999  0.525600  1
  S  S27  1  0.204009  0.750000  0.612895  1
  S  S28  1  0.199624  0.249999  0.634226  1
  S  S29  1  0.934246  0.524538  0.669005  1
  S  S30  1  0.934246  0.975461  0.669005  1
  S  S31  1  0.434078  0.524743  0.831013  1
  S  S32  1  0.434078  0.975256  0.831013  1
  S  S33  1  0.699623  0.249999  0.865774  1
  S  S34  1  0.703883  0.750000  0.886896  1
  S  S35  1  0.992787  0.249999  0.974769  1
