# generated using pymatgen
data_Ba2Bi2Te3O2
_symmetry_space_group_name_H-M   'P 1'
_cell_length_a   4.42287100
_cell_length_b   10.19466222
_cell_length_c   12.76678052
_cell_angle_alpha   100.04015012
_cell_angle_beta   90.00000000
_cell_angle_gamma   90.00000000
_symmetry_Int_Tables_number   1
_chemical_formula_structural   Ba2Bi2Te3O2
_chemical_formula_sum   'Ba4 Bi4 Te6 O4'
_cell_volume   566.83439212
_cell_formula_units_Z   2
loop_
 _symmetry_equiv_pos_site_id
 _symmetry_equiv_pos_as_xyz
  1  'x, y, z'
loop_
 _atom_site_type_symbol
 _atom_site_label
 _atom_site_symmetry_multiplicity
 _atom_site_fract_x
 _atom_site_fract_y
 _atom_site_fract_z
 _atom_site_occupancy
  Ba  Ba0  1  0.501715  0.706086  0.611867  1
  Ba  Ba1  1  0.001715  0.793914  0.888133  1
  Ba  Ba2  1  0.498285  0.293914  0.388133  1
  Ba  Ba3  1  0.998285  0.206086  0.111867  1
  Bi  Bi4  1  0.501050  0.454960  0.814714  1
  Bi  Bi5  1  0.001050  0.045040  0.685286  1
  Bi  Bi6  1  0.498950  0.545040  0.185286  1
  Bi  Bi7  1  0.998950  0.954960  0.314714  1
  Te  Te8  1  0.500000  0.000000  0.500000  1
  Te  Te9  1  0.000000  0.500000  0.000000  1
  Te  Te10  1  0.500997  0.099492  0.860147  1
  Te  Te11  1  0.000997  0.400508  0.639853  1
  Te  Te12  1  0.499003  0.900508  0.139853  1
  Te  Te13  1  0.999003  0.599492  0.360147  1
  O  O14  1  0.498872  0.334541  0.187331  1
  O  O15  1  0.998872  0.165459  0.312669  1
  O  O16  1  0.501128  0.665459  0.812669  1
  O  O17  1  0.001128  0.834541  0.687331  1
