# generated using pymatgen
data_Rb3LuBr6
_symmetry_space_group_name_H-M   'P 1'
_cell_length_a   8.19335002
_cell_length_b   8.19334968
_cell_length_c   8.42883341
_cell_angle_alpha   118.59727496
_cell_angle_beta   118.59727378
_cell_angle_gamma   60.95397941
_symmetry_Int_Tables_number   1
_chemical_formula_structural   Rb3LuBr6
_chemical_formula_sum   'Rb3 Lu1 Br6'
_cell_volume   411.36447442
_cell_formula_units_Z   1
loop_
 _symmetry_equiv_pos_site_id
 _symmetry_equiv_pos_as_xyz
  1  'x, y, z'
loop_
 _atom_site_type_symbol
 _atom_site_label
 _atom_site_symmetry_multiplicity
 _atom_site_fract_x
 _atom_site_fract_y
 _atom_site_fract_z
 _atom_site_occupancy
  Rb  Rb0  1  0.500000  0.500000  0.500001  1
  Rb  Rb1  1  0.746506  0.746506  0.224464  1
  Rb  Rb2  1  0.253494  0.253494  0.775538  1
  Lu  Lu3  1  0.000000  0.000000  0.000000  1
  Br  Br4  1  0.703344  0.169962  0.156276  1
  Br  Br5  1  0.169962  0.703344  0.156276  1
  Br  Br6  1  0.217774  0.217774  0.326726  1
  Br  Br7  1  0.782226  0.782226  0.673274  1
  Br  Br8  1  0.830038  0.296657  0.843723  1
  Br  Br9  1  0.296657  0.830038  0.843723  1
