# generated using pymatgen
data_Sc4AlGa(Co5B2)2
_symmetry_space_group_name_H-M   'P 1'
_cell_length_a   8.76215900
_cell_length_b   8.76215900
_cell_length_c   2.94055100
_cell_angle_alpha   90.00000000
_cell_angle_beta   90.00000000
_cell_angle_gamma   90.00000000
_symmetry_Int_Tables_number   1
_chemical_formula_structural   Sc4AlGa(Co5B2)2
_chemical_formula_sum   'Sc4 Al1 Ga1 Co10 B4'
_cell_volume   225.76206847
_cell_formula_units_Z   1
loop_
 _symmetry_equiv_pos_site_id
 _symmetry_equiv_pos_as_xyz
  1  'x, y, z'
loop_
 _atom_site_type_symbol
 _atom_site_label
 _atom_site_symmetry_multiplicity
 _atom_site_fract_x
 _atom_site_fract_y
 _atom_site_fract_z
 _atom_site_occupancy
  Sc  Sc0  1  0.674857  0.175573  0.000000  1
  Sc  Sc1  1  0.325143  0.824427  0.000000  1
  Sc  Sc2  1  0.175573  0.325143  0.000000  1
  Sc  Sc3  1  0.824427  0.674857  0.000000  1
  Al  Al4  1  0.500000  0.500000  0.000000  1
  Ga  Ga5  1  0.000000  0.000000  0.000000  1
  Co  Co6  1  0.222478  0.069773  0.500000  1
  Co  Co7  1  0.777522  0.930227  0.500000  1
  Co  Co8  1  0.069773  0.777522  0.500000  1
  Co  Co9  1  0.722462  0.430237  0.500000  1
  Co  Co10  1  0.930227  0.222478  0.500000  1
  Co  Co11  1  0.277538  0.569763  0.500000  1
  Co  Co12  1  0.569763  0.722462  0.500000  1
  Co  Co13  1  0.430237  0.277538  0.500000  1
  Co  Co14  1  0.500000  0.000000  0.500000  1
  Co  Co15  1  0.000000  0.500000  0.500000  1
  B  B16  1  0.120385  0.621078  0.000000  1
  B  B17  1  0.879615  0.378922  0.000000  1
  B  B18  1  0.621078  0.879615  0.000000  1
  B  B19  1  0.378922  0.120385  0.000000  1
