# generated using pymatgen
data_Dy6Sc2Re9Si16Mo3
_symmetry_space_group_name_H-M   'P 1'
_cell_length_a   6.75272324
_cell_length_b   6.75143889
_cell_length_c   12.79415847
_cell_angle_alpha   90.34214127
_cell_angle_beta   90.09816117
_cell_angle_gamma   90.05867618
_symmetry_Int_Tables_number   1
_chemical_formula_structural   Dy6Sc2Re9Si16Mo3
_chemical_formula_sum   'Dy6 Sc2 Re9 Si16 Mo3'
_cell_volume   583.28177169
_cell_formula_units_Z   1
loop_
 _symmetry_equiv_pos_site_id
 _symmetry_equiv_pos_as_xyz
  1  'x, y, z'
loop_
 _atom_site_type_symbol
 _atom_site_label
 _atom_site_symmetry_multiplicity
 _atom_site_fract_x
 _atom_site_fract_y
 _atom_site_fract_z
 _atom_site_occupancy
  Dy  Dy0  1  0.005891  0.664345  0.029222  1
  Dy  Dy1  1  0.992556  0.336889  0.532880  1
  Dy  Dy2  1  0.337010  0.992752  0.470019  1
  Dy  Dy3  1  0.163095  0.493834  0.781861  1
  Dy  Dy4  1  0.837023  0.506491  0.279898  1
  Dy  Dy5  1  0.493773  0.163040  0.218663  1
  Sc  Sc6  1  0.511902  0.843094  0.719643  1
  Sc  Sc7  1  0.656875  0.011320  0.967924  1
  Re  Re8  1  0.012703  0.814121  0.634069  1
  Re  Re9  1  0.990336  0.181987  0.129010  1
  Re  Re10  1  0.814693  0.008418  0.369948  1
  Re  Re11  1  0.314386  0.489855  0.382686  1
  Re  Re12  1  0.682028  0.516207  0.880993  1
  Re  Re13  1  0.486815  0.314927  0.619532  1
  Re  Re14  1  0.514006  0.688045  0.114938  1
  Re  Re15  1  0.190604  0.983800  0.864637  1
  Re  Re16  1  0.830728  0.161251  0.752378  1
  Si  Si17  1  0.021965  0.722994  0.440472  1
  Si  Si18  1  0.616746  0.301934  0.433159  1
  Si  Si19  1  0.387091  0.702769  0.929977  1
  Si  Si20  1  0.200517  0.112771  0.682963  1
  Si  Si21  1  0.305474  0.620317  0.571292  1
  Si  Si22  1  0.698171  0.378359  0.065228  1
  Si  Si23  1  0.801560  0.884174  0.180304  1
  Si  Si24  1  0.116359  0.197975  0.317323  1
  Si  Si25  1  0.973829  0.269987  0.937002  1
  Si  Si26  1  0.721906  0.020802  0.565269  1
  Si  Si27  1  0.226248  0.478866  0.188154  1
  Si  Si28  1  0.770664  0.524713  0.691148  1
  Si  Si29  1  0.480447  0.218293  0.811593  1
  Si  Si30  1  0.521392  0.774813  0.309700  1
  Si  Si31  1  0.282043  0.977236  0.057958  1
  Si  Si32  1  0.876844  0.808556  0.819487  1
  Mo  Mo33  1  0.662833  0.664851  0.503171  1
  Mo  Mo34  1  0.164116  0.836796  0.249349  1
  Mo  Mo35  1  0.337373  0.333418  0.998151  1
