# generated using pymatgen
data_TbPr2PaPt4
_symmetry_space_group_name_H-M   'P 1'
_cell_length_a   4.61218100
_cell_length_b   5.70309169
_cell_length_c   7.22448735
_cell_angle_alpha   91.45306911
_cell_angle_beta   90.00000000
_cell_angle_gamma   90.00000000
_symmetry_Int_Tables_number   1
_chemical_formula_structural   TbPr2PaPt4
_chemical_formula_sum   'Tb1 Pr2 Pa1 Pt4'
_cell_volume   189.96957570
_cell_formula_units_Z   1
loop_
 _symmetry_equiv_pos_site_id
 _symmetry_equiv_pos_as_xyz
  1  'x, y, z'
loop_
 _atom_site_type_symbol
 _atom_site_label
 _atom_site_symmetry_multiplicity
 _atom_site_fract_x
 _atom_site_fract_y
 _atom_site_fract_z
 _atom_site_occupancy
  Tb  Tb0  1  0.750000  0.854138  0.818282  1
  Pr  Pr1  1  0.250000  0.141260  0.184036  1
  Pr  Pr2  1  0.750000  0.645294  0.317252  1
  Pa  Pa3  1  0.250000  0.356676  0.683556  1
  Pt  Pt4  1  0.250000  0.840756  0.565875  1
  Pt  Pt5  1  0.250000  0.647406  0.020933  1
  Pt  Pt6  1  0.750000  0.171210  0.480866  1
  Pt  Pt7  1  0.750000  0.343259  0.929198  1
