# generated using pymatgen
data_Ho6CoTc
_symmetry_space_group_name_H-M   'P 1'
_cell_length_a   6.26438500
_cell_length_b   7.15465900
_cell_length_c   9.15466100
_cell_angle_alpha   90.00000000
_cell_angle_beta   90.00000000
_cell_angle_gamma   90.00000000
_symmetry_Int_Tables_number   1
_chemical_formula_structural   Ho6CoTc
_chemical_formula_sum   'Ho12 Co2 Tc2'
_cell_volume   410.30768132
_cell_formula_units_Z   2
loop_
 _symmetry_equiv_pos_site_id
 _symmetry_equiv_pos_as_xyz
  1  'x, y, z'
loop_
 _atom_site_type_symbol
 _atom_site_label
 _atom_site_symmetry_multiplicity
 _atom_site_fract_x
 _atom_site_fract_y
 _atom_site_fract_z
 _atom_site_occupancy
  Ho  Ho0  1  0.668290  0.173315  0.063473  1
  Ho  Ho1  1  0.370482  0.546672  0.250000  1
  Ho  Ho2  1  0.143834  0.040775  0.250000  1
  Ho  Ho3  1  0.823177  0.681488  0.433342  1
  Ho  Ho4  1  0.323177  0.818512  0.933342  1
  Ho  Ho5  1  0.168290  0.326685  0.563473  1
  Ho  Ho6  1  0.668290  0.173315  0.436527  1
  Ho  Ho7  1  0.168290  0.326685  0.936527  1
  Ho  Ho8  1  0.323177  0.818512  0.566658  1
  Ho  Ho9  1  0.870482  0.953328  0.750000  1
  Ho  Ho10  1  0.643834  0.459225  0.750000  1
  Ho  Ho11  1  0.823177  0.681488  0.066658  1
  Co  Co12  1  0.540747  0.885413  0.250000  1
  Co  Co13  1  0.040747  0.614587  0.750000  1
  Tc  Tc14  1  0.962003  0.390770  0.250000  1
  Tc  Tc15  1  0.462003  0.109230  0.750000  1
