# generated using pymatgen
data_Ca3Nd(CuH6)2
_symmetry_space_group_name_H-M   'P 1'
_cell_length_a   6.99322198
_cell_length_b   6.99319670
_cell_length_c   5.17696900
_cell_angle_alpha   90.00040763
_cell_angle_beta   89.99974856
_cell_angle_gamma   136.61177910
_symmetry_Int_Tables_number   1
_chemical_formula_structural   Ca3Nd(CuH6)2
_chemical_formula_sum   'Ca3 Nd1 Cu2 H12'
_cell_volume   173.91868470
_cell_formula_units_Z   1
loop_
 _symmetry_equiv_pos_site_id
 _symmetry_equiv_pos_as_xyz
  1  'x, y, z'
loop_
 _atom_site_type_symbol
 _atom_site_label
 _atom_site_symmetry_multiplicity
 _atom_site_fract_x
 _atom_site_fract_y
 _atom_site_fract_z
 _atom_site_occupancy
  Ca  Ca0  1  0.647791  0.352208  0.000014  1
  Ca  Ca1  1  0.854783  0.145218  0.499984  1
  Ca  Ca2  1  0.354773  0.645227  0.999994  1
  Nd  Nd3  1  0.144530  0.855470  0.500014  1
  Cu  Cu4  1  0.499422  0.500579  0.499999  1
  Cu  Cu5  1  0.998826  0.001174  0.000000  1
  H  H6  1  0.000190  0.502747  0.748800  1
  H  H7  1  0.497284  0.999844  0.251203  1
  H  H8  1  0.000125  0.502683  0.251223  1
  H  H9  1  0.497282  0.999841  0.748781  1
  H  H10  1  0.373021  0.626979  0.500031  1
  H  H11  1  0.872304  0.127696  0.000050  1
  H  H12  1  0.626234  0.373764  0.499964  1
  H  H13  1  0.126081  0.873915  0.999959  1
  H  H14  1  0.248362  0.244699  0.746991  1
  H  H15  1  0.755283  0.751620  0.253002  1
  H  H16  1  0.248606  0.244918  0.252966  1
  H  H17  1  0.755105  0.751416  0.747023  1
