# generated using pymatgen
data_LaMgSbAs2O7
_symmetry_space_group_name_H-M   'P 1'
_cell_length_a   13.12449228
_cell_length_b   13.12449159
_cell_length_c   13.12449218
_cell_angle_alpha   100.32575308
_cell_angle_beta   100.32574761
_cell_angle_gamma   129.90459785
_symmetry_Int_Tables_number   1
_chemical_formula_structural   LaMgSbAs2O7
_chemical_formula_sum   'La8 Mg8 Sb8 As16 O56'
_cell_volume   1571.13741501
_cell_formula_units_Z   8
loop_
 _symmetry_equiv_pos_site_id
 _symmetry_equiv_pos_as_xyz
  1  'x, y, z'
loop_
 _atom_site_type_symbol
 _atom_site_label
 _atom_site_symmetry_multiplicity
 _atom_site_fract_x
 _atom_site_fract_y
 _atom_site_fract_z
 _atom_site_occupancy
  La  La0  1  0.799468  0.458749  0.960221  1
  La  La1  1  0.708749  0.248527  0.159280  1
  La  La2  1  0.160753  0.200532  0.659280  1
  La  La3  1  0.541251  0.501473  0.340720  1
  La  La4  1  0.450532  0.291251  0.539779  1
  La  La5  1  0.751473  0.910753  0.460221  1
  La  La6  1  0.089247  0.549468  0.840720  1
  La  La7  1  0.498527  0.839247  0.039779  1
  Mg  Mg8  1  0.355463  0.099162  0.734144  1
  Mg  Mg9  1  0.365018  0.621319  0.265856  1
  Mg  Mg10  1  0.378681  0.644537  0.743699  1
  Mg  Mg11  1  0.349162  0.115018  0.243699  1
  Mg  Mg12  1  0.871319  0.105463  0.756301  1
  Mg  Mg13  1  0.894537  0.650838  0.765856  1
  Mg  Mg14  1  0.900838  0.634982  0.256301  1
  Mg  Mg15  1  0.884982  0.128681  0.234144  1
  Sb  Sb16  1  0.942382  0.788137  0.494973  1
  Sb  Sb17  1  0.293164  0.447410  0.505027  1
  Sb  Sb18  1  0.307618  0.961863  0.005027  1
  Sb  Sb19  1  0.552590  0.057618  0.845754  1
  Sb  Sb20  1  0.956836  0.302590  0.994973  1
  Sb  Sb21  1  0.697410  0.692382  0.654246  1
  Sb  Sb22  1  0.211863  0.706836  0.154246  1
  Sb  Sb23  1  0.038137  0.043164  0.345754  1
  As  As24  1  0.266328  0.941376  0.438940  1
  As  As25  1  0.520050  0.355052  0.032993  1
  As  As26  1  0.927941  0.262943  0.532993  1
  As  As27  1  0.077388  0.016328  0.824952  1
  As  As28  1  0.737057  0.270050  0.664998  1
  As  As29  1  0.502436  0.827388  0.561060  1
  As  As30  1  0.058624  0.497564  0.324952  1
  As  As31  1  0.512943  0.479950  0.835002  1
  As  As32  1  0.191376  0.252436  0.175048  1
  As  As33  1  0.747564  0.922612  0.938940  1
  As  As34  1  0.729950  0.394948  0.467007  1
  As  As35  1  0.605052  0.072059  0.335002  1
  As  As36  1  0.983672  0.808624  0.061060  1
  As  As37  1  0.322059  0.487057  0.967007  1
  As  As38  1  0.644948  0.677941  0.164998  1
  As  As39  1  0.172612  0.733672  0.675048  1
  O  O40  1  0.590070  0.700456  0.274005  1
  O  O41  1  0.730411  0.097324  0.453699  1
  O  O42  1  0.299337  0.447624  0.658854  1
  O  O43  1  0.756546  0.992921  0.075077  1
  O  O44  1  0.697624  0.538771  0.648287  1
  O  O45  1  0.359516  0.700663  0.148287  1
  O  O46  1  0.071770  0.823571  0.397894  1
  O  O47  1  0.332157  0.068531  0.575077  1
  O  O48  1  0.736541  0.726576  0.516176  1
  O  O49  1  0.931469  0.506546  0.263625  1
  O  O50  1  0.273424  0.789600  0.009964  1
  O  O51  1  0.007079  0.082157  0.763625  1
  O  O52  1  0.519589  0.652676  0.046301  1
  O  O53  1  0.890484  0.049337  0.351713  1
  O  O54  1  0.566066  0.340070  0.389614  1
  O  O55  1  0.692189  0.932154  0.627068  1
  O  O56  1  0.606374  0.473288  0.953699  1
  O  O57  1  0.824323  0.076123  0.897894  1
  O  O58  1  0.683934  0.409930  0.110386  1
  O  O59  1  0.659930  0.049544  0.225995  1
  O  O60  1  0.176429  0.574323  0.248199  1
  O  O61  1  0.643626  0.276712  0.546301  1
  O  O62  1  0.493454  0.757079  0.424923  1
  O  O63  1  0.823549  0.433934  0.774005  1
  O  O64  1  0.944914  0.684879  0.127068  1
  O  O65  1  0.976576  0.960400  0.490036  1
  O  O66  1  0.210400  0.220364  0.483824  1
  O  O67  1  0.182154  0.055086  0.739966  1
  O  O68  1  0.779636  0.263459  0.990036  1
  O  O69  1  0.526712  0.480411  0.133085  1
  O  O70  1  0.513459  0.023424  0.983824  1
  O  O71  1  0.073571  0.175677  0.251801  1
  O  O72  1  0.067846  0.694914  0.760034  1
  O  O73  1  0.347324  0.393626  0.866915  1
  O  O74  1  0.242921  0.667843  0.736375  1
  O  O75  1  0.326123  0.928230  0.751801  1
  O  O76  1  0.950663  0.302376  0.841146  1
  O  O77  1  0.934879  0.307811  0.239966  1
  O  O78  1  0.315121  0.442189  0.260034  1
  O  O79  1  0.461229  0.109516  0.158854  1
  O  O80  1  0.178230  0.926429  0.102106  1
  O  O81  1  0.788771  0.640484  0.341146  1
  O  O82  1  0.470364  0.486541  0.509964  1
  O  O83  1  0.923877  0.821770  0.748199  1
  O  O84  1  0.557811  0.817846  0.872932  1
  O  O85  1  0.426451  0.316066  0.725995  1
  O  O86  1  0.305086  0.065121  0.372932  1
  O  O87  1  0.902676  0.356374  0.633085  1
  O  O88  1  0.917843  0.681469  0.924923  1
  O  O89  1  0.425677  0.673877  0.602106  1
  O  O90  1  0.950456  0.176451  0.610386  1
  O  O91  1  0.299544  0.573549  0.889614  1
  O  O92  1  0.552376  0.211229  0.851713  1
  O  O93  1  0.723288  0.269589  0.366915  1
  O  O94  1  0.039600  0.529636  0.016176  1
  O  O95  1  0.318531  0.243454  0.236375  1
