# generated using pymatgen
data_Tm3CdSi2Ag3
_symmetry_space_group_name_H-M   'P 1'
_cell_length_a   7.16030900
_cell_length_b   7.16030882
_cell_length_c   4.18845600
_cell_angle_alpha   90.00000000
_cell_angle_beta   90.00000000
_cell_angle_gamma   120.00000544
_symmetry_Int_Tables_number   1
_chemical_formula_structural   Tm3CdSi2Ag3
_chemical_formula_sum   'Tm3 Cd1 Si2 Ag3'
_cell_volume   185.97222355
_cell_formula_units_Z   1
loop_
 _symmetry_equiv_pos_site_id
 _symmetry_equiv_pos_as_xyz
  1  'x, y, z'
loop_
 _atom_site_type_symbol
 _atom_site_label
 _atom_site_symmetry_multiplicity
 _atom_site_fract_x
 _atom_site_fract_y
 _atom_site_fract_z
 _atom_site_occupancy
  Tm  Tm0  1  0.427820  0.427820  0.500000  1
  Tm  Tm1  1  0.572180  0.000000  0.500000  1
  Tm  Tm2  1  0.000000  0.572180  0.500000  1
  Cd  Cd3  1  0.000000  0.000000  0.500000  1
  Si  Si4  1  0.666667  0.333333  0.000000  1
  Si  Si5  1  0.333333  0.666667  0.000000  1
  Ag  Ag6  1  0.736103  0.736103  0.000000  1
  Ag  Ag7  1  0.263897  0.000000  0.000000  1
  Ag  Ag8  1  0.000000  0.263897  0.000000  1
