# generated using pymatgen
data_Dy2HoFe2Sb3O14
_symmetry_space_group_name_H-M   'P 1'
_cell_length_a   7.19933950
_cell_length_b   7.19712064
_cell_length_c   7.17248734
_cell_angle_alpha   117.61763037
_cell_angle_beta   62.42603448
_cell_angle_gamma   117.49012410
_symmetry_Int_Tables_number   1
_chemical_formula_structural   Dy2HoFe2Sb3O14
_chemical_formula_sum   'Dy2 Ho1 Fe2 Sb3 O14'
_cell_volume   277.08027668
_cell_formula_units_Z   1
loop_
 _symmetry_equiv_pos_site_id
 _symmetry_equiv_pos_as_xyz
  1  'x, y, z'
loop_
 _atom_site_type_symbol
 _atom_site_label
 _atom_site_symmetry_multiplicity
 _atom_site_fract_x
 _atom_site_fract_y
 _atom_site_fract_z
 _atom_site_occupancy
  Dy  Dy0  1  0.999996  0.500008  0.000001  1
  Dy  Dy1  1  0.499990  0.500000  0.499998  1
  Ho  Ho2  1  0.500004  0.000015  0.000030  1
  Fe  Fe3  1  0.499993  0.500000  0.999989  1
  Fe  Fe4  1  0.000017  0.000011  0.500002  1
  Sb  Sb5  1  0.500003  0.999999  0.499997  1
  Sb  Sb6  1  0.000002  0.499990  0.500006  1
  Sb  Sb7  1  0.000001  0.999997  0.000001  1
  O  O8  1  0.618094  0.380514  0.114819  1
  O  O9  1  0.381884  0.619495  0.885165  1
  O  O10  1  0.079373  0.322897  0.176242  1
  O  O11  1  0.677043  0.920607  0.176007  1
  O  O12  1  0.675969  0.324218  0.584643  1
  O  O13  1  0.920621  0.677093  0.823757  1
  O  O14  1  0.322956  0.079379  0.823987  1
  O  O15  1  0.324028  0.675774  0.415357  1
  O  O16  1  0.644601  0.902590  0.597079  1
  O  O17  1  0.097663  0.355068  0.596399  1
  O  O18  1  0.096996  0.903875  0.146146  1
  O  O19  1  0.355426  0.097408  0.402914  1
  O  O20  1  0.902336  0.644943  0.403600  1
  O  O21  1  0.903003  0.096120  0.853862  1
