# generated using pymatgen
data_LiTb16Tl(CdCo2)2
_symmetry_space_group_name_H-M   'P 1'
_cell_length_a   9.55521799
_cell_length_b   9.55521855
_cell_length_c   9.54952484
_cell_angle_alpha   60.05882581
_cell_angle_beta   60.05882213
_cell_angle_gamma   60.03619790
_symmetry_Int_Tables_number   1
_chemical_formula_structural   LiTb16Tl(CdCo2)2
_chemical_formula_sum   'Li1 Tb16 Tl1 Cd2 Co4'
_cell_volume   617.23768975
_cell_formula_units_Z   1
loop_
 _symmetry_equiv_pos_site_id
 _symmetry_equiv_pos_as_xyz
  1  'x, y, z'
loop_
 _atom_site_type_symbol
 _atom_site_label
 _atom_site_symmetry_multiplicity
 _atom_site_fract_x
 _atom_site_fract_y
 _atom_site_fract_z
 _atom_site_occupancy
  Li  Li0  1  0.820442  0.820442  0.822182  1
  Tb  Tb1  1  0.438965  0.438965  0.061456  1
  Tb  Tb2  1  0.596725  0.596725  0.596824  1
  Tb  Tb3  1  0.189102  0.810910  0.810820  1
  Tb  Tb4  1  0.062361  0.062361  0.436540  1
  Tb  Tb5  1  0.434095  0.063644  0.064254  1
  Tb  Tb6  1  0.810910  0.189102  0.810820  1
  Tb  Tb7  1  0.439594  0.059904  0.440195  1
  Tb  Tb8  1  0.596343  0.212714  0.595554  1
  Tb  Tb9  1  0.810659  0.810659  0.188779  1
  Tb  Tb10  1  0.212714  0.596343  0.595554  1
  Tb  Tb11  1  0.811761  0.190559  0.186180  1
  Tb  Tb12  1  0.059904  0.439594  0.440195  1
  Tb  Tb13  1  0.190559  0.811761  0.186180  1
  Tb  Tb14  1  0.596377  0.596377  0.213076  1
  Tb  Tb15  1  0.188597  0.188597  0.810878  1
  Tb  Tb16  1  0.063644  0.434095  0.064254  1
  Tl  Tl17  1  0.833941  0.833941  0.503979  1
  Cd  Cd18  1  0.506007  0.830986  0.834822  1
  Cd  Cd19  1  0.830986  0.506007  0.834822  1
  Co  Co20  1  0.391588  0.391588  0.391509  1
  Co  Co21  1  0.828758  0.393162  0.391929  1
  Co  Co22  1  0.393162  0.828758  0.391929  1
  Co  Co23  1  0.392807  0.392807  0.827265  1
