# generated using pymatgen
data_Ba6HoIn(BO3)6
_symmetry_space_group_name_H-M   'P 1'
_cell_length_a   8.17364098
_cell_length_b   8.17364019
_cell_length_c   8.17363984
_cell_angle_alpha   105.83761717
_cell_angle_beta   105.83761431
_cell_angle_gamma   105.83760707
_symmetry_Int_Tables_number   1
_chemical_formula_structural   Ba6HoIn(BO3)6
_chemical_formula_sum   'Ba6 Ho1 In1 B6 O18'
_cell_volume   468.44340839
_cell_formula_units_Z   1
loop_
 _symmetry_equiv_pos_site_id
 _symmetry_equiv_pos_as_xyz
  1  'x, y, z'
loop_
 _atom_site_type_symbol
 _atom_site_label
 _atom_site_symmetry_multiplicity
 _atom_site_fract_x
 _atom_site_fract_y
 _atom_site_fract_z
 _atom_site_occupancy
  Ba  Ba0  1  0.653009  0.265825  0.164203  1
  Ba  Ba1  1  0.164203  0.653009  0.265825  1
  Ba  Ba2  1  0.734174  0.835798  0.346991  1
  Ba  Ba3  1  0.265826  0.164202  0.653009  1
  Ba  Ba4  1  0.835798  0.346991  0.734175  1
  Ba  Ba5  1  0.346991  0.734175  0.835797  1
  Ho  Ho6  1  0.000000  0.000000  0.000000  1
  In  In7  1  0.500000  0.500000  0.500000  1
  B  B8  1  0.292924  0.373423  0.048064  1
  B  B9  1  0.373422  0.048064  0.292924  1
  B  B10  1  0.048064  0.292924  0.373422  1
  B  B11  1  0.951936  0.707077  0.626578  1
  B  B12  1  0.626578  0.951937  0.707076  1
  B  B13  1  0.707077  0.626578  0.951937  1
  O  O14  1  0.738104  0.813571  0.008861  1
  O  O15  1  0.799721  0.556782  0.065540  1
  O  O16  1  0.991139  0.261896  0.186427  1
  O  O17  1  0.443217  0.934460  0.200278  1
  O  O18  1  0.429954  0.495298  0.219114  1
  O  O19  1  0.186428  0.991139  0.261895  1
  O  O20  1  0.495297  0.219114  0.429954  1
  O  O21  1  0.934460  0.200278  0.443218  1
  O  O22  1  0.219114  0.429954  0.495298  1
  O  O23  1  0.780886  0.570046  0.504703  1
  O  O24  1  0.065540  0.799721  0.556782  1
  O  O25  1  0.504703  0.780886  0.570046  1
  O  O26  1  0.813571  0.008860  0.738104  1
  O  O27  1  0.570046  0.504703  0.780887  1
  O  O28  1  0.556782  0.065540  0.799722  1
  O  O29  1  0.008860  0.738103  0.813572  1
  O  O30  1  0.200278  0.443217  0.934460  1
  O  O31  1  0.261896  0.186428  0.991139  1
