# generated using pymatgen
data_La3SbTe3
_symmetry_space_group_name_H-M   'P 1'
_cell_length_a   8.39803503
_cell_length_b   8.39506667
_cell_length_c   8.40173005
_cell_angle_alpha   109.47546022
_cell_angle_beta   109.48976770
_cell_angle_gamma   109.42343186
_symmetry_Int_Tables_number   1
_chemical_formula_structural   La3SbTe3
_chemical_formula_sum   'La6 Sb2 Te6'
_cell_volume   456.12352961
_cell_formula_units_Z   2
loop_
 _symmetry_equiv_pos_site_id
 _symmetry_equiv_pos_as_xyz
  1  'x, y, z'
loop_
 _atom_site_type_symbol
 _atom_site_label
 _atom_site_symmetry_multiplicity
 _atom_site_fract_x
 _atom_site_fract_y
 _atom_site_fract_z
 _atom_site_occupancy
  La  La0  1  0.867514  0.118944  0.744330  1
  La  La1  1  0.379705  0.251227  0.621654  1
  La  La2  1  0.124389  0.751329  0.877184  1
  La  La3  1  0.747205  0.874145  0.122816  1
  La  La4  1  0.258051  0.629572  0.378346  1
  La  La5  1  0.623184  0.374614  0.255670  1
  Sb  Sb6  1  0.656121  0.655843  0.656518  1
  Sb  Sb7  1  0.499603  0.999325  0.343482  1
  Te  Te8  1  0.999824  0.346666  0.500290  1
  Te  Te9  1  0.346275  0.499345  0.999903  1
  Te  Te10  1  0.999533  0.846375  0.499710  1
  Te  Te11  1  0.846372  0.499442  0.000097  1
  Te  Te12  1  0.152930  0.153404  0.153637  1
  Te  Te13  1  0.499294  0.999768  0.846363  1
