# generated using pymatgen
data_Zr10HgBi3Pb3Au
_symmetry_space_group_name_H-M   'P 1'
_cell_length_a   8.92309500
_cell_length_b   8.92309393
_cell_length_c   6.02876000
_cell_angle_alpha   90.00000000
_cell_angle_beta   90.00000000
_cell_angle_gamma   120.00000027
_symmetry_Int_Tables_number   1
_chemical_formula_structural   Zr10HgBi3Pb3Au
_chemical_formula_sum   'Zr10 Hg1 Bi3 Pb3 Au1'
_cell_volume   415.70917238
_cell_formula_units_Z   1
loop_
 _symmetry_equiv_pos_site_id
 _symmetry_equiv_pos_as_xyz
  1  'x, y, z'
loop_
 _atom_site_type_symbol
 _atom_site_label
 _atom_site_symmetry_multiplicity
 _atom_site_fract_x
 _atom_site_fract_y
 _atom_site_fract_z
 _atom_site_occupancy
  Zr  Zr0  1  0.666667  0.333333  0.001769  1
  Zr  Zr1  1  0.333333  0.666667  0.001769  1
  Zr  Zr2  1  0.333333  0.666667  0.498336  1
  Zr  Zr3  1  0.666667  0.333333  0.498336  1
  Zr  Zr4  1  0.723290  0.723290  0.754613  1
  Zr  Zr5  1  0.276710  0.000000  0.754613  1
  Zr  Zr6  1  0.000000  0.276710  0.754613  1
  Zr  Zr7  1  0.276620  0.276620  0.245487  1
  Zr  Zr8  1  0.723380  0.000000  0.245487  1
  Zr  Zr9  1  0.000000  0.723380  0.245487  1
  Hg  Hg10  1  0.000000  0.000000  0.499431  1
  Bi  Bi11  1  0.382787  0.382787  0.748481  1
  Bi  Bi12  1  0.617213  0.000000  0.748481  1
  Bi  Bi13  1  0.000000  0.617213  0.748481  1
  Pb  Pb14  1  0.619125  0.619125  0.251217  1
  Pb  Pb15  1  0.380875  0.000000  0.251217  1
  Pb  Pb16  1  0.000000  0.380875  0.251217  1
  Au  Au17  1  0.000000  0.000000  0.000960  1
