# generated using pymatgen
data_Al8Ni4Os3Ru
_symmetry_space_group_name_H-M   'P 1'
_cell_length_a   5.82375701
_cell_length_b   5.82371501
_cell_length_c   6.07755502
_cell_angle_alpha   90.00641918
_cell_angle_beta   90.00645155
_cell_angle_gamma   90.00011788
_symmetry_Int_Tables_number   1
_chemical_formula_structural   Al8Ni4Os3Ru
_chemical_formula_sum   'Al8 Ni4 Os3 Ru1'
_cell_volume   206.12575239
_cell_formula_units_Z   1
loop_
 _symmetry_equiv_pos_site_id
 _symmetry_equiv_pos_as_xyz
  1  'x, y, z'
loop_
 _atom_site_type_symbol
 _atom_site_label
 _atom_site_symmetry_multiplicity
 _atom_site_fract_x
 _atom_site_fract_y
 _atom_site_fract_z
 _atom_site_occupancy
  Al  Al0  1  0.500436  0.999586  0.250523  1
  Al  Al1  1  0.500457  0.500389  0.250529  1
  Al  Al2  1  0.999623  0.999568  0.250728  1
  Al  Al3  1  0.999635  0.500456  0.250728  1
  Al  Al4  1  0.999561  0.999583  0.749264  1
  Al  Al5  1  0.999550  0.500389  0.749272  1
  Al  Al6  1  0.500381  0.999577  0.749479  1
  Al  Al7  1  0.500362  0.500448  0.749471  1
  Ni  Ni8  1  0.249941  0.750000  0.000051  1
  Ni  Ni9  1  0.749941  0.249999  0.499942  1
  Ni  Ni10  1  0.250063  0.750000  0.500058  1
  Ni  Ni11  1  0.750065  0.249999  0.999950  1
  Os  Os12  1  0.249922  0.250000  0.999997  1
  Os  Os13  1  0.750079  0.749999  0.000003  1
  Os  Os14  1  0.250081  0.249999  0.499996  1
  Ru  Ru15  1  0.749907  0.750000  0.500008  1
