# generated using pymatgen
data_Ho3In(WF7)4
_symmetry_space_group_name_H-M   'P 1'
_cell_length_a   5.68731018
_cell_length_b   9.03355667
_cell_length_c   12.23893900
_cell_angle_alpha   62.88530590
_cell_angle_beta   90.21266937
_cell_angle_gamma   90.00118231
_symmetry_Int_Tables_number   1
_chemical_formula_structural   Ho3In(WF7)4
_chemical_formula_sum   'Ho3 In1 W4 F28'
_cell_volume   559.68352650
_cell_formula_units_Z   1
loop_
 _symmetry_equiv_pos_site_id
 _symmetry_equiv_pos_as_xyz
  1  'x, y, z'
loop_
 _atom_site_type_symbol
 _atom_site_label
 _atom_site_symmetry_multiplicity
 _atom_site_fract_x
 _atom_site_fract_y
 _atom_site_fract_z
 _atom_site_occupancy
  Ho  Ho0  1  0.260617  0.181414  0.735161  1
  Ho  Ho1  1  0.238399  0.186642  0.234542  1
  Ho  Ho2  1  0.739916  0.813984  0.265741  1
  In  In3  1  0.765090  0.813516  0.764091  1
  W  W4  1  0.757732  0.276019  0.954709  1
  W  W5  1  0.260073  0.729073  0.546385  1
  W  W6  1  0.239737  0.727107  0.040645  1
  W  W7  1  0.743591  0.271733  0.457347  1
  F  F8  1  0.449195  0.702097  0.920749  1
  F  F9  1  0.955138  0.288464  0.582303  1
  F  F10  1  0.545112  0.293534  0.077953  1
  F  F11  1  0.039044  0.709918  0.423279  1
  F  F12  1  0.449307  0.272930  0.556669  1
  F  F13  1  0.937364  0.725464  0.943804  1
  F  F14  1  0.550412  0.725572  0.450195  1
  F  F15  1  0.054030  0.277046  0.052861  1
  F  F16  1  0.766418  0.524722  0.855557  1
  F  F17  1  0.265659  0.481075  0.642491  1
  F  F18  1  0.234092  0.479830  0.142067  1
  F  F19  1  0.732037  0.520310  0.360992  1
  F  F20  1  0.755891  0.029530  0.054265  1
  F  F21  1  0.261466  0.975538  0.447280  1
  F  F22  1  0.238570  0.974375  0.940831  1
  F  F23  1  0.747830  0.025817  0.551774  1
  F  F24  1  0.977539  0.733601  0.648466  1
  F  F25  1  0.477512  0.266310  0.850419  1
  F  F26  1  0.024105  0.268545  0.351890  1
  F  F27  1  0.519150  0.733490  0.146639  1
  F  F28  1  0.030955  0.751513  0.164955  1
  F  F29  1  0.536211  0.252599  0.330863  1
  F  F30  1  0.966551  0.253068  0.830477  1
  F  F31  1  0.478043  0.751098  0.673335  1
  F  F32  1  0.433881  0.977955  0.235461  1
  F  F33  1  0.931964  0.022747  0.265767  1
  F  F34  1  0.571773  0.010875  0.767513  1
  F  F35  1  0.065593  0.972486  0.732523  1
