# generated using pymatgen
data_Tb3TmCu3Sb8
_symmetry_space_group_name_H-M   'P 1'
_cell_length_a   10.61364703
_cell_length_b   10.61364800
_cell_length_c   10.63379232
_cell_angle_alpha   146.61673262
_cell_angle_beta   146.61672807
_cell_angle_gamma   47.95112764
_symmetry_Int_Tables_number   1
_chemical_formula_structural   Tb3TmCu3Sb8
_chemical_formula_sum   'Tb3 Tm1 Cu3 Sb8'
_cell_volume   361.17801935
_cell_formula_units_Z   1
loop_
 _symmetry_equiv_pos_site_id
 _symmetry_equiv_pos_as_xyz
  1  'x, y, z'
loop_
 _atom_site_type_symbol
 _atom_site_label
 _atom_site_symmetry_multiplicity
 _atom_site_fract_x
 _atom_site_fract_y
 _atom_site_fract_z
 _atom_site_occupancy
  Tb  Tb0  1  0.125458  0.125458  0.491507  1
  Tb  Tb1  1  0.365995  0.874482  0.999199  1
  Tb  Tb2  1  0.874482  0.365995  0.999199  1
  Tm  Tm3  1  0.635552  0.635552  0.511254  1
  Cu  Cu4  1  0.995131  0.995131  0.992266  1
  Cu  Cu5  1  0.998135  0.503790  0.503147  1
  Cu  Cu6  1  0.503790  0.998135  0.503147  1
  Sb  Sb7  1  0.331044  0.331044  0.512697  1
  Sb  Sb8  1  0.818387  0.818387  0.483037  1
  Sb  Sb9  1  0.666072  0.183078  0.002372  1
  Sb  Sb10  1  0.183078  0.666072  0.002372  1
  Sb  Sb11  1  0.251467  0.251467  0.001015  1
  Sb  Sb12  1  0.749818  0.749818  0.999250  1
  Sb  Sb13  1  0.750045  0.251546  0.499769  1
  Sb  Sb14  1  0.251546  0.750045  0.499769  1
