# generated using pymatgen
data_CeHoCo22
_symmetry_space_group_name_H-M   'P 1'
_cell_length_a   7.59371542
_cell_length_b   7.59294722
_cell_length_c   7.59371618
_cell_angle_alpha   99.83287463
_cell_angle_beta   99.83881761
_cell_angle_gamma   131.18038758
_symmetry_Int_Tables_number   1
_chemical_formula_structural   CeHoCo22
_chemical_formula_sum   'Ce1 Ho1 Co22'
_cell_volume   300.06712448
_cell_formula_units_Z   1
loop_
 _symmetry_equiv_pos_site_id
 _symmetry_equiv_pos_as_xyz
  1  'x, y, z'
loop_
 _atom_site_type_symbol
 _atom_site_label
 _atom_site_symmetry_multiplicity
 _atom_site_fract_x
 _atom_site_fract_y
 _atom_site_fract_z
 _atom_site_occupancy
  Ce  Ce0  1  0.249988  0.749982  0.499994  1
  Ho  Ho1  1  0.999997  0.999986  0.999990  1
  Co  Co2  1  0.430638  0.103099  0.919827  1
  Co  Co3  1  0.183260  0.510814  0.080182  1
  Co  Co4  1  0.499981  0.499953  0.999973  1
  Co  Co5  1  0.749924  0.249892  0.499969  1
  Co  Co6  1  0.626867  0.378220  0.751353  1
  Co  Co7  1  0.124355  0.373040  0.751297  1
  Co  Co8  1  0.621743  0.373040  0.248685  1
  Co  Co9  1  0.626984  0.875639  0.248655  1
  Co  Co10  1  0.183272  0.103099  0.672462  1
  Co  Co11  1  0.760911  0.932098  0.579895  1
  Co  Co12  1  0.352141  0.180969  0.420106  1
  Co  Co13  1  0.430632  0.510814  0.327554  1
  Co  Co14  1  0.897005  0.816770  0.327624  1
  Co  Co15  1  0.489106  0.569348  0.672393  1
  Co  Co16  1  0.067951  0.239106  0.420046  1
  Co  Co17  1  0.819067  0.647919  0.579967  1
  Co  Co18  1  0.067952  0.647919  0.828851  1
  Co  Co19  1  0.489145  0.816770  0.919765  1
  Co  Co20  1  0.896956  0.569348  0.080242  1
  Co  Co21  1  0.819060  0.239106  0.171156  1
  Co  Co22  1  0.352204  0.932098  0.171190  1
  Co  Co23  1  0.760864  0.180969  0.828828  1
