# generated using pymatgen
data_CaPa3(GePd)4
_symmetry_space_group_name_H-M   'P 1'
_cell_length_a   4.43972200
_cell_length_b   7.09789611
_cell_length_c   7.61012059
_cell_angle_alpha   90.01116668
_cell_angle_beta   90.00000000
_cell_angle_gamma   90.00000000
_symmetry_Int_Tables_number   1
_chemical_formula_structural   CaPa3(GePd)4
_chemical_formula_sum   'Ca1 Pa3 Ge4 Pd4'
_cell_volume   239.81533233
_cell_formula_units_Z   1
loop_
 _symmetry_equiv_pos_site_id
 _symmetry_equiv_pos_as_xyz
  1  'x, y, z'
loop_
 _atom_site_type_symbol
 _atom_site_label
 _atom_site_symmetry_multiplicity
 _atom_site_fract_x
 _atom_site_fract_y
 _atom_site_fract_z
 _atom_site_occupancy
  Ca  Ca0  1  0.750000  0.499695  0.788238  1
  Pa  Pa1  1  0.250000  0.990138  0.286992  1
  Pa  Pa2  1  0.250000  0.499792  0.208824  1
  Pa  Pa3  1  0.750000  0.002959  0.714134  1
  Ge  Ge4  1  0.250000  0.259642  0.586707  1
  Ge  Ge5  1  0.250000  0.802717  0.907463  1
  Ge  Ge6  1  0.750000  0.706764  0.411288  1
  Ge  Ge7  1  0.750000  0.200100  0.095569  1
  Pd  Pd8  1  0.250000  0.216155  0.924373  1
  Pd  Pd9  1  0.250000  0.711901  0.576983  1
  Pd  Pd10  1  0.750000  0.798770  0.081637  1
  Pd  Pd11  1  0.750000  0.311368  0.417794  1
