# generated using pymatgen
data_BeNb5Co2(BRu2)4
_symmetry_space_group_name_H-M   'P 1'
_cell_length_a   9.15255100
_cell_length_b   9.15255100
_cell_length_c   3.00787600
_cell_angle_alpha   90.00000000
_cell_angle_beta   90.00000000
_cell_angle_gamma   90.00000000
_symmetry_Int_Tables_number   1
_chemical_formula_structural   BeNb5Co2(BRu2)4
_chemical_formula_sum   'Be1 Nb5 Co2 B4 Ru8'
_cell_volume   251.96733556
_cell_formula_units_Z   1
loop_
 _symmetry_equiv_pos_site_id
 _symmetry_equiv_pos_as_xyz
  1  'x, y, z'
loop_
 _atom_site_type_symbol
 _atom_site_label
 _atom_site_symmetry_multiplicity
 _atom_site_fract_x
 _atom_site_fract_y
 _atom_site_fract_z
 _atom_site_occupancy
  Be  Be0  1  0.500000  0.500000  0.000000  1
  Nb  Nb1  1  0.819572  0.672862  0.000000  1
  Nb  Nb2  1  0.180428  0.327138  0.000000  1
  Nb  Nb3  1  0.327138  0.819572  0.000000  1
  Nb  Nb4  1  0.672862  0.180428  0.000000  1
  Nb  Nb5  1  0.000000  0.000000  0.000000  1
  Co  Co6  1  0.500000  0.000000  0.500000  1
  Co  Co7  1  0.000000  0.500000  0.500000  1
  B  B8  1  0.605862  0.875419  0.000000  1
  B  B9  1  0.394138  0.124581  0.000000  1
  B  B10  1  0.124581  0.605862  0.000000  1
  B  B11  1  0.875419  0.394138  0.000000  1
  Ru  Ru12  1  0.561240  0.712581  0.500000  1
  Ru  Ru13  1  0.438760  0.287419  0.500000  1
  Ru  Ru14  1  0.066646  0.773584  0.500000  1
  Ru  Ru15  1  0.933354  0.226416  0.500000  1
  Ru  Ru16  1  0.287419  0.561240  0.500000  1
  Ru  Ru17  1  0.712581  0.438760  0.500000  1
  Ru  Ru18  1  0.226416  0.066646  0.500000  1
  Ru  Ru19  1  0.773584  0.933354  0.500000  1
