# generated using pymatgen
data_Tb2Pr5Th(Si3Pd)4
_symmetry_space_group_name_H-M   'P 1'
_cell_length_a   8.24636337
_cell_length_b   8.24636395
_cell_length_c   8.51141500
_cell_angle_alpha   90.00000000
_cell_angle_beta   90.00000000
_cell_angle_gamma   119.74606152
_symmetry_Int_Tables_number   1
_chemical_formula_structural   Tb2Pr5Th(Si3Pd)4
_chemical_formula_sum   'Tb2 Pr5 Th1 Si12 Pd4'
_cell_volume   502.53114403
_cell_formula_units_Z   1
loop_
 _symmetry_equiv_pos_site_id
 _symmetry_equiv_pos_as_xyz
  1  'x, y, z'
loop_
 _atom_site_type_symbol
 _atom_site_label
 _atom_site_symmetry_multiplicity
 _atom_site_fract_x
 _atom_site_fract_y
 _atom_site_fract_z
 _atom_site_occupancy
  Tb  Tb0  1  0.000314  0.500190  0.750000  1
  Tb  Tb1  1  0.499810  0.999686  0.750000  1
  Pr  Pr2  1  0.500105  0.499895  0.250000  1
  Pr  Pr3  1  0.999728  0.499824  0.250000  1
  Pr  Pr4  1  0.500176  0.000272  0.250000  1
  Pr  Pr5  1  0.000016  0.999984  0.750000  1
  Pr  Pr6  1  0.999987  0.000013  0.250000  1
  Th  Th7  1  0.499874  0.500126  0.750000  1
  Si  Si8  1  0.833166  0.166834  0.996184  1
  Si  Si9  1  0.166835  0.833165  0.996246  1
  Si  Si10  1  0.331514  0.164716  0.996770  1
  Si  Si11  1  0.166835  0.833165  0.503754  1
  Si  Si12  1  0.668496  0.835296  0.996741  1
  Si  Si13  1  0.833166  0.166834  0.503816  1
  Si  Si14  1  0.835284  0.668486  0.996770  1
  Si  Si15  1  0.668496  0.835296  0.503259  1
  Si  Si16  1  0.164704  0.331504  0.996741  1
  Si  Si17  1  0.331514  0.164716  0.503230  1
  Si  Si18  1  0.164704  0.331504  0.503259  1
  Si  Si19  1  0.835284  0.668486  0.503230  1
  Pd  Pd20  1  0.666224  0.333776  0.988951  1
  Pd  Pd21  1  0.333770  0.666230  0.989771  1
  Pd  Pd22  1  0.333770  0.666230  0.510229  1
  Pd  Pd23  1  0.666224  0.333776  0.511049  1
