# generated using pymatgen
data_Zr6Zn19Co(CuNi)2
_symmetry_space_group_name_H-M   'P 1'
_cell_length_a   8.68931413
_cell_length_b   8.69685458
_cell_length_c   8.68540292
_cell_angle_alpha   59.95702308
_cell_angle_beta   59.95844075
_cell_angle_gamma   59.89025673
_symmetry_Int_Tables_number   1
_chemical_formula_structural   Zr6Zn19Co(CuNi)2
_chemical_formula_sum   'Zr6 Zn19 Co1 Cu2 Ni2'
_cell_volume   463.42972649
_cell_formula_units_Z   1
loop_
 _symmetry_equiv_pos_site_id
 _symmetry_equiv_pos_as_xyz
  1  'x, y, z'
loop_
 _atom_site_type_symbol
 _atom_site_label
 _atom_site_symmetry_multiplicity
 _atom_site_fract_x
 _atom_site_fract_y
 _atom_site_fract_z
 _atom_site_occupancy
  Zr  Zr0  1  0.706267  0.294516  0.293676  1
  Zr  Zr1  1  0.293733  0.705484  0.706324  1
  Zr  Zr2  1  0.295052  0.701161  0.298811  1
  Zr  Zr3  1  0.704948  0.298839  0.701189  1
  Zr  Zr4  1  0.296511  0.300633  0.699488  1
  Zr  Zr5  1  0.703489  0.699367  0.300512  1
  Zn  Zn6  1  0.125407  0.115036  0.115405  1
  Zn  Zn7  1  0.874593  0.884964  0.884595  1
  Zn  Zn8  1  0.120554  0.125595  0.641904  1
  Zn  Zn9  1  0.114388  0.642534  0.129414  1
  Zn  Zn10  1  0.879446  0.874405  0.358096  1
  Zn  Zn11  1  0.885612  0.357466  0.870586  1
  Zn  Zn12  1  0.643035  0.113054  0.122495  1
  Zn  Zn13  1  0.356965  0.886946  0.877505  1
  Zn  Zn14  1  0.000000  0.500000  0.000000  1
  Zn  Zn15  1  0.000000  0.000000  0.500000  1
  Zn  Zn16  1  0.500000  0.500000  0.000000  1
  Zn  Zn17  1  0.328380  0.331483  0.337713  1
  Zn  Zn18  1  0.671620  0.668517  0.662287  1
  Zn  Zn19  1  0.336147  0.328369  0.000074  1
  Zn  Zn20  1  0.337641  0.000016  0.331269  1
  Zn  Zn21  1  0.663853  0.671631  0.999926  1
  Zn  Zn22  1  0.662359  0.999984  0.668731  1
  Zn  Zn23  1  0.003030  0.335249  0.336216  1
  Zn  Zn24  1  0.996970  0.664751  0.663784  1
  Co  Co25  1  0.500000  0.500000  0.500000  1
  Cu  Cu26  1  0.500000  0.000000  0.000000  1
  Cu  Cu27  1  0.500000  0.000000  0.500000  1
  Ni  Ni28  1  0.000000  0.500000  0.500000  1
  Ni  Ni29  1  0.000000  0.000000  0.000000  1
