# generated using pymatgen
data_Hf3Ga3FeAu2
_symmetry_space_group_name_H-M   'P 1'
_cell_length_a   7.25201800
_cell_length_b   7.25201679
_cell_length_c   6.89788500
_cell_angle_alpha   90.00000000
_cell_angle_beta   90.00000000
_cell_angle_gamma   119.99999638
_symmetry_Int_Tables_number   1
_chemical_formula_structural   Hf3Ga3FeAu2
_chemical_formula_sum   'Hf6 Ga6 Fe2 Au4'
_cell_volume   314.16968139
_cell_formula_units_Z   2
loop_
 _symmetry_equiv_pos_site_id
 _symmetry_equiv_pos_as_xyz
  1  'x, y, z'
loop_
 _atom_site_type_symbol
 _atom_site_label
 _atom_site_symmetry_multiplicity
 _atom_site_fract_x
 _atom_site_fract_y
 _atom_site_fract_z
 _atom_site_occupancy
  Hf  Hf0  1  0.747138  0.046065  0.000000  1
  Hf  Hf1  1  0.298926  0.252862  0.000000  1
  Hf  Hf2  1  0.953935  0.701074  0.000000  1
  Hf  Hf3  1  0.303875  0.255101  0.500000  1
  Hf  Hf4  1  0.744899  0.048774  0.500000  1
  Hf  Hf5  1  0.951226  0.696125  0.500000  1
  Ga  Ga6  1  0.614849  0.669022  0.749606  1
  Ga  Ga7  1  0.054174  0.385151  0.749606  1
  Ga  Ga8  1  0.330978  0.945826  0.749606  1
  Ga  Ga9  1  0.614849  0.669022  0.250394  1
  Ga  Ga10  1  0.054174  0.385151  0.250394  1
  Ga  Ga11  1  0.330978  0.945826  0.250394  1
  Fe  Fe12  1  0.000000  0.000000  0.252908  1
  Fe  Fe13  1  0.000000  0.000000  0.747092  1
  Au  Au14  1  0.333333  0.666667  0.000000  1
  Au  Au15  1  0.333333  0.666667  0.500000  1
  Au  Au16  1  0.666667  0.333333  0.757024  1
  Au  Au17  1  0.666667  0.333333  0.242976  1
