# generated using pymatgen
data_Ho8Ti9Nb3Si15Sn
_symmetry_space_group_name_H-M   'P 1'
_cell_length_a   7.10472517
_cell_length_b   7.06285441
_cell_length_c   13.01449625
_cell_angle_alpha   89.95567989
_cell_angle_beta   89.86671584
_cell_angle_gamma   89.92014381
_symmetry_Int_Tables_number   1
_chemical_formula_structural   Ho8Ti9Nb3Si15Sn
_chemical_formula_sum   'Ho8 Ti9 Nb3 Si15 Sn1'
_cell_volume   653.06013460
_cell_formula_units_Z   1
loop_
 _symmetry_equiv_pos_site_id
 _symmetry_equiv_pos_as_xyz
  1  'x, y, z'
loop_
 _atom_site_type_symbol
 _atom_site_label
 _atom_site_symmetry_multiplicity
 _atom_site_fract_x
 _atom_site_fract_y
 _atom_site_fract_z
 _atom_site_occupancy
  Ho  Ho0  1  0.342567  0.997812  0.461052  1
  Ho  Ho1  1  0.506427  0.834339  0.719040  1
  Ho  Ho2  1  0.500494  0.159372  0.217021  1
  Ho  Ho3  1  0.840606  0.498211  0.281738  1
  Ho  Ho4  1  0.158993  0.507245  0.785691  1
  Ho  Ho5  1  0.661496  0.998314  0.968724  1
  Ho  Ho6  1  0.991247  0.347122  0.528042  1
  Ho  Ho7  1  0.001207  0.659939  0.034219  1
  Ti  Ti8  1  0.672320  0.673041  0.499693  1
  Ti  Ti9  1  0.153638  0.009081  0.881306  1
  Ti  Ti10  1  0.490915  0.651572  0.126013  1
  Ti  Ti11  1  0.516157  0.352197  0.626344  1
  Ti  Ti12  1  0.654375  0.492039  0.876421  1
  Ti  Ti13  1  0.345336  0.510070  0.373086  1
  Ti  Ti14  1  0.846430  0.992370  0.373988  1
  Ti  Ti15  1  0.010487  0.152547  0.124853  1
  Ti  Ti16  1  0.979506  0.835383  0.620641  1
  Nb  Nb17  1  0.327146  0.327290  0.001348  1
  Nb  Nb18  1  0.173424  0.826966  0.249694  1
  Nb  Nb19  1  0.818486  0.174820  0.751611  1
  Si  Si20  1  0.372378  0.704345  0.935087  1
  Si  Si21  1  0.626462  0.297838  0.432438  1
  Si  Si22  1  0.705020  0.371255  0.067576  1
  Si  Si23  1  0.296225  0.629451  0.565931  1
  Si  Si24  1  0.796631  0.871234  0.183714  1
  Si  Si25  1  0.128593  0.203886  0.315789  1
  Si  Si26  1  0.872219  0.799060  0.816749  1
  Si  Si27  1  0.294247  0.953517  0.065278  1
  Si  Si28  1  0.549256  0.789849  0.313402  1
  Si  Si29  1  0.459458  0.208337  0.819013  1
  Si  Si30  1  0.794399  0.544673  0.687020  1
  Si  Si31  1  0.207621  0.453292  0.186408  1
  Si  Si32  1  0.704525  0.046072  0.563217  1
  Si  Si33  1  0.953788  0.293135  0.936680  1
  Si  Si34  1  0.045324  0.708915  0.434154  1
  Sn  Sn35  1  0.202597  0.125409  0.677019  1
