# generated using pymatgen
data_TbMn2BiF14
_symmetry_space_group_name_H-M   'P 1'
_cell_length_a   5.48414938
_cell_length_b   8.90734416
_cell_length_c   11.87545461
_cell_angle_alpha   61.76290233
_cell_angle_beta   90.11731600
_cell_angle_gamma   89.92575640
_symmetry_Int_Tables_number   1
_chemical_formula_structural   TbMn2BiF14
_chemical_formula_sum   'Tb2 Mn4 Bi2 F28'
_cell_volume   511.06952667
_cell_formula_units_Z   2
loop_
 _symmetry_equiv_pos_site_id
 _symmetry_equiv_pos_as_xyz
  1  'x, y, z'
loop_
 _atom_site_type_symbol
 _atom_site_label
 _atom_site_symmetry_multiplicity
 _atom_site_fract_x
 _atom_site_fract_y
 _atom_site_fract_z
 _atom_site_occupancy
  Tb  Tb0  1  0.761473  0.192317  0.236708  1
  Tb  Tb1  1  0.238527  0.807683  0.763292  1
  Mn  Mn2  1  0.757931  0.722693  0.040687  1
  Mn  Mn3  1  0.242069  0.277307  0.959313  1
  Mn  Mn4  1  0.259821  0.270755  0.456182  1
  Mn  Mn5  1  0.740179  0.729245  0.543818  1
  Bi  Bi6  1  0.265672  0.816885  0.262054  1
  Bi  Bi7  1  0.734328  0.183115  0.737946  1
  F  F8  1  0.927243  0.708626  0.424295  1
  F  F9  1  0.072757  0.291374  0.575705  1
  F  F10  1  0.433624  0.291633  0.081830  1
  F  F11  1  0.566376  0.708367  0.918170  1
  F  F12  1  0.481732  0.727241  0.126409  1
  F  F13  1  0.518268  0.272759  0.873591  1
  F  F14  1  0.984186  0.268448  0.366750  1
  F  F15  1  0.015814  0.731552  0.633250  1
  F  F16  1  0.943134  0.736098  0.165429  1
  F  F17  1  0.056866  0.263902  0.834571  1
  F  F18  1  0.449373  0.254138  0.332081  1
  F  F19  1  0.550627  0.745862  0.667919  1
  F  F20  1  0.768201  0.488078  0.134822  1
  F  F21  1  0.231799  0.511922  0.865178  1
  F  F22  1  0.272361  0.502917  0.361984  1
  F  F23  1  0.727639  0.497083  0.638016  1
  F  F24  1  0.959949  0.282636  0.044080  1
  F  F25  1  0.040051  0.717364  0.955920  1
  F  F26  1  0.454936  0.721245  0.461890  1
  F  F27  1  0.545064  0.278755  0.538110  1
  F  F28  1  0.739179  0.963792  0.450049  1
  F  F29  1  0.260821  0.036208  0.549951  1
  F  F30  1  0.239323  0.041637  0.047889  1
  F  F31  1  0.760677  0.958363  0.952111  1
  F  F32  1  0.604351  0.971020  0.225351  1
  F  F33  1  0.395649  0.028980  0.774649  1
  F  F34  1  0.101369  0.034822  0.274221  1
  F  F35  1  0.898631  0.965178  0.725779  1
