# generated using pymatgen
data_DyTmCo5Ni5P6
_symmetry_space_group_name_H-M   'P 1'
_cell_length_a   3.67059600
_cell_length_b   10.26032100
_cell_length_c   11.80343100
_cell_angle_alpha   90.00000000
_cell_angle_beta   90.00000000
_cell_angle_gamma   90.00000000
_symmetry_Int_Tables_number   1
_chemical_formula_structural   DyTmCo5Ni5P6
_chemical_formula_sum   'Dy2 Tm2 Co10 Ni10 P12'
_cell_volume   444.53483659
_cell_formula_units_Z   2
loop_
 _symmetry_equiv_pos_site_id
 _symmetry_equiv_pos_as_xyz
  1  'x, y, z'
loop_
 _atom_site_type_symbol
 _atom_site_label
 _atom_site_symmetry_multiplicity
 _atom_site_fract_x
 _atom_site_fract_y
 _atom_site_fract_z
 _atom_site_occupancy
  Dy  Dy0  1  0.750000  0.418734  0.296450  1
  Dy  Dy1  1  0.750000  0.081266  0.796450  1
  Tm  Tm2  1  0.250000  0.581816  0.704347  1
  Tm  Tm3  1  0.250000  0.918184  0.204347  1
  Co  Co4  1  0.750000  0.776686  0.824445  1
  Co  Co5  1  0.750000  0.723314  0.324445  1
  Co  Co6  1  0.250000  0.878726  0.697768  1
  Co  Co7  1  0.250000  0.621274  0.197768  1
  Co  Co8  1  0.750000  0.118451  0.301260  1
  Co  Co9  1  0.750000  0.381549  0.801260  1
  Co  Co10  1  0.250000  0.467378  0.932357  1
  Co  Co11  1  0.250000  0.032622  0.432357  1
  Co  Co12  1  0.750000  0.534095  0.066823  1
  Co  Co13  1  0.750000  0.965905  0.566823  1
  Ni  Ni14  1  0.250000  0.711998  0.989008  1
  Ni  Ni15  1  0.250000  0.788002  0.489008  1
  Ni  Ni16  1  0.750000  0.284633  0.008980  1
  Ni  Ni17  1  0.750000  0.215367  0.508980  1
  Ni  Ni18  1  0.250000  0.409229  0.486476  1
  Ni  Ni19  1  0.250000  0.090771  0.986476  1
  Ni  Ni20  1  0.750000  0.592951  0.515854  1
  Ni  Ni21  1  0.750000  0.907049  0.015854  1
  Ni  Ni22  1  0.250000  0.223200  0.176051  1
  Ni  Ni23  1  0.250000  0.276800  0.676051  1
  P  P24  1  0.250000  0.424616  0.113002  1
  P  P25  1  0.250000  0.075384  0.613002  1
  P  P26  1  0.750000  0.579113  0.885446  1
  P  P27  1  0.750000  0.920887  0.385446  1
  P  P28  1  0.250000  0.271697  0.868022  1
  P  P29  1  0.250000  0.228303  0.368022  1
  P  P30  1  0.750000  0.729759  0.135155  1
  P  P31  1  0.750000  0.770241  0.635155  1
  P  P32  1  0.250000  0.606480  0.387613  1
  P  P33  1  0.250000  0.893520  0.887613  1
  P  P34  1  0.750000  0.399169  0.610941  1
  P  P35  1  0.750000  0.100831  0.110941  1
