# generated using pymatgen
data_Li6Pu2UN6
_symmetry_space_group_name_H-M   'P 1'
_cell_length_a   6.07859400
_cell_length_b   6.07859515
_cell_length_c   5.44808200
_cell_angle_alpha   90.00000000
_cell_angle_beta   90.00000000
_cell_angle_gamma   120.00000607
_symmetry_Int_Tables_number   1
_chemical_formula_structural   Li6Pu2UN6
_chemical_formula_sum   'Li6 Pu2 U1 N6'
_cell_volume   174.33339880
_cell_formula_units_Z   1
loop_
 _symmetry_equiv_pos_site_id
 _symmetry_equiv_pos_as_xyz
  1  'x, y, z'
loop_
 _atom_site_type_symbol
 _atom_site_label
 _atom_site_symmetry_multiplicity
 _atom_site_fract_x
 _atom_site_fract_y
 _atom_site_fract_z
 _atom_site_occupancy
  Li  Li0  1  0.987910  0.661880  0.606470  1
  Li  Li1  1  0.338120  0.326030  0.606470  1
  Li  Li2  1  0.673970  0.012090  0.606470  1
  Li  Li3  1  0.012090  0.338120  0.393530  1
  Li  Li4  1  0.661880  0.673970  0.393530  1
  Li  Li5  1  0.326030  0.987910  0.393530  1
  Pu  Pu6  1  0.333333  0.666667  0.993381  1
  Pu  Pu7  1  0.666667  0.333333  0.006619  1
  U  U8  1  0.000000  0.000000  0.000000  1
  N  N9  1  0.999997  0.681084  0.222230  1
  N  N10  1  0.318916  0.318913  0.222230  1
  N  N11  1  0.681087  0.000003  0.222230  1
  N  N12  1  0.000003  0.318916  0.777770  1
  N  N13  1  0.681084  0.681087  0.777770  1
  N  N14  1  0.318913  0.999997  0.777770  1
