# generated using pymatgen
data_Tb9DySi5Bi
_symmetry_space_group_name_H-M   'P 1'
_cell_length_a   8.58738602
_cell_length_b   8.63640829
_cell_length_c   6.41553800
_cell_angle_alpha   89.99634970
_cell_angle_beta   90.00077112
_cell_angle_gamma   119.81954134
_symmetry_Int_Tables_number   1
_chemical_formula_structural   Tb9DySi5Bi
_chemical_formula_sum   'Tb9 Dy1 Si5 Bi1'
_cell_volume   412.80478744
_cell_formula_units_Z   1
loop_
 _symmetry_equiv_pos_site_id
 _symmetry_equiv_pos_as_xyz
  1  'x, y, z'
loop_
 _atom_site_type_symbol
 _atom_site_label
 _atom_site_symmetry_multiplicity
 _atom_site_fract_x
 _atom_site_fract_y
 _atom_site_fract_z
 _atom_site_occupancy
  Tb  Tb0  1  0.984873  0.744580  0.749927  1
  Tb  Tb1  1  0.998078  0.243472  0.250074  1
  Tb  Tb2  1  0.754664  0.756462  0.250066  1
  Tb  Tb3  1  0.767418  0.000057  0.749946  1
  Tb  Tb4  1  0.240328  0.255368  0.749952  1
  Tb  Tb5  1  0.240723  0.000047  0.250040  1
  Tb  Tb6  1  0.676807  0.346117  0.005071  1
  Tb  Tb7  1  0.330716  0.653930  0.494886  1
  Tb  Tb8  1  0.330673  0.653860  0.005112  1
  Dy  Dy9  1  0.676864  0.346176  0.494928  1
  Si  Si10  1  0.393026  0.390244  0.250194  1
  Si  Si11  1  0.002318  0.609525  0.250246  1
  Si  Si12  1  0.998430  0.394070  0.749782  1
  Si  Si13  1  0.604578  0.605701  0.749794  1
  Si  Si14  1  0.607178  0.000177  0.250143  1
  Bi  Bi15  1  0.393322  0.000214  0.749837  1
