# generated using pymatgen
data_Na12Cr2TcMoN12
_symmetry_space_group_name_H-M   'P 1'
_cell_length_a   8.69701941
_cell_length_b   8.71620265
_cell_length_c   6.34131365
_cell_angle_alpha   69.02854059
_cell_angle_beta   68.96561107
_cell_angle_gamma   76.55623998
_symmetry_Int_Tables_number   1
_chemical_formula_structural   Na12Cr2TcMoN12
_chemical_formula_sum   'Na12 Cr2 Tc1 Mo1 N12'
_cell_volume   415.95585300
_cell_formula_units_Z   1
loop_
 _symmetry_equiv_pos_site_id
 _symmetry_equiv_pos_as_xyz
  1  'x, y, z'
loop_
 _atom_site_type_symbol
 _atom_site_label
 _atom_site_symmetry_multiplicity
 _atom_site_fract_x
 _atom_site_fract_y
 _atom_site_fract_z
 _atom_site_occupancy
  Na  Na0  1  0.737114  0.280756  0.011120  1
  Na  Na1  1  0.283845  0.741266  0.507503  1
  Na  Na2  1  0.643430  0.594556  0.565381  1
  Na  Na3  1  0.593438  0.644897  0.066614  1
  Na  Na4  1  0.403420  0.352296  0.795984  1
  Na  Na5  1  0.354328  0.399575  0.295605  1
  Na  Na6  1  0.011084  0.523276  0.050379  1
  Na  Na7  1  0.520267  0.009679  0.549496  1
  Na  Na8  1  0.876465  0.886515  0.689469  1
  Na  Na9  1  0.881969  0.880558  0.188558  1
  Na  Na10  1  0.133266  0.129189  0.103133  1
  Na  Na11  1  0.130825  0.128942  0.603385  1
  Cr  Cr12  1  0.244873  0.752439  0.993942  1
  Cr  Cr13  1  0.756302  0.248646  0.490280  1
  Tc  Tc14  1  0.003341  0.498970  0.579212  1
  Mo  Mo15  1  0.499316  0.002964  0.078126  1
  N  N16  1  0.381924  0.603989  0.888807  1
  N  N17  1  0.607824  0.385268  0.384458  1
  N  N18  1  0.108846  0.846964  0.835164  1
  N  N19  1  0.853606  0.114161  0.330029  1
  N  N20  1  0.145537  0.364307  0.735659  1
  N  N21  1  0.361034  0.145816  0.240978  1
  N  N22  1  0.840307  0.605033  0.765348  1
  N  N23  1  0.605762  0.837225  0.270277  1
  N  N24  1  0.657308  0.124570  0.793910  1
  N  N25  1  0.120207  0.651645  0.301392  1
  N  N26  1  0.907431  0.366123  0.496643  1
  N  N27  1  0.361049  0.904493  0.995549  1
