# generated using pymatgen
data_Ca4BiSb3Pt4
_symmetry_space_group_name_H-M   'P 1'
_cell_length_a   4.67537100
_cell_length_b   7.43545454
_cell_length_c   8.02966891
_cell_angle_alpha   90.12672662
_cell_angle_beta   90.00000000
_cell_angle_gamma   90.00000000
_symmetry_Int_Tables_number   1
_chemical_formula_structural   Ca4BiSb3Pt4
_chemical_formula_sum   'Ca4 Bi1 Sb3 Pt4'
_cell_volume   279.13878111
_cell_formula_units_Z   1
loop_
 _symmetry_equiv_pos_site_id
 _symmetry_equiv_pos_as_xyz
  1  'x, y, z'
loop_
 _atom_site_type_symbol
 _atom_site_label
 _atom_site_symmetry_multiplicity
 _atom_site_fract_x
 _atom_site_fract_y
 _atom_site_fract_z
 _atom_site_occupancy
  Ca  Ca0  1  0.750000  0.989456  0.699968  1
  Ca  Ca1  1  0.250000  0.004220  0.301387  1
  Ca  Ca2  1  0.750000  0.493280  0.804135  1
  Ca  Ca3  1  0.250000  0.511401  0.194680  1
  Bi  Bi4  1  0.750000  0.312602  0.407813  1
  Sb  Sb5  1  0.250000  0.184147  0.910897  1
  Sb  Sb6  1  0.250000  0.684533  0.589982  1
  Sb  Sb7  1  0.750000  0.813981  0.090022  1
  Pt  Pt8  1  0.250000  0.801919  0.915539  1
  Pt  Pt9  1  0.250000  0.303521  0.596475  1
  Pt  Pt10  1  0.750000  0.707945  0.416230  1
  Pt  Pt11  1  0.750000  0.192995  0.072872  1
