# generated using pymatgen
data_Ho2TiOs5O18
_symmetry_space_group_name_H-M   'P 1'
_cell_length_a   7.36789237
_cell_length_b   5.20976154
_cell_length_c   8.14599296
_cell_angle_alpha   85.94662382
_cell_angle_beta   89.92928557
_cell_angle_gamma   89.91149685
_symmetry_Int_Tables_number   1
_chemical_formula_structural   Ho2TiOs5O18
_chemical_formula_sum   'Ho2 Ti1 Os5 O18'
_cell_volume   311.90092558
_cell_formula_units_Z   1
loop_
 _symmetry_equiv_pos_site_id
 _symmetry_equiv_pos_as_xyz
  1  'x, y, z'
loop_
 _atom_site_type_symbol
 _atom_site_label
 _atom_site_symmetry_multiplicity
 _atom_site_fract_x
 _atom_site_fract_y
 _atom_site_fract_z
 _atom_site_occupancy
  Ho  Ho0  1  0.257378  0.963488  0.435637  1
  Ho  Ho1  1  0.742317  0.032408  0.570821  1
  Ti  Ti2  1  0.493519  0.531375  0.700828  1
  Os  Os3  1  0.002903  0.002787  0.999538  1
  Os  Os4  1  0.503512  0.994115  0.000000  1
  Os  Os5  1  0.002339  0.538689  0.691618  1
  Os  Os6  1  0.997480  0.462569  0.306858  1
  Os  Os7  1  0.505219  0.465128  0.310298  1
  O  O8  1  0.253233  0.909541  0.985505  1
  O  O9  1  0.937959  0.851317  0.787123  1
  O  O10  1  0.563186  0.850812  0.785648  1
  O  O11  1  0.956214  0.740582  0.471375  1
  O  O12  1  0.542226  0.747758  0.466398  1
  O  O13  1  0.247955  0.662983  0.659229  1
  O  O14  1  0.951604  0.685582  0.121929  1
  O  O15  1  0.546524  0.685667  0.126850  1
  O  O16  1  0.249697  0.586713  0.307821  1
  O  O17  1  0.749915  0.419830  0.687787  1
  O  O18  1  0.040266  0.315170  0.875426  1
  O  O19  1  0.449303  0.314882  0.878691  1
  O  O20  1  0.751514  0.333064  0.336369  1
  O  O21  1  0.044183  0.260256  0.528672  1
  O  O22  1  0.459709  0.259517  0.525914  1
  O  O23  1  0.068103  0.147164  0.213546  1
  O  O24  1  0.435906  0.151830  0.210489  1
  O  O25  1  0.747835  0.086773  0.015632  1
