# generated using pymatgen
data_Ti5Zn6GeRh12
_symmetry_space_group_name_H-M   'P 1'
_cell_length_a   4.33425600
_cell_length_b   6.07897900
_cell_length_c   12.97158900
_cell_angle_alpha   90.00000000
_cell_angle_beta   90.00036614
_cell_angle_gamma   90.00000000
_symmetry_Int_Tables_number   1
_chemical_formula_structural   Ti5Zn6GeRh12
_chemical_formula_sum   'Ti5 Zn6 Ge1 Rh12'
_cell_volume   341.77349686
_cell_formula_units_Z   1
loop_
 _symmetry_equiv_pos_site_id
 _symmetry_equiv_pos_as_xyz
  1  'x, y, z'
loop_
 _atom_site_type_symbol
 _atom_site_label
 _atom_site_symmetry_multiplicity
 _atom_site_fract_x
 _atom_site_fract_y
 _atom_site_fract_z
 _atom_site_occupancy
  Ti  Ti0  1  0.999999  0.000000  0.997806  1
  Ti  Ti1  1  0.500010  0.500000  0.167628  1
  Ti  Ti2  1  0.000004  0.000000  0.333339  1
  Ti  Ti3  1  0.499999  0.500000  0.499038  1
  Ti  Ti4  1  0.999994  0.000000  0.668852  1
  Zn  Zn5  1  0.000001  0.500000  0.006331  1
  Zn  Zn6  1  0.500005  0.000000  0.162832  1
  Zn  Zn7  1  0.000003  0.500000  0.333331  1
  Zn  Zn8  1  0.499998  0.000000  0.503835  1
  Zn  Zn9  1  0.999997  0.500000  0.660333  1
  Zn  Zn10  1  0.499997  0.000000  0.833332  1
  Ge  Ge11  1  0.499992  0.500000  0.833338  1
  Rh  Rh12  1  0.500000  0.255075  0.995478  1
  Rh  Rh13  1  0.500000  0.744926  0.995478  1
  Rh  Rh14  1  0.000005  0.248262  0.166941  1
  Rh  Rh15  1  0.000005  0.751739  0.166941  1
  Rh  Rh16  1  0.500006  0.248773  0.333333  1
  Rh  Rh17  1  0.500006  0.751228  0.333333  1
  Rh  Rh18  1  0.999997  0.248259  0.499730  1
  Rh  Rh19  1  0.999997  0.751740  0.499730  1
  Rh  Rh20  1  0.499998  0.255078  0.671188  1
  Rh  Rh21  1  0.499998  0.744923  0.671188  1
  Rh  Rh22  1  0.999995  0.259333  0.833331  1
  Rh  Rh23  1  0.999995  0.740668  0.833331  1
