# generated using pymatgen
data_Dy6Al16Os6Rh
_symmetry_space_group_name_H-M   'P 1'
_cell_length_a   8.94404546
_cell_length_b   8.94404479
_cell_length_c   8.94404500
_cell_angle_alpha   60.00000293
_cell_angle_beta   60.00000539
_cell_angle_gamma   59.99999900
_symmetry_Int_Tables_number   1
_chemical_formula_structural   Dy6Al16Os6Rh
_chemical_formula_sum   'Dy6 Al16 Os6 Rh1'
_cell_volume   505.92596086
_cell_formula_units_Z   1
loop_
 _symmetry_equiv_pos_site_id
 _symmetry_equiv_pos_as_xyz
  1  'x, y, z'
loop_
 _atom_site_type_symbol
 _atom_site_label
 _atom_site_symmetry_multiplicity
 _atom_site_fract_x
 _atom_site_fract_y
 _atom_site_fract_z
 _atom_site_occupancy
  Dy  Dy0  1  0.711940  0.288060  0.288060  1
  Dy  Dy1  1  0.711940  0.288060  0.711940  1
  Dy  Dy2  1  0.711940  0.711940  0.288060  1
  Dy  Dy3  1  0.288060  0.711940  0.711940  1
  Dy  Dy4  1  0.288060  0.711940  0.288060  1
  Dy  Dy5  1  0.288060  0.288060  0.711940  1
  Al  Al6  1  0.632486  0.122504  0.122504  1
  Al  Al7  1  0.122504  0.632486  0.122504  1
  Al  Al8  1  0.122504  0.122504  0.632486  1
  Al  Al9  1  0.122504  0.122504  0.122504  1
  Al  Al10  1  0.367514  0.877496  0.877496  1
  Al  Al11  1  0.877496  0.367514  0.877496  1
  Al  Al12  1  0.877496  0.877496  0.367514  1
  Al  Al13  1  0.877496  0.877496  0.877496  1
  Al  Al14  1  0.001164  0.332946  0.332946  1
  Al  Al15  1  0.332946  0.001164  0.332946  1
  Al  Al16  1  0.332946  0.332946  0.001164  1
  Al  Al17  1  0.332946  0.332946  0.332946  1
  Al  Al18  1  0.998836  0.667054  0.667054  1
  Al  Al19  1  0.667054  0.998836  0.667054  1
  Al  Al20  1  0.667054  0.667054  0.998836  1
  Al  Al21  1  0.667054  0.667054  0.667054  1
  Os  Os22  1  0.500000  0.000000  0.000000  1
  Os  Os23  1  0.500000  0.000000  0.500000  1
  Os  Os24  1  0.500000  0.500000  0.000000  1
  Os  Os25  1  0.000000  0.500000  0.500000  1
  Os  Os26  1  0.000000  0.500000  0.000000  1
  Os  Os27  1  0.000000  0.000000  0.500000  1
  Rh  Rh28  1  0.000000  0.000000  0.000000  1
