# generated using pymatgen
data_Tb3Tm3CoTe2
_symmetry_space_group_name_H-M   'P 1'
_cell_length_a   8.31821000
_cell_length_b   8.31821022
_cell_length_c   3.93249900
_cell_angle_alpha   90.00000000
_cell_angle_beta   90.00000000
_cell_angle_gamma   119.99999119
_symmetry_Int_Tables_number   1
_chemical_formula_structural   Tb3Tm3CoTe2
_chemical_formula_sum   'Tb3 Tm3 Co1 Te2'
_cell_volume   235.64545238
_cell_formula_units_Z   1
loop_
 _symmetry_equiv_pos_site_id
 _symmetry_equiv_pos_as_xyz
  1  'x, y, z'
loop_
 _atom_site_type_symbol
 _atom_site_label
 _atom_site_symmetry_multiplicity
 _atom_site_fract_x
 _atom_site_fract_y
 _atom_site_fract_z
 _atom_site_occupancy
  Tb  Tb0  1  0.000000  0.398176  0.500000  1
  Tb  Tb1  1  0.601824  0.601824  0.500000  1
  Tb  Tb2  1  0.398176  0.000000  0.500000  1
  Tm  Tm3  1  0.000000  0.767697  0.000000  1
  Tm  Tm4  1  0.232303  0.232303  0.000000  1
  Tm  Tm5  1  0.767697  0.000000  0.000000  1
  Co  Co6  1  0.000000  0.000000  0.500000  1
  Te  Te7  1  0.333333  0.666667  0.000000  1
  Te  Te8  1  0.666667  0.333333  0.000000  1
