# generated using pymatgen
data_Rb4Na2LuInBi4
_symmetry_space_group_name_H-M   'P 1'
_cell_length_a   10.19694322
_cell_length_b   10.19694281
_cell_length_c   10.19694318
_cell_angle_alpha   136.52386773
_cell_angle_beta   62.18147027
_cell_angle_gamma   137.81766844
_symmetry_Int_Tables_number   1
_chemical_formula_structural   Rb4Na2LuInBi4
_chemical_formula_sum   'Rb4 Na2 Lu1 In1 Bi4'
_cell_volume   484.03346371
_cell_formula_units_Z   1
loop_
 _symmetry_equiv_pos_site_id
 _symmetry_equiv_pos_as_xyz
  1  'x, y, z'
loop_
 _atom_site_type_symbol
 _atom_site_label
 _atom_site_symmetry_multiplicity
 _atom_site_fract_x
 _atom_site_fract_y
 _atom_site_fract_z
 _atom_site_occupancy
  Rb  Rb0  1  0.820791  0.257687  0.092105  1
  Rb  Rb1  1  0.679208  0.771315  0.436896  1
  Rb  Rb2  1  0.334418  0.242313  0.563104  1
  Rb  Rb3  1  0.165582  0.728684  0.907894  1
  Na  Na4  1  0.750000  0.250000  0.500000  1
  Na  Na5  1  0.250000  0.750000  0.500000  1
  Lu  Lu6  1  0.250000  0.250000  0.000000  1
  In  In7  1  0.750001  0.750001  0.000000  1
  Bi  Bi8  1  0.399346  0.724097  0.121576  1
  Bi  Bi9  1  0.100653  0.222228  0.324751  1
  Bi  Bi10  1  0.897476  0.775902  0.675249  1
  Bi  Bi11  1  0.602523  0.277772  0.878424  1
