# generated using pymatgen
data_Lu(Sc7Te9)2
_symmetry_space_group_name_H-M   'P 1'
_cell_length_a   12.49026400
_cell_length_b   12.49026457
_cell_length_c   6.77880100
_cell_angle_alpha   90.00000000
_cell_angle_beta   90.00000000
_cell_angle_gamma   120.00000380
_symmetry_Int_Tables_number   1
_chemical_formula_structural   Lu(Sc7Te9)2
_chemical_formula_sum   'Lu1 Sc14 Te18'
_cell_volume   915.85507318
_cell_formula_units_Z   1
loop_
 _symmetry_equiv_pos_site_id
 _symmetry_equiv_pos_as_xyz
  1  'x, y, z'
loop_
 _atom_site_type_symbol
 _atom_site_label
 _atom_site_symmetry_multiplicity
 _atom_site_fract_x
 _atom_site_fract_y
 _atom_site_fract_z
 _atom_site_occupancy
  Lu  Lu0  1  0.000000  0.000000  0.000000  1
  Sc  Sc1  1  0.000000  0.341338  0.500000  1
  Sc  Sc2  1  0.341338  0.000000  0.500000  1
  Sc  Sc3  1  0.658662  0.658662  0.500000  1
  Sc  Sc4  1  0.000000  0.658662  0.500000  1
  Sc  Sc5  1  0.658662  0.000000  0.500000  1
  Sc  Sc6  1  0.341338  0.341338  0.500000  1
  Sc  Sc7  1  0.326786  0.326786  0.000000  1
  Sc  Sc8  1  0.000000  0.673214  0.000000  1
  Sc  Sc9  1  0.673214  0.000000  0.000000  1
  Sc  Sc10  1  0.673214  0.673214  0.000000  1
  Sc  Sc11  1  0.000000  0.326786  0.000000  1
  Sc  Sc12  1  0.326786  0.000000  0.000000  1
  Sc  Sc13  1  0.333333  0.666667  0.503888  1
  Sc  Sc14  1  0.666667  0.333333  0.496112  1
  Te  Te15  1  0.224576  0.775424  0.248007  1
  Te  Te16  1  0.550846  0.775424  0.248007  1
  Te  Te17  1  0.224576  0.449154  0.248007  1
  Te  Te18  1  0.775424  0.550846  0.751993  1
  Te  Te19  1  0.775424  0.224576  0.751993  1
  Te  Te20  1  0.449154  0.224576  0.751993  1
  Te  Te21  1  0.116175  0.558088  0.762474  1
  Te  Te22  1  0.441912  0.558088  0.762474  1
  Te  Te23  1  0.441912  0.883825  0.762474  1
  Te  Te24  1  0.558088  0.441912  0.237526  1
  Te  Te25  1  0.883825  0.441912  0.237526  1
  Te  Te26  1  0.558088  0.116175  0.237526  1
  Te  Te27  1  0.110028  0.220058  0.736774  1
  Te  Te28  1  0.779942  0.889972  0.736774  1
  Te  Te29  1  0.110028  0.889972  0.736774  1
  Te  Te30  1  0.889972  0.779942  0.263226  1
  Te  Te31  1  0.889972  0.110028  0.263226  1
  Te  Te32  1  0.220058  0.110028  0.263226  1
