# generated using pymatgen
data_Ti8Al15Ru7
_symmetry_space_group_name_H-M   'P 1'
_cell_length_a   8.65843261
_cell_length_b   8.65843245
_cell_length_c   8.65843198
_cell_angle_alpha   120.11461283
_cell_angle_beta   120.00540491
_cell_angle_gamma   89.89611983
_symmetry_Int_Tables_number   1
_chemical_formula_structural   Ti8Al15Ru7
_chemical_formula_sum   'Ti8 Al15 Ru7'
_cell_volume   458.57189785
_cell_formula_units_Z   1
loop_
 _symmetry_equiv_pos_site_id
 _symmetry_equiv_pos_as_xyz
  1  'x, y, z'
loop_
 _atom_site_type_symbol
 _atom_site_label
 _atom_site_symmetry_multiplicity
 _atom_site_fract_x
 _atom_site_fract_y
 _atom_site_fract_z
 _atom_site_occupancy
  Ti  Ti0  1  0.787364  0.281255  0.062429  1
  Ti  Ti1  1  0.218827  0.281255  0.493891  1
  Ti  Ti2  1  0.215676  0.715676  0.500000  1
  Ti  Ti3  1  0.218827  0.724936  0.937571  1
  Ti  Ti4  1  0.787364  0.724936  0.506109  1
  Ti  Ti5  1  0.777052  0.277052  0.500000  1
  Ti  Ti6  1  0.378515  0.120629  0.742114  1
  Ti  Ti7  1  0.378515  0.636401  0.257886  1
  Al  Al8  1  0.996625  0.496625  0.500000  1
  Al  Al9  1  0.155430  0.344880  0.189449  1
  Al  Al10  1  0.155430  0.965981  0.810551  1
  Al  Al11  1  0.152997  0.346928  0.806068  1
  Al  Al12  1  0.540859  0.346928  0.193932  1
  Al  Al13  1  0.846676  0.652666  0.805991  1
  Al  Al14  1  0.846676  0.040685  0.194009  1
  Al  Al15  1  0.844086  0.654181  0.189905  1
  Al  Al16  1  0.464277  0.654181  0.810095  1
  Al  Al17  1  0.378920  0.121930  0.256990  1
  Al  Al18  1  0.864941  0.121930  0.743010  1
  Al  Al19  1  0.619750  0.875933  0.256183  1
  Al  Al20  1  0.619750  0.363567  0.743817  1
  Al  Al21  1  0.620503  0.877852  0.742651  1
  Al  Al22  1  0.135200  0.877852  0.257349  1
  Ru  Ru23  1  0.999980  0.999415  0.500502  1
  Ru  Ru24  1  0.498913  0.999415  0.999435  1
  Ru  Ru25  1  0.498556  0.498556  0.000000  1
  Ru  Ru26  1  0.498913  0.499478  0.499498  1
  Ru  Ru27  1  0.999980  0.499478  0.000565  1
  Ru  Ru28  1  0.000265  0.000265  0.000000  1
  Ru  Ru29  1  0.499131  0.999131  0.500000  1
