# generated using pymatgen
data_LaTb2Ni2Rh7
_symmetry_space_group_name_H-M   'P 1'
_cell_length_a   5.33392713
_cell_length_b   5.33392593
_cell_length_c   8.98561330
_cell_angle_alpha   72.73427702
_cell_angle_beta   72.73427747
_cell_angle_gamma   60.00000438
_symmetry_Int_Tables_number   1
_chemical_formula_structural   LaTb2Ni2Rh7
_chemical_formula_sum   'La1 Tb2 Ni2 Rh7'
_cell_volume   207.98905710
_cell_formula_units_Z   1
loop_
 _symmetry_equiv_pos_site_id
 _symmetry_equiv_pos_as_xyz
  1  'x, y, z'
loop_
 _atom_site_type_symbol
 _atom_site_label
 _atom_site_symmetry_multiplicity
 _atom_site_fract_x
 _atom_site_fract_y
 _atom_site_fract_z
 _atom_site_occupancy
  La  La0  1  0.000000  0.000000  0.000000  1
  Tb  Tb1  1  0.139576  0.139576  0.581273  1
  Tb  Tb2  1  0.860424  0.860424  0.418727  1
  Ni  Ni3  1  0.333278  0.333278  0.000165  1
  Ni  Ni4  1  0.666722  0.666722  0.999835  1
  Rh  Rh5  1  0.078379  0.581684  0.758253  1
  Rh  Rh6  1  0.581684  0.581684  0.758253  1
  Rh  Rh7  1  0.581684  0.078379  0.758253  1
  Rh  Rh8  1  0.921621  0.418316  0.241747  1
  Rh  Rh9  1  0.418316  0.418316  0.241747  1
  Rh  Rh10  1  0.418316  0.921621  0.241747  1
  Rh  Rh11  1  0.500000  0.500000  0.500000  1
