# generated using pymatgen
data_TbPr3NdPb3
_symmetry_space_group_name_H-M   'P 1'
_cell_length_a   9.39480800
_cell_length_b   9.39480989
_cell_length_c   6.89656000
_cell_angle_alpha   90.00000000
_cell_angle_beta   90.00000000
_cell_angle_gamma   120.00000038
_symmetry_Int_Tables_number   1
_chemical_formula_structural   TbPr3NdPb3
_chemical_formula_sum   'Tb2 Pr6 Nd2 Pb6'
_cell_volume   527.15587907
_cell_formula_units_Z   2
loop_
 _symmetry_equiv_pos_site_id
 _symmetry_equiv_pos_as_xyz
  1  'x, y, z'
loop_
 _atom_site_type_symbol
 _atom_site_label
 _atom_site_symmetry_multiplicity
 _atom_site_fract_x
 _atom_site_fract_y
 _atom_site_fract_z
 _atom_site_occupancy
  Tb  Tb0  1  0.666667  0.333333  0.000000  1
  Tb  Tb1  1  0.333333  0.666667  0.000000  1
  Pr  Pr2  1  0.759268  0.759268  0.751559  1
  Pr  Pr3  1  0.240732  0.000000  0.751559  1
  Pr  Pr4  1  0.000000  0.240732  0.751559  1
  Pr  Pr5  1  0.240732  0.240732  0.248441  1
  Pr  Pr6  1  0.759268  0.000000  0.248441  1
  Pr  Pr7  1  0.000000  0.759268  0.248441  1
  Nd  Nd8  1  0.333333  0.666667  0.500000  1
  Nd  Nd9  1  0.666667  0.333333  0.500000  1
  Pb  Pb10  1  0.396928  0.396928  0.755518  1
  Pb  Pb11  1  0.603072  0.000000  0.755518  1
  Pb  Pb12  1  0.000000  0.603072  0.755518  1
  Pb  Pb13  1  0.603072  0.603072  0.244482  1
  Pb  Pb14  1  0.396928  0.000000  0.244482  1
  Pb  Pb15  1  0.000000  0.396928  0.244482  1
