# generated using pymatgen
data_PaV(SeO3)4
_symmetry_space_group_name_H-M   'P 1'
_cell_length_a   8.54526300
_cell_length_b   8.71415431
_cell_length_c   8.63564887
_cell_angle_alpha   87.76942472
_cell_angle_beta   90.00000000
_cell_angle_gamma   90.00000000
_symmetry_Int_Tables_number   1
_chemical_formula_structural   PaV(SeO3)4
_chemical_formula_sum   'Pa2 V2 Se8 O24'
_cell_volume   642.56410419
_cell_formula_units_Z   2
loop_
 _symmetry_equiv_pos_site_id
 _symmetry_equiv_pos_as_xyz
  1  'x, y, z'
loop_
 _atom_site_type_symbol
 _atom_site_label
 _atom_site_symmetry_multiplicity
 _atom_site_fract_x
 _atom_site_fract_y
 _atom_site_fract_z
 _atom_site_occupancy
  Pa  Pa0  1  0.000000  0.000000  0.500000  1
  Pa  Pa1  1  0.500000  0.000000  0.000000  1
  V  V2  1  0.000000  0.500000  0.000000  1
  V  V3  1  0.500000  0.500000  0.500000  1
  Se  Se4  1  0.300473  0.643309  0.193308  1
  Se  Se5  1  0.800473  0.356691  0.306692  1
  Se  Se6  1  0.658071  0.785850  0.665774  1
  Se  Se7  1  0.158071  0.214150  0.834226  1
  Se  Se8  1  0.699527  0.356691  0.806692  1
  Se  Se9  1  0.199527  0.643309  0.693308  1
  Se  Se10  1  0.341929  0.214150  0.334226  1
  Se  Se11  1  0.841929  0.785850  0.165774  1
  O  O12  1  0.232715  0.529474  0.050088  1
  O  O13  1  0.732715  0.470526  0.449912  1
  O  O14  1  0.763859  0.928073  0.561296  1
  O  O15  1  0.263859  0.071927  0.938704  1
  O  O16  1  0.537323  0.905890  0.770145  1
  O  O17  1  0.448084  0.529458  0.268646  1
  O  O18  1  0.948084  0.470542  0.231354  1
  O  O19  1  0.037323  0.094110  0.729855  1
  O  O20  1  0.915402  0.220881  0.417732  1
  O  O21  1  0.532918  0.730477  0.525205  1
  O  O22  1  0.415402  0.779119  0.082268  1
  O  O23  1  0.032918  0.269523  0.974795  1
  O  O24  1  0.767285  0.470526  0.949912  1
  O  O25  1  0.267285  0.529474  0.550088  1
  O  O26  1  0.236141  0.071927  0.438704  1
  O  O27  1  0.736141  0.928073  0.061296  1
  O  O28  1  0.462677  0.094110  0.229855  1
  O  O29  1  0.551916  0.470542  0.731354  1
  O  O30  1  0.051916  0.529458  0.768646  1
  O  O31  1  0.962677  0.905890  0.270145  1
  O  O32  1  0.084598  0.779119  0.582268  1
  O  O33  1  0.467082  0.269523  0.474795  1
  O  O34  1  0.584598  0.220881  0.917732  1
  O  O35  1  0.967082  0.730477  0.025205  1
