# generated using pymatgen
data_Nd2PPd14
_symmetry_space_group_name_H-M   'P 1'
_cell_length_a   8.98157400
_cell_length_b   8.98157400
_cell_length_c   7.13498100
_cell_angle_alpha   90.00000000
_cell_angle_beta   90.00000000
_cell_angle_gamma   90.00000000
_symmetry_Int_Tables_number   1
_chemical_formula_structural   Nd2PPd14
_chemical_formula_sum   'Nd4 P2 Pd28'
_cell_volume   575.56943857
_cell_formula_units_Z   2
loop_
 _symmetry_equiv_pos_site_id
 _symmetry_equiv_pos_as_xyz
  1  'x, y, z'
loop_
 _atom_site_type_symbol
 _atom_site_label
 _atom_site_symmetry_multiplicity
 _atom_site_fract_x
 _atom_site_fract_y
 _atom_site_fract_z
 _atom_site_occupancy
  Nd  Nd0  1  0.500000  0.000000  0.934885  1
  Nd  Nd1  1  0.000000  0.500000  0.065115  1
  Nd  Nd2  1  0.000000  0.000000  0.500000  1
  Nd  Nd3  1  0.500000  0.500000  0.500000  1
  P  P4  1  0.500000  0.000000  0.449431  1
  P  P5  1  0.000000  0.500000  0.550569  1
  Pd  Pd6  1  0.336452  0.836452  0.613219  1
  Pd  Pd7  1  0.336452  0.163548  0.613219  1
  Pd  Pd8  1  0.663548  0.836452  0.613219  1
  Pd  Pd9  1  0.663548  0.163548  0.613219  1
  Pd  Pd10  1  0.163548  0.663548  0.386781  1
  Pd  Pd11  1  0.163548  0.336452  0.386781  1
  Pd  Pd12  1  0.836452  0.663548  0.386781  1
  Pd  Pd13  1  0.836452  0.336452  0.386781  1
  Pd  Pd14  1  0.500000  0.772157  0.258398  1
  Pd  Pd15  1  0.500000  0.227843  0.258398  1
  Pd  Pd16  1  0.272157  0.000000  0.258398  1
  Pd  Pd17  1  0.727843  0.000000  0.258398  1
  Pd  Pd18  1  0.000000  0.727843  0.741602  1
  Pd  Pd19  1  0.000000  0.272157  0.741602  1
  Pd  Pd20  1  0.227843  0.500000  0.741602  1
  Pd  Pd21  1  0.772157  0.500000  0.741602  1
  Pd  Pd22  1  0.500000  0.348571  0.855585  1
  Pd  Pd23  1  0.500000  0.651429  0.855585  1
  Pd  Pd24  1  0.848571  0.000000  0.855585  1
  Pd  Pd25  1  0.151429  0.000000  0.855585  1
  Pd  Pd26  1  0.000000  0.151429  0.144415  1
  Pd  Pd27  1  0.000000  0.848571  0.144415  1
  Pd  Pd28  1  0.651429  0.500000  0.144415  1
  Pd  Pd29  1  0.348571  0.500000  0.144415  1
  Pd  Pd30  1  0.250000  0.750000  0.000000  1
  Pd  Pd31  1  0.250000  0.250000  0.000000  1
  Pd  Pd32  1  0.750000  0.750000  0.000000  1
  Pd  Pd33  1  0.750000  0.250000  0.000000  1
