# generated using pymatgen
data_Ba2GeMoN4
_symmetry_space_group_name_H-M   'P 1'
_cell_length_a   5.98078500
_cell_length_b   7.04501904
_cell_length_c   8.48672692
_cell_angle_alpha   59.54753748
_cell_angle_beta   90.00000000
_cell_angle_gamma   90.00000000
_symmetry_Int_Tables_number   1
_chemical_formula_structural   Ba2GeMoN4
_chemical_formula_sum   'Ba4 Ge2 Mo2 N8'
_cell_volume   308.25705597
_cell_formula_units_Z   2
loop_
 _symmetry_equiv_pos_site_id
 _symmetry_equiv_pos_as_xyz
  1  'x, y, z'
loop_
 _atom_site_type_symbol
 _atom_site_label
 _atom_site_symmetry_multiplicity
 _atom_site_fract_x
 _atom_site_fract_y
 _atom_site_fract_z
 _atom_site_occupancy
  Ba  Ba0  1  0.250000  0.231803  0.082687  1
  Ba  Ba1  1  0.750000  0.768197  0.917313  1
  Ba  Ba2  1  0.750000  0.771369  0.373969  1
  Ba  Ba3  1  0.250000  0.228631  0.626031  1
  Ge  Ge4  1  0.750000  0.273212  0.375490  1
  Ge  Ge5  1  0.250000  0.726788  0.624510  1
  Mo  Mo6  1  0.250000  0.663691  0.207575  1
  Mo  Mo7  1  0.750000  0.336309  0.792425  1
  N  N8  1  0.487619  0.509007  0.745263  1
  N  N9  1  0.987619  0.490993  0.254737  1
  N  N10  1  0.512381  0.490993  0.254737  1
  N  N11  1  0.012381  0.509007  0.745263  1
  N  N12  1  0.750000  0.215387  0.635368  1
  N  N13  1  0.250000  0.784613  0.364632  1
  N  N14  1  0.750000  0.111463  0.026419  1
  N  N15  1  0.250000  0.888537  0.973581  1
