# generated using pymatgen
data_Dy2MoWC3
_symmetry_space_group_name_H-M   'P 1'
_cell_length_a   6.13390386
_cell_length_b   6.13390370
_cell_length_c   5.73407614
_cell_angle_alpha   68.28148434
_cell_angle_beta   68.28147509
_cell_angle_gamma   31.66552639
_symmetry_Int_Tables_number   1
_chemical_formula_structural   Dy2MoWC3
_chemical_formula_sum   'Dy2 Mo1 W1 C3'
_cell_volume   104.54336218
_cell_formula_units_Z   1
loop_
 _symmetry_equiv_pos_site_id
 _symmetry_equiv_pos_as_xyz
  1  'x, y, z'
loop_
 _atom_site_type_symbol
 _atom_site_label
 _atom_site_symmetry_multiplicity
 _atom_site_fract_x
 _atom_site_fract_y
 _atom_site_fract_z
 _atom_site_occupancy
  Dy  Dy0  1  0.389965  0.389965  0.824588  1
  Dy  Dy1  1  0.609835  0.609835  0.179271  1
  Mo  Mo2  1  0.843811  0.843811  0.324679  1
  W  W3  1  0.157350  0.157350  0.672724  1
  C  C4  1  0.000694  0.000694  0.997297  1
  C  C5  1  0.248291  0.248291  0.266109  1
  C  C6  1  0.750055  0.750055  0.735335  1
