# generated using pymatgen
data_La2Pr6Cd2CoPt
_symmetry_space_group_name_H-M   'P 1'
_cell_length_a   10.03294727
_cell_length_b   10.03294776
_cell_length_c   10.03375600
_cell_angle_alpha   59.99732850
_cell_angle_beta   59.99732688
_cell_angle_gamma   60.18323231
_symmetry_Int_Tables_number   1
_chemical_formula_structural   La2Pr6Cd2CoPt
_chemical_formula_sum   'La4 Pr12 Cd4 Co2 Pt2'
_cell_volume   715.13135613
_cell_formula_units_Z   2
loop_
 _symmetry_equiv_pos_site_id
 _symmetry_equiv_pos_as_xyz
  1  'x, y, z'
loop_
 _atom_site_type_symbol
 _atom_site_label
 _atom_site_symmetry_multiplicity
 _atom_site_fract_x
 _atom_site_fract_y
 _atom_site_fract_z
 _atom_site_occupancy
  La  La0  1  0.343363  0.343363  0.358509  1
  La  La1  1  0.343363  0.343363  0.954767  1
  La  La2  1  0.338301  0.961111  0.350294  1
  La  La3  1  0.961111  0.338301  0.350294  1
  Pr  Pr4  1  0.819563  0.189884  0.188858  1
  Pr  Pr5  1  0.189884  0.819563  0.801696  1
  Pr  Pr6  1  0.189884  0.819563  0.188858  1
  Pr  Pr7  1  0.819563  0.189884  0.801696  1
  Pr  Pr8  1  0.188197  0.188197  0.811803  1
  Pr  Pr9  1  0.808420  0.808420  0.191580  1
  Pr  Pr10  1  0.935594  0.562913  0.564385  1
  Pr  Pr11  1  0.562913  0.935594  0.937108  1
  Pr  Pr12  1  0.562913  0.935594  0.564385  1
  Pr  Pr13  1  0.935594  0.562913  0.937108  1
  Pr  Pr14  1  0.560904  0.560904  0.939096  1
  Pr  Pr15  1  0.934249  0.934249  0.565751  1
  Cd  Cd16  1  0.579798  0.579798  0.579194  1
  Cd  Cd17  1  0.579798  0.579798  0.261209  1
  Cd  Cd18  1  0.581105  0.259333  0.579780  1
  Cd  Cd19  1  0.259333  0.581105  0.579780  1
  Co  Co20  1  0.143544  0.143544  0.141259  1
  Co  Co21  1  0.143544  0.143544  0.571652  1
  Pt  Pt22  1  0.145341  0.573722  0.140468  1
  Pt  Pt23  1  0.573722  0.145341  0.140468  1
