# generated using pymatgen
data_Ce2ZnFe2Si3
_symmetry_space_group_name_H-M   'P 1'
_cell_length_a   8.62415547
_cell_length_b   8.62415570
_cell_length_c   4.07320000
_cell_angle_alpha   90.00000000
_cell_angle_beta   90.00000000
_cell_angle_gamma   152.88333180
_symmetry_Int_Tables_number   1
_chemical_formula_structural   Ce2ZnFe2Si3
_chemical_formula_sum   'Ce2 Zn1 Fe2 Si3'
_cell_volume   138.08512690
_cell_formula_units_Z   1
loop_
 _symmetry_equiv_pos_site_id
 _symmetry_equiv_pos_as_xyz
  1  'x, y, z'
loop_
 _atom_site_type_symbol
 _atom_site_label
 _atom_site_symmetry_multiplicity
 _atom_site_fract_x
 _atom_site_fract_y
 _atom_site_fract_z
 _atom_site_occupancy
  Ce  Ce0  1  0.614891  0.385109  0.250000  1
  Ce  Ce1  1  0.382970  0.617030  0.750000  1
  Zn  Zn2  1  0.964657  0.035343  0.250000  1
  Fe  Fe3  1  0.249402  0.750598  0.250000  1
  Fe  Fe4  1  0.750505  0.249495  0.750000  1
  Si  Si5  1  0.038684  0.961316  0.750000  1
  Si  Si6  1  0.814854  0.185146  0.250000  1
  Si  Si7  1  0.184037  0.815963  0.750000  1
