# generated using pymatgen
data_Tb16Mg3CdPt4
_symmetry_space_group_name_H-M   'P 1'
_cell_length_a   9.77304987
_cell_length_b   9.81407215
_cell_length_c   9.81407200
_cell_angle_alpha   59.99999376
_cell_angle_beta   59.86104447
_cell_angle_gamma   59.86104839
_symmetry_Int_Tables_number   1
_chemical_formula_structural   Tb16Mg3CdPt4
_chemical_formula_sum   'Tb16 Mg3 Cd1 Pt4'
_cell_volume   664.19903728
_cell_formula_units_Z   1
loop_
 _symmetry_equiv_pos_site_id
 _symmetry_equiv_pos_as_xyz
  1  'x, y, z'
loop_
 _atom_site_type_symbol
 _atom_site_label
 _atom_site_symmetry_multiplicity
 _atom_site_fract_x
 _atom_site_fract_y
 _atom_site_fract_z
 _atom_site_occupancy
  Tb  Tb0  1  0.349291  0.350419  0.350419  1
  Tb  Tb1  1  0.349291  0.350419  0.949872  1
  Tb  Tb2  1  0.349291  0.949872  0.350419  1
  Tb  Tb3  1  0.951737  0.349421  0.349421  1
  Tb  Tb4  1  0.812160  0.188045  0.188045  1
  Tb  Tb5  1  0.189153  0.810928  0.810928  1
  Tb  Tb6  1  0.189153  0.810928  0.188992  1
  Tb  Tb7  1  0.812160  0.188045  0.811750  1
  Tb  Tb8  1  0.189153  0.188992  0.810928  1
  Tb  Tb9  1  0.812160  0.811750  0.188045  1
  Tb  Tb10  1  0.937412  0.565049  0.565049  1
  Tb  Tb11  1  0.565657  0.934193  0.934193  1
  Tb  Tb12  1  0.565657  0.934193  0.565957  1
  Tb  Tb13  1  0.937412  0.565049  0.932490  1
  Tb  Tb14  1  0.565657  0.565957  0.934193  1
  Tb  Tb15  1  0.937412  0.932490  0.565049  1
  Mg  Mg16  1  0.578015  0.580398  0.580398  1
  Mg  Mg17  1  0.578015  0.580398  0.261188  1
  Mg  Mg18  1  0.578015  0.261188  0.580398  1
  Cd  Cd19  1  0.253619  0.582127  0.582127  1
  Pt  Pt20  1  0.142790  0.142618  0.142618  1
  Pt  Pt21  1  0.142790  0.142618  0.571976  1
  Pt  Pt22  1  0.142790  0.571976  0.142618  1
  Pt  Pt23  1  0.571210  0.142930  0.142930  1
