# generated using pymatgen
data_Y15Ho5(IrRh3)3
_symmetry_space_group_name_H-M   'P 1'
_cell_length_a   10.92824522
_cell_length_b   10.92785051
_cell_length_c   6.37513702
_cell_angle_alpha   90.00389234
_cell_angle_beta   89.99336142
_cell_angle_gamma   89.84428714
_symmetry_Int_Tables_number   1
_chemical_formula_structural   Y15Ho5(IrRh3)3
_chemical_formula_sum   'Y15 Ho5 Ir3 Rh9'
_cell_volume   761.33026158
_cell_formula_units_Z   1
loop_
 _symmetry_equiv_pos_site_id
 _symmetry_equiv_pos_as_xyz
  1  'x, y, z'
loop_
 _atom_site_type_symbol
 _atom_site_label
 _atom_site_symmetry_multiplicity
 _atom_site_fract_x
 _atom_site_fract_y
 _atom_site_fract_z
 _atom_site_occupancy
  Y  Y0  1  0.290207  0.090439  0.379302  1
  Y  Y1  1  0.291043  0.909279  0.878763  1
  Y  Y2  1  0.709199  0.088512  0.878682  1
  Y  Y3  1  0.708909  0.909674  0.378811  1
  Y  Y4  1  0.587646  0.789058  0.879993  1
  Y  Y5  1  0.587219  0.209851  0.378306  1
  Y  Y6  1  0.412218  0.789644  0.379441  1
  Y  Y7  1  0.410208  0.209866  0.879770  1
  Y  Y8  1  0.210860  0.412135  0.620117  1
  Y  Y9  1  0.210370  0.587495  0.120518  1
  Y  Y10  1  0.790401  0.412674  0.121424  1
  Y  Y11  1  0.790305  0.589586  0.620053  1
  Y  Y12  1  0.909928  0.709404  0.120600  1
  Y  Y13  1  0.911753  0.290629  0.621582  1
  Y  Y14  1  0.090475  0.708822  0.621006  1
  Ho  Ho15  1  0.090379  0.292081  0.120170  1
  Ho  Ho16  1  0.999576  0.999898  0.499847  1
  Ho  Ho17  1  0.000323  0.000864  0.000507  1
  Ho  Ho18  1  0.499674  0.499614  0.999986  1
  Ho  Ho19  1  0.500249  0.500162  0.499858  1
  Ir  Ir20  1  0.652993  0.652043  0.249885  1
  Ir  Ir21  1  0.346563  0.346874  0.249395  1
  Ir  Ir22  1  0.347078  0.652853  0.749994  1
  Rh  Rh23  1  0.848218  0.153164  0.249686  1
  Rh  Rh24  1  0.848244  0.849021  0.750409  1
  Rh  Rh25  1  0.150754  0.152669  0.751775  1
  Rh  Rh26  1  0.151719  0.848403  0.250039  1
  Rh  Rh27  1  0.653442  0.346577  0.749980  1
  Rh  Rh28  1  0.500023  0.000553  0.124879  1
  Rh  Rh29  1  0.500280  0.000780  0.625611  1
  Rh  Rh30  1  0.999780  0.498569  0.875499  1
  Rh  Rh31  1  0.999968  0.498803  0.374110  1
