# generated using pymatgen
data_Ca6Re2N6O
_symmetry_space_group_name_H-M   'P 1'
_cell_length_a   6.11354011
_cell_length_b   6.11354035
_cell_length_c   6.11354123
_cell_angle_alpha   94.73626216
_cell_angle_beta   94.73627176
_cell_angle_gamma   94.73626912
_symmetry_Int_Tables_number   1
_chemical_formula_structural   Ca6Re2N6O
_chemical_formula_sum   'Ca6 Re2 N6 O1'
_cell_volume   226.01709370
_cell_formula_units_Z   1
loop_
 _symmetry_equiv_pos_site_id
 _symmetry_equiv_pos_as_xyz
  1  'x, y, z'
loop_
 _atom_site_type_symbol
 _atom_site_label
 _atom_site_symmetry_multiplicity
 _atom_site_fract_x
 _atom_site_fract_y
 _atom_site_fract_z
 _atom_site_occupancy
  Ca  Ca0  1  0.660091  0.114097  0.803289  1
  Ca  Ca1  1  0.114097  0.803289  0.660091  1
  Ca  Ca2  1  0.803289  0.660091  0.114097  1
  Ca  Ca3  1  0.339909  0.885903  0.196711  1
  Ca  Ca4  1  0.885903  0.196711  0.339909  1
  Ca  Ca5  1  0.196711  0.339909  0.885903  1
  Re  Re6  1  0.623491  0.623491  0.623491  1
  Re  Re7  1  0.376509  0.376509  0.376509  1
  N  N8  1  0.734853  0.859137  0.468302  1
  N  N9  1  0.859137  0.468302  0.734853  1
  N  N10  1  0.468302  0.734853  0.859137  1
  N  N11  1  0.265147  0.140863  0.531698  1
  N  N12  1  0.140863  0.531698  0.265147  1
  N  N13  1  0.531698  0.265147  0.140863  1
  O  O14  1  0.000000  0.000000  0.000000  1
