# generated using pymatgen
data_Ho3Er9(BBr3)4
_symmetry_space_group_name_H-M   'P 1'
_cell_length_a   9.66756624
_cell_length_b   9.66802282
_cell_length_c   9.66769503
_cell_angle_alpha   109.47877199
_cell_angle_beta   109.46735996
_cell_angle_gamma   109.46875684
_symmetry_Int_Tables_number   1
_chemical_formula_structural   Ho3Er9(BBr3)4
_chemical_formula_sum   'Ho3 Er9 B4 Br12'
_cell_volume   695.58353736
_cell_formula_units_Z   1
loop_
 _symmetry_equiv_pos_site_id
 _symmetry_equiv_pos_as_xyz
  1  'x, y, z'
loop_
 _atom_site_type_symbol
 _atom_site_label
 _atom_site_symmetry_multiplicity
 _atom_site_fract_x
 _atom_site_fract_y
 _atom_site_fract_z
 _atom_site_occupancy
  Ho  Ho0  1  0.458820  0.479409  0.229409  1
  Ho  Ho1  1  0.750014  0.229470  0.270554  1
  Ho  Ho2  1  0.750014  0.020543  0.479460  1
  Er  Er3  1  0.228995  0.457910  0.478949  1
  Er  Er4  1  0.270906  0.749933  0.228859  1
  Er  Er5  1  0.041946  0.270973  0.020973  1
  Er  Er6  1  0.020986  0.042068  0.271140  1
  Er  Er7  1  0.478893  0.750073  0.021064  1
  Er  Er8  1  0.478893  0.228820  0.457830  1
  Er  Er9  1  0.020986  0.478917  0.749845  1
  Er  Er10  1  0.270906  0.020973  0.042046  1
  Er  Er11  1  0.228995  0.271086  0.750046  1
  B  B12  1  0.249676  0.249672  0.249977  1
  B  B13  1  0.499150  0.999575  0.249575  1
  B  B14  1  0.000791  0.250396  0.500396  1
  B  B15  1  0.249676  0.500004  0.999699  1
  Br  Br16  1  0.249999  0.757920  0.742070  1
  Br  Br17  1  0.515845  0.507922  0.757922  1
  Br  Br18  1  0.984107  0.742054  0.992054  1
  Br  Br19  1  0.742127  0.250390  0.758290  1
  Br  Br20  1  0.992382  0.984211  0.742395  1
  Br  Br21  1  0.249999  0.992079  0.507929  1
  Br  Br22  1  0.758124  0.516129  0.508540  1
  Br  Br23  1  0.507569  0.249615  0.991450  1
  Br  Br24  1  0.758124  0.741995  0.249584  1
  Br  Br25  1  0.742127  0.991738  0.983836  1
  Br  Br26  1  0.992382  0.508170  0.249987  1
  Br  Br27  1  0.507569  0.757954  0.516120  1
