# generated using pymatgen
data_Hf3Sc9(Si3Ru)4
_symmetry_space_group_name_H-M   'P 1'
_cell_length_a   11.64816547
_cell_length_b   3.99945700
_cell_length_c   10.31131192
_cell_angle_alpha   90.00000000
_cell_angle_beta   90.10017306
_cell_angle_gamma   90.00000000
_symmetry_Int_Tables_number   1
_chemical_formula_structural   Hf3Sc9(Si3Ru)4
_chemical_formula_sum   'Hf3 Sc9 Si12 Ru4'
_cell_volume   480.36551721
_cell_formula_units_Z   1
loop_
 _symmetry_equiv_pos_site_id
 _symmetry_equiv_pos_as_xyz
  1  'x, y, z'
loop_
 _atom_site_type_symbol
 _atom_site_label
 _atom_site_symmetry_multiplicity
 _atom_site_fract_x
 _atom_site_fract_y
 _atom_site_fract_z
 _atom_site_occupancy
  Hf  Hf0  1  0.519812  0.249999  0.623938  1
  Hf  Hf1  1  0.981226  0.749999  0.125285  1
  Hf  Hf2  1  0.018949  0.249999  0.874632  1
  Sc  Sc3  1  0.480903  0.749999  0.375110  1
  Sc  Sc4  1  0.299172  0.249999  0.840450  1
  Sc  Sc5  1  0.202030  0.749999  0.340661  1
  Sc  Sc6  1  0.799046  0.249999  0.660459  1
  Sc  Sc7  1  0.701148  0.749999  0.159971  1
  Sc  Sc8  1  0.103342  0.249999  0.578489  1
  Sc  Sc9  1  0.395636  0.749999  0.078177  1
  Sc  Sc10  1  0.604229  0.249999  0.921487  1
  Sc  Sc11  1  0.895677  0.749999  0.421372  1
  Si  Si12  1  0.044969  0.249999  0.306369  1
  Si  Si13  1  0.455676  0.749999  0.804930  1
  Si  Si14  1  0.545138  0.249999  0.193427  1
  Si  Si15  1  0.955198  0.749999  0.693991  1
  Si  Si16  1  0.340157  0.249999  0.246160  1
  Si  Si17  1  0.159314  0.749999  0.747517  1
  Si  Si18  1  0.840532  0.249999  0.252563  1
  Si  Si19  1  0.659553  0.749999  0.752615  1
  Si  Si20  1  0.323053  0.249999  0.484073  1
  Si  Si21  1  0.175223  0.749999  0.982387  1
  Si  Si22  1  0.825091  0.249999  0.017394  1
  Si  Si23  1  0.675716  0.749999  0.516847  1
  Ru  Ru24  1  0.172341  0.249999  0.108225  1
  Ru  Ru25  1  0.325445  0.749999  0.610057  1
  Ru  Ru26  1  0.674740  0.249999  0.392205  1
  Ru  Ru27  1  0.826679  0.749999  0.891204  1
