# generated using pymatgen
data_LaYb(Co3Si2)2
_symmetry_space_group_name_H-M   'P 1'
_cell_length_a   6.32933173
_cell_length_b   6.32933165
_cell_length_c   6.32933309
_cell_angle_alpha   130.02119060
_cell_angle_beta   115.16488347
_cell_angle_gamma   86.08390997
_symmetry_Int_Tables_number   1
_chemical_formula_structural   LaYb(Co3Si2)2
_chemical_formula_sum   'La1 Yb1 Co6 Si4'
_cell_volume   167.87050997
_cell_formula_units_Z   1
loop_
 _symmetry_equiv_pos_site_id
 _symmetry_equiv_pos_as_xyz
  1  'x, y, z'
loop_
 _atom_site_type_symbol
 _atom_site_label
 _atom_site_symmetry_multiplicity
 _atom_site_fract_x
 _atom_site_fract_y
 _atom_site_fract_z
 _atom_site_occupancy
  La  La0  1  0.250000  0.536850  0.286850  1
  Yb  Yb1  1  0.750000  0.458027  0.708027  1
  Co  Co2  1  0.008234  0.999788  0.508022  1
  Co  Co3  1  0.491766  0.999788  0.991555  1
  Co  Co4  1  0.718738  0.001647  0.718358  1
  Co  Co5  1  0.216710  0.499620  0.718358  1
  Co  Co6  1  0.283290  0.001647  0.282910  1
  Co  Co7  1  0.781262  0.499620  0.282910  1
  Si  Si8  1  0.071851  0.873296  0.801445  1
  Si  Si9  1  0.912824  0.112884  0.200060  1
  Si  Si10  1  0.587176  0.787239  0.200060  1
  Si  Si11  1  0.428149  0.229592  0.801445  1
