# generated using pymatgen
data_Tb12Co4BiOs
_symmetry_space_group_name_H-M   'P 1'
_cell_length_a   8.38212004
_cell_length_b   8.38212090
_cell_length_c   8.38212102
_cell_angle_alpha   111.50509560
_cell_angle_beta   110.19537842
_cell_angle_gamma   106.74983557
_symmetry_Int_Tables_number   1
_chemical_formula_structural   Tb12Co4BiOs
_chemical_formula_sum   'Tb12 Co4 Bi1 Os1'
_cell_volume   452.53178555
_cell_formula_units_Z   1
loop_
 _symmetry_equiv_pos_site_id
 _symmetry_equiv_pos_as_xyz
  1  'x, y, z'
loop_
 _atom_site_type_symbol
 _atom_site_label
 _atom_site_symmetry_multiplicity
 _atom_site_fract_x
 _atom_site_fract_y
 _atom_site_fract_z
 _atom_site_occupancy
  Tb  Tb0  1  0.818783  0.714174  0.532958  1
  Tb  Tb1  1  0.181217  0.285826  0.467042  1
  Tb  Tb2  1  0.181217  0.714174  0.895392  1
  Tb  Tb3  1  0.818783  0.285826  0.104608  1
  Tb  Tb4  1  0.687630  0.378477  0.690847  1
  Tb  Tb5  1  0.312370  0.621523  0.309153  1
  Tb  Tb6  1  0.687630  0.996782  0.309153  1
  Tb  Tb7  1  0.312370  0.003218  0.690847  1
  Tb  Tb8  1  0.594279  0.789837  0.804443  1
  Tb  Tb9  1  0.405721  0.210163  0.195557  1
  Tb  Tb10  1  0.985394  0.789837  0.195557  1
  Tb  Tb11  1  0.014606  0.210163  0.804443  1
  Co  Co12  1  0.622460  0.000000  0.622460  1
  Co  Co13  1  0.377540  0.000000  0.377540  1
  Co  Co14  1  0.110455  0.610455  0.500000  1
  Co  Co15  1  0.889545  0.389545  0.500000  1
  Bi  Bi16  1  0.500000  0.500000  0.000000  1
  Os  Os17  1  0.000000  0.000000  0.000000  1
