# generated using pymatgen
data_Yb3LuGa14(Si2Ir3)2
_symmetry_space_group_name_H-M   'P 1'
_cell_length_a   7.51726831
_cell_length_b   7.47268871
_cell_length_c   9.49010534
_cell_angle_alpha   90.03207887
_cell_angle_beta   89.97362529
_cell_angle_gamma   120.18341876
_symmetry_Int_Tables_number   1
_chemical_formula_structural   Yb3LuGa14(Si2Ir3)2
_chemical_formula_sum   'Yb3 Lu1 Ga14 Si4 Ir6'
_cell_volume   460.82164992
_cell_formula_units_Z   1
loop_
 _symmetry_equiv_pos_site_id
 _symmetry_equiv_pos_as_xyz
  1  'x, y, z'
loop_
 _atom_site_type_symbol
 _atom_site_label
 _atom_site_symmetry_multiplicity
 _atom_site_fract_x
 _atom_site_fract_y
 _atom_site_fract_z
 _atom_site_occupancy
  Yb  Yb0  1  0.003330  0.338062  0.749569  1
  Yb  Yb1  1  0.668061  0.001864  0.249993  1
  Yb  Yb2  1  0.327285  0.995841  0.750300  1
  Lu  Lu3  1  0.000825  0.667200  0.249957  1
  Ga  Ga4  1  0.129572  0.127576  0.249876  1
  Ga  Ga5  1  0.873817  0.870504  0.749923  1
  Ga  Ga6  1  0.997211  0.325834  0.420136  1
  Ga  Ga7  1  0.671211  0.001774  0.581720  1
  Ga  Ga8  1  0.663798  0.999989  0.918430  1
  Ga  Ga9  1  0.340174  0.003148  0.080277  1
  Ga  Ga10  1  0.331563  0.334259  0.570694  1
  Ga  Ga11  1  0.662765  0.670047  0.428564  1
  Ga  Ga12  1  0.661372  0.670402  0.071316  1
  Ga  Ga13  1  0.336397  0.330373  0.929123  1
  Ga  Ga14  1  0.335234  0.546747  0.250360  1
  Ga  Ga15  1  0.664730  0.455483  0.751081  1
  Ga  Ga16  1  0.547661  0.340067  0.249825  1
  Ga  Ga17  1  0.450117  0.662249  0.749150  1
  Si  Si18  1  0.999991  0.328013  0.071540  1
  Si  Si19  1  0.998649  0.670641  0.931801  1
  Si  Si20  1  0.995690  0.660867  0.567979  1
  Si  Si21  1  0.338630  0.004266  0.428150  1
  Ir  Ir22  1  0.695485  0.343634  0.003878  1
  Ir  Ir23  1  0.304214  0.657291  0.999059  1
  Ir  Ir24  1  0.317120  0.680280  0.498162  1
  Ir  Ir25  1  0.672002  0.330968  0.499253  1
  Ir  Ir26  1  0.000341  0.997596  0.001552  1
  Ir  Ir27  1  0.012751  0.985023  0.498334  1
