# generated using pymatgen
data_Pr3Si2Rh
_symmetry_space_group_name_H-M   'P 1'
_cell_length_a   4.30862600
_cell_length_b   11.74293800
_cell_length_c   12.04639800
_cell_angle_alpha   90.00000000
_cell_angle_beta   90.00000000
_cell_angle_gamma   90.00000000
_symmetry_Int_Tables_number   1
_chemical_formula_structural   Pr3Si2Rh
_chemical_formula_sum   'Pr12 Si8 Rh4'
_cell_volume   609.49868566
_cell_formula_units_Z   4
loop_
 _symmetry_equiv_pos_site_id
 _symmetry_equiv_pos_as_xyz
  1  'x, y, z'
loop_
 _atom_site_type_symbol
 _atom_site_label
 _atom_site_symmetry_multiplicity
 _atom_site_fract_x
 _atom_site_fract_y
 _atom_site_fract_z
 _atom_site_occupancy
  Pr  Pr0  1  0.250000  0.375541  0.057404  1
  Pr  Pr1  1  0.750000  0.624459  0.942596  1
  Pr  Pr2  1  0.750000  0.875541  0.442596  1
  Pr  Pr3  1  0.250000  0.124459  0.557404  1
  Pr  Pr4  1  0.250000  0.697075  0.213636  1
  Pr  Pr5  1  0.750000  0.302925  0.786364  1
  Pr  Pr6  1  0.750000  0.197075  0.286364  1
  Pr  Pr7  1  0.250000  0.802925  0.713636  1
  Pr  Pr8  1  0.250000  0.442905  0.381705  1
  Pr  Pr9  1  0.750000  0.557095  0.618295  1
  Pr  Pr10  1  0.750000  0.942905  0.118295  1
  Pr  Pr11  1  0.250000  0.057095  0.881705  1
  Si  Si12  1  0.250000  0.686262  0.475357  1
  Si  Si13  1  0.750000  0.313738  0.524643  1
  Si  Si14  1  0.750000  0.186262  0.024643  1
  Si  Si15  1  0.250000  0.813738  0.975357  1
  Si  Si16  1  0.250000  0.004781  0.303397  1
  Si  Si17  1  0.750000  0.995219  0.696603  1
  Si  Si18  1  0.750000  0.504781  0.196603  1
  Si  Si19  1  0.250000  0.495219  0.803397  1
  Rh  Rh20  1  0.250000  0.134172  0.130161  1
  Rh  Rh21  1  0.750000  0.865828  0.869839  1
  Rh  Rh22  1  0.750000  0.634172  0.369839  1
  Rh  Rh23  1  0.250000  0.365828  0.630161  1
