# generated using pymatgen
data_Tb8Lu2IrPt5
_symmetry_space_group_name_H-M   'P 1'
_cell_length_a   11.02378000
_cell_length_b   11.02378000
_cell_length_c   6.41595800
_cell_angle_alpha   90.00000000
_cell_angle_beta   90.00000000
_cell_angle_gamma   90.00000000
_symmetry_Int_Tables_number   1
_chemical_formula_structural   Tb8Lu2IrPt5
_chemical_formula_sum   'Tb16 Lu4 Ir2 Pt10'
_cell_volume   779.69111874
_cell_formula_units_Z   2
loop_
 _symmetry_equiv_pos_site_id
 _symmetry_equiv_pos_as_xyz
  1  'x, y, z'
loop_
 _atom_site_type_symbol
 _atom_site_label
 _atom_site_symmetry_multiplicity
 _atom_site_fract_x
 _atom_site_fract_y
 _atom_site_fract_z
 _atom_site_occupancy
  Tb  Tb0  1  0.290384  0.087663  0.378092  1
  Tb  Tb1  1  0.290384  0.912337  0.878092  1
  Tb  Tb2  1  0.709616  0.087663  0.878092  1
  Tb  Tb3  1  0.709616  0.912337  0.378092  1
  Tb  Tb4  1  0.587663  0.790384  0.878092  1
  Tb  Tb5  1  0.587663  0.209616  0.378092  1
  Tb  Tb6  1  0.412337  0.790384  0.378092  1
  Tb  Tb7  1  0.412337  0.209616  0.878092  1
  Tb  Tb8  1  0.207864  0.413160  0.622280  1
  Tb  Tb9  1  0.207864  0.586840  0.122280  1
  Tb  Tb10  1  0.792136  0.413160  0.122280  1
  Tb  Tb11  1  0.792136  0.586840  0.622280  1
  Tb  Tb12  1  0.913160  0.707864  0.122280  1
  Tb  Tb13  1  0.913160  0.292136  0.622280  1
  Tb  Tb14  1  0.086840  0.707864  0.622280  1
  Tb  Tb15  1  0.086840  0.292136  0.122280  1
  Lu  Lu16  1  0.000000  0.000000  0.500015  1
  Lu  Lu17  1  0.000000  0.000000  0.000015  1
  Lu  Lu18  1  0.500000  0.500000  0.000015  1
  Lu  Lu19  1  0.500000  0.500000  0.500015  1
  Ir  Ir20  1  0.000000  0.500000  0.878093  1
  Ir  Ir21  1  0.000000  0.500000  0.378093  1
  Pt  Pt22  1  0.849212  0.149961  0.249945  1
  Pt  Pt23  1  0.849212  0.850039  0.749945  1
  Pt  Pt24  1  0.150788  0.149961  0.749945  1
  Pt  Pt25  1  0.150788  0.850039  0.249945  1
  Pt  Pt26  1  0.649961  0.349212  0.749945  1
  Pt  Pt27  1  0.649961  0.650788  0.249945  1
  Pt  Pt28  1  0.350039  0.349212  0.249945  1
  Pt  Pt29  1  0.350039  0.650788  0.749945  1
  Pt  Pt30  1  0.500000  0.000000  0.120609  1
  Pt  Pt31  1  0.500000  0.000000  0.620609  1
