# generated using pymatgen
data_Lu5Hg2PbO
_symmetry_space_group_name_H-M   'P 1'
_cell_length_a   8.77621111
_cell_length_b   8.77621096
_cell_length_c   8.77621045
_cell_angle_alpha   125.55159052
_cell_angle_beta   125.55157942
_cell_angle_gamma   80.62639503
_symmetry_Int_Tables_number   1
_chemical_formula_structural   Lu5Hg2PbO
_chemical_formula_sum   'Lu10 Hg4 Pb2 O2'
_cell_volume   431.48349699
_cell_formula_units_Z   2
loop_
 _symmetry_equiv_pos_site_id
 _symmetry_equiv_pos_as_xyz
  1  'x, y, z'
loop_
 _atom_site_type_symbol
 _atom_site_label
 _atom_site_symmetry_multiplicity
 _atom_site_fract_x
 _atom_site_fract_y
 _atom_site_fract_z
 _atom_site_occupancy
  Lu  Lu0  1  0.500149  0.300340  0.500000  1
  Lu  Lu1  1  0.800340  0.000149  0.500000  1
  Lu  Lu2  1  0.000149  0.500149  0.199809  1
  Lu  Lu3  1  0.300340  0.800340  0.800191  1
  Lu  Lu4  1  0.502419  0.702141  0.500000  1
  Lu  Lu5  1  0.202141  0.002419  0.500000  1
  Lu  Lu6  1  0.002419  0.502419  0.800277  1
  Lu  Lu7  1  0.702141  0.202141  0.199723  1
  Lu  Lu8  1  0.501373  0.501373  0.000000  1
  Lu  Lu9  1  0.001373  0.001373  0.000000  1
  Hg  Hg10  1  0.145603  0.356812  0.500000  1
  Hg  Hg11  1  0.856812  0.645603  0.500000  1
  Hg  Hg12  1  0.645603  0.145603  0.788790  1
  Hg  Hg13  1  0.356812  0.856812  0.211210  1
  Pb  Pb14  1  0.751300  0.751300  0.000000  1
  Pb  Pb15  1  0.251300  0.251300  0.000000  1
  O  O16  1  0.751283  0.251283  0.500000  1
  O  O17  1  0.251283  0.751283  0.500000  1
