# generated using pymatgen
data_Tb8Hf11ZrSi16
_symmetry_space_group_name_H-M   'P 1'
_cell_length_a   7.29752806
_cell_length_b   7.29752806
_cell_length_c   13.41254408
_cell_angle_alpha   90.00857103
_cell_angle_beta   89.99142897
_cell_angle_gamma   89.98790917
_symmetry_Int_Tables_number   1
_chemical_formula_structural   Tb8Hf11ZrSi16
_chemical_formula_sum   'Tb8 Hf11 Zr1 Si16'
_cell_volume   714.27046097
_cell_formula_units_Z   1
loop_
 _symmetry_equiv_pos_site_id
 _symmetry_equiv_pos_as_xyz
  1  'x, y, z'
loop_
 _atom_site_type_symbol
 _atom_site_label
 _atom_site_symmetry_multiplicity
 _atom_site_fract_x
 _atom_site_fract_y
 _atom_site_fract_z
 _atom_site_occupancy
  Tb  Tb0  1  0.996217  0.343809  0.215207  1
  Tb  Tb1  1  0.003583  0.656287  0.715064  1
  Tb  Tb2  1  0.156400  0.496252  0.465098  1
  Tb  Tb3  1  0.503598  0.843840  0.034917  1
  Tb  Tb4  1  0.843840  0.503598  0.965083  1
  Tb  Tb5  1  0.496252  0.156400  0.534902  1
  Tb  Tb6  1  0.343809  0.996217  0.784793  1
  Tb  Tb7  1  0.656287  0.003583  0.284936  1
  Hf  Hf8  1  0.825624  0.825624  0.500000  1
  Hf  Hf9  1  0.325577  0.674588  0.250145  1
  Hf  Hf10  1  0.674588  0.325577  0.749855  1
  Hf  Hf11  1  0.149580  0.995416  0.374463  1
  Hf  Hf12  1  0.850404  0.004379  0.874260  1
  Hf  Hf13  1  0.504250  0.649783  0.624315  1
  Hf  Hf14  1  0.350334  0.495610  0.875635  1
  Hf  Hf15  1  0.495610  0.350334  0.124365  1
  Hf  Hf16  1  0.649783  0.504250  0.375685  1
  Hf  Hf17  1  0.995416  0.149580  0.625537  1
  Hf  Hf18  1  0.004379  0.850404  0.125740  1
  Zr  Zr19  1  0.174350  0.174350  0.000000  1
  Si  Si20  1  0.363489  0.294992  0.317070  1
  Si  Si21  1  0.636482  0.704975  0.817001  1
  Si  Si22  1  0.205033  0.863351  0.567048  1
  Si  Si23  1  0.136347  0.793838  0.932847  1
  Si  Si24  1  0.793838  0.136347  0.067153  1
  Si  Si25  1  0.863351  0.205033  0.432952  1
  Si  Si26  1  0.294992  0.363489  0.682930  1
  Si  Si27  1  0.704975  0.636482  0.182999  1
  Si  Si28  1  0.295556  0.048048  0.186374  1
  Si  Si29  1  0.704878  0.951512  0.685492  1
  Si  Si30  1  0.451635  0.795123  0.435556  1
  Si  Si31  1  0.205122  0.549739  0.064607  1
  Si  Si32  1  0.549739  0.205122  0.935393  1
  Si  Si33  1  0.795123  0.451635  0.564444  1
  Si  Si34  1  0.048048  0.295556  0.813626  1
  Si  Si35  1  0.951512  0.704878  0.314508  1
