# generated using pymatgen
data_Tb8Gd2Si5Ge
_symmetry_space_group_name_H-M   'P 1'
_cell_length_a   8.48374900
_cell_length_b   8.48373991
_cell_length_c   6.37865500
_cell_angle_alpha   90.00072939
_cell_angle_beta   90.00075640
_cell_angle_gamma   120.01476379
_symmetry_Int_Tables_number   1
_chemical_formula_structural   Tb8Gd2Si5Ge
_chemical_formula_sum   'Tb8 Gd2 Si5 Ge1'
_cell_volume   397.53033271
_cell_formula_units_Z   1
loop_
 _symmetry_equiv_pos_site_id
 _symmetry_equiv_pos_as_xyz
  1  'x, y, z'
loop_
 _atom_site_type_symbol
 _atom_site_label
 _atom_site_symmetry_multiplicity
 _atom_site_fract_x
 _atom_site_fract_y
 _atom_site_fract_z
 _atom_site_occupancy
  Tb  Tb0  1  0.668054  0.332963  0.500741  1
  Tb  Tb1  1  0.332999  0.668125  0.500845  1
  Tb  Tb2  1  0.757634  0.757702  0.250135  1
  Tb  Tb3  1  0.243326  0.998492  0.249825  1
  Tb  Tb4  1  0.998547  0.243567  0.249701  1
  Tb  Tb5  1  0.243076  0.243099  0.749616  1
  Tb  Tb6  1  0.756250  0.999707  0.750077  1
  Tb  Tb7  1  0.999845  0.756326  0.750007  1
  Gd  Gd8  1  0.333356  0.667459  0.999504  1
  Gd  Gd9  1  0.667499  0.333215  0.999401  1
  Si  Si10  1  0.605989  0.999912  0.251222  1
  Si  Si11  1  0.999892  0.606036  0.251159  1
  Si  Si12  1  0.606363  0.606263  0.748115  1
  Si  Si13  1  0.393766  0.000150  0.748937  1
  Si  Si14  1  0.000215  0.393764  0.748811  1
  Ge  Ge15  1  0.393190  0.393219  0.251904  1
