# generated using pymatgen
data_Hf3SnPd2N
_symmetry_space_group_name_H-M   'P 1'
_cell_length_a   8.72935012
_cell_length_b   8.72935067
_cell_length_c   8.72935100
_cell_angle_alpha   60.00000255
_cell_angle_beta   60.00000046
_cell_angle_gamma   59.99999802
_symmetry_Int_Tables_number   1
_chemical_formula_structural   Hf3SnPd2N
_chemical_formula_sum   'Hf12 Sn4 Pd8 N4'
_cell_volume   470.36046929
_cell_formula_units_Z   4
loop_
 _symmetry_equiv_pos_site_id
 _symmetry_equiv_pos_as_xyz
  1  'x, y, z'
loop_
 _atom_site_type_symbol
 _atom_site_label
 _atom_site_symmetry_multiplicity
 _atom_site_fract_x
 _atom_site_fract_y
 _atom_site_fract_z
 _atom_site_occupancy
  Hf  Hf0  1  0.815538  0.815538  0.184462  1
  Hf  Hf1  1  0.184462  0.184462  0.815538  1
  Hf  Hf2  1  0.815538  0.184462  0.815538  1
  Hf  Hf3  1  0.184462  0.815538  0.184462  1
  Hf  Hf4  1  0.184462  0.815538  0.815538  1
  Hf  Hf5  1  0.815538  0.184462  0.184462  1
  Hf  Hf6  1  0.434462  0.434462  0.065538  1
  Hf  Hf7  1  0.065538  0.065538  0.434462  1
  Hf  Hf8  1  0.434462  0.065538  0.434462  1
  Hf  Hf9  1  0.065538  0.434462  0.065538  1
  Hf  Hf10  1  0.065538  0.434462  0.434462  1
  Hf  Hf11  1  0.434462  0.065538  0.065538  1
  Sn  Sn12  1  0.125000  0.625000  0.625000  1
  Sn  Sn13  1  0.625000  0.125000  0.625000  1
  Sn  Sn14  1  0.625000  0.625000  0.125000  1
  Sn  Sn15  1  0.625000  0.625000  0.625000  1
  Pd  Pd16  1  0.777074  0.407643  0.407643  1
  Pd  Pd17  1  0.407643  0.777074  0.407643  1
  Pd  Pd18  1  0.407643  0.407643  0.777074  1
  Pd  Pd19  1  0.407643  0.407643  0.407643  1
  Pd  Pd20  1  0.472926  0.842357  0.842357  1
  Pd  Pd21  1  0.842357  0.472926  0.842357  1
  Pd  Pd22  1  0.842357  0.842357  0.472926  1
  Pd  Pd23  1  0.842357  0.842357  0.842357  1
  N  N24  1  0.625000  0.125000  0.125000  1
  N  N25  1  0.125000  0.625000  0.125000  1
  N  N26  1  0.125000  0.125000  0.625000  1
  N  N27  1  0.125000  0.125000  0.125000  1
