# generated using pymatgen
data_TmSn2P6BrN12
_symmetry_space_group_name_H-M   'P 1'
_cell_length_a   7.47696059
_cell_length_b   7.51221136
_cell_length_c   7.51221256
_cell_angle_alpha   108.62136633
_cell_angle_beta   110.28777177
_cell_angle_gamma   110.28775119
_symmetry_Int_Tables_number   1
_chemical_formula_structural   TmSn2P6BrN12
_chemical_formula_sum   'Tm1 Sn2 P6 Br1 N12'
_cell_volume   321.57158866
_cell_formula_units_Z   1
loop_
 _symmetry_equiv_pos_site_id
 _symmetry_equiv_pos_as_xyz
  1  'x, y, z'
loop_
 _atom_site_type_symbol
 _atom_site_label
 _atom_site_symmetry_multiplicity
 _atom_site_fract_x
 _atom_site_fract_y
 _atom_site_fract_z
 _atom_site_occupancy
  Tm  Tm0  1  0.381327  0.015451  0.015451  1
  Sn  Sn1  1  0.009677  0.347594  0.021846  1
  Sn  Sn2  1  0.009677  0.021846  0.347594  1
  P  P3  1  0.503826  0.267252  0.754488  1
  P  P4  1  0.260904  0.758788  0.511637  1
  P  P5  1  0.748440  0.509024  0.260967  1
  P  P6  1  0.748440  0.260967  0.509024  1
  P  P7  1  0.503826  0.754488  0.267252  1
  P  P8  1  0.260904  0.511637  0.758788  1
  Br  Br9  1  0.948731  0.854784  0.854784  1
  N  N10  1  0.405622  0.702599  0.413657  1
  N  N11  1  0.666770  0.377138  0.377138  1
  N  N12  1  0.405622  0.413657  0.702599  1
  N  N13  1  0.717474  0.303398  0.721737  1
  N  N14  1  0.001286  0.592928  0.305649  1
  N  N15  1  0.293935  0.597203  0.007601  1
  N  N16  1  0.293935  0.007601  0.597203  1
  N  N17  1  0.001286  0.305649  0.592928  1
  N  N18  1  0.717474  0.721737  0.303398  1
  N  N19  1  0.586373  0.003317  0.306074  1
  N  N20  1  0.308099  0.726865  0.726865  1
  N  N21  1  0.586373  0.306074  0.003317  1
