# generated using pymatgen
data_Y3Tm7Cd3Tc
_symmetry_space_group_name_H-M   'P 1'
_cell_length_a   9.49000000
_cell_length_b   9.48999943
_cell_length_c   9.84387400
_cell_angle_alpha   90.00000000
_cell_angle_beta   90.00000000
_cell_angle_gamma   119.99999502
_symmetry_Int_Tables_number   1
_chemical_formula_structural   Y3Tm7Cd3Tc
_chemical_formula_sum   'Y6 Tm14 Cd6 Tc2'
_cell_volume   767.76639356
_cell_formula_units_Z   2
loop_
 _symmetry_equiv_pos_site_id
 _symmetry_equiv_pos_as_xyz
  1  'x, y, z'
loop_
 _atom_site_type_symbol
 _atom_site_label
 _atom_site_symmetry_multiplicity
 _atom_site_fract_x
 _atom_site_fract_y
 _atom_site_fract_z
 _atom_site_occupancy
  Y  Y0  1  0.539077  0.460923  0.250000  1
  Y  Y1  1  0.539077  0.078155  0.250000  1
  Y  Y2  1  0.921845  0.460923  0.250000  1
  Y  Y3  1  0.460923  0.539077  0.750000  1
  Y  Y4  1  0.460923  0.921845  0.750000  1
  Y  Y5  1  0.078155  0.539077  0.750000  1
  Tm  Tm6  1  0.000000  0.000000  0.500000  1
  Tm  Tm7  1  0.000000  0.000000  0.000000  1
  Tm  Tm8  1  0.210098  0.789902  0.441419  1
  Tm  Tm9  1  0.210098  0.420197  0.441419  1
  Tm  Tm10  1  0.579803  0.789902  0.441419  1
  Tm  Tm11  1  0.789902  0.210098  0.558581  1
  Tm  Tm12  1  0.789902  0.579803  0.558581  1
  Tm  Tm13  1  0.420197  0.210098  0.558581  1
  Tm  Tm14  1  0.789902  0.210098  0.941419  1
  Tm  Tm15  1  0.789902  0.579803  0.941419  1
  Tm  Tm16  1  0.420197  0.210098  0.941419  1
  Tm  Tm17  1  0.210098  0.789902  0.058581  1
  Tm  Tm18  1  0.210098  0.420197  0.058581  1
  Tm  Tm19  1  0.579803  0.789902  0.058581  1
  Cd  Cd20  1  0.886438  0.113562  0.250000  1
  Cd  Cd21  1  0.886438  0.772876  0.250000  1
  Cd  Cd22  1  0.227124  0.113562  0.250000  1
  Cd  Cd23  1  0.113562  0.886438  0.750000  1
  Cd  Cd24  1  0.113562  0.227124  0.750000  1
  Cd  Cd25  1  0.772876  0.886438  0.750000  1
  Tc  Tc26  1  0.333333  0.666667  0.250000  1
  Tc  Tc27  1  0.666667  0.333333  0.750000  1
