# generated using pymatgen
data_Nd3Zn2(Sn2Pd)2
_symmetry_space_group_name_H-M   'P 1'
_cell_length_a   8.67049279
_cell_length_b   8.96246864
_cell_length_c   8.96246900
_cell_angle_alpha   149.76315408
_cell_angle_beta   131.44806710
_cell_angle_gamma   58.57978738
_symmetry_Int_Tables_number   1
_chemical_formula_structural   Nd3Zn2(Sn2Pd)2
_chemical_formula_sum   'Nd3 Zn2 Sn4 Pd2'
_cell_volume   260.51590323
_cell_formula_units_Z   1
loop_
 _symmetry_equiv_pos_site_id
 _symmetry_equiv_pos_as_xyz
  1  'x, y, z'
loop_
 _atom_site_type_symbol
 _atom_site_label
 _atom_site_symmetry_multiplicity
 _atom_site_fract_x
 _atom_site_fract_y
 _atom_site_fract_z
 _atom_site_occupancy
  Nd  Nd0  1  0.365061  0.870028  0.495034  1
  Nd  Nd1  1  0.634939  0.129972  0.504966  1
  Nd  Nd2  1  0.000000  0.000000  0.000000  1
  Zn  Zn3  1  0.655660  0.342274  0.313387  1
  Zn  Zn4  1  0.344340  0.657726  0.686613  1
  Sn  Sn5  1  0.223499  0.217889  0.005609  1
  Sn  Sn6  1  0.776501  0.782111  0.994391  1
  Sn  Sn7  1  0.708353  0.509023  0.199330  1
  Sn  Sn8  1  0.291647  0.490977  0.800670  1
  Pd  Pd9  1  0.001246  0.320640  0.680610  1
  Pd  Pd10  1  0.998754  0.679360  0.319390  1
