# generated using pymatgen
data_Sr6MnZn2NiO12
_symmetry_space_group_name_H-M   'P 1'
_cell_length_a   6.66507098
_cell_length_b   6.66507088
_cell_length_c   6.66507092
_cell_angle_alpha   92.64873971
_cell_angle_beta   92.64874491
_cell_angle_gamma   92.64874580
_symmetry_Int_Tables_number   1
_chemical_formula_structural   Sr6MnZn2NiO12
_chemical_formula_sum   'Sr6 Mn1 Zn2 Ni1 O12'
_cell_volume   295.10425537
_cell_formula_units_Z   1
loop_
 _symmetry_equiv_pos_site_id
 _symmetry_equiv_pos_as_xyz
  1  'x, y, z'
loop_
 _atom_site_type_symbol
 _atom_site_label
 _atom_site_symmetry_multiplicity
 _atom_site_fract_x
 _atom_site_fract_y
 _atom_site_fract_z
 _atom_site_occupancy
  Sr  Sr0  1  0.886563  0.615378  0.248867  1
  Sr  Sr1  1  0.248867  0.886563  0.615378  1
  Sr  Sr2  1  0.615378  0.248867  0.886563  1
  Sr  Sr3  1  0.751133  0.113437  0.384622  1
  Sr  Sr4  1  0.384622  0.751133  0.113437  1
  Sr  Sr5  1  0.113437  0.384622  0.751133  1
  Mn  Mn6  1  0.500000  0.500000  0.500000  1
  Zn  Zn7  1  0.248291  0.248291  0.248291  1
  Zn  Zn8  1  0.751709  0.751709  0.751709  1
  Ni  Ni9  1  0.000000  0.000000  0.000000  1
  O  O10  1  0.221377  0.542492  0.412906  1
  O  O11  1  0.412906  0.221377  0.542492  1
  O  O12  1  0.542492  0.412906  0.221377  1
  O  O13  1  0.913868  0.040384  0.725347  1
  O  O14  1  0.725347  0.913868  0.040384  1
  O  O15  1  0.040384  0.725347  0.913868  1
  O  O16  1  0.778623  0.457508  0.587094  1
  O  O17  1  0.587094  0.778623  0.457508  1
  O  O18  1  0.457508  0.587094  0.778623  1
  O  O19  1  0.086132  0.959616  0.274653  1
  O  O20  1  0.274653  0.086132  0.959616  1
  O  O21  1  0.959616  0.274653  0.086132  1
