# generated using pymatgen
data_Sr8LaPd6
_symmetry_space_group_name_H-M   'P 1'
_cell_length_a   8.13736706
_cell_length_b   8.13736615
_cell_length_c   8.13736617
_cell_angle_alpha   71.69569404
_cell_angle_beta   71.69569397
_cell_angle_gamma   71.69568982
_symmetry_Int_Tables_number   1
_chemical_formula_structural   Sr8LaPd6
_chemical_formula_sum   'Sr8 La1 Pd6'
_cell_volume   471.60625279
_cell_formula_units_Z   1
loop_
 _symmetry_equiv_pos_site_id
 _symmetry_equiv_pos_as_xyz
  1  'x, y, z'
loop_
 _atom_site_type_symbol
 _atom_site_label
 _atom_site_symmetry_multiplicity
 _atom_site_fract_x
 _atom_site_fract_y
 _atom_site_fract_z
 _atom_site_occupancy
  Sr  Sr0  1  0.342180  0.828552  0.107694  1
  Sr  Sr1  1  0.892305  0.657820  0.171448  1
  Sr  Sr2  1  0.296111  0.296111  0.296111  1
  Sr  Sr3  1  0.828552  0.107693  0.342180  1
  Sr  Sr4  1  0.171447  0.892306  0.657819  1
  Sr  Sr5  1  0.703888  0.703888  0.703888  1
  Sr  Sr6  1  0.107694  0.342180  0.828552  1
  Sr  Sr7  1  0.657819  0.171448  0.892306  1
  La  La8  1  0.500000  0.500000  0.500000  1
  Pd  Pd9  1  0.637726  0.461068  0.106444  1
  Pd  Pd10  1  0.538931  0.893555  0.362274  1
  Pd  Pd11  1  0.106445  0.637725  0.461068  1
  Pd  Pd12  1  0.893555  0.362274  0.538932  1
  Pd  Pd13  1  0.461069  0.106444  0.637725  1
  Pd  Pd14  1  0.362273  0.538932  0.893556  1
