# generated using pymatgen
data_Pr2Nd2AgRh
_symmetry_space_group_name_H-M   'P 1'
_cell_length_a   9.91137124
_cell_length_b   9.91137158
_cell_length_c   9.91205800
_cell_angle_alpha   59.99770900
_cell_angle_beta   59.99770787
_cell_angle_gamma   60.00457922
_symmetry_Int_Tables_number   1
_chemical_formula_structural   Pr2Nd2AgRh
_chemical_formula_sum   'Pr8 Nd8 Ag4 Rh4'
_cell_volume   688.51962137
_cell_formula_units_Z   4
loop_
 _symmetry_equiv_pos_site_id
 _symmetry_equiv_pos_as_xyz
  1  'x, y, z'
loop_
 _atom_site_type_symbol
 _atom_site_label
 _atom_site_symmetry_multiplicity
 _atom_site_fract_x
 _atom_site_fract_y
 _atom_site_fract_z
 _atom_site_occupancy
  Pr  Pr0  1  0.188952  0.188952  0.811048  1
  Pr  Pr1  1  0.811049  0.811049  0.188951  1
  Pr  Pr2  1  0.936876  0.563124  0.563124  1
  Pr  Pr3  1  0.563124  0.936876  0.936876  1
  Pr  Pr4  1  0.563124  0.936876  0.563124  1
  Pr  Pr5  1  0.936876  0.563124  0.936876  1
  Pr  Pr6  1  0.563058  0.563058  0.936942  1
  Pr  Pr7  1  0.936942  0.936942  0.563058  1
  Nd  Nd8  1  0.351505  0.351505  0.350971  1
  Nd  Nd9  1  0.351505  0.351505  0.946018  1
  Nd  Nd10  1  0.350971  0.946018  0.351505  1
  Nd  Nd11  1  0.946018  0.350971  0.351505  1
  Nd  Nd12  1  0.810988  0.189012  0.189012  1
  Nd  Nd13  1  0.189012  0.810989  0.810988  1
  Nd  Nd14  1  0.189012  0.810988  0.189011  1
  Nd  Nd15  1  0.810988  0.189012  0.810988  1
  Ag  Ag16  1  0.580682  0.580682  0.580924  1
  Ag  Ag17  1  0.580682  0.580682  0.257711  1
  Ag  Ag18  1  0.580924  0.257711  0.580682  1
  Ag  Ag19  1  0.257711  0.580924  0.580682  1
  Rh  Rh20  1  0.142547  0.142547  0.143183  1
  Rh  Rh21  1  0.142547  0.142547  0.571725  1
  Rh  Rh22  1  0.143183  0.571725  0.142547  1
  Rh  Rh23  1  0.571725  0.143183  0.142547  1
