# generated using pymatgen
data_Ta3(SbS3)2
_symmetry_space_group_name_H-M   'P 1'
_cell_length_a   5.73061100
_cell_length_b   5.73061114
_cell_length_c   17.32036400
_cell_angle_alpha   90.00000000
_cell_angle_beta   90.00000000
_cell_angle_gamma   120.00001651
_symmetry_Int_Tables_number   1
_chemical_formula_structural   Ta3(SbS3)2
_chemical_formula_sum   'Ta6 Sb4 S12'
_cell_volume   492.59436896
_cell_formula_units_Z   2
loop_
 _symmetry_equiv_pos_site_id
 _symmetry_equiv_pos_as_xyz
  1  'x, y, z'
loop_
 _atom_site_type_symbol
 _atom_site_label
 _atom_site_symmetry_multiplicity
 _atom_site_fract_x
 _atom_site_fract_y
 _atom_site_fract_z
 _atom_site_occupancy
  Ta  Ta0  1  0.671665  0.671665  0.750000  1
  Ta  Ta1  1  0.328335  0.000000  0.750000  1
  Ta  Ta2  1  0.000000  0.328335  0.750000  1
  Ta  Ta3  1  0.328335  0.328335  0.250000  1
  Ta  Ta4  1  0.671665  0.000000  0.250000  1
  Ta  Ta5  1  0.000000  0.671665  0.250000  1
  Sb  Sb6  1  0.666667  0.333333  0.000000  1
  Sb  Sb7  1  0.333333  0.666667  0.000000  1
  Sb  Sb8  1  0.333333  0.666667  0.500000  1
  Sb  Sb9  1  0.666667  0.333333  0.500000  1
  S  S10  1  0.000000  0.000000  0.842151  1
  S  S11  1  0.000000  0.000000  0.157849  1
  S  S12  1  0.000000  0.000000  0.342151  1
  S  S13  1  0.000000  0.000000  0.657849  1
  S  S14  1  0.666667  0.333333  0.840003  1
  S  S15  1  0.333333  0.666667  0.840003  1
  S  S16  1  0.333333  0.666667  0.159997  1
  S  S17  1  0.666667  0.333333  0.159997  1
  S  S18  1  0.333333  0.666667  0.340003  1
  S  S19  1  0.666667  0.333333  0.340003  1
  S  S20  1  0.666667  0.333333  0.659997  1
  S  S21  1  0.333333  0.666667  0.659997  1
