# generated using pymatgen
data_LaThMn3Ni9P7
_symmetry_space_group_name_H-M   'P 1'
_cell_length_a   9.20640300
_cell_length_b   9.20640422
_cell_length_c   3.77622000
_cell_angle_alpha   90.00000000
_cell_angle_beta   90.00000000
_cell_angle_gamma   119.99999920
_symmetry_Int_Tables_number   1
_chemical_formula_structural   LaThMn3Ni9P7
_chemical_formula_sum   'La1 Th1 Mn3 Ni9 P7'
_cell_volume   277.18386390
_cell_formula_units_Z   1
loop_
 _symmetry_equiv_pos_site_id
 _symmetry_equiv_pos_as_xyz
  1  'x, y, z'
loop_
 _atom_site_type_symbol
 _atom_site_label
 _atom_site_symmetry_multiplicity
 _atom_site_fract_x
 _atom_site_fract_y
 _atom_site_fract_z
 _atom_site_occupancy
  La  La0  1  0.333333  0.666667  0.000000  1
  Th  Th1  1  0.000000  0.000000  0.500000  1
  Mn  Mn2  1  0.780604  0.233092  0.500000  1
  Mn  Mn3  1  0.766908  0.547512  0.500000  1
  Mn  Mn4  1  0.452488  0.219396  0.500000  1
  Ni  Ni5  1  0.031932  0.266776  0.000000  1
  Ni  Ni6  1  0.733224  0.765155  0.000000  1
  Ni  Ni7  1  0.234845  0.968068  0.000000  1
  Ni  Ni8  1  0.539337  0.059274  0.000000  1
  Ni  Ni9  1  0.940726  0.480063  0.000000  1
  Ni  Ni10  1  0.519937  0.460663  0.000000  1
  Ni  Ni11  1  0.617858  0.902994  0.500000  1
  Ni  Ni12  1  0.097006  0.714862  0.500000  1
  Ni  Ni13  1  0.285138  0.382142  0.500000  1
  P  P14  1  0.768423  0.032619  0.000000  1
  P  P15  1  0.967381  0.735804  0.000000  1
  P  P16  1  0.264196  0.231577  0.000000  1
  P  P17  1  0.372406  0.936016  0.500000  1
  P  P18  1  0.063984  0.436390  0.500000  1
  P  P19  1  0.563610  0.627594  0.500000  1
  P  P20  1  0.666667  0.333333  0.000000  1
