# generated using pymatgen
data_Li7La8CdSn8
_symmetry_space_group_name_H-M   'P 1'
_cell_length_a   9.73049200
_cell_length_b   9.73049158
_cell_length_c   7.85922013
_cell_angle_alpha   89.92300167
_cell_angle_beta   90.07699446
_cell_angle_gamma   119.95849897
_symmetry_Int_Tables_number   1
_chemical_formula_structural   Li7La8CdSn8
_chemical_formula_sum   'Li7 La8 Cd1 Sn8'
_cell_volume   644.70436324
_cell_formula_units_Z   1
loop_
 _symmetry_equiv_pos_site_id
 _symmetry_equiv_pos_as_xyz
  1  'x, y, z'
loop_
 _atom_site_type_symbol
 _atom_site_label
 _atom_site_symmetry_multiplicity
 _atom_site_fract_x
 _atom_site_fract_y
 _atom_site_fract_z
 _atom_site_occupancy
  Li  Li0  1  0.835033  0.667189  0.711721  1
  Li  Li1  1  0.332811  0.164967  0.711721  1
  Li  Li2  1  0.166989  0.833011  0.209758  1
  Li  Li3  1  0.167358  0.333931  0.211886  1
  Li  Li4  1  0.666069  0.832642  0.211886  1
  Li  Li5  1  0.666473  0.333527  0.327274  1
  Li  Li6  1  0.331660  0.668340  0.829707  1
  La  La7  1  0.488580  0.511420  0.502127  1
  La  La8  1  0.484255  0.974730  0.503253  1
  La  La9  1  0.025270  0.515745  0.503253  1
  La  La10  1  0.511040  0.488960  0.009687  1
  La  La11  1  0.510862  0.022723  0.006011  1
  La  La12  1  0.977277  0.489138  0.006011  1
  La  La13  1  0.003488  0.996512  0.498513  1
  La  La14  1  0.999658  0.000342  0.001619  1
  Cd  Cd15  1  0.833372  0.166628  0.706429  1
  Sn  Sn16  1  0.833723  0.166277  0.273377  1
  Sn  Sn17  1  0.833611  0.666361  0.271374  1
  Sn  Sn18  1  0.333639  0.166389  0.271374  1
  Sn  Sn19  1  0.166472  0.833528  0.771796  1
  Sn  Sn20  1  0.174247  0.337165  0.775496  1
  Sn  Sn21  1  0.662835  0.825753  0.775496  1
  Sn  Sn22  1  0.662167  0.337833  0.735872  1
  Sn  Sn23  1  0.333112  0.666888  0.232368  1
