# generated using pymatgen
data_NaPr2Nd(Si5Pt3)2
_symmetry_space_group_name_H-M   'P 1'
_cell_length_a   8.26551528
_cell_length_b   8.29911869
_cell_length_c   8.29911769
_cell_angle_alpha   137.23553048
_cell_angle_beta   104.83151510
_cell_angle_gamma   90.62752926
_symmetry_Int_Tables_number   1
_chemical_formula_structural   NaPr2Nd(Si5Pt3)2
_chemical_formula_sum   'Na1 Pr2 Nd1 Si10 Pt6'
_cell_volume   356.09617744
_cell_formula_units_Z   1
loop_
 _symmetry_equiv_pos_site_id
 _symmetry_equiv_pos_as_xyz
  1  'x, y, z'
loop_
 _atom_site_type_symbol
 _atom_site_label
 _atom_site_symmetry_multiplicity
 _atom_site_fract_x
 _atom_site_fract_y
 _atom_site_fract_z
 _atom_site_occupancy
  Na  Na0  1  0.863823  0.627965  0.235858  1
  Pr  Pr1  1  0.395351  0.128954  0.266397  1
  Pr  Pr2  1  0.607134  0.873825  0.733309  1
  Nd  Nd3  1  0.137543  0.369414  0.768128  1
  Si  Si4  1  0.501411  0.747044  0.247983  1
  Si  Si5  1  0.501411  0.253427  0.754366  1
  Si  Si6  1  0.227034  0.979231  0.747535  1
  Si  Si7  1  0.771374  0.521274  0.751667  1
  Si  Si8  1  0.771374  0.019707  0.250101  1
  Si  Si9  1  0.227034  0.479499  0.247802  1
  Si  Si10  1  0.036573  0.885736  0.150838  1
  Si  Si11  1  0.961593  0.112964  0.848629  1
  Si  Si12  1  0.741061  0.391097  0.349964  1
  Si  Si13  1  0.259353  0.610830  0.648523  1
  Pt  Pt14  1  0.001327  0.752997  0.754759  1
  Pt  Pt15  1  0.001327  0.246568  0.248330  1
  Pt  Pt16  1  0.250183  0.862777  0.387406  1
  Pt  Pt17  1  0.746326  0.135805  0.610520  1
  Pt  Pt18  1  0.476214  0.364356  0.111857  1
  Pt  Pt19  1  0.522557  0.636531  0.886027  1
