# generated using pymatgen
data_Sr4Al18Ir5Au
_symmetry_space_group_name_H-M   'P 1'
_cell_length_a   7.65711448
_cell_length_b   7.65711312
_cell_length_c   9.87523073
_cell_angle_alpha   89.88834844
_cell_angle_beta   89.88834752
_cell_angle_gamma   118.92136937
_symmetry_Int_Tables_number   1
_chemical_formula_structural   Sr4Al18Ir5Au
_chemical_formula_sum   'Sr4 Al18 Ir5 Au1'
_cell_volume   506.78454104
_cell_formula_units_Z   1
loop_
 _symmetry_equiv_pos_site_id
 _symmetry_equiv_pos_as_xyz
  1  'x, y, z'
loop_
 _atom_site_type_symbol
 _atom_site_label
 _atom_site_symmetry_multiplicity
 _atom_site_fract_x
 _atom_site_fract_y
 _atom_site_fract_z
 _atom_site_occupancy
  Sr  Sr0  1  0.995517  0.675513  0.250929  1
  Sr  Sr1  1  0.004483  0.324487  0.749071  1
  Sr  Sr2  1  0.675513  0.995517  0.250929  1
  Sr  Sr3  1  0.324487  0.004483  0.749071  1
  Al  Al4  1  0.142064  0.142064  0.258439  1
  Al  Al5  1  0.857936  0.857936  0.741561  1
  Al  Al6  1  0.006988  0.346356  0.072680  1
  Al  Al7  1  0.993012  0.653644  0.927320  1
  Al  Al8  1  0.996511  0.662997  0.567007  1
  Al  Al9  1  0.337003  0.003489  0.432993  1
  Al  Al10  1  0.003489  0.337003  0.432993  1
  Al  Al11  1  0.662997  0.996511  0.567007  1
  Al  Al12  1  0.653644  0.993012  0.927320  1
  Al  Al13  1  0.346356  0.006988  0.072680  1
  Al  Al14  1  0.335112  0.335112  0.542431  1
  Al  Al15  1  0.664888  0.664888  0.457569  1
  Al  Al16  1  0.654972  0.654972  0.049673  1
  Al  Al17  1  0.345028  0.345028  0.950327  1
  Al  Al18  1  0.337039  0.545293  0.250976  1
  Al  Al19  1  0.662961  0.454707  0.749024  1
  Al  Al20  1  0.545293  0.337039  0.250976  1
  Al  Al21  1  0.454707  0.662961  0.749024  1
  Ir  Ir22  1  0.670836  0.329164  0.000000  1
  Ir  Ir23  1  0.329164  0.670836  0.000000  1
  Ir  Ir24  1  0.330416  0.669584  0.500000  1
  Ir  Ir25  1  0.669584  0.330416  0.500000  1
  Ir  Ir26  1  0.000000  0.000000  0.500000  1
  Au  Au27  1  0.000000  0.000000  0.000000  1
