# generated using pymatgen
data_Ca3Yb(Ga2Ag)4
_symmetry_space_group_name_H-M   'P 1'
_cell_length_a   4.40999300
_cell_length_b   7.08591506
_cell_length_c   10.45025008
_cell_angle_alpha   89.98539138
_cell_angle_beta   90.00000000
_cell_angle_gamma   90.00000000
_symmetry_Int_Tables_number   1
_chemical_formula_structural   Ca3Yb(Ga2Ag)4
_chemical_formula_sum   'Ca3 Yb1 Ga8 Ag4'
_cell_volume   326.55813839
_cell_formula_units_Z   1
loop_
 _symmetry_equiv_pos_site_id
 _symmetry_equiv_pos_as_xyz
  1  'x, y, z'
loop_
 _atom_site_type_symbol
 _atom_site_label
 _atom_site_symmetry_multiplicity
 _atom_site_fract_x
 _atom_site_fract_y
 _atom_site_fract_z
 _atom_site_occupancy
  Ca  Ca0  1  0.250000  0.776947  0.826333  1
  Ca  Ca1  1  0.750000  0.223695  0.173396  1
  Ca  Ca2  1  0.750000  0.723158  0.327091  1
  Yb  Yb3  1  0.250000  0.277027  0.671984  1
  Ga  Ga4  1  0.250000  0.702174  0.535626  1
  Ga  Ga5  1  0.750000  0.297367  0.466793  1
  Ga  Ga6  1  0.750000  0.797151  0.034644  1
  Ga  Ga7  1  0.250000  0.203433  0.963615  1
  Ga  Ga8  1  0.250000  0.924913  0.147112  1
  Ga  Ga9  1  0.750000  0.076489  0.851306  1
  Ga  Ga10  1  0.750000  0.572656  0.647122  1
  Ga  Ga11  1  0.250000  0.423961  0.353695  1
  Ag  Ag12  1  0.250000  0.541625  0.098600  1
  Ag  Ag13  1  0.750000  0.457530  0.900317  1
  Ag  Ag14  1  0.750000  0.960036  0.599277  1
  Ag  Ag15  1  0.250000  0.041837  0.403088  1
