# generated using pymatgen
data_Er8Sc12Si13Pt3
_symmetry_space_group_name_H-M   'P 1'
_cell_length_a   7.07288028
_cell_length_b   7.41003093
_cell_length_c   13.97051348
_cell_angle_alpha   89.75462721
_cell_angle_beta   89.63116192
_cell_angle_gamma   90.63488296
_symmetry_Int_Tables_number   1
_chemical_formula_structural   Er8Sc12Si13Pt3
_chemical_formula_sum   'Er8 Sc12 Si13 Pt3'
_cell_volume   732.13120590
_cell_formula_units_Z   1
loop_
 _symmetry_equiv_pos_site_id
 _symmetry_equiv_pos_as_xyz
  1  'x, y, z'
loop_
 _atom_site_type_symbol
 _atom_site_label
 _atom_site_symmetry_multiplicity
 _atom_site_fract_x
 _atom_site_fract_y
 _atom_site_fract_z
 _atom_site_occupancy
  Er  Er0  1  0.009087  0.177466  0.094436  1
  Er  Er1  1  0.990241  0.822968  0.905965  1
  Er  Er2  1  0.487343  0.680489  0.906173  1
  Er  Er3  1  0.990612  0.819476  0.594246  1
  Er  Er4  1  0.511949  0.321576  0.094542  1
  Er  Er5  1  0.010963  0.178973  0.405726  1
  Er  Er6  1  0.507952  0.321675  0.404785  1
  Er  Er7  1  0.487059  0.671686  0.595589  1
  Sc  Sc8  1  0.159131  0.503412  0.748523  1
  Sc  Sc9  1  0.841693  0.497634  0.251372  1
  Sc  Sc10  1  0.332308  0.001944  0.250420  1
  Sc  Sc11  1  0.666957  0.995881  0.749077  1
  Sc  Sc12  1  0.331596  0.181187  0.622746  1
  Sc  Sc13  1  0.673808  0.825703  0.373878  1
  Sc  Sc14  1  0.171237  0.668064  0.378033  1
  Sc  Sc15  1  0.675179  0.827092  0.124972  1
  Sc  Sc16  1  0.829516  0.327954  0.624811  1
  Sc  Sc17  1  0.325566  0.172964  0.874790  1
  Sc  Sc18  1  0.831484  0.321758  0.875211  1
  Sc  Sc19  1  0.170746  0.677032  0.124630  1
  Si  Si20  1  0.468702  0.608911  0.248259  1
  Si  Si21  1  0.533630  0.392335  0.753940  1
  Si  Si22  1  0.288535  0.867585  0.750854  1
  Si  Si23  1  0.711649  0.135179  0.249282  1
  Si  Si24  1  0.221287  0.370930  0.247504  1
  Si  Si25  1  0.780307  0.629345  0.753401  1
  Si  Si26  1  0.830754  0.533525  0.460166  1
  Si  Si27  1  0.344097  0.964363  0.459517  1
  Si  Si28  1  0.842376  0.532592  0.038933  1
  Si  Si29  1  0.658106  0.031166  0.539122  1
  Si  Si30  1  0.156180  0.468249  0.960865  1
  Si  Si31  1  0.656629  0.032450  0.960537  1
  Si  Si32  1  0.343072  0.968687  0.040288  1
  Pt  Pt33  1  0.034995  0.112754  0.747611  1
  Pt  Pt34  1  0.968163  0.893429  0.250240  1
  Pt  Pt35  1  0.157088  0.463567  0.539558  1
