# generated using pymatgen
data_Er12Co2Ni2BiOs
_symmetry_space_group_name_H-M   'P 1'
_cell_length_a   8.28417354
_cell_length_b   8.28417294
_cell_length_c   8.28417255
_cell_angle_alpha   109.90029990
_cell_angle_beta   111.42764352
_cell_angle_gamma   107.11493530
_symmetry_Int_Tables_number   1
_chemical_formula_structural   Er12Co2Ni2BiOs
_chemical_formula_sum   'Er12 Co2 Ni2 Bi1 Os1'
_cell_volume   437.01524422
_cell_formula_units_Z   1
loop_
 _symmetry_equiv_pos_site_id
 _symmetry_equiv_pos_as_xyz
  1  'x, y, z'
loop_
 _atom_site_type_symbol
 _atom_site_label
 _atom_site_symmetry_multiplicity
 _atom_site_fract_x
 _atom_site_fract_y
 _atom_site_fract_z
 _atom_site_occupancy
  Er  Er0  1  0.282308  0.178727  0.461033  1
  Er  Er1  1  0.717692  0.821273  0.538967  1
  Er  Er2  1  0.282308  0.821273  0.103581  1
  Er  Er3  1  0.717692  0.178727  0.896419  1
  Er  Er4  1  0.622372  0.312761  0.309611  1
  Er  Er5  1  0.377628  0.687239  0.690389  1
  Er  Er6  1  0.003151  0.312761  0.690389  1
  Er  Er7  1  0.996849  0.687239  0.309611  1
  Er  Er8  1  0.216282  0.411117  0.194836  1
  Er  Er9  1  0.783718  0.588883  0.805164  1
  Er  Er10  1  0.216282  0.021446  0.805164  1
  Er  Er11  1  0.783718  0.978554  0.194836  1
  Co  Co12  1  0.387518  0.887518  0.500000  1
  Co  Co13  1  0.612482  0.112482  0.500000  1
  Ni  Ni14  1  0.000000  0.366767  0.366767  1
  Ni  Ni15  1  0.000000  0.633233  0.633233  1
  Bi  Bi16  1  0.500000  0.500000  0.000000  1
  Os  Os17  1  0.000000  0.000000  0.000000  1
