# generated using pymatgen
data_Sc2UO6
_symmetry_space_group_name_H-M   'P 1'
_cell_length_a   4.89746100
_cell_length_b   4.89746100
_cell_length_c   9.89127100
_cell_angle_alpha   90.00000000
_cell_angle_beta   90.00000000
_cell_angle_gamma   90.00000000
_symmetry_Int_Tables_number   1
_chemical_formula_structural   Sc2UO6
_chemical_formula_sum   'Sc4 U2 O12'
_cell_volume   237.24336389
_cell_formula_units_Z   2
loop_
 _symmetry_equiv_pos_site_id
 _symmetry_equiv_pos_as_xyz
  1  'x, y, z'
loop_
 _atom_site_type_symbol
 _atom_site_label
 _atom_site_symmetry_multiplicity
 _atom_site_fract_x
 _atom_site_fract_y
 _atom_site_fract_z
 _atom_site_occupancy
  Sc  Sc0  1  0.000000  0.000000  0.334650  1
  Sc  Sc1  1  0.500000  0.500000  0.834650  1
  Sc  Sc2  1  0.000000  0.000000  0.665350  1
  Sc  Sc3  1  0.500000  0.500000  0.165350  1
  U  U4  1  0.000000  0.000000  0.000000  1
  U  U5  1  0.500000  0.500000  0.500000  1
  O  O6  1  0.690648  0.690648  0.663914  1
  O  O7  1  0.309352  0.309352  0.663914  1
  O  O8  1  0.690648  0.690648  0.336086  1
  O  O9  1  0.190648  0.809352  0.163914  1
  O  O10  1  0.809352  0.190648  0.163914  1
  O  O11  1  0.809352  0.190648  0.836086  1
  O  O12  1  0.303981  0.303981  0.000000  1
  O  O13  1  0.196019  0.803981  0.500000  1
  O  O14  1  0.803981  0.196019  0.500000  1
  O  O15  1  0.696019  0.696019  0.000000  1
  O  O16  1  0.309352  0.309352  0.336086  1
  O  O17  1  0.190648  0.809352  0.836086  1
