# generated using pymatgen
data_Zr6FeCo13B4
_symmetry_space_group_name_H-M   'P 1'
_cell_length_a   4.94404002
_cell_length_b   4.94381050
_cell_length_c   13.83278800
_cell_angle_alpha   90.00156175
_cell_angle_beta   90.00119587
_cell_angle_gamma   119.99974453
_symmetry_Int_Tables_number   1
_chemical_formula_structural   Zr6FeCo13B4
_chemical_formula_sum   'Zr6 Fe1 Co13 B4'
_cell_volume   292.80956753
_cell_formula_units_Z   1
loop_
 _symmetry_equiv_pos_site_id
 _symmetry_equiv_pos_as_xyz
  1  'x, y, z'
loop_
 _atom_site_type_symbol
 _atom_site_label
 _atom_site_symmetry_multiplicity
 _atom_site_fract_x
 _atom_site_fract_y
 _atom_site_fract_z
 _atom_site_occupancy
  Zr  Zr0  1  0.333332  0.666735  0.250188  1
  Zr  Zr1  1  0.666668  0.333265  0.749812  1
  Zr  Zr2  1  0.333342  0.666686  0.036004  1
  Zr  Zr3  1  0.666668  0.333318  0.535509  1
  Zr  Zr4  1  0.666658  0.333314  0.963996  1
  Zr  Zr5  1  0.333332  0.666682  0.464491  1
  Fe  Fe6  1  0.000000  0.000000  0.000000  1
  Co  Co7  1  0.000000  0.000000  0.500000  1
  Co  Co8  1  0.833410  0.666848  0.144327  1
  Co  Co9  1  0.165307  0.834625  0.644978  1
  Co  Co10  1  0.669331  0.834614  0.644960  1
  Co  Co11  1  0.333206  0.166643  0.144318  1
  Co  Co12  1  0.833402  0.166651  0.144291  1
  Co  Co13  1  0.166590  0.333152  0.855673  1
  Co  Co14  1  0.166598  0.833349  0.855709  1
  Co  Co15  1  0.165315  0.330588  0.644998  1
  Co  Co16  1  0.666794  0.833357  0.855682  1
  Co  Co17  1  0.330669  0.165386  0.355040  1
  Co  Co18  1  0.834685  0.669412  0.355002  1
  Co  Co19  1  0.834693  0.165375  0.355022  1
  B  B20  1  0.000033  0.000113  0.249676  1
  B  B21  1  0.999967  0.999887  0.750324  1
  B  B22  1  0.333342  0.666651  0.749637  1
  B  B23  1  0.666658  0.333349  0.250363  1
