# generated using pymatgen
data_Lu3Zr2InSb2
_symmetry_space_group_name_H-M   'P 1'
_cell_length_a   8.69856603
_cell_length_b   8.75062564
_cell_length_c   5.99357400
_cell_angle_alpha   90.00000000
_cell_angle_beta   90.00000000
_cell_angle_gamma   120.19817244
_symmetry_Int_Tables_number   1
_chemical_formula_structural   Lu3Zr2InSb2
_chemical_formula_sum   'Lu6 Zr4 In2 Sb4'
_cell_volume   394.30524531
_cell_formula_units_Z   2
loop_
 _symmetry_equiv_pos_site_id
 _symmetry_equiv_pos_as_xyz
  1  'x, y, z'
loop_
 _atom_site_type_symbol
 _atom_site_label
 _atom_site_symmetry_multiplicity
 _atom_site_fract_x
 _atom_site_fract_y
 _atom_site_fract_z
 _atom_site_occupancy
  Lu  Lu0  1  0.756492  0.760323  0.750000  1
  Lu  Lu1  1  0.243508  0.003832  0.750000  1
  Lu  Lu2  1  0.000000  0.242876  0.750000  1
  Lu  Lu3  1  0.242055  0.239841  0.250000  1
  Lu  Lu4  1  0.757945  0.997786  0.250000  1
  Lu  Lu5  1  0.000000  0.754024  0.250000  1
  Zr  Zr6  1  0.666699  0.333787  0.999290  1
  Zr  Zr7  1  0.333301  0.667090  0.999290  1
  Zr  Zr8  1  0.333301  0.667090  0.500710  1
  Zr  Zr9  1  0.666699  0.333787  0.500710  1
  In  In10  1  0.396355  0.397021  0.750000  1
  In  In11  1  0.603645  0.000666  0.750000  1
  Sb  Sb12  1  0.000000  0.607321  0.750000  1
  Sb  Sb13  1  0.602649  0.601966  0.250000  1
  Sb  Sb14  1  0.397351  0.999317  0.250000  1
  Sb  Sb15  1  0.000000  0.393272  0.250000  1
