# generated using pymatgen
data_Tb3Zn2In3Ru
_symmetry_space_group_name_H-M   'P 1'
_cell_length_a   7.74630400
_cell_length_b   7.74630346
_cell_length_c   3.90162700
_cell_angle_alpha   90.00000000
_cell_angle_beta   90.00000000
_cell_angle_gamma   119.99999378
_symmetry_Int_Tables_number   1
_chemical_formula_structural   Tb3Zn2In3Ru
_chemical_formula_sum   'Tb3 Zn2 In3 Ru1'
_cell_volume   202.75214142
_cell_formula_units_Z   1
loop_
 _symmetry_equiv_pos_site_id
 _symmetry_equiv_pos_as_xyz
  1  'x, y, z'
loop_
 _atom_site_type_symbol
 _atom_site_label
 _atom_site_symmetry_multiplicity
 _atom_site_fract_x
 _atom_site_fract_y
 _atom_site_fract_z
 _atom_site_occupancy
  Tb  Tb0  1  0.582698  0.609595  0.000000  1
  Tb  Tb1  1  0.390405  0.973104  0.000000  1
  Tb  Tb2  1  0.026896  0.417302  0.000000  1
  Zn  Zn3  1  0.000000  0.000000  0.000000  1
  Zn  Zn4  1  0.666667  0.333333  0.500000  1
  In  In5  1  0.998101  0.734899  0.500000  1
  In  In6  1  0.265101  0.263202  0.500000  1
  In  In7  1  0.736798  0.001899  0.500000  1
  Ru  Ru8  1  0.333333  0.666667  0.500000  1
