# generated using pymatgen
data_Li2AcTmSi4
_symmetry_space_group_name_H-M   'P 1'
_cell_length_a   3.89055400
_cell_length_b   7.83388086
_cell_length_c   10.53668457
_cell_angle_alpha   89.74278719
_cell_angle_beta   90.00000000
_cell_angle_gamma   90.00000000
_symmetry_Int_Tables_number   1
_chemical_formula_structural   Li2AcTmSi4
_chemical_formula_sum   'Li4 Ac2 Tm2 Si8'
_cell_volume   321.13527475
_cell_formula_units_Z   2
loop_
 _symmetry_equiv_pos_site_id
 _symmetry_equiv_pos_as_xyz
  1  'x, y, z'
loop_
 _atom_site_type_symbol
 _atom_site_label
 _atom_site_symmetry_multiplicity
 _atom_site_fract_x
 _atom_site_fract_y
 _atom_site_fract_z
 _atom_site_occupancy
  Li  Li0  1  0.250000  0.997742  0.385482  1
  Li  Li1  1  0.750000  0.002258  0.614518  1
  Li  Li2  1  0.250000  0.488607  0.102315  1
  Li  Li3  1  0.750000  0.511393  0.897685  1
  Ac  Ac4  1  0.250000  0.644068  0.636615  1
  Ac  Ac5  1  0.750000  0.355932  0.363385  1
  Tm  Tm6  1  0.250000  0.128530  0.867250  1
  Tm  Tm7  1  0.750000  0.871470  0.132750  1
  Si  Si8  1  0.750000  0.256453  0.057437  1
  Si  Si9  1  0.250000  0.743547  0.942563  1
  Si  Si10  1  0.750000  0.788988  0.413786  1
  Si  Si11  1  0.250000  0.211012  0.586214  1
  Si  Si12  1  0.750000  0.848788  0.832735  1
  Si  Si13  1  0.250000  0.151212  0.167265  1
  Si  Si14  1  0.750000  0.325389  0.690776  1
  Si  Si15  1  0.250000  0.674611  0.309224  1
