# generated using pymatgen
data_Tb5ErLuCo17P12
_symmetry_space_group_name_H-M   'P 1'
_cell_length_a   3.72182200
_cell_length_b   10.60771457
_cell_length_c   12.35538766
_cell_angle_alpha   89.96250726
_cell_angle_beta   90.00000000
_cell_angle_gamma   90.00000000
_symmetry_Int_Tables_number   1
_chemical_formula_structural   Tb5ErLuCo17P12
_chemical_formula_sum   'Tb5 Er1 Lu1 Co17 P12'
_cell_volume   487.79091485
_cell_formula_units_Z   1
loop_
 _symmetry_equiv_pos_site_id
 _symmetry_equiv_pos_as_xyz
  1  'x, y, z'
loop_
 _atom_site_type_symbol
 _atom_site_label
 _atom_site_symmetry_multiplicity
 _atom_site_fract_x
 _atom_site_fract_y
 _atom_site_fract_z
 _atom_site_occupancy
  Tb  Tb0  1  0.750000  0.250193  0.468911  1
  Tb  Tb1  1  0.250000  0.749929  0.522011  1
  Tb  Tb2  1  0.250000  0.927843  0.792416  1
  Tb  Tb3  1  0.250000  0.571968  0.791926  1
  Tb  Tb4  1  0.750000  0.067066  0.204719  1
  Er  Er5  1  0.750000  0.433223  0.204486  1
  Lu  Lu6  1  0.250000  0.250152  0.845827  1
  Co  Co7  1  0.750000  0.749937  0.164622  1
  Co  Co8  1  0.250000  0.251075  0.296050  1
  Co  Co9  1  0.750000  0.749747  0.704843  1
  Co  Co10  1  0.750000  0.250632  0.018149  1
  Co  Co11  1  0.250000  0.749560  0.987678  1
  Co  Co12  1  0.250000  0.425240  0.013516  1
  Co  Co13  1  0.250000  0.075212  0.013052  1
  Co  Co14  1  0.750000  0.589559  0.001416  1
  Co  Co15  1  0.750000  0.909787  0.000917  1
  Co  Co16  1  0.250000  0.456497  0.563342  1
  Co  Co17  1  0.250000  0.043527  0.564096  1
  Co  Co18  1  0.750000  0.548573  0.428015  1
  Co  Co19  1  0.750000  0.951269  0.428959  1
  Co  Co20  1  0.250000  0.868828  0.292649  1
  Co  Co21  1  0.250000  0.630338  0.292000  1
  Co  Co22  1  0.750000  0.127674  0.697651  1
  Co  Co23  1  0.750000  0.372367  0.697315  1
  P  P24  1  0.250000  0.251060  0.118111  1
  P  P25  1  0.750000  0.749613  0.885055  1
  P  P26  1  0.250000  0.250052  0.636805  1
  P  P27  1  0.750000  0.750018  0.345305  1
  P  P28  1  0.250000  0.442117  0.380399  1
  P  P29  1  0.250000  0.057923  0.381741  1
  P  P30  1  0.750000  0.561145  0.611936  1
  P  P31  1  0.750000  0.938540  0.612570  1
  P  P32  1  0.250000  0.896394  0.112452  1
  P  P33  1  0.250000  0.602695  0.112999  1
  P  P34  1  0.750000  0.082932  0.904230  1
  P  P35  1  0.750000  0.417313  0.903828  1
