# generated using pymatgen
data_HoThReB6
_symmetry_space_group_name_H-M   'P 1'
_cell_length_a   3.76540100
_cell_length_b   9.25421200
_cell_length_c   11.68234300
_cell_angle_alpha   90.00000000
_cell_angle_beta   90.00000000
_cell_angle_gamma   90.00000000
_symmetry_Int_Tables_number   1
_chemical_formula_structural   HoThReB6
_chemical_formula_sum   'Ho4 Th4 Re4 B24'
_cell_volume   407.08081106
_cell_formula_units_Z   4
loop_
 _symmetry_equiv_pos_site_id
 _symmetry_equiv_pos_as_xyz
  1  'x, y, z'
loop_
 _atom_site_type_symbol
 _atom_site_label
 _atom_site_symmetry_multiplicity
 _atom_site_fract_x
 _atom_site_fract_y
 _atom_site_fract_z
 _atom_site_occupancy
  Ho  Ho0  1  0.000000  0.944636  0.372573  1
  Ho  Ho1  1  0.000000  0.055364  0.627427  1
  Ho  Ho2  1  0.000000  0.444636  0.127427  1
  Ho  Ho3  1  0.000000  0.555364  0.872573  1
  Th  Th4  1  0.000000  0.321978  0.414040  1
  Th  Th5  1  0.000000  0.678022  0.585960  1
  Th  Th6  1  0.000000  0.821978  0.085960  1
  Th  Th7  1  0.000000  0.178022  0.914040  1
  Re  Re8  1  0.000000  0.639224  0.320269  1
  Re  Re9  1  0.000000  0.360776  0.679731  1
  Re  Re10  1  0.000000  0.139224  0.179731  1
  Re  Re11  1  0.000000  0.860776  0.820269  1
  B  B12  1  0.500000  0.556049  0.430277  1
  B  B13  1  0.500000  0.443951  0.569723  1
  B  B14  1  0.500000  0.056049  0.069723  1
  B  B15  1  0.500000  0.943951  0.930277  1
  B  B16  1  0.500000  0.749659  0.417265  1
  B  B17  1  0.500000  0.250341  0.582735  1
  B  B18  1  0.500000  0.249659  0.082735  1
  B  B19  1  0.500000  0.750341  0.917265  1
  B  B20  1  0.500000  0.790704  0.266854  1
  B  B21  1  0.500000  0.209296  0.733146  1
  B  B22  1  0.500000  0.290704  0.233146  1
  B  B23  1  0.500000  0.709296  0.766854  1
  B  B24  1  0.500000  0.630286  0.186516  1
  B  B25  1  0.500000  0.369714  0.813484  1
  B  B26  1  0.500000  0.130286  0.313484  1
  B  B27  1  0.500000  0.869714  0.686516  1
  B  B28  1  0.500000  0.985100  0.213669  1
  B  B29  1  0.500000  0.014900  0.786331  1
  B  B30  1  0.500000  0.485100  0.286331  1
  B  B31  1  0.500000  0.514900  0.713669  1
  B  B32  1  0.500000  0.602479  0.028379  1
  B  B33  1  0.500000  0.397521  0.971621  1
  B  B34  1  0.500000  0.102479  0.471621  1
  B  B35  1  0.500000  0.897521  0.528379  1
