# generated using pymatgen
data_TbPr2HoSe6
_symmetry_space_group_name_H-M   'P 1'
_cell_length_a   4.13244500
_cell_length_b   11.05718023
_cell_length_c   11.28011500
_cell_angle_alpha   89.94990781
_cell_angle_beta   90.00000000
_cell_angle_gamma   90.00000000
_symmetry_Int_Tables_number   1
_chemical_formula_structural   TbPr2HoSe6
_chemical_formula_sum   'Tb2 Pr4 Ho2 Se12'
_cell_volume   515.42423121
_cell_formula_units_Z   2
loop_
 _symmetry_equiv_pos_site_id
 _symmetry_equiv_pos_as_xyz
  1  'x, y, z'
loop_
 _atom_site_type_symbol
 _atom_site_label
 _atom_site_symmetry_multiplicity
 _atom_site_fract_x
 _atom_site_fract_y
 _atom_site_fract_z
 _atom_site_occupancy
  Tb  Tb0  1  0.750000  0.687408  0.012028  1
  Tb  Tb1  1  0.250000  0.312592  0.987972  1
  Pr  Pr2  1  0.250000  0.999275  0.803408  1
  Pr  Pr3  1  0.750000  0.000725  0.196592  1
  Pr  Pr4  1  0.750000  0.499237  0.695142  1
  Pr  Pr5  1  0.250000  0.500763  0.304858  1
  Ho  Ho6  1  0.250000  0.187141  0.488244  1
  Ho  Ho7  1  0.750000  0.812859  0.511756  1
  Se  Se8  1  0.250000  0.296405  0.728526  1
  Se  Se9  1  0.750000  0.703595  0.271474  1
  Se  Se10  1  0.750000  0.797053  0.769131  1
  Se  Se11  1  0.250000  0.202947  0.230869  1
  Se  Se12  1  0.250000  0.945214  0.387239  1
  Se  Se13  1  0.750000  0.054786  0.612761  1
  Se  Se14  1  0.750000  0.445150  0.114956  1
  Se  Se15  1  0.250000  0.554850  0.885044  1
  Se  Se16  1  0.250000  0.869151  0.043362  1
  Se  Se17  1  0.750000  0.130849  0.956638  1
  Se  Se18  1  0.750000  0.367332  0.456838  1
  Se  Se19  1  0.250000  0.632668  0.543162  1
