# generated using pymatgen
data_Er2Ga4CoCu
_symmetry_space_group_name_H-M   'P 1'
_cell_length_a   5.43519147
_cell_length_b   5.43519200
_cell_length_c   6.62935700
_cell_angle_alpha   90.00000000
_cell_angle_beta   90.00000000
_cell_angle_gamma   135.13372427
_symmetry_Int_Tables_number   1
_chemical_formula_structural   Er2Ga4CoCu
_chemical_formula_sum   'Er2 Ga4 Co1 Cu1'
_cell_volume   138.15613209
_cell_formula_units_Z   1
loop_
 _symmetry_equiv_pos_site_id
 _symmetry_equiv_pos_as_xyz
  1  'x, y, z'
loop_
 _atom_site_type_symbol
 _atom_site_label
 _atom_site_symmetry_multiplicity
 _atom_site_fract_x
 _atom_site_fract_y
 _atom_site_fract_z
 _atom_site_occupancy
  Er  Er0  1  0.576777  0.423223  0.250000  1
  Er  Er1  1  0.425913  0.574087  0.750000  1
  Ga  Ga2  1  0.861436  0.138564  0.050498  1
  Ga  Ga3  1  0.137538  0.862462  0.943358  1
  Ga  Ga4  1  0.137538  0.862462  0.556642  1
  Ga  Ga5  1  0.861436  0.138564  0.449502  1
  Co  Co6  1  0.709004  0.290996  0.750000  1
  Cu  Cu7  1  0.290357  0.709643  0.250000  1
