# generated using pymatgen
data_SrAl2Au5
_symmetry_space_group_name_H-M   'P 1'
_cell_length_a   7.33692800
_cell_length_b   8.87909300
_cell_length_c   10.03044900
_cell_angle_alpha   90.00000000
_cell_angle_beta   90.00000000
_cell_angle_gamma   90.00000000
_symmetry_Int_Tables_number   1
_chemical_formula_structural   SrAl2Au5
_chemical_formula_sum   'Sr4 Al8 Au20'
_cell_volume   653.43626867
_cell_formula_units_Z   4
loop_
 _symmetry_equiv_pos_site_id
 _symmetry_equiv_pos_as_xyz
  1  'x, y, z'
loop_
 _atom_site_type_symbol
 _atom_site_label
 _atom_site_symmetry_multiplicity
 _atom_site_fract_x
 _atom_site_fract_y
 _atom_site_fract_z
 _atom_site_occupancy
  Sr  Sr0  1  0.250000  0.253644  0.127019  1
  Sr  Sr1  1  0.250000  0.753644  0.372981  1
  Sr  Sr2  1  0.750000  0.746356  0.872981  1
  Sr  Sr3  1  0.750000  0.246356  0.627019  1
  Al  Al4  1  0.250000  0.048329  0.614304  1
  Al  Al5  1  0.250000  0.548329  0.885696  1
  Al  Al6  1  0.750000  0.951671  0.385696  1
  Al  Al7  1  0.750000  0.451671  0.114304  1
  Al  Al8  1  0.250000  0.352195  0.484287  1
  Al  Al9  1  0.250000  0.852195  0.015713  1
  Al  Al10  1  0.750000  0.647805  0.515713  1
  Al  Al11  1  0.750000  0.147805  0.984287  1
  Au  Au12  1  0.056362  0.107315  0.396761  1
  Au  Au13  1  0.443638  0.607315  0.103239  1
  Au  Au14  1  0.556362  0.892685  0.603239  1
  Au  Au15  1  0.943638  0.392685  0.896761  1
  Au  Au16  1  0.943638  0.892685  0.603239  1
  Au  Au17  1  0.556362  0.392685  0.896761  1
  Au  Au18  1  0.443638  0.107315  0.396761  1
  Au  Au19  1  0.056362  0.607315  0.103239  1
  Au  Au20  1  0.035523  0.055604  0.863855  1
  Au  Au21  1  0.464477  0.555604  0.636145  1
  Au  Au22  1  0.535523  0.944396  0.136145  1
  Au  Au23  1  0.964477  0.444396  0.363855  1
  Au  Au24  1  0.964477  0.944396  0.136145  1
  Au  Au25  1  0.535523  0.444396  0.363855  1
  Au  Au26  1  0.464477  0.055604  0.863855  1
  Au  Au27  1  0.035523  0.555604  0.636145  1
  Au  Au28  1  0.250000  0.296474  0.735439  1
  Au  Au29  1  0.250000  0.796474  0.764561  1
  Au  Au30  1  0.750000  0.703526  0.264561  1
  Au  Au31  1  0.750000  0.203526  0.235439  1
