# generated using pymatgen
data_Be4IrPdRh2
_symmetry_space_group_name_H-M   'P 1'
_cell_length_a   5.62370900
_cell_length_b   3.95516300
_cell_length_c   7.91017600
_cell_angle_alpha   90.00000000
_cell_angle_beta   90.00006678
_cell_angle_gamma   90.00000000
_symmetry_Int_Tables_number   1
_chemical_formula_structural   Be4IrPdRh2
_chemical_formula_sum   'Be8 Ir2 Pd2 Rh4'
_cell_volume   175.94355907
_cell_formula_units_Z   2
loop_
 _symmetry_equiv_pos_site_id
 _symmetry_equiv_pos_as_xyz
  1  'x, y, z'
loop_
 _atom_site_type_symbol
 _atom_site_label
 _atom_site_symmetry_multiplicity
 _atom_site_fract_x
 _atom_site_fract_y
 _atom_site_fract_z
 _atom_site_occupancy
  Be  Be0  1  0.503818  0.749999  0.128967  1
  Be  Be1  1  0.996206  0.749999  0.128969  1
  Be  Be2  1  0.496198  0.250000  0.371024  1
  Be  Be3  1  0.003804  0.250000  0.371038  1
  Be  Be4  1  0.003714  0.749999  0.620441  1
  Be  Be5  1  0.496284  0.749999  0.620453  1
  Be  Be6  1  0.996280  0.250000  0.879542  1
  Be  Be7  1  0.503702  0.250000  0.879563  1
  Ir  Ir8  1  0.750011  0.250000  0.124575  1
  Ir  Ir9  1  0.250011  0.749999  0.375425  1
  Pd  Pd10  1  0.749989  0.250000  0.625368  1
  Pd  Pd11  1  0.249987  0.749999  0.874634  1
  Rh  Rh12  1  0.250004  0.250000  0.122235  1
  Rh  Rh13  1  0.750007  0.749999  0.377765  1
  Rh  Rh14  1  0.249994  0.250000  0.628567  1
  Rh  Rh15  1  0.749989  0.749999  0.871434  1
