# generated using pymatgen
data_La8DyY11Pt16
_symmetry_space_group_name_H-M   'P 1'
_cell_length_a   7.65294831
_cell_length_b   7.81095272
_cell_length_c   14.81747300
_cell_angle_alpha   90.00470194
_cell_angle_beta   90.06749315
_cell_angle_gamma   89.91958479
_symmetry_Int_Tables_number   1
_chemical_formula_structural   La8DyY11Pt16
_chemical_formula_sum   'La8 Dy1 Y11 Pt16'
_cell_volume   885.73988812
_cell_formula_units_Z   1
loop_
 _symmetry_equiv_pos_site_id
 _symmetry_equiv_pos_as_xyz
  1  'x, y, z'
loop_
 _atom_site_type_symbol
 _atom_site_label
 _atom_site_symmetry_multiplicity
 _atom_site_fract_x
 _atom_site_fract_y
 _atom_site_fract_z
 _atom_site_occupancy
  La  La0  1  0.497817  0.324599  0.901896  1
  La  La1  1  0.997755  0.176413  0.597286  1
  La  La2  1  0.502243  0.675963  0.402447  1
  La  La3  1  0.002194  0.823868  0.097946  1
  La  La4  1  0.502218  0.675733  0.098085  1
  La  La5  1  0.002201  0.823640  0.402466  1
  La  La6  1  0.497861  0.323342  0.597624  1
  La  La7  1  0.997317  0.176844  0.902299  1
  Dy  Dy8  1  0.338609  0.832138  0.877152  1
  Y  Y9  1  0.838056  0.668103  0.622752  1
  Y  Y10  1  0.661607  0.167791  0.377467  1
  Y  Y11  1  0.161587  0.331890  0.122255  1
  Y  Y12  1  0.660836  0.167920  0.122241  1
  Y  Y13  1  0.161722  0.331915  0.377593  1
  Y  Y14  1  0.338600  0.831550  0.622567  1
  Y  Y15  1  0.839119  0.668669  0.877587  1
  Y  Y16  1  0.175079  0.493645  0.749701  1
  Y  Y17  1  0.676003  0.006127  0.749872  1
  Y  Y18  1  0.824906  0.505243  0.250210  1
  Y  Y19  1  0.324605  0.994449  0.250127  1
  Pt  Pt20  1  0.324085  0.034809  0.043176  1
  Pt  Pt21  1  0.825276  0.464805  0.456003  1
  Pt  Pt22  1  0.674707  0.965051  0.544271  1
  Pt  Pt23  1  0.175969  0.536967  0.956015  1
  Pt  Pt24  1  0.672608  0.965130  0.955332  1
  Pt  Pt25  1  0.174577  0.534443  0.544482  1
  Pt  Pt26  1  0.325631  0.034618  0.455846  1
  Pt  Pt27  1  0.826177  0.464814  0.044085  1
  Pt  Pt28  1  0.541520  0.627096  0.750684  1
  Pt  Pt29  1  0.043090  0.873225  0.750341  1
  Pt  Pt30  1  0.457869  0.373416  0.249886  1
  Pt  Pt31  1  0.957846  0.126254  0.249927  1
  Pt  Pt32  1  0.306061  0.135907  0.750415  1
  Pt  Pt33  1  0.804844  0.363548  0.749775  1
  Pt  Pt34  1  0.694678  0.863176  0.250057  1
  Pt  Pt35  1  0.194730  0.636898  0.250130  1
