# generated using pymatgen
data_Ac2Yb(SmSn2)2
_symmetry_space_group_name_H-M   'P 1'
_cell_length_a   8.24191700
_cell_length_b   8.59981400
_cell_length_c   16.14467000
_cell_angle_alpha   90.00000000
_cell_angle_beta   90.00000000
_cell_angle_gamma   90.00000000
_symmetry_Int_Tables_number   1
_chemical_formula_structural   Ac2Yb(SmSn2)2
_chemical_formula_sum   'Ac8 Yb4 Sm8 Sn16'
_cell_volume   1144.31730941
_cell_formula_units_Z   4
loop_
 _symmetry_equiv_pos_site_id
 _symmetry_equiv_pos_as_xyz
  1  'x, y, z'
loop_
 _atom_site_type_symbol
 _atom_site_label
 _atom_site_symmetry_multiplicity
 _atom_site_fract_x
 _atom_site_fract_y
 _atom_site_fract_z
 _atom_site_occupancy
  Ac  Ac0  1  0.505179  0.679042  0.596420  1
  Ac  Ac1  1  0.005179  0.820958  0.903580  1
  Ac  Ac2  1  0.494821  0.320958  0.096420  1
  Ac  Ac3  1  0.994821  0.179042  0.403580  1
  Ac  Ac4  1  0.494821  0.320958  0.403580  1
  Ac  Ac5  1  0.994821  0.179042  0.096420  1
  Ac  Ac6  1  0.505179  0.679042  0.903580  1
  Ac  Ac7  1  0.005179  0.820958  0.596420  1
  Yb  Yb8  1  0.829847  0.503059  0.750000  1
  Yb  Yb9  1  0.329847  0.996941  0.750000  1
  Yb  Yb10  1  0.170153  0.496941  0.250000  1
  Yb  Yb11  1  0.670153  0.003059  0.250000  1
  Sm  Sm12  1  0.666579  0.169593  0.624665  1
  Sm  Sm13  1  0.166579  0.330407  0.875335  1
  Sm  Sm14  1  0.333421  0.830407  0.124665  1
  Sm  Sm15  1  0.833421  0.669593  0.375335  1
  Sm  Sm16  1  0.333421  0.830407  0.375335  1
  Sm  Sm17  1  0.833421  0.669593  0.124665  1
  Sm  Sm18  1  0.666579  0.169593  0.875335  1
  Sm  Sm19  1  0.166579  0.330407  0.624665  1
  Sn  Sn20  1  0.669984  0.959762  0.460783  1
  Sn  Sn21  1  0.169984  0.540238  0.039217  1
  Sn  Sn22  1  0.330016  0.040238  0.960783  1
  Sn  Sn23  1  0.830016  0.459762  0.539217  1
  Sn  Sn24  1  0.330016  0.040238  0.539217  1
  Sn  Sn25  1  0.830016  0.459762  0.960783  1
  Sn  Sn26  1  0.669984  0.959762  0.039217  1
  Sn  Sn27  1  0.169984  0.540238  0.460783  1
  Sn  Sn28  1  0.467368  0.375904  0.750000  1
  Sn  Sn29  1  0.967368  0.124096  0.750000  1
  Sn  Sn30  1  0.532632  0.624096  0.250000  1
  Sn  Sn31  1  0.032632  0.875904  0.250000  1
  Sn  Sn32  1  0.704725  0.873002  0.750000  1
  Sn  Sn33  1  0.204725  0.626998  0.750000  1
  Sn  Sn34  1  0.295275  0.126998  0.250000  1
  Sn  Sn35  1  0.795275  0.373002  0.250000  1
