# generated using pymatgen
data_La2Sc3Tl4
_symmetry_space_group_name_H-M   'P 1'
_cell_length_a   7.97309400
_cell_length_b   8.11750400
_cell_length_c   15.51554300
_cell_angle_alpha   90.00000000
_cell_angle_beta   90.00000000
_cell_angle_gamma   90.00000000
_symmetry_Int_Tables_number   1
_chemical_formula_structural   La2Sc3Tl4
_chemical_formula_sum   'La8 Sc12 Tl16'
_cell_volume   1004.19111596
_cell_formula_units_Z   4
loop_
 _symmetry_equiv_pos_site_id
 _symmetry_equiv_pos_as_xyz
  1  'x, y, z'
loop_
 _atom_site_type_symbol
 _atom_site_label
 _atom_site_symmetry_multiplicity
 _atom_site_fract_x
 _atom_site_fract_y
 _atom_site_fract_z
 _atom_site_occupancy
  La  La0  1  0.996741  0.675533  0.595519  1
  La  La1  1  0.003259  0.324467  0.404481  1
  La  La2  1  0.503259  0.175533  0.404481  1
  La  La3  1  0.003259  0.324467  0.095519  1
  La  La4  1  0.496741  0.824467  0.595519  1
  La  La5  1  0.996741  0.675533  0.904481  1
  La  La6  1  0.496741  0.824467  0.904481  1
  La  La7  1  0.503259  0.175533  0.095519  1
  Sc  Sc8  1  0.165739  0.004526  0.750000  1
  Sc  Sc9  1  0.834261  0.995474  0.250000  1
  Sc  Sc10  1  0.334261  0.504526  0.250000  1
  Sc  Sc11  1  0.665739  0.495474  0.750000  1
  Sc  Sc12  1  0.334109  0.334155  0.625251  1
  Sc  Sc13  1  0.665891  0.665845  0.374749  1
  Sc  Sc14  1  0.165891  0.834155  0.374749  1
  Sc  Sc15  1  0.665891  0.665845  0.125251  1
  Sc  Sc16  1  0.834109  0.165845  0.625251  1
  Sc  Sc17  1  0.334109  0.334155  0.874749  1
  Sc  Sc18  1  0.834109  0.165845  0.874749  1
  Sc  Sc19  1  0.165891  0.834155  0.125251  1
  Tl  Tl20  1  0.028341  0.368348  0.750000  1
  Tl  Tl21  1  0.971659  0.631652  0.250000  1
  Tl  Tl22  1  0.471659  0.868348  0.250000  1
  Tl  Tl23  1  0.528341  0.131652  0.750000  1
  Tl  Tl24  1  0.301914  0.630331  0.750000  1
  Tl  Tl25  1  0.698086  0.369669  0.250000  1
  Tl  Tl26  1  0.198086  0.130331  0.250000  1
  Tl  Tl27  1  0.801914  0.869669  0.750000  1
  Tl  Tl28  1  0.171361  0.043471  0.542003  1
  Tl  Tl29  1  0.828639  0.956529  0.457997  1
  Tl  Tl30  1  0.328639  0.543471  0.457997  1
  Tl  Tl31  1  0.828639  0.956529  0.042003  1
  Tl  Tl32  1  0.671361  0.456529  0.542003  1
  Tl  Tl33  1  0.171361  0.043471  0.957997  1
  Tl  Tl34  1  0.671361  0.456529  0.957997  1
  Tl  Tl35  1  0.328639  0.543471  0.042003  1
