# generated using pymatgen
data_Sc22Os7Pd
_symmetry_space_group_name_H-M   'P 1'
_cell_length_a   9.49674178
_cell_length_b   9.49674183
_cell_length_c   9.46147500
_cell_angle_alpha   60.12276463
_cell_angle_beta   60.12276446
_cell_angle_gamma   60.03998513
_symmetry_Int_Tables_number   1
_chemical_formula_structural   Sc22Os7Pd
_chemical_formula_sum   'Sc22 Os7 Pd1'
_cell_volume   604.68339718
_cell_formula_units_Z   1
loop_
 _symmetry_equiv_pos_site_id
 _symmetry_equiv_pos_as_xyz
  1  'x, y, z'
loop_
 _atom_site_type_symbol
 _atom_site_label
 _atom_site_symmetry_multiplicity
 _atom_site_fract_x
 _atom_site_fract_y
 _atom_site_fract_z
 _atom_site_occupancy
  Sc  Sc0  1  0.843830  0.843830  0.843637  1
  Sc  Sc1  1  0.531860  0.149988  0.159075  1
  Sc  Sc2  1  0.156170  0.156170  0.531296  1
  Sc  Sc3  1  0.149988  0.531860  0.159075  1
  Sc  Sc4  1  0.843830  0.843830  0.468704  1
  Sc  Sc5  1  0.850012  0.468140  0.840925  1
  Sc  Sc6  1  0.468140  0.850012  0.840925  1
  Sc  Sc7  1  0.156170  0.156170  0.156363  1
  Sc  Sc8  1  0.195934  0.804066  0.199685  1
  Sc  Sc9  1  0.195934  0.804066  0.800315  1
  Sc  Sc10  1  0.804066  0.195934  0.199685  1
  Sc  Sc11  1  0.801645  0.801645  0.198355  1
  Sc  Sc12  1  0.198355  0.198355  0.801645  1
  Sc  Sc13  1  0.804066  0.195934  0.800315  1
  Sc  Sc14  1  0.379933  0.379933  0.390315  1
  Sc  Sc15  1  0.149300  0.617753  0.616474  1
  Sc  Sc16  1  0.617753  0.149300  0.616474  1
  Sc  Sc17  1  0.620067  0.620067  0.150181  1
  Sc  Sc18  1  0.382247  0.850700  0.383526  1
  Sc  Sc19  1  0.379933  0.379933  0.849819  1
  Sc  Sc20  1  0.850700  0.382247  0.383526  1
  Sc  Sc21  1  0.620067  0.620067  0.609685  1
  Os  Os22  1  0.000000  0.000000  0.500000  1
  Os  Os23  1  0.500000  0.000000  0.500000  1
  Os  Os24  1  0.000000  0.500000  0.500000  1
  Os  Os25  1  0.500000  0.000000  0.000000  1
  Os  Os26  1  0.000000  0.500000  0.000000  1
  Os  Os27  1  0.500000  0.500000  0.500000  1
  Os  Os28  1  0.000000  0.000000  0.000000  1
  Pd  Pd29  1  0.500000  0.500000  0.000000  1
