# generated using pymatgen
data_Tb4LuSn3S
_symmetry_space_group_name_H-M   'P 1'
_cell_length_a   9.09087400
_cell_length_b   9.09087315
_cell_length_c   6.67835900
_cell_angle_alpha   90.00000000
_cell_angle_beta   90.00000000
_cell_angle_gamma   119.99998854
_symmetry_Int_Tables_number   1
_chemical_formula_structural   Tb4LuSn3S
_chemical_formula_sum   'Tb8 Lu2 Sn6 S2'
_cell_volume   477.98215103
_cell_formula_units_Z   2
loop_
 _symmetry_equiv_pos_site_id
 _symmetry_equiv_pos_as_xyz
  1  'x, y, z'
loop_
 _atom_site_type_symbol
 _atom_site_label
 _atom_site_symmetry_multiplicity
 _atom_site_fract_x
 _atom_site_fract_y
 _atom_site_fract_z
 _atom_site_occupancy
  Tb  Tb0  1  0.666667  0.333333  0.000000  1
  Tb  Tb1  1  0.333333  0.666667  0.000000  1
  Tb  Tb2  1  0.755413  0.755413  0.748933  1
  Tb  Tb3  1  0.244587  0.000000  0.748933  1
  Tb  Tb4  1  0.000000  0.244587  0.748933  1
  Tb  Tb5  1  0.244587  0.244587  0.251067  1
  Tb  Tb6  1  0.755413  0.000000  0.251067  1
  Tb  Tb7  1  0.000000  0.755413  0.251067  1
  Lu  Lu8  1  0.333333  0.666667  0.500000  1
  Lu  Lu9  1  0.666667  0.333333  0.500000  1
  Sn  Sn10  1  0.399373  0.399373  0.746220  1
  Sn  Sn11  1  0.600627  0.000000  0.746220  1
  Sn  Sn12  1  0.000000  0.600627  0.746220  1
  Sn  Sn13  1  0.600627  0.600627  0.253780  1
  Sn  Sn14  1  0.399373  0.000000  0.253780  1
  Sn  Sn15  1  0.000000  0.399373  0.253780  1
  S  S16  1  0.000000  0.000000  0.000000  1
  S  S17  1  0.000000  0.000000  0.500000  1
