# generated using pymatgen
data_La2Dy3Sc3(P3Ir4)4
_symmetry_space_group_name_H-M   'P 1'
_cell_length_a   12.91445600
_cell_length_b   12.91445652
_cell_length_c   3.99638500
_cell_angle_alpha   90.00000000
_cell_angle_beta   90.00000000
_cell_angle_gamma   120.00000378
_symmetry_Int_Tables_number   1
_chemical_formula_structural   La2Dy3Sc3(P3Ir4)4
_chemical_formula_sum   'La2 Dy3 Sc3 P12 Ir16'
_cell_volume   577.23171804
_cell_formula_units_Z   1
loop_
 _symmetry_equiv_pos_site_id
 _symmetry_equiv_pos_as_xyz
  1  'x, y, z'
loop_
 _atom_site_type_symbol
 _atom_site_label
 _atom_site_symmetry_multiplicity
 _atom_site_fract_x
 _atom_site_fract_y
 _atom_site_fract_z
 _atom_site_occupancy
  La  La0  1  0.333333  0.666667  0.500000  1
  La  La1  1  0.666667  0.333333  0.500000  1
  Dy  Dy2  1  0.000000  0.811467  0.000000  1
  Dy  Dy3  1  0.188533  0.188533  0.000000  1
  Dy  Dy4  1  0.811467  0.000000  0.000000  1
  Sc  Sc5  1  0.000000  0.444129  0.500000  1
  Sc  Sc6  1  0.555871  0.555871  0.500000  1
  Sc  Sc7  1  0.444129  0.000000  0.500000  1
  P  P8  1  0.000000  0.645144  0.500000  1
  P  P9  1  0.354856  0.354856  0.500000  1
  P  P10  1  0.645144  0.000000  0.500000  1
  P  P11  1  0.520203  0.687030  0.000000  1
  P  P12  1  0.312970  0.833173  0.000000  1
  P  P13  1  0.166827  0.479797  0.000000  1
  P  P14  1  0.479797  0.166827  0.000000  1
  P  P15  1  0.687030  0.520203  0.000000  1
  P  P16  1  0.833173  0.312970  0.000000  1
  P  P17  1  0.000000  0.176422  0.500000  1
  P  P18  1  0.823578  0.823578  0.500000  1
  P  P19  1  0.176422  0.000000  0.500000  1
  Ir  Ir20  1  0.513107  0.870752  0.000000  1
  Ir  Ir21  1  0.129248  0.642356  0.000000  1
  Ir  Ir22  1  0.357644  0.486893  0.000000  1
  Ir  Ir23  1  0.486893  0.357644  0.000000  1
  Ir  Ir24  1  0.870752  0.513107  0.000000  1
  Ir  Ir25  1  0.642356  0.129248  0.000000  1
  Ir  Ir26  1  0.000000  0.277235  0.000000  1
  Ir  Ir27  1  0.722765  0.722765  0.000000  1
  Ir  Ir28  1  0.277235  0.000000  0.000000  1
  Ir  Ir29  1  0.629469  0.807654  0.500000  1
  Ir  Ir30  1  0.192346  0.821815  0.500000  1
  Ir  Ir31  1  0.178185  0.370531  0.500000  1
  Ir  Ir32  1  0.370531  0.178185  0.500000  1
  Ir  Ir33  1  0.807654  0.629469  0.500000  1
  Ir  Ir34  1  0.821815  0.192346  0.500000  1
  Ir  Ir35  1  0.000000  0.000000  0.500000  1
