# generated using pymatgen
data_BaMn(CrSb4)3
_symmetry_space_group_name_H-M   'P 1'
_cell_length_a   8.23237773
_cell_length_b   8.23237770
_cell_length_c   8.23237833
_cell_angle_alpha   109.30398306
_cell_angle_beta   109.30397957
_cell_angle_gamma   109.30397486
_symmetry_Int_Tables_number   1
_chemical_formula_structural   BaMn(CrSb4)3
_chemical_formula_sum   'Ba1 Mn1 Cr3 Sb12'
_cell_volume   432.12986766
_cell_formula_units_Z   1
loop_
 _symmetry_equiv_pos_site_id
 _symmetry_equiv_pos_as_xyz
  1  'x, y, z'
loop_
 _atom_site_type_symbol
 _atom_site_label
 _atom_site_symmetry_multiplicity
 _atom_site_fract_x
 _atom_site_fract_y
 _atom_site_fract_z
 _atom_site_occupancy
  Ba  Ba0  1  0.000000  0.000000  0.000000  1
  Mn  Mn1  1  0.500000  0.500000  0.500000  1
  Cr  Cr2  1  0.500000  0.000000  0.000000  1
  Cr  Cr3  1  0.000000  0.500000  0.000000  1
  Cr  Cr4  1  0.000000  0.000000  0.500000  1
  Sb  Sb5  1  0.170444  0.498431  0.350553  1
  Sb  Sb6  1  0.501569  0.649447  0.829556  1
  Sb  Sb7  1  0.345544  0.844914  0.192099  1
  Sb  Sb8  1  0.807901  0.654456  0.155086  1
  Sb  Sb9  1  0.649447  0.829556  0.501569  1
  Sb  Sb10  1  0.192099  0.345544  0.844914  1
  Sb  Sb11  1  0.654456  0.155086  0.807901  1
  Sb  Sb12  1  0.350553  0.170444  0.498431  1
  Sb  Sb13  1  0.498431  0.350553  0.170444  1
  Sb  Sb14  1  0.829556  0.501569  0.649447  1
  Sb  Sb15  1  0.844914  0.192099  0.345544  1
  Sb  Sb16  1  0.155086  0.807901  0.654456  1
