# generated using pymatgen
data_LuSc2Co8P6Os
_symmetry_space_group_name_H-M   'P 1'
_cell_length_a   3.64781900
_cell_length_b   10.39132900
_cell_length_c   12.05365800
_cell_angle_alpha   90.00000000
_cell_angle_beta   90.00000000
_cell_angle_gamma   90.00000000
_symmetry_Int_Tables_number   1
_chemical_formula_structural   LuSc2Co8P6Os
_chemical_formula_sum   'Lu2 Sc4 Co16 P12 Os2'
_cell_volume   456.90219171
_cell_formula_units_Z   2
loop_
 _symmetry_equiv_pos_site_id
 _symmetry_equiv_pos_as_xyz
  1  'x, y, z'
loop_
 _atom_site_type_symbol
 _atom_site_label
 _atom_site_symmetry_multiplicity
 _atom_site_fract_x
 _atom_site_fract_y
 _atom_site_fract_z
 _atom_site_occupancy
  Lu  Lu0  1  0.000000  0.500000  0.528035  1
  Lu  Lu1  1  0.500000  0.000000  0.471965  1
  Sc  Sc2  1  0.500000  0.818850  0.207430  1
  Sc  Sc3  1  0.500000  0.181150  0.207430  1
  Sc  Sc4  1  0.000000  0.681150  0.792570  1
  Sc  Sc5  1  0.000000  0.318850  0.792570  1
  Co  Co6  1  0.500000  0.500000  0.704251  1
  Co  Co7  1  0.000000  0.000000  0.295749  1
  Co  Co8  1  0.000000  0.500000  0.987061  1
  Co  Co9  1  0.500000  0.000000  0.012939  1
  Co  Co10  1  0.500000  0.332326  0.988851  1
  Co  Co11  1  0.500000  0.667674  0.988851  1
  Co  Co12  1  0.000000  0.167674  0.011149  1
  Co  Co13  1  0.000000  0.832326  0.011149  1
  Co  Co14  1  0.500000  0.297565  0.431620  1
  Co  Co15  1  0.500000  0.702435  0.431620  1
  Co  Co16  1  0.000000  0.202435  0.568380  1
  Co  Co17  1  0.000000  0.797565  0.568380  1
  Co  Co18  1  0.500000  0.876790  0.707875  1
  Co  Co19  1  0.500000  0.123210  0.707875  1
  Co  Co20  1  0.000000  0.623210  0.292125  1
  Co  Co21  1  0.000000  0.376790  0.292125  1
  P  P22  1  0.500000  0.500000  0.878524  1
  P  P23  1  0.000000  0.000000  0.121476  1
  P  P24  1  0.500000  0.500000  0.354106  1
  P  P25  1  0.000000  0.000000  0.645894  1
  P  P26  1  0.500000  0.314431  0.619167  1
  P  P27  1  0.500000  0.685569  0.619167  1
  P  P28  1  0.000000  0.185569  0.380833  1
  P  P29  1  0.000000  0.814431  0.380833  1
  P  P30  1  0.500000  0.843450  0.890300  1
  P  P31  1  0.500000  0.156550  0.890300  1
  P  P32  1  0.000000  0.656550  0.109700  1
  P  P33  1  0.000000  0.343450  0.109700  1
  Os  Os34  1  0.500000  0.500000  0.159760  1
  Os  Os35  1  0.000000  0.000000  0.840240  1
