# generated using pymatgen
data_BaGdCuS3
_symmetry_space_group_name_H-M   'P 1'
_cell_length_a   10.47590800
_cell_length_b   4.07237900
_cell_length_c   13.36583500
_cell_angle_alpha   90.00000000
_cell_angle_beta   90.00000000
_cell_angle_gamma   90.00000000
_symmetry_Int_Tables_number   1
_chemical_formula_structural   BaGdCuS3
_chemical_formula_sum   'Ba4 Gd4 Cu4 S12'
_cell_volume   570.21148507
_cell_formula_units_Z   4
loop_
 _symmetry_equiv_pos_site_id
 _symmetry_equiv_pos_as_xyz
  1  'x, y, z'
loop_
 _atom_site_type_symbol
 _atom_site_label
 _atom_site_symmetry_multiplicity
 _atom_site_fract_x
 _atom_site_fract_y
 _atom_site_fract_z
 _atom_site_occupancy
  Ba  Ba0  1  0.269109  0.250000  0.000444  1
  Ba  Ba1  1  0.769108  0.250000  0.499556  1
  Ba  Ba2  1  0.230891  0.750000  0.500444  1
  Ba  Ba3  1  0.730892  0.750000  0.999556  1
  Gd  Gd4  1  0.012894  0.250000  0.243975  1
  Gd  Gd5  1  0.512895  0.250000  0.256025  1
  Gd  Gd6  1  0.487106  0.750000  0.743975  1
  Gd  Gd7  1  0.987106  0.750000  0.756025  1
  Cu  Cu8  1  0.260144  0.750000  0.221647  1
  Cu  Cu9  1  0.760144  0.750000  0.278353  1
  Cu  Cu10  1  0.239856  0.250000  0.721647  1
  Cu  Cu11  1  0.739856  0.250000  0.778352  1
  S  S12  1  0.083547  0.750000  0.109584  1
  S  S13  1  0.445626  0.750000  0.117242  1
  S  S14  1  0.760089  0.250000  0.175432  1
  S  S15  1  0.260089  0.250000  0.324568  1
  S  S16  1  0.945626  0.750000  0.382758  1
  S  S17  1  0.583547  0.750000  0.390417  1
  S  S18  1  0.416453  0.250000  0.609583  1
  S  S19  1  0.054374  0.250000  0.617241  1
  S  S20  1  0.739912  0.750000  0.675432  1
  S  S21  1  0.239911  0.750000  0.824568  1
  S  S22  1  0.554375  0.250000  0.882759  1
  S  S23  1  0.916453  0.250000  0.890417  1
