# generated using pymatgen
data_Cs2NdSm(SiSe4)2
_symmetry_space_group_name_H-M   'P 1'
_cell_length_a   7.12819700
_cell_length_b   9.94503382
_cell_length_c   13.56449101
_cell_angle_alpha   71.38633202
_cell_angle_beta   90.00000000
_cell_angle_gamma   90.00000000
_symmetry_Int_Tables_number   1
_chemical_formula_structural   Cs2NdSm(SiSe4)2
_chemical_formula_sum   'Cs4 Nd2 Sm2 Si4 Se16'
_cell_volume   911.29043052
_cell_formula_units_Z   2
loop_
 _symmetry_equiv_pos_site_id
 _symmetry_equiv_pos_as_xyz
  1  'x, y, z'
loop_
 _atom_site_type_symbol
 _atom_site_label
 _atom_site_symmetry_multiplicity
 _atom_site_fract_x
 _atom_site_fract_y
 _atom_site_fract_z
 _atom_site_occupancy
  Cs  Cs0  1  0.254220  0.434750  0.386272  1
  Cs  Cs1  1  0.754220  0.565250  0.113728  1
  Cs  Cs2  1  0.745920  0.565421  0.613440  1
  Cs  Cs3  1  0.245920  0.434579  0.886560  1
  Nd  Nd4  1  0.803951  0.046407  0.634303  1
  Nd  Nd5  1  0.303951  0.953593  0.865697  1
  Sm  Sm6  1  0.194035  0.953471  0.365339  1
  Sm  Sm7  1  0.694035  0.046529  0.134661  1
  Si  Si8  1  0.743645  0.165484  0.354377  1
  Si  Si9  1  0.243645  0.834516  0.145623  1
  Si  Si10  1  0.256253  0.834117  0.645034  1
  Si  Si11  1  0.756253  0.165883  0.854966  1
  Se  Se12  1  0.028486  0.197387  0.758620  1
  Se  Se13  1  0.778353  0.933047  0.454119  1
  Se  Se14  1  0.525343  0.208205  0.730438  1
  Se  Se15  1  0.724156  0.933904  0.955738  1
  Se  Se16  1  0.758420  0.312831  0.451976  1
  Se  Se17  1  0.971493  0.805422  0.241572  1
  Se  Se18  1  0.258420  0.687169  0.048024  1
  Se  Se19  1  0.224156  0.066096  0.544262  1
  Se  Se20  1  0.741164  0.310719  0.954202  1
  Se  Se21  1  0.474563  0.794786  0.269702  1
  Se  Se22  1  0.025343  0.791795  0.769562  1
  Se  Se23  1  0.241164  0.689281  0.545798  1
  Se  Se24  1  0.471493  0.194578  0.258428  1
  Se  Se25  1  0.974563  0.205214  0.230298  1
  Se  Se26  1  0.528486  0.802613  0.741380  1
  Se  Se27  1  0.278353  0.066953  0.045881  1
