# generated using pymatgen
data_RbZn2F6
_symmetry_space_group_name_H-M   'P 1'
_cell_length_a   7.37440656
_cell_length_b   7.37440690
_cell_length_c   7.37440600
_cell_angle_alpha   59.99999505
_cell_angle_beta   59.99999353
_cell_angle_gamma   60.00000239
_symmetry_Int_Tables_number   1
_chemical_formula_structural   RbZn2F6
_chemical_formula_sum   'Rb2 Zn4 F12'
_cell_volume   283.57385724
_cell_formula_units_Z   2
loop_
 _symmetry_equiv_pos_site_id
 _symmetry_equiv_pos_as_xyz
  1  'x, y, z'
loop_
 _atom_site_type_symbol
 _atom_site_label
 _atom_site_symmetry_multiplicity
 _atom_site_fract_x
 _atom_site_fract_y
 _atom_site_fract_z
 _atom_site_occupancy
  Rb  Rb0  1  0.250000  0.250000  0.250000  1
  Rb  Rb1  1  0.000000  0.000000  0.000000  1
  Zn  Zn2  1  0.125000  0.625000  0.625000  1
  Zn  Zn3  1  0.625000  0.125000  0.625000  1
  Zn  Zn4  1  0.625000  0.625000  0.125000  1
  Zn  Zn5  1  0.625000  0.625000  0.625000  1
  F  F6  1  0.302506  0.302506  0.697494  1
  F  F7  1  0.697494  0.697494  0.302506  1
  F  F8  1  0.302506  0.697494  0.302506  1
  F  F9  1  0.697494  0.302506  0.697494  1
  F  F10  1  0.697494  0.302506  0.302506  1
  F  F11  1  0.302506  0.697494  0.697494  1
  F  F12  1  0.947494  0.947494  0.552506  1
  F  F13  1  0.552506  0.552506  0.947494  1
  F  F14  1  0.947494  0.552506  0.947494  1
  F  F15  1  0.552506  0.947494  0.552506  1
  F  F16  1  0.552506  0.947494  0.947494  1
  F  F17  1  0.947494  0.552506  0.552506  1
