# generated using pymatgen
data_Y3Lu5B24MoRu3
_symmetry_space_group_name_H-M   'P 1'
_cell_length_a   3.61883200
_cell_length_b   9.09333024
_cell_length_c   11.48515687
_cell_angle_alpha   89.87585838
_cell_angle_beta   90.00000000
_cell_angle_gamma   90.00000000
_symmetry_Int_Tables_number   1
_chemical_formula_structural   Y3Lu5B24MoRu3
_chemical_formula_sum   'Y3 Lu5 B24 Mo1 Ru3'
_cell_volume   377.94386253
_cell_formula_units_Z   1
loop_
 _symmetry_equiv_pos_site_id
 _symmetry_equiv_pos_as_xyz
  1  'x, y, z'
loop_
 _atom_site_type_symbol
 _atom_site_label
 _atom_site_symmetry_multiplicity
 _atom_site_fract_x
 _atom_site_fract_y
 _atom_site_fract_z
 _atom_site_occupancy
  Y  Y0  1  0.000000  0.321530  0.413613  1
  Y  Y1  1  0.000000  0.677980  0.584857  1
  Y  Y2  1  0.000000  0.820403  0.086706  1
  Lu  Lu3  1  0.000000  0.178322  0.915198  1
  Lu  Lu4  1  0.000000  0.945629  0.372112  1
  Lu  Lu5  1  0.000000  0.057793  0.629432  1
  Lu  Lu6  1  0.000000  0.442741  0.126545  1
  Lu  Lu7  1  0.000000  0.556517  0.870871  1
  B  B8  1  0.500000  0.551341  0.435217  1
  B  B9  1  0.500000  0.445164  0.568839  1
  B  B10  1  0.500000  0.054871  0.066102  1
  B  B11  1  0.500000  0.946901  0.932814  1
  B  B12  1  0.500000  0.752610  0.420752  1
  B  B13  1  0.500000  0.250336  0.582330  1
  B  B14  1  0.500000  0.249541  0.079657  1
  B  B15  1  0.500000  0.750377  0.918388  1
  B  B16  1  0.500000  0.795181  0.264142  1
  B  B17  1  0.500000  0.207626  0.736034  1
  B  B18  1  0.500000  0.291032  0.232742  1
  B  B19  1  0.500000  0.708954  0.765668  1
  B  B20  1  0.500000  0.630316  0.182296  1
  B  B21  1  0.500000  0.368109  0.816548  1
  B  B22  1  0.500000  0.130466  0.314278  1
  B  B23  1  0.500000  0.870571  0.685152  1
  B  B24  1  0.500000  0.983594  0.212558  1
  B  B25  1  0.500000  0.018451  0.788122  1
  B  B26  1  0.500000  0.477931  0.285649  1
  B  B27  1  0.500000  0.516285  0.713986  1
  B  B28  1  0.500000  0.602491  0.026581  1
  B  B29  1  0.500000  0.395302  0.970562  1
  B  B30  1  0.500000  0.103194  0.472459  1
  B  B31  1  0.500000  0.899474  0.529242  1
  Mo  Mo32  1  0.000000  0.638195  0.320277  1
  Ru  Ru33  1  0.000000  0.359605  0.682255  1
  Ru  Ru34  1  0.000000  0.138559  0.177705  1
  Ru  Ru35  1  0.000000  0.862609  0.820313  1
