# generated using pymatgen
data_CaLa(NbSe2)6
_symmetry_space_group_name_H-M   'P 1'
_cell_length_a   6.08502200
_cell_length_b   6.08502145
_cell_length_c   15.15880000
_cell_angle_alpha   90.00000000
_cell_angle_beta   90.00000000
_cell_angle_gamma   120.00000299
_symmetry_Int_Tables_number   1
_chemical_formula_structural   CaLa(NbSe2)6
_chemical_formula_sum   'Ca1 La1 Nb6 Se12'
_cell_volume   486.09338154
_cell_formula_units_Z   1
loop_
 _symmetry_equiv_pos_site_id
 _symmetry_equiv_pos_as_xyz
  1  'x, y, z'
loop_
 _atom_site_type_symbol
 _atom_site_label
 _atom_site_symmetry_multiplicity
 _atom_site_fract_x
 _atom_site_fract_y
 _atom_site_fract_z
 _atom_site_occupancy
  Ca  Ca0  1  0.666667  0.333333  0.750000  1
  La  La1  1  0.333333  0.666667  0.250000  1
  Nb  Nb2  1  0.333333  0.666667  0.001043  1
  Nb  Nb3  1  0.000000  0.000000  0.998765  1
  Nb  Nb4  1  0.666667  0.333333  0.997973  1
  Nb  Nb5  1  0.333333  0.666667  0.498957  1
  Nb  Nb6  1  0.000000  0.000000  0.501235  1
  Nb  Nb7  1  0.666667  0.333333  0.502027  1
  Se  Se8  1  0.674023  0.665910  0.390415  1
  Se  Se9  1  0.665336  0.670954  0.610957  1
  Se  Se10  1  0.005617  0.670954  0.889043  1
  Se  Se11  1  0.665336  0.994383  0.889043  1
  Se  Se12  1  0.674023  0.008113  0.109585  1
  Se  Se13  1  0.334090  0.008113  0.390415  1
  Se  Se14  1  0.005617  0.334664  0.610957  1
  Se  Se15  1  0.329046  0.994383  0.610957  1
  Se  Se16  1  0.991887  0.665910  0.109585  1
  Se  Se17  1  0.329046  0.334664  0.889043  1
  Se  Se18  1  0.991887  0.325977  0.390415  1
  Se  Se19  1  0.334090  0.325977  0.109585  1
