# generated using pymatgen
data_TbPr9(Si2Pb)2
_symmetry_space_group_name_H-M   'P 1'
_cell_length_a   7.93894575
_cell_length_b   7.93894772
_cell_length_c   9.34236205
_cell_angle_alpha   115.14368595
_cell_angle_beta   115.14368618
_cell_angle_gamma   89.99999880
_symmetry_Int_Tables_number   1
_chemical_formula_structural   TbPr9(Si2Pb)2
_chemical_formula_sum   'Tb1 Pr9 Si4 Pb2'
_cell_volume   470.66469164
_cell_formula_units_Z   1
loop_
 _symmetry_equiv_pos_site_id
 _symmetry_equiv_pos_as_xyz
  1  'x, y, z'
loop_
 _atom_site_type_symbol
 _atom_site_label
 _atom_site_symmetry_multiplicity
 _atom_site_fract_x
 _atom_site_fract_y
 _atom_site_fract_z
 _atom_site_occupancy
  Tb  Tb0  1  0.000000  0.000000  0.000000  1
  Pr  Pr1  1  0.500000  0.500000  0.000000  1
  Pr  Pr2  1  0.962707  0.811677  0.274397  1
  Pr  Pr3  1  0.311689  0.462720  0.274397  1
  Pr  Pr4  1  0.811677  0.311689  0.274397  1
  Pr  Pr5  1  0.462720  0.962707  0.274397  1
  Pr  Pr6  1  0.037293  0.188323  0.725603  1
  Pr  Pr7  1  0.688311  0.537280  0.725603  1
  Pr  Pr8  1  0.188323  0.688311  0.725603  1
  Pr  Pr9  1  0.537280  0.037293  0.725603  1
  Si  Si10  1  0.622124  0.883847  0.000000  1
  Si  Si11  1  0.377876  0.116153  0.000000  1
  Si  Si12  1  0.883847  0.377876  0.000000  1
  Si  Si13  1  0.116153  0.622124  0.000000  1
  Pb  Pb14  1  0.751006  0.751006  0.502011  1
  Pb  Pb15  1  0.248994  0.248994  0.497989  1
