# generated using pymatgen
data_LaNd11(GaI3)4
_symmetry_space_group_name_H-M   'P 1'
_cell_length_a   10.87460183
_cell_length_b   10.87459425
_cell_length_c   10.93487489
_cell_angle_alpha   109.46408255
_cell_angle_beta   109.46500572
_cell_angle_gamma   109.43635035
_symmetry_Int_Tables_number   1
_chemical_formula_structural   LaNd11(GaI3)4
_chemical_formula_sum   'La1 Nd11 Ga4 I12'
_cell_volume   996.03941513
_cell_formula_units_Z   1
loop_
 _symmetry_equiv_pos_site_id
 _symmetry_equiv_pos_as_xyz
  1  'x, y, z'
loop_
 _atom_site_type_symbol
 _atom_site_label
 _atom_site_symmetry_multiplicity
 _atom_site_fract_x
 _atom_site_fract_y
 _atom_site_fract_z
 _atom_site_occupancy
  La  La0  1  0.239256  0.260749  0.750003  1
  Nd  Nd1  1  0.472072  0.486795  0.237384  1
  Nd  Nd2  1  0.749049  0.235447  0.263899  1
  Nd  Nd3  1  0.748118  0.012987  0.484433  1
  Nd  Nd4  1  0.235322  0.471921  0.484415  1
  Nd  Nd5  1  0.264562  0.750951  0.236099  1
  Nd  Nd6  1  0.028094  0.264688  0.015588  1
  Nd  Nd7  1  0.013199  0.027922  0.262608  1
  Nd  Nd8  1  0.487012  0.751885  0.015571  1
  Nd  Nd9  1  0.485475  0.235432  0.470043  1
  Nd  Nd10  1  0.013956  0.486050  0.750003  1
  Nd  Nd11  1  0.264577  0.014531  0.029959  1
  Ga  Ga12  1  0.250177  0.249824  0.250000  1
  Ga  Ga13  1  0.499628  0.000375  0.250001  1
  Ga  Ga14  1  0.999173  0.249496  0.498858  1
  Ga  Ga15  1  0.250482  0.500748  0.001132  1
  I  I16  1  0.250309  0.757353  0.743680  1
  I  I17  1  0.516575  0.511053  0.755885  1
  I  I18  1  0.985525  0.742411  0.993007  1
  I  I19  1  0.742652  0.249697  0.756324  1
  I  I20  1  0.988951  0.983429  0.744114  1
  I  I21  1  0.249195  0.989536  0.503415  1
  I  I22  1  0.757592  0.514481  0.506995  1
  I  I23  1  0.510468  0.250808  0.996586  1
  I  I24  1  0.757047  0.742955  0.250000  1
  I  I25  1  0.742815  0.993676  0.986663  1
  I  I26  1  0.992386  0.507609  0.249998  1
  I  I27  1  0.506331  0.757189  0.513337  1
