# generated using pymatgen
data_DyY3Bi3Sb
_symmetry_space_group_name_H-M   'P 1'
_cell_length_a   7.71171647
_cell_length_b   7.71171570
_cell_length_c   7.71171636
_cell_angle_alpha   131.70056775
_cell_angle_beta   131.70056427
_cell_angle_gamma   70.70236664
_symmetry_Int_Tables_number   1
_chemical_formula_structural   DyY3Bi3Sb
_chemical_formula_sum   'Dy1 Y3 Bi3 Sb1'
_cell_volume   250.44250489
_cell_formula_units_Z   1
loop_
 _symmetry_equiv_pos_site_id
 _symmetry_equiv_pos_as_xyz
  1  'x, y, z'
loop_
 _atom_site_type_symbol
 _atom_site_label
 _atom_site_symmetry_multiplicity
 _atom_site_fract_x
 _atom_site_fract_y
 _atom_site_fract_z
 _atom_site_occupancy
  Dy  Dy0  1  0.753297  0.753297  0.000000  1
  Y  Y1  1  0.246719  0.246719  0.000000  1
  Y  Y2  1  0.500001  0.000001  0.500000  1
  Y  Y3  1  0.000001  0.500001  0.500000  1
  Bi  Bi4  1  0.500082  0.500082  0.000000  1
  Bi  Bi5  1  0.749999  0.249999  0.500000  1
  Bi  Bi6  1  0.249999  0.749999  0.500000  1
  Sb  Sb7  1  0.999901  0.999901  0.000000  1
