# generated using pymatgen
data_La4Cd2Cu3Pd
_symmetry_space_group_name_H-M   'P 1'
_cell_length_a   7.91691864
_cell_length_b   7.91691864
_cell_length_c   3.93494700
_cell_angle_alpha   90.00000000
_cell_angle_beta   90.00000000
_cell_angle_gamma   89.92619573
_symmetry_Int_Tables_number   1
_chemical_formula_structural   La4Cd2Cu3Pd
_chemical_formula_sum   'La4 Cd2 Cu3 Pd1'
_cell_volume   246.63283256
_cell_formula_units_Z   1
loop_
 _symmetry_equiv_pos_site_id
 _symmetry_equiv_pos_as_xyz
  1  'x, y, z'
loop_
 _atom_site_type_symbol
 _atom_site_label
 _atom_site_symmetry_multiplicity
 _atom_site_fract_x
 _atom_site_fract_y
 _atom_site_fract_z
 _atom_site_occupancy
  La  La0  1  0.675208  0.179544  0.500000  1
  La  La1  1  0.320456  0.824792  0.500000  1
  La  La2  1  0.179331  0.320669  0.500000  1
  La  La3  1  0.823989  0.676011  0.500000  1
  Cd  Cd4  1  0.995853  0.998334  0.000000  1
  Cd  Cd5  1  0.501666  0.504147  0.000000  1
  Cu  Cu6  1  0.115988  0.614781  0.000000  1
  Cu  Cu7  1  0.885219  0.384012  0.000000  1
  Cu  Cu8  1  0.620999  0.879001  0.000000  1
  Pd  Pd9  1  0.381292  0.118708  0.000000  1
