# generated using pymatgen
data_Hf10Co8Si19P
_symmetry_space_group_name_H-M   'P 1'
_cell_length_a   11.90447325
_cell_length_b   11.90489403
_cell_length_c   3.91877900
_cell_angle_alpha   90.00000000
_cell_angle_beta   90.00000000
_cell_angle_gamma   90.23026987
_symmetry_Int_Tables_number   1
_chemical_formula_structural   Hf10Co8Si19P
_chemical_formula_sum   'Hf10 Co8 Si19 P1'
_cell_volume   555.37072359
_cell_formula_units_Z   1
loop_
 _symmetry_equiv_pos_site_id
 _symmetry_equiv_pos_as_xyz
  1  'x, y, z'
loop_
 _atom_site_type_symbol
 _atom_site_label
 _atom_site_symmetry_multiplicity
 _atom_site_fract_x
 _atom_site_fract_y
 _atom_site_fract_z
 _atom_site_occupancy
  Hf  Hf0  1  0.999871  0.000122  0.000000  1
  Hf  Hf1  1  0.500126  0.499877  0.000000  1
  Hf  Hf2  1  0.676793  0.176769  0.500000  1
  Hf  Hf3  1  0.178682  0.321685  0.500000  1
  Hf  Hf4  1  0.821683  0.678670  0.500000  1
  Hf  Hf5  1  0.322712  0.822707  0.500000  1
  Hf  Hf6  1  0.885758  0.385730  0.500000  1
  Hf  Hf7  1  0.382561  0.116234  0.500000  1
  Hf  Hf8  1  0.616255  0.882566  0.500000  1
  Hf  Hf9  1  0.114549  0.614538  0.500000  1
  Co  Co10  1  0.526182  0.251726  0.000000  1
  Co  Co11  1  0.256489  0.473158  0.000000  1
  Co  Co12  1  0.744143  0.526024  0.000000  1
  Co  Co13  1  0.474936  0.746213  0.000000  1
  Co  Co14  1  0.973169  0.756517  0.000000  1
  Co  Co15  1  0.026000  0.244139  0.000000  1
  Co  Co16  1  0.751730  0.026187  0.000000  1
  Co  Co17  1  0.246195  0.974976  0.000000  1
  Si  Si18  1  0.068445  0.431828  0.000000  1
  Si  Si19  1  0.931897  0.568450  0.000000  1
  Si  Si20  1  0.433317  0.933342  0.000000  1
  Si  Si21  1  0.199013  0.155348  0.000000  1
  Si  Si22  1  0.155567  0.800768  0.000000  1
  Si  Si23  1  0.844363  0.199650  0.000000  1
  Si  Si24  1  0.799894  0.845074  0.000000  1
  Si  Si25  1  0.300740  0.655542  0.000000  1
  Si  Si26  1  0.699688  0.344315  0.000000  1
  Si  Si27  1  0.655335  0.699070  0.000000  1
  Si  Si28  1  0.345019  0.299888  0.000000  1
  Si  Si29  1  0.000591  0.163593  0.500000  1
  Si  Si30  1  0.163666  0.998045  0.500000  1
  Si  Si31  1  0.835824  0.001807  0.500000  1
  Si  Si32  1  0.999966  0.836666  0.500000  1
  Si  Si33  1  0.498067  0.663651  0.500000  1
  Si  Si34  1  0.501828  0.335869  0.500000  1
  Si  Si35  1  0.663525  0.500563  0.500000  1
  Si  Si36  1  0.336653  0.499940  0.500000  1
  P  P37  1  0.568772  0.068753  0.000000  1
