# generated using pymatgen
data_TeSeF34
_symmetry_space_group_name_H-M   'P 1'
_cell_length_a   8.86543440
_cell_length_b   8.64295918
_cell_length_c   10.18461337
_cell_angle_alpha   81.70297037
_cell_angle_beta   87.02456268
_cell_angle_gamma   66.62235423
_symmetry_Int_Tables_number   1
_chemical_formula_structural   TeSeF34
_chemical_formula_sum   'Te1 Se1 F34'
_cell_volume   708.80987857
_cell_formula_units_Z   1
loop_
 _symmetry_equiv_pos_site_id
 _symmetry_equiv_pos_as_xyz
  1  'x, y, z'
loop_
 _atom_site_type_symbol
 _atom_site_label
 _atom_site_symmetry_multiplicity
 _atom_site_fract_x
 _atom_site_fract_y
 _atom_site_fract_z
 _atom_site_occupancy
  Te  Te0  1  0.136523  0.749550  0.239705  1
  Se  Se1  1  0.862338  0.250048  0.762171  1
  F  F2  1  0.608811  0.198671  0.485101  1
  F  F3  1  0.399685  0.792217  0.514507  1
  F  F4  1  0.825259  0.703362  0.717808  1
  F  F5  1  0.172871  0.302844  0.287884  1
  F  F6  1  0.085308  0.760169  0.860548  1
  F  F7  1  0.919154  0.226016  0.142798  1
  F  F8  1  0.553251  0.147135  0.376344  1
  F  F9  1  0.442211  0.856543  0.622315  1
  F  F10  1  0.661145  0.318333  0.706215  1
  F  F11  1  0.352157  0.677202  0.300255  1
  F  F12  1  0.923290  0.083293  0.668151  1
  F  F13  1  0.066174  0.925034  0.344227  1
  F  F14  1  0.902675  0.376810  0.628644  1
  F  F15  1  0.093323  0.611865  0.381837  1
  F  F16  1  0.858522  0.805787  0.607065  1
  F  F17  1  0.149498  0.181425  0.388133  1
  F  F18  1  0.802172  0.417614  0.855786  1
  F  F19  1  0.203230  0.570303  0.138416  1
  F  F20  1  0.214050  0.687861  0.770350  1
  F  F21  1  0.786275  0.315220  0.224004  1
  F  F22  1  0.924189  0.821783  0.172856  1
  F  F23  1  0.062114  0.181893  0.820258  1
  F  F24  1  0.820483  0.122647  0.894980  1
  F  F25  1  0.182041  0.889913  0.100291  1
  F  F26  1  0.487208  0.589447  0.981590  1
  F  F27  1  0.516851  0.413920  0.015386  1
  F  F28  1  0.455487  0.085896  0.868067  1
  F  F29  1  0.536351  0.925974  0.133531  1
  F  F30  1  0.288614  0.240712  0.611573  1
  F  F31  1  0.708834  0.759688  0.383647  1
  F  F32  1  0.259430  0.387061  0.674573  1
  F  F33  1  0.744893  0.607883  0.326180  1
  F  F34  1  0.556645  0.920227  0.837417  1
  F  F35  1  0.438936  0.095656  0.157387  1
