# generated using pymatgen
data_Nd3ThAl12Ga5SiIr6
_symmetry_space_group_name_H-M   'P 1'
_cell_length_a   7.61146600
_cell_length_b   7.61231220
_cell_length_c   9.66871600
_cell_angle_alpha   90.00000000
_cell_angle_beta   90.00000000
_cell_angle_gamma   119.53265207
_symmetry_Int_Tables_number   1
_chemical_formula_structural   Nd3ThAl12Ga5SiIr6
_chemical_formula_sum   'Nd3 Th1 Al12 Ga5 Si1 Ir6'
_cell_volume   487.42787507
_cell_formula_units_Z   1
loop_
 _symmetry_equiv_pos_site_id
 _symmetry_equiv_pos_as_xyz
  1  'x, y, z'
loop_
 _atom_site_type_symbol
 _atom_site_label
 _atom_site_symmetry_multiplicity
 _atom_site_fract_x
 _atom_site_fract_y
 _atom_site_fract_z
 _atom_site_occupancy
  Nd  Nd0  1  0.999652  0.326578  0.753467  1
  Nd  Nd1  1  0.675907  0.001395  0.247448  1
  Nd  Nd2  1  0.330680  0.007005  0.750342  1
  Th  Th3  1  0.995781  0.664233  0.247234  1
  Al  Al4  1  0.997124  0.669822  0.922425  1
  Al  Al5  1  0.998790  0.665622  0.574888  1
  Al  Al6  1  0.337496  0.003807  0.429936  1
  Al  Al7  1  0.004148  0.332306  0.434084  1
  Al  Al8  1  0.663930  0.997174  0.571930  1
  Al  Al9  1  0.659310  0.992493  0.925619  1
  Al  Al10  1  0.336490  0.004170  0.070800  1
  Al  Al11  1  0.334682  0.334523  0.556053  1
  Al  Al12  1  0.664529  0.666002  0.451936  1
  Al  Al13  1  0.662734  0.665029  0.049135  1
  Al  Al14  1  0.335948  0.334796  0.944953  1
  Al  Al15  1  0.448685  0.659795  0.749893  1
  Ga  Ga16  1  0.135495  0.133091  0.250705  1
  Ga  Ga17  1  0.868254  0.869962  0.749489  1
  Ga  Ga18  1  0.348530  0.548543  0.251321  1
  Ga  Ga19  1  0.660327  0.454754  0.749927  1
  Ga  Ga20  1  0.542475  0.339332  0.249626  1
  Si  Si21  1  0.000465  0.332037  0.067956  1
  Ir  Ir22  1  0.678895  0.330541  0.002152  1
  Ir  Ir23  1  0.319184  0.661836  0.000701  1
  Ir  Ir24  1  0.327994  0.669690  0.500146  1
  Ir  Ir25  1  0.673704  0.330859  0.497542  1
  Ir  Ir26  1  0.998867  0.006046  0.002980  1
  Ir  Ir27  1  0.999927  0.998561  0.497314  1
