# generated using pymatgen
data_Tm2Re7Si4Mo
_symmetry_space_group_name_H-M   'P 1'
_cell_length_a   7.12085619
_cell_length_b   7.64302419
_cell_length_c   4.17776200
_cell_angle_alpha   90.00000000
_cell_angle_beta   90.00000000
_cell_angle_gamma   90.12759507
_symmetry_Int_Tables_number   1
_chemical_formula_structural   Tm2Re7Si4Mo
_chemical_formula_sum   'Tm2 Re7 Si4 Mo1'
_cell_volume   227.37361570
_cell_formula_units_Z   1
loop_
 _symmetry_equiv_pos_site_id
 _symmetry_equiv_pos_as_xyz
  1  'x, y, z'
loop_
 _atom_site_type_symbol
 _atom_site_label
 _atom_site_symmetry_multiplicity
 _atom_site_fract_x
 _atom_site_fract_y
 _atom_site_fract_z
 _atom_site_occupancy
  Tm  Tm0  1  0.500899  0.498654  0.000000  1
  Tm  Tm1  1  0.999182  0.999969  0.500000  1
  Re  Re2  1  0.156514  0.604530  0.500000  1
  Re  Re3  1  0.085653  0.341183  0.000000  1
  Re  Re4  1  0.916113  0.657216  0.000000  1
  Re  Re5  1  0.414776  0.841082  0.500000  1
  Re  Re6  1  0.584272  0.163078  0.500000  1
  Re  Re7  1  0.343309  0.106636  0.000000  1
  Re  Re8  1  0.845547  0.394265  0.500000  1
  Si  Si9  1  0.221487  0.805518  0.000000  1
  Si  Si10  1  0.780052  0.196022  0.000000  1
  Si  Si11  1  0.722149  0.693564  0.500000  1
  Si  Si12  1  0.278482  0.304845  0.500000  1
  Mo  Mo13  1  0.651563  0.893439  0.000000  1
