# generated using pymatgen
data_Ta6Al3CuN2
_symmetry_space_group_name_H-M   'P 1'
_cell_length_a   7.01097382
_cell_length_b   7.00299205
_cell_length_c   7.01420300
_cell_angle_alpha   90.00000000
_cell_angle_beta   90.00000000
_cell_angle_gamma   90.13873874
_symmetry_Int_Tables_number   1
_chemical_formula_structural   Ta6Al3CuN2
_chemical_formula_sum   'Ta12 Al6 Cu2 N4'
_cell_volume   344.38088378
_cell_formula_units_Z   2
loop_
 _symmetry_equiv_pos_site_id
 _symmetry_equiv_pos_as_xyz
  1  'x, y, z'
loop_
 _atom_site_type_symbol
 _atom_site_label
 _atom_site_symmetry_multiplicity
 _atom_site_fract_x
 _atom_site_fract_y
 _atom_site_fract_z
 _atom_site_occupancy
  Ta  Ta0  1  0.792281  0.955812  0.375319  1
  Ta  Ta1  1  0.707719  0.044188  0.875319  1
  Ta  Ta2  1  0.203387  0.455494  0.127377  1
  Ta  Ta3  1  0.296613  0.544506  0.627377  1
  Ta  Ta4  1  0.955264  0.377665  0.793155  1
  Ta  Ta5  1  0.043110  0.870369  0.706117  1
  Ta  Ta6  1  0.456890  0.129631  0.206117  1
  Ta  Ta7  1  0.544736  0.622335  0.293155  1
  Ta  Ta8  1  0.377112  0.792720  0.955348  1
  Ta  Ta9  1  0.872436  0.705935  0.043674  1
  Ta  Ta10  1  0.122888  0.207280  0.455348  1
  Ta  Ta11  1  0.627564  0.294065  0.543674  1
  Al  Al12  1  0.822991  0.321028  0.176948  1
  Al  Al13  1  0.677009  0.678972  0.676948  1
  Al  Al14  1  0.560732  0.419150  0.925454  1
  Al  Al15  1  0.417488  0.933782  0.570937  1
  Al  Al16  1  0.939268  0.580850  0.425454  1
  Al  Al17  1  0.082512  0.066218  0.070937  1
  Cu  Cu18  1  0.182167  0.823751  0.318762  1
  Cu  Cu19  1  0.317833  0.176249  0.818762  1
  N  N20  1  0.878152  0.123379  0.627419  1
  N  N21  1  0.621848  0.876621  0.127419  1
  N  N22  1  0.126425  0.624229  0.879491  1
  N  N23  1  0.373575  0.375771  0.379491  1
