# generated using pymatgen
data_NaSmGa2(Ni3B)2
_symmetry_space_group_name_H-M   'P 1'
_cell_length_a   5.16455600
_cell_length_b   5.17735446
_cell_length_c   6.74632300
_cell_angle_alpha   90.00000000
_cell_angle_beta   90.00000000
_cell_angle_gamma   119.91826028
_symmetry_Int_Tables_number   1
_chemical_formula_structural   NaSmGa2(Ni3B)2
_chemical_formula_sum   'Na1 Sm1 Ga2 Ni6 B2'
_cell_volume   156.34924054
_cell_formula_units_Z   1
loop_
 _symmetry_equiv_pos_site_id
 _symmetry_equiv_pos_as_xyz
  1  'x, y, z'
loop_
 _atom_site_type_symbol
 _atom_site_label
 _atom_site_symmetry_multiplicity
 _atom_site_fract_x
 _atom_site_fract_y
 _atom_site_fract_z
 _atom_site_occupancy
  Na  Na0  1  0.999981  0.000000  0.000000  1
  Sm  Sm1  1  0.999983  0.000000  0.500000  1
  Ga  Ga2  1  0.333491  0.667018  0.000000  1
  Ga  Ga3  1  0.666474  0.332982  0.000000  1
  Ni  Ni4  1  0.499983  0.000000  0.297537  1
  Ni  Ni5  1  0.499983  0.499999  0.298186  1
  Ni  Ni6  1  0.999984  0.500001  0.298186  1
  Ni  Ni7  1  0.499983  0.000000  0.702463  1
  Ni  Ni8  1  0.499983  0.499999  0.701814  1
  Ni  Ni9  1  0.999984  0.500001  0.701814  1
  B  B10  1  0.333406  0.666843  0.500000  1
  B  B11  1  0.666562  0.333157  0.500000  1
