# generated using pymatgen
data_CeNdAg12
_symmetry_space_group_name_H-M   'P 1'
_cell_length_a   5.59306300
_cell_length_b   8.87026800
_cell_length_c   11.07462500
_cell_angle_alpha   90.00000000
_cell_angle_beta   90.00000000
_cell_angle_gamma   90.00000000
_symmetry_Int_Tables_number   1
_chemical_formula_structural   CeNdAg12
_chemical_formula_sum   'Ce2 Nd2 Ag24'
_cell_volume   549.43393835
_cell_formula_units_Z   2
loop_
 _symmetry_equiv_pos_site_id
 _symmetry_equiv_pos_as_xyz
  1  'x, y, z'
loop_
 _atom_site_type_symbol
 _atom_site_label
 _atom_site_symmetry_multiplicity
 _atom_site_fract_x
 _atom_site_fract_y
 _atom_site_fract_z
 _atom_site_occupancy
  Ce  Ce0  1  0.500000  0.239980  0.814935  1
  Ce  Ce1  1  0.500000  0.739980  0.185065  1
  Nd  Nd2  1  0.000000  0.759966  0.685263  1
  Nd  Nd3  1  0.000000  0.259966  0.314737  1
  Ag  Ag4  1  0.500000  0.353258  0.107306  1
  Ag  Ag5  1  0.500000  0.853258  0.892694  1
  Ag  Ag6  1  0.000000  0.647393  0.391688  1
  Ag  Ag7  1  0.000000  0.147393  0.608312  1
  Ag  Ag8  1  0.500000  0.682095  0.494438  1
  Ag  Ag9  1  0.500000  0.182095  0.505562  1
  Ag  Ag10  1  0.000000  0.317816  0.004548  1
  Ag  Ag11  1  0.000000  0.817816  0.995452  1
  Ag  Ag12  1  0.500000  0.938473  0.652555  1
  Ag  Ag13  1  0.500000  0.438473  0.347445  1
  Ag  Ag14  1  0.000000  0.063627  0.847891  1
  Ag  Ag15  1  0.000000  0.563627  0.152109  1
  Ag  Ag16  1  0.500000  0.598462  0.734720  1
  Ag  Ag17  1  0.500000  0.098462  0.265280  1
  Ag  Ag18  1  0.000000  0.399837  0.765668  1
  Ag  Ag19  1  0.000000  0.899837  0.234332  1
  Ag  Ag20  1  0.744629  0.064602  0.058581  1
  Ag  Ag21  1  0.255371  0.564602  0.941419  1
  Ag  Ag22  1  0.246094  0.934944  0.440654  1
  Ag  Ag23  1  0.753906  0.434944  0.559346  1
  Ag  Ag24  1  0.753906  0.934944  0.440654  1
  Ag  Ag25  1  0.246094  0.434944  0.559346  1
  Ag  Ag26  1  0.255371  0.064602  0.058581  1
  Ag  Ag27  1  0.744629  0.564602  0.941419  1
