# generated using pymatgen
data_Hf3(ScRe12)2
_symmetry_space_group_name_H-M   'P 1'
_cell_length_a   8.47231012
_cell_length_b   8.47230962
_cell_length_c   8.46943600
_cell_angle_alpha   109.46435480
_cell_angle_beta   109.46435361
_cell_angle_gamma   109.47808460
_symmetry_Int_Tables_number   1
_chemical_formula_structural   Hf3(ScRe12)2
_chemical_formula_sum   'Hf3 Sc2 Re24'
_cell_volume   468.02932656
_cell_formula_units_Z   1
loop_
 _symmetry_equiv_pos_site_id
 _symmetry_equiv_pos_as_xyz
  1  'x, y, z'
loop_
 _atom_site_type_symbol
 _atom_site_label
 _atom_site_symmetry_multiplicity
 _atom_site_fract_x
 _atom_site_fract_y
 _atom_site_fract_z
 _atom_site_occupancy
  Hf  Hf0  1  0.369114  0.369114  0.369266  1
  Hf  Hf1  1  0.000000  0.630886  0.000151  1
  Hf  Hf2  1  0.630886  0.000000  0.000151  1
  Sc  Sc3  1  0.000000  0.000000  0.630657  1
  Sc  Sc4  1  0.000000  0.000000  0.997563  1
  Re  Re5  1  0.000000  0.396409  0.676901  1
  Re  Re6  1  0.279857  0.603684  0.602604  1
  Re  Re7  1  0.720143  0.323828  0.322747  1
  Re  Re8  1  0.323828  0.720143  0.322747  1
  Re  Re9  1  0.676636  0.000000  0.396867  1
  Re  Re10  1  0.000000  0.676636  0.396867  1
  Re  Re11  1  0.603591  0.603591  0.280493  1
  Re  Re12  1  0.807121  0.807121  0.183775  1
  Re  Re13  1  0.375953  0.192413  0.999820  1
  Re  Re14  1  0.192413  0.375953  0.999820  1
  Re  Re15  1  0.624047  0.816460  0.623867  1
  Re  Re16  1  0.377021  0.000000  0.194387  1
  Re  Re17  1  0.000000  0.377021  0.194387  1
  Re  Re18  1  0.816460  0.624047  0.623867  1
  Re  Re19  1  0.183540  0.807587  0.807407  1
  Re  Re20  1  0.807587  0.183540  0.807407  1
  Re  Re21  1  0.192879  0.000000  0.376654  1
  Re  Re22  1  0.000000  0.192879  0.376654  1
  Re  Re23  1  0.622979  0.622979  0.817366  1
  Re  Re24  1  0.396409  0.000000  0.676901  1
  Re  Re25  1  0.603684  0.279857  0.602604  1
  Re  Re26  1  0.676172  0.396316  0.998920  1
  Re  Re27  1  0.396316  0.676172  0.998920  1
  Re  Re28  1  0.323364  0.323364  0.720230  1
