# generated using pymatgen
data_K2CaB2Pt7
_symmetry_space_group_name_H-M   'P 1'
_cell_length_a   8.36501364
_cell_length_b   8.36501322
_cell_length_c   8.36501400
_cell_angle_alpha   38.96574929
_cell_angle_beta   38.96575284
_cell_angle_gamma   38.96574588
_symmetry_Int_Tables_number   1
_chemical_formula_structural   K2CaB2Pt7
_chemical_formula_sum   'K2 Ca1 B2 Pt7'
_cell_volume   208.15468098
_cell_formula_units_Z   1
loop_
 _symmetry_equiv_pos_site_id
 _symmetry_equiv_pos_as_xyz
  1  'x, y, z'
loop_
 _atom_site_type_symbol
 _atom_site_label
 _atom_site_symmetry_multiplicity
 _atom_site_fract_x
 _atom_site_fract_y
 _atom_site_fract_z
 _atom_site_occupancy
  K  K0  1  0.854454  0.854454  0.854454  1
  K  K1  1  0.145546  0.145546  0.145546  1
  Ca  Ca2  1  0.000000  0.000000  0.000000  1
  B  B3  1  0.668586  0.668586  0.668586  1
  B  B4  1  0.331414  0.331414  0.331414  1
  Pt  Pt5  1  0.438673  0.931120  0.438673  1
  Pt  Pt6  1  0.438673  0.438673  0.931120  1
  Pt  Pt7  1  0.931120  0.438673  0.438673  1
  Pt  Pt8  1  0.561327  0.068880  0.561327  1
  Pt  Pt9  1  0.561327  0.561327  0.068880  1
  Pt  Pt10  1  0.068880  0.561327  0.561327  1
  Pt  Pt11  1  0.500000  0.500000  0.500000  1
