# generated using pymatgen
data_NaTh3(Ga3Rh)6
_symmetry_space_group_name_H-M   'P 1'
_cell_length_a   7.67429524
_cell_length_b   7.69289462
_cell_length_c   9.55181400
_cell_angle_alpha   90.00000000
_cell_angle_beta   90.00000000
_cell_angle_gamma   119.51450412
_symmetry_Int_Tables_number   1
_chemical_formula_structural   NaTh3(Ga3Rh)6
_chemical_formula_sum   'Na1 Th3 Ga18 Rh6'
_cell_volume   490.73688301
_cell_formula_units_Z   1
loop_
 _symmetry_equiv_pos_site_id
 _symmetry_equiv_pos_as_xyz
  1  'x, y, z'
loop_
 _atom_site_type_symbol
 _atom_site_label
 _atom_site_symmetry_multiplicity
 _atom_site_fract_x
 _atom_site_fract_y
 _atom_site_fract_z
 _atom_site_occupancy
  Na  Na0  1  0.328445  0.006526  0.250000  1
  Th  Th1  1  0.998768  0.672164  0.750000  1
  Th  Th2  1  0.002095  0.329115  0.250000  1
  Th  Th3  1  0.669529  0.995916  0.750000  1
  Ga  Ga4  1  0.134481  0.131103  0.750000  1
  Ga  Ga5  1  0.873928  0.872951  0.250000  1
  Ga  Ga6  1  0.005428  0.335567  0.580221  1
  Ga  Ga7  1  0.004573  0.674027  0.416326  1
  Ga  Ga8  1  0.004573  0.674027  0.083674  1
  Ga  Ga9  1  0.335373  0.003980  0.930588  1
  Ga  Ga10  1  0.005428  0.335567  0.919779  1
  Ga  Ga11  1  0.654372  0.994637  0.083376  1
  Ga  Ga12  1  0.654372  0.994637  0.416624  1
  Ga  Ga13  1  0.335373  0.003980  0.569412  1
  Ga  Ga14  1  0.336246  0.328840  0.059659  1
  Ga  Ga15  1  0.664332  0.663836  0.946884  1
  Ga  Ga16  1  0.664332  0.663836  0.553116  1
  Ga  Ga17  1  0.336246  0.328840  0.440341  1
  Ga  Ga18  1  0.341606  0.543645  0.750000  1
  Ga  Ga19  1  0.657134  0.448375  0.250000  1
  Ga  Ga20  1  0.543265  0.338568  0.750000  1
  Ga  Ga21  1  0.451086  0.660190  0.250000  1
  Rh  Rh22  1  0.677305  0.331790  0.501986  1
  Rh  Rh23  1  0.326852  0.667264  0.502668  1
  Rh  Rh24  1  0.326852  0.667264  0.997332  1
  Rh  Rh25  1  0.677305  0.331790  0.998014  1
  Rh  Rh26  1  0.995351  0.000781  0.502182  1
  Rh  Rh27  1  0.995351  0.000781  0.997818  1
