# generated using pymatgen
data_CaEr(ReN3)2
_symmetry_space_group_name_H-M   'P 1'
_cell_length_a   7.39923551
_cell_length_b   7.39923697
_cell_length_c   6.24857419
_cell_angle_alpha   73.81266776
_cell_angle_beta   73.81265601
_cell_angle_gamma   83.71839151
_symmetry_Int_Tables_number   1
_chemical_formula_structural   CaEr(ReN3)2
_chemical_formula_sum   'Ca2 Er2 Re4 N12'
_cell_volume   315.32758263
_cell_formula_units_Z   2
loop_
 _symmetry_equiv_pos_site_id
 _symmetry_equiv_pos_as_xyz
  1  'x, y, z'
loop_
 _atom_site_type_symbol
 _atom_site_label
 _atom_site_symmetry_multiplicity
 _atom_site_fract_x
 _atom_site_fract_y
 _atom_site_fract_z
 _atom_site_occupancy
  Ca  Ca0  1  0.708462  0.291538  0.250000  1
  Ca  Ca1  1  0.291538  0.708462  0.750000  1
  Er  Er2  1  0.908724  0.091276  0.750000  1
  Er  Er3  1  0.091276  0.908724  0.250000  1
  Re  Re4  1  0.623429  0.795838  0.272475  1
  Re  Re5  1  0.204162  0.376571  0.227525  1
  Re  Re6  1  0.376571  0.204162  0.727525  1
  Re  Re7  1  0.795838  0.623429  0.772475  1
  N  N8  1  0.663769  0.638645  0.070178  1
  N  N9  1  0.382158  0.874733  0.317948  1
  N  N10  1  0.361355  0.336231  0.429822  1
  N  N11  1  0.125267  0.617842  0.182052  1
  N  N12  1  0.013521  0.211238  0.346888  1
  N  N13  1  0.788762  0.986479  0.153112  1
  N  N14  1  0.211238  0.013521  0.846888  1
  N  N15  1  0.617842  0.125267  0.682052  1
  N  N16  1  0.336231  0.361355  0.929822  1
  N  N17  1  0.874733  0.382158  0.817948  1
  N  N18  1  0.638645  0.663769  0.570178  1
  N  N19  1  0.986479  0.788762  0.653112  1
