# generated using pymatgen
data_LaCeNp4F18
_symmetry_space_group_name_H-M   'P 1'
_cell_length_a   7.18726113
_cell_length_b   7.18725817
_cell_length_c   7.33427600
_cell_angle_alpha   89.76926201
_cell_angle_beta   89.98901479
_cell_angle_gamma   119.98706122
_symmetry_Int_Tables_number   1
_chemical_formula_structural   LaCeNp4F18
_chemical_formula_sum   'La1 Ce1 Np4 F18'
_cell_volume   328.14533170
_cell_formula_units_Z   1
loop_
 _symmetry_equiv_pos_site_id
 _symmetry_equiv_pos_as_xyz
  1  'x, y, z'
loop_
 _atom_site_type_symbol
 _atom_site_label
 _atom_site_symmetry_multiplicity
 _atom_site_fract_x
 _atom_site_fract_y
 _atom_site_fract_z
 _atom_site_occupancy
  La  La0  1  0.656471  0.656725  0.749548  1
  Ce  Ce1  1  0.654540  0.000134  0.249717  1
  Np  Np2  1  0.998984  0.342479  0.750444  1
  Np  Np3  1  0.343904  0.999377  0.749585  1
  Np  Np4  1  0.342526  0.343601  0.250042  1
  Np  Np5  1  0.999321  0.656599  0.249826  1
  F  F6  1  0.002158  0.001476  0.750345  1
  F  F7  1  0.999857  0.999849  0.250130  1
  F  F8  1  0.331944  0.666680  0.681165  1
  F  F9  1  0.666867  0.332129  0.818779  1
  F  F10  1  0.666915  0.334169  0.318165  1
  F  F11  1  0.332349  0.666134  0.181972  1
  F  F12  1  0.371812  0.062712  0.079189  1
  F  F13  1  0.938845  0.310130  0.080589  1
  F  F14  1  0.689964  0.626219  0.080337  1
  F  F15  1  0.309628  0.937617  0.420476  1
  F  F16  1  0.628592  0.689983  0.417568  1
  F  F17  1  0.063718  0.373703  0.421964  1
  F  F18  1  0.628608  0.939508  0.919430  1
  F  F19  1  0.062847  0.689470  0.921359  1
  F  F20  1  0.308551  0.371761  0.921233  1
  F  F21  1  0.689961  0.062433  0.580631  1
  F  F22  1  0.371849  0.308697  0.578798  1
  F  F23  1  0.939790  0.628417  0.578707  1
