# generated using pymatgen
data_Dy5Ho(Sb4Au3)2
_symmetry_space_group_name_H-M   'P 1'
_cell_length_a   8.60975313
_cell_length_b   8.60965246
_cell_length_c   8.61002879
_cell_angle_alpha   109.49769741
_cell_angle_beta   109.49534941
_cell_angle_gamma   109.42181922
_symmetry_Int_Tables_number   1
_chemical_formula_structural   Dy5Ho(Sb4Au3)2
_chemical_formula_sum   'Dy5 Ho1 Sb8 Au6'
_cell_volume   491.30636870
_cell_formula_units_Z   1
loop_
 _symmetry_equiv_pos_site_id
 _symmetry_equiv_pos_as_xyz
  1  'x, y, z'
loop_
 _atom_site_type_symbol
 _atom_site_label
 _atom_site_symmetry_multiplicity
 _atom_site_fract_x
 _atom_site_fract_y
 _atom_site_fract_z
 _atom_site_occupancy
  Dy  Dy0  1  0.250040  0.125001  0.874979  1
  Dy  Dy1  1  0.750023  0.375070  0.625022  1
  Dy  Dy2  1  0.875017  0.249986  0.125052  1
  Dy  Dy3  1  0.124997  0.874995  0.249988  1
  Dy  Dy4  1  0.624931  0.749956  0.374945  1
  Ho  Ho5  1  0.375001  0.624988  0.750045  1
  Sb  Sb6  1  0.321461  0.321481  0.321546  1
  Sb  Sb7  1  0.499935  0.999913  0.178454  1
  Sb  Sb8  1  0.178786  0.500117  0.999996  1
  Sb  Sb9  1  0.000114  0.178790  0.499997  1
  Sb  Sb10  1  0.821209  0.821217  0.821328  1
  Sb  Sb11  1  0.499884  0.999886  0.678672  1
  Sb  Sb12  1  0.000089  0.678542  0.500028  1
  Sb  Sb13  1  0.678512  0.500058  0.999966  1
  Au  Au14  1  0.375087  0.250985  0.625416  1
  Au  Au15  1  0.749023  0.874435  0.124103  1
  Au  Au16  1  0.250338  0.624923  0.375898  1
  Au  Au17  1  0.625005  0.375001  0.250001  1
  Au  Au18  1  0.125557  0.749658  0.874572  1
  Au  Au19  1  0.874992  0.124997  0.749995  1
