# generated using pymatgen
data_Er18TmLuPb16
_symmetry_space_group_name_H-M   'P 1'
_cell_length_a   8.16194203
_cell_length_b   8.21480513
_cell_length_c   15.51966000
_cell_angle_alpha   90.00000000
_cell_angle_beta   90.00000000
_cell_angle_gamma   89.94706337
_symmetry_Int_Tables_number   1
_chemical_formula_structural   Er18TmLuPb16
_chemical_formula_sum   'Er18 Tm1 Lu1 Pb16'
_cell_volume   1040.57356497
_cell_formula_units_Z   1
loop_
 _symmetry_equiv_pos_site_id
 _symmetry_equiv_pos_as_xyz
  1  'x, y, z'
loop_
 _atom_site_type_symbol
 _atom_site_label
 _atom_site_symmetry_multiplicity
 _atom_site_fract_x
 _atom_site_fract_y
 _atom_site_fract_z
 _atom_site_occupancy
  Er  Er0  1  0.377721  0.841738  0.878495  1
  Er  Er1  1  0.878171  0.657835  0.621424  1
  Er  Er2  1  0.621951  0.158118  0.378501  1
  Er  Er3  1  0.122112  0.341868  0.121317  1
  Er  Er4  1  0.621951  0.158118  0.121499  1
  Er  Er5  1  0.122112  0.341868  0.378683  1
  Er  Er6  1  0.377721  0.841738  0.621505  1
  Er  Er7  1  0.878171  0.657835  0.878576  1
  Er  Er8  1  0.539346  0.324676  0.899990  1
  Er  Er9  1  0.039436  0.175768  0.599887  1
  Er  Er10  1  0.460579  0.675533  0.400062  1
  Er  Er11  1  0.960676  0.824486  0.099950  1
  Er  Er12  1  0.460579  0.675533  0.099938  1
  Er  Er13  1  0.960676  0.824486  0.400050  1
  Er  Er14  1  0.539346  0.324676  0.600010  1
  Er  Er15  1  0.039436  0.175768  0.900113  1
  Er  Er16  1  0.709170  0.995689  0.750000  1
  Er  Er17  1  0.790772  0.495654  0.250000  1
  Tm  Tm18  1  0.290707  0.004436  0.250000  1
  Lu  Lu19  1  0.209227  0.504473  0.750000  1
  Pb  Pb20  1  0.280522  0.032512  0.042773  1
  Pb  Pb21  1  0.780363  0.467377  0.457345  1
  Pb  Pb22  1  0.719621  0.967453  0.542674  1
  Pb  Pb23  1  0.219724  0.532490  0.957070  1
  Pb  Pb24  1  0.719621  0.967453  0.957326  1
  Pb  Pb25  1  0.219724  0.532490  0.542930  1
  Pb  Pb26  1  0.280522  0.032512  0.457227  1
  Pb  Pb27  1  0.780363  0.467377  0.042655  1
  Pb  Pb28  1  0.571377  0.625897  0.750000  1
  Pb  Pb29  1  0.071876  0.873309  0.750000  1
  Pb  Pb30  1  0.427868  0.374048  0.250000  1
  Pb  Pb31  1  0.928221  0.126083  0.250000  1
  Pb  Pb32  1  0.350399  0.156126  0.750000  1
  Pb  Pb33  1  0.851168  0.344520  0.750000  1
  Pb  Pb34  1  0.649370  0.844611  0.250000  1
  Pb  Pb35  1  0.149399  0.655447  0.250000  1
