# generated using pymatgen
data_Mg2U3Pa3Sb10
_symmetry_space_group_name_H-M   'P 1'
_cell_length_a   9.28192700
_cell_length_b   9.28408114
_cell_length_c   6.19552300
_cell_angle_alpha   90.00000000
_cell_angle_beta   90.00000000
_cell_angle_gamma   119.99233566
_symmetry_Int_Tables_number   1
_chemical_formula_structural   Mg2U3Pa3Sb10
_chemical_formula_sum   'Mg2 U3 Pa3 Sb10'
_cell_volume   462.40148146
_cell_formula_units_Z   1
loop_
 _symmetry_equiv_pos_site_id
 _symmetry_equiv_pos_as_xyz
  1  'x, y, z'
loop_
 _atom_site_type_symbol
 _atom_site_label
 _atom_site_symmetry_multiplicity
 _atom_site_fract_x
 _atom_site_fract_y
 _atom_site_fract_z
 _atom_site_occupancy
  Mg  Mg0  1  0.999529  0.000000  0.500297  1
  Mg  Mg1  1  0.999529  0.000000  0.999703  1
  U  U2  1  0.999720  0.386004  0.750000  1
  U  U3  1  0.613716  0.613996  0.750000  1
  U  U4  1  0.613789  0.000000  0.250000  1
  Pa  Pa5  1  0.387590  0.000000  0.750000  1
  Pa  Pa6  1  0.386524  0.386871  0.250000  1
  Pa  Pa7  1  0.999653  0.613129  0.250000  1
  Sb  Sb8  1  0.333346  0.666812  0.500009  1
  Sb  Sb9  1  0.666535  0.333188  0.999991  1
  Sb  Sb10  1  0.666535  0.333188  0.500009  1
  Sb  Sb11  1  0.333346  0.666812  0.999991  1
  Sb  Sb12  1  0.730344  0.000000  0.750000  1
  Sb  Sb13  1  0.731025  0.730990  0.250000  1
  Sb  Sb14  1  0.000035  0.269010  0.250000  1
  Sb  Sb15  1  0.000403  0.730638  0.750000  1
  Sb  Sb16  1  0.268620  0.000000  0.250000  1
  Sb  Sb17  1  0.269765  0.269362  0.750000  1
