# generated using pymatgen
data_Pr3Dy4Ho(CdPt)2
_symmetry_space_group_name_H-M   'P 1'
_cell_length_a   9.82785722
_cell_length_b   9.82785661
_cell_length_c   9.82430100
_cell_angle_alpha   60.01195708
_cell_angle_beta   60.01195911
_cell_angle_gamma   59.97606882
_symmetry_Int_Tables_number   1
_chemical_formula_structural   Pr3Dy4Ho(CdPt)2
_chemical_formula_sum   'Pr6 Dy8 Ho2 Cd4 Pt4'
_cell_volume   670.97161701
_cell_formula_units_Z   2
loop_
 _symmetry_equiv_pos_site_id
 _symmetry_equiv_pos_as_xyz
  1  'x, y, z'
loop_
 _atom_site_type_symbol
 _atom_site_label
 _atom_site_symmetry_multiplicity
 _atom_site_fract_x
 _atom_site_fract_y
 _atom_site_fract_z
 _atom_site_occupancy
  Pr  Pr0  1  0.938624  0.561376  0.561376  1
  Pr  Pr1  1  0.561376  0.938624  0.938624  1
  Pr  Pr2  1  0.561376  0.938624  0.561376  1
  Pr  Pr3  1  0.938624  0.561376  0.938624  1
  Pr  Pr4  1  0.561414  0.561414  0.938586  1
  Pr  Pr5  1  0.938586  0.938586  0.561414  1
  Dy  Dy6  1  0.350195  0.350195  0.350350  1
  Dy  Dy7  1  0.350195  0.350195  0.949261  1
  Dy  Dy8  1  0.350350  0.949261  0.350195  1
  Dy  Dy9  1  0.949261  0.350350  0.350195  1
  Dy  Dy10  1  0.812498  0.187502  0.187502  1
  Dy  Dy11  1  0.187502  0.812498  0.812498  1
  Dy  Dy12  1  0.187502  0.812498  0.187502  1
  Dy  Dy13  1  0.812498  0.187502  0.812498  1
  Ho  Ho14  1  0.187710  0.187710  0.812290  1
  Ho  Ho15  1  0.812290  0.812290  0.187710  1
  Cd  Cd16  1  0.579379  0.579379  0.579176  1
  Cd  Cd17  1  0.579379  0.579379  0.262066  1
  Cd  Cd18  1  0.579176  0.262066  0.579379  1
  Cd  Cd19  1  0.262066  0.579176  0.579379  1
  Pt  Pt20  1  0.142731  0.142731  0.142781  1
  Pt  Pt21  1  0.142731  0.142731  0.571758  1
  Pt  Pt22  1  0.142781  0.571758  0.142731  1
  Pt  Pt23  1  0.571758  0.142781  0.142731  1
