# generated using pymatgen
data_Cs6Rb3AlBi3Sb
_symmetry_space_group_name_H-M   'P 1'
_cell_length_a   11.46716400
_cell_length_b   11.48471422
_cell_length_c   12.07579400
_cell_angle_alpha   90.00000000
_cell_angle_beta   90.00000000
_cell_angle_gamma   119.94945673
_symmetry_Int_Tables_number   1
_chemical_formula_structural   Cs6Rb3AlBi3Sb
_chemical_formula_sum   'Cs12 Rb6 Al2 Bi6 Sb2'
_cell_volume   1377.98188499
_cell_formula_units_Z   2
loop_
 _symmetry_equiv_pos_site_id
 _symmetry_equiv_pos_as_xyz
  1  'x, y, z'
loop_
 _atom_site_type_symbol
 _atom_site_label
 _atom_site_symmetry_multiplicity
 _atom_site_fract_x
 _atom_site_fract_y
 _atom_site_fract_z
 _atom_site_occupancy
  Cs  Cs0  1  0.209540  0.418590  0.541978  1
  Cs  Cs1  1  0.791138  0.209627  0.042207  1
  Cs  Cs2  1  0.418453  0.209366  0.041693  1
  Cs  Cs3  1  0.581514  0.790373  0.542207  1
  Cs  Cs4  1  0.209089  0.790634  0.541693  1
  Cs  Cs5  1  0.790948  0.581410  0.458022  1
  Cs  Cs6  1  0.791138  0.209627  0.457793  1
  Cs  Cs7  1  0.790948  0.581410  0.041978  1
  Cs  Cs8  1  0.418453  0.209366  0.458307  1
  Cs  Cs9  1  0.581514  0.790373  0.957793  1
  Cs  Cs10  1  0.209540  0.418590  0.958022  1
  Cs  Cs11  1  0.209089  0.790634  0.958307  1
  Rb  Rb12  1  0.118647  0.238461  0.250000  1
  Rb  Rb13  1  0.881136  0.118909  0.750000  1
  Rb  Rb14  1  0.238493  0.119853  0.750000  1
  Rb  Rb15  1  0.762229  0.881091  0.250000  1
  Rb  Rb16  1  0.118641  0.880147  0.250000  1
  Rb  Rb17  1  0.880183  0.761539  0.750000  1
  Al  Al18  1  0.328865  0.664581  0.250000  1
  Al  Al19  1  0.664285  0.335419  0.750000  1
  Bi  Bi20  1  0.473079  0.526767  0.250000  1
  Bi  Bi21  1  0.946312  0.473233  0.750000  1
  Bi  Bi22  1  0.526860  0.053876  0.750000  1
  Bi  Bi23  1  0.472984  0.946124  0.250000  1
  Bi  Bi24  1  0.999997  0.000000  0.000000  1
  Bi  Bi25  1  0.999997  0.000000  0.500000  1
  Sb  Sb26  1  0.057951  0.528971  0.250000  1
  Sb  Sb27  1  0.528980  0.471029  0.750000  1
