# generated using pymatgen
data_Tb8Y2In8CoPd3
_symmetry_space_group_name_H-M   'P 1'
_cell_length_a   8.14240700
_cell_length_b   18.28309659
_cell_length_c   3.62420700
_cell_angle_alpha   90.00000000
_cell_angle_beta   90.00000000
_cell_angle_gamma   90.08240217
_symmetry_Int_Tables_number   1
_chemical_formula_structural   Tb8Y2In8CoPd3
_chemical_formula_sum   'Tb8 Y2 In8 Co1 Pd3'
_cell_volume   539.52938882
_cell_formula_units_Z   1
loop_
 _symmetry_equiv_pos_site_id
 _symmetry_equiv_pos_as_xyz
  1  'x, y, z'
loop_
 _atom_site_type_symbol
 _atom_site_label
 _atom_site_symmetry_multiplicity
 _atom_site_fract_x
 _atom_site_fract_y
 _atom_site_fract_z
 _atom_site_occupancy
  Tb  Tb0  1  0.728673  0.275900  0.000000  1
  Tb  Tb1  1  0.258772  0.719408  0.000000  1
  Tb  Tb2  1  0.757461  0.780445  0.000000  1
  Tb  Tb3  1  0.261035  0.219416  0.000000  1
  Tb  Tb4  1  0.613326  0.090223  0.000000  1
  Tb  Tb5  1  0.381825  0.918245  0.000000  1
  Tb  Tb6  1  0.880919  0.582129  0.000000  1
  Tb  Tb7  1  0.119254  0.414686  0.000000  1
  Y  Y8  1  0.500125  0.498871  0.000000  1
  Y  Y9  1  0.000248  0.001627  0.000000  1
  In  In10  1  0.708167  0.933686  0.500000  1
  In  In11  1  0.293985  0.071068  0.500000  1
  In  In12  1  0.791766  0.429738  0.500000  1
  In  In13  1  0.207645  0.567330  0.500000  1
  In  In14  1  0.576996  0.649701  0.500000  1
  In  In15  1  0.426651  0.347840  0.500000  1
  In  In16  1  0.924421  0.150845  0.500000  1
  In  In17  1  0.077477  0.850480  0.500000  1
  Co  Co18  1  0.519070  0.194933  0.500000  1
  Pd  Pd19  1  0.474639  0.804771  0.500000  1
  Pd  Pd20  1  0.974993  0.695757  0.500000  1
  Pd  Pd21  1  0.022551  0.302897  0.500000  1
