# generated using pymatgen
data_DyTm2Zr2Sc(SnIr)6
_symmetry_space_group_name_H-M   'P 1'
_cell_length_a   7.47571100
_cell_length_b   7.46792212
_cell_length_c   7.58169400
_cell_angle_alpha   90.00000000
_cell_angle_beta   90.00000000
_cell_angle_gamma   119.96515369
_symmetry_Int_Tables_number   1
_chemical_formula_structural   DyTm2Zr2Sc(SnIr)6
_chemical_formula_sum   'Dy1 Tm2 Zr2 Sc1 Sn6 Ir6'
_cell_volume   366.69210229
_cell_formula_units_Z   1
loop_
 _symmetry_equiv_pos_site_id
 _symmetry_equiv_pos_as_xyz
  1  'x, y, z'
loop_
 _atom_site_type_symbol
 _atom_site_label
 _atom_site_symmetry_multiplicity
 _atom_site_fract_x
 _atom_site_fract_y
 _atom_site_fract_z
 _atom_site_occupancy
  Dy  Dy0  1  0.999198  0.405869  0.250000  1
  Tm  Tm1  1  0.404568  0.998927  0.250000  1
  Tm  Tm2  1  0.595304  0.595399  0.250000  1
  Zr  Zr3  1  0.000934  0.395295  0.750000  1
  Zr  Zr4  1  0.395141  0.000148  0.750000  1
  Sc  Sc5  1  0.605463  0.606214  0.750000  1
  Sn  Sn6  1  0.269002  0.268305  0.504178  1
  Sn  Sn7  1  0.269002  0.268305  0.995822  1
  Sn  Sn8  1  0.733284  0.997437  0.993835  1
  Sn  Sn9  1  0.997198  0.733547  0.507533  1
  Sn  Sn10  1  0.733284  0.997437  0.506165  1
  Sn  Sn11  1  0.997198  0.733547  0.992467  1
  Ir  Ir12  1  0.666299  0.330457  0.527653  1
  Ir  Ir13  1  0.666299  0.330457  0.972347  1
  Ir  Ir14  1  0.331502  0.667660  0.973499  1
  Ir  Ir15  1  0.331502  0.667660  0.526501  1
  Ir  Ir16  1  0.004636  0.005233  0.750000  1
  Ir  Ir17  1  0.000187  0.998100  0.250000  1
