# generated using pymatgen
data_Dy3MgAs6Ru7
_symmetry_space_group_name_H-M   'P 1'
_cell_length_a   7.14069499
_cell_length_b   7.29623019
_cell_length_c   7.14069422
_cell_angle_alpha   109.91305434
_cell_angle_beta   109.02579946
_cell_angle_gamma   109.91305179
_symmetry_Int_Tables_number   1
_chemical_formula_structural   Dy3MgAs6Ru7
_chemical_formula_sum   'Dy3 Mg1 As6 Ru7'
_cell_volume   284.81333134
_cell_formula_units_Z   1
loop_
 _symmetry_equiv_pos_site_id
 _symmetry_equiv_pos_as_xyz
  1  'x, y, z'
loop_
 _atom_site_type_symbol
 _atom_site_label
 _atom_site_symmetry_multiplicity
 _atom_site_fract_x
 _atom_site_fract_y
 _atom_site_fract_z
 _atom_site_occupancy
  Dy  Dy0  1  0.000000  0.000000  0.500000  1
  Dy  Dy1  1  0.500000  0.000000  0.000000  1
  Dy  Dy2  1  0.500000  0.500000  0.500000  1
  Mg  Mg3  1  0.000000  0.500000  0.000000  1
  As  As4  1  0.310866  0.995137  0.310866  1
  As  As5  1  0.000000  0.315729  0.310866  1
  As  As6  1  0.000000  0.684271  0.689134  1
  As  As7  1  0.310866  0.315729  0.000000  1
  As  As8  1  0.689134  0.684271  0.000000  1
  As  As9  1  0.689134  0.004863  0.689134  1
  Ru  Ru10  1  0.755637  0.500000  0.244363  1
  Ru  Ru11  1  0.488726  0.744363  0.244363  1
  Ru  Ru12  1  0.511274  0.255637  0.755637  1
  Ru  Ru13  1  0.755637  0.255637  0.511274  1
  Ru  Ru14  1  0.244363  0.744363  0.488726  1
  Ru  Ru15  1  0.244363  0.500000  0.755637  1
  Ru  Ru16  1  0.000000  0.000000  0.000000  1
