# generated using pymatgen
data_Nb2V3Co9P7
_symmetry_space_group_name_H-M   'P 1'
_cell_length_a   3.55176400
_cell_length_b   8.99940531
_cell_length_c   8.99940700
_cell_angle_alpha   119.99999517
_cell_angle_beta   90.00000000
_cell_angle_gamma   90.00000000
_symmetry_Int_Tables_number   1
_chemical_formula_structural   Nb2V3Co9P7
_chemical_formula_sum   'Nb2 V3 Co9 P7'
_cell_volume   249.11648021
_cell_formula_units_Z   1
loop_
 _symmetry_equiv_pos_site_id
 _symmetry_equiv_pos_as_xyz
  1  'x, y, z'
loop_
 _atom_site_type_symbol
 _atom_site_label
 _atom_site_symmetry_multiplicity
 _atom_site_fract_x
 _atom_site_fract_y
 _atom_site_fract_z
 _atom_site_occupancy
  Nb  Nb0  1  0.000000  0.666667  0.333333  1
  Nb  Nb1  1  0.500000  0.333333  0.666667  1
  V  V2  1  0.500000  0.778698  0.904147  1
  V  V3  1  0.500000  0.125449  0.221302  1
  V  V4  1  0.500000  0.095853  0.874551  1
  Co  Co5  1  0.000000  0.562088  0.931850  1
  Co  Co6  1  0.000000  0.369762  0.437912  1
  Co  Co7  1  0.000000  0.068150  0.630238  1
  Co  Co8  1  0.000000  0.877368  0.162082  1
  Co  Co9  1  0.000000  0.284714  0.122632  1
  Co  Co10  1  0.000000  0.837918  0.715286  1
  Co  Co11  1  0.500000  0.945694  0.387610  1
  Co  Co12  1  0.500000  0.441914  0.054306  1
  Co  Co13  1  0.500000  0.612390  0.558086  1
  P  P14  1  0.000000  0.000000  0.000000  1
  P  P15  1  0.500000  0.710344  0.122040  1
  P  P16  1  0.500000  0.411695  0.289656  1
  P  P17  1  0.500000  0.877960  0.588305  1
  P  P18  1  0.000000  0.584077  0.701547  1
  P  P19  1  0.000000  0.117470  0.415923  1
  P  P20  1  0.000000  0.298453  0.882530  1
