# generated using pymatgen
data_YbAgGePt3
_symmetry_space_group_name_H-M   'P 1'
_cell_length_a   5.14044338
_cell_length_b   5.14044345
_cell_length_c   5.14044364
_cell_angle_alpha   65.08300523
_cell_angle_beta   65.08299414
_cell_angle_gamma   65.08299762
_symmetry_Int_Tables_number   1
_chemical_formula_structural   YbAgGePt3
_chemical_formula_sum   'Yb1 Ag1 Ge1 Pt3'
_cell_volume   106.70093941
_cell_formula_units_Z   1
loop_
 _symmetry_equiv_pos_site_id
 _symmetry_equiv_pos_as_xyz
  1  'x, y, z'
loop_
 _atom_site_type_symbol
 _atom_site_label
 _atom_site_symmetry_multiplicity
 _atom_site_fract_x
 _atom_site_fract_y
 _atom_site_fract_z
 _atom_site_occupancy
  Yb  Yb0  1  0.621807  0.621807  0.621807  1
  Ag  Ag1  1  0.375488  0.375488  0.375488  1
  Ge  Ge2  1  0.000567  0.000567  0.000567  1
  Pt  Pt3  1  0.498964  0.001586  0.001586  1
  Pt  Pt4  1  0.001586  0.498964  0.001586  1
  Pt  Pt5  1  0.001586  0.001586  0.498964  1
