# generated using pymatgen
data_YbYTm2(Ga2Ag)4
_symmetry_space_group_name_H-M   'P 1'
_cell_length_a   4.34696400
_cell_length_b   6.95997440
_cell_length_c   10.25567515
_cell_angle_alpha   90.35657428
_cell_angle_beta   90.00000000
_cell_angle_gamma   90.00000000
_symmetry_Int_Tables_number   1
_chemical_formula_structural   YbYTm2(Ga2Ag)4
_chemical_formula_sum   'Yb1 Y1 Tm2 Ga8 Ag4'
_cell_volume   310.27696263
_cell_formula_units_Z   1
loop_
 _symmetry_equiv_pos_site_id
 _symmetry_equiv_pos_as_xyz
  1  'x, y, z'
loop_
 _atom_site_type_symbol
 _atom_site_label
 _atom_site_symmetry_multiplicity
 _atom_site_fract_x
 _atom_site_fract_y
 _atom_site_fract_z
 _atom_site_occupancy
  Yb  Yb0  1  0.250000  0.275571  0.672059  1
  Y  Y1  1  0.750000  0.223955  0.173045  1
  Tm  Tm2  1  0.250000  0.778524  0.827309  1
  Tm  Tm3  1  0.750000  0.722298  0.328580  1
  Ga  Ga4  1  0.250000  0.705288  0.536340  1
  Ga  Ga5  1  0.750000  0.298670  0.464535  1
  Ga  Ga6  1  0.750000  0.792763  0.037574  1
  Ga  Ga7  1  0.250000  0.200390  0.963572  1
  Ga  Ga8  1  0.250000  0.925566  0.155280  1
  Ga  Ga9  1  0.750000  0.069673  0.848145  1
  Ga  Ga10  1  0.750000  0.572250  0.651666  1
  Ga  Ga11  1  0.250000  0.430576  0.345076  1
  Ag  Ag12  1  0.250000  0.545025  0.096623  1
  Ag  Ag13  1  0.750000  0.457188  0.900800  1
  Ag  Ag14  1  0.750000  0.958004  0.597387  1
  Ag  Ag15  1  0.250000  0.044257  0.402008  1
