# generated using pymatgen
data_Rb12Li8Ti3VP12
_symmetry_space_group_name_H-M   'P 1'
_cell_length_a   10.01892109
_cell_length_b   10.01891898
_cell_length_c   15.56081010
_cell_angle_alpha   89.97820933
_cell_angle_beta   89.97821135
_cell_angle_gamma   142.98052829
_symmetry_Int_Tables_number   1
_chemical_formula_structural   Rb12Li8Ti3VP12
_chemical_formula_sum   'Rb12 Li8 Ti3 V1 P12'
_cell_volume   940.44311217
_cell_formula_units_Z   1
loop_
 _symmetry_equiv_pos_site_id
 _symmetry_equiv_pos_as_xyz
  1  'x, y, z'
loop_
 _atom_site_type_symbol
 _atom_site_label
 _atom_site_symmetry_multiplicity
 _atom_site_fract_x
 _atom_site_fract_y
 _atom_site_fract_z
 _atom_site_occupancy
  Rb  Rb0  1  0.106053  0.444847  0.669205  1
  Rb  Rb1  1  0.711824  0.712870  0.680081  1
  Rb  Rb2  1  0.212717  0.212810  0.820606  1
  Rb  Rb3  1  0.787190  0.787283  0.179394  1
  Rb  Rb4  1  0.948176  0.605766  0.829778  1
  Rb  Rb5  1  0.555153  0.893947  0.330795  1
  Rb  Rb6  1  0.394234  0.051824  0.170222  1
  Rb  Rb7  1  0.052265  0.394870  0.171063  1
  Rb  Rb8  1  0.891546  0.552495  0.331248  1
  Rb  Rb9  1  0.447505  0.108454  0.668752  1
  Rb  Rb10  1  0.605130  0.947736  0.828937  1
  Rb  Rb11  1  0.287130  0.288176  0.319919  1
  Li  Li12  1  0.918169  0.081831  0.000000  1
  Li  Li13  1  0.579442  0.420558  0.500000  1
  Li  Li14  1  0.081522  0.918478  0.000000  1
  Li  Li15  1  0.417784  0.582216  0.500000  1
  Li  Li16  1  0.749819  0.250181  0.000000  1
  Li  Li17  1  0.753029  0.246971  0.500000  1
  Li  Li18  1  0.250362  0.749638  0.000000  1
  Li  Li19  1  0.249696  0.750304  0.500000  1
  Ti  Ti20  1  0.413631  0.586369  0.000000  1
  Ti  Ti21  1  0.916315  0.083685  0.500000  1
  Ti  Ti22  1  0.586122  0.413878  0.000000  1
  V  V23  1  0.085275  0.914725  0.500000  1
  P  P24  1  0.884231  0.566157  0.083253  1
  P  P25  1  0.433843  0.115769  0.916747  1
  P  P26  1  0.615281  0.932789  0.583525  1
  P  P27  1  0.937648  0.625832  0.580064  1
  P  P28  1  0.115588  0.434035  0.916703  1
  P  P29  1  0.565965  0.884412  0.083297  1
  P  P30  1  0.374168  0.062352  0.419936  1
  P  P31  1  0.212593  0.206484  0.579977  1
  P  P32  1  0.713922  0.714050  0.920611  1
  P  P33  1  0.285950  0.286078  0.079389  1
  P  P34  1  0.067211  0.384719  0.416475  1
  P  P35  1  0.793516  0.787407  0.420023  1
