# generated using pymatgen
data_Hf8Th(In2Ir)7
_symmetry_space_group_name_H-M   'P 1'
_cell_length_a   9.69745579
_cell_length_b   9.69745533
_cell_length_c   9.69745500
_cell_angle_alpha   59.99999773
_cell_angle_beta   59.99999927
_cell_angle_gamma   59.99999994
_symmetry_Int_Tables_number   1
_chemical_formula_structural   Hf8Th(In2Ir)7
_chemical_formula_sum   'Hf8 Th1 In14 Ir7'
_cell_volume   644.84949078
_cell_formula_units_Z   1
loop_
 _symmetry_equiv_pos_site_id
 _symmetry_equiv_pos_as_xyz
  1  'x, y, z'
loop_
 _atom_site_type_symbol
 _atom_site_label
 _atom_site_symmetry_multiplicity
 _atom_site_fract_x
 _atom_site_fract_y
 _atom_site_fract_z
 _atom_site_occupancy
  Hf  Hf0  1  0.122718  0.631845  0.122718  1
  Hf  Hf1  1  0.368155  0.877282  0.877282  1
  Hf  Hf2  1  0.877282  0.877282  0.877282  1
  Hf  Hf3  1  0.631845  0.122718  0.122718  1
  Hf  Hf4  1  0.877282  0.877282  0.368155  1
  Hf  Hf5  1  0.122718  0.122718  0.122718  1
  Hf  Hf6  1  0.877282  0.368155  0.877282  1
  Hf  Hf7  1  0.122718  0.122718  0.631845  1
  Th  Th8  1  0.500000  0.500000  0.500000  1
  In  In9  1  0.500000  0.850031  0.149969  1
  In  In10  1  0.500000  0.850031  0.500000  1
  In  In11  1  0.500000  0.149969  0.500000  1
  In  In12  1  0.500000  0.500000  0.850031  1
  In  In13  1  0.149969  0.500000  0.500000  1
  In  In14  1  0.850031  0.149969  0.500000  1
  In  In15  1  0.149969  0.850031  0.500000  1
  In  In16  1  0.500000  0.149969  0.850031  1
  In  In17  1  0.149969  0.500000  0.850031  1
  In  In18  1  0.500000  0.500000  0.149969  1
  In  In19  1  0.850031  0.500000  0.500000  1
  In  In20  1  0.850031  0.500000  0.149969  1
  In  In21  1  0.250000  0.250000  0.250000  1
  In  In22  1  0.750000  0.750000  0.750000  1
  Ir  Ir23  1  0.779968  0.779968  0.220032  1
  Ir  Ir24  1  0.000000  0.000000  0.000000  1
  Ir  Ir25  1  0.220032  0.779968  0.220032  1
  Ir  Ir26  1  0.220032  0.779968  0.779968  1
  Ir  Ir27  1  0.220032  0.220032  0.779968  1
  Ir  Ir28  1  0.779968  0.220032  0.779968  1
  Ir  Ir29  1  0.779968  0.220032  0.220032  1
