# generated using pymatgen
data_Ho3In3NiPtRh
_symmetry_space_group_name_H-M   'P 1'
_cell_length_a   7.68278000
_cell_length_b   7.68277944
_cell_length_c   3.71049000
_cell_angle_alpha   90.00000000
_cell_angle_beta   90.00000000
_cell_angle_gamma   120.00000243
_symmetry_Int_Tables_number   1
_chemical_formula_structural   Ho3In3NiPtRh
_chemical_formula_sum   'Ho3 In3 Ni1 Pt1 Rh1'
_cell_volume   189.67000206
_cell_formula_units_Z   1
loop_
 _symmetry_equiv_pos_site_id
 _symmetry_equiv_pos_as_xyz
  1  'x, y, z'
loop_
 _atom_site_type_symbol
 _atom_site_label
 _atom_site_symmetry_multiplicity
 _atom_site_fract_x
 _atom_site_fract_y
 _atom_site_fract_z
 _atom_site_occupancy
  Ho  Ho0  1  0.005279  0.593654  0.500000  1
  Ho  Ho1  1  0.406346  0.411625  0.500000  1
  Ho  Ho2  1  0.588375  0.994721  0.500000  1
  In  In3  1  0.249865  0.998053  0.000000  1
  In  In4  1  0.748188  0.750135  0.000000  1
  In  In5  1  0.001947  0.251812  0.000000  1
  Ni  Ni6  1  0.000000  0.000000  0.500000  1
  Pt  Pt7  1  0.666667  0.333333  0.000000  1
  Rh  Rh8  1  0.333333  0.666667  0.000000  1
