# generated using pymatgen
data_TmHfMn12P7
_symmetry_space_group_name_H-M   'P 1'
_cell_length_a   9.22785900
_cell_length_b   9.22785848
_cell_length_c   3.55651900
_cell_angle_alpha   90.00000000
_cell_angle_beta   90.00000000
_cell_angle_gamma   119.99999829
_symmetry_Int_Tables_number   1
_chemical_formula_structural   TmHfMn12P7
_chemical_formula_sum   'Tm1 Hf1 Mn12 P7'
_cell_volume   262.27545407
_cell_formula_units_Z   1
loop_
 _symmetry_equiv_pos_site_id
 _symmetry_equiv_pos_as_xyz
  1  'x, y, z'
loop_
 _atom_site_type_symbol
 _atom_site_label
 _atom_site_symmetry_multiplicity
 _atom_site_fract_x
 _atom_site_fract_y
 _atom_site_fract_z
 _atom_site_occupancy
  Tm  Tm0  1  0.666667  0.333333  0.500000  1
  Hf  Hf1  1  0.000000  0.000000  0.000000  1
  Mn  Mn2  1  0.711725  0.619397  0.000000  1
  Mn  Mn3  1  0.380603  0.092328  0.000000  1
  Mn  Mn4  1  0.907672  0.288275  0.000000  1
  Mn  Mn5  1  0.212833  0.387379  0.000000  1
  Mn  Mn6  1  0.612621  0.825453  0.000000  1
  Mn  Mn7  1  0.174547  0.787167  0.000000  1
  Mn  Mn8  1  0.285332  0.226147  0.500000  1
  Mn  Mn9  1  0.773853  0.059184  0.500000  1
  Mn  Mn10  1  0.940816  0.714668  0.500000  1
  Mn  Mn11  1  0.458690  0.563331  0.500000  1
  Mn  Mn12  1  0.436669  0.895360  0.500000  1
  Mn  Mn13  1  0.104640  0.541310  0.500000  1
  P  P14  1  0.455257  0.376464  0.000000  1
  P  P15  1  0.623536  0.078793  0.000000  1
  P  P16  1  0.921207  0.544743  0.000000  1
  P  P17  1  0.051838  0.253425  0.500000  1
  P  P18  1  0.746575  0.798414  0.500000  1
  P  P19  1  0.201586  0.948162  0.500000  1
  P  P20  1  0.333333  0.666667  0.000000  1
