# generated using pymatgen
data_Sc2UFe3
_symmetry_space_group_name_H-M   'P 1'
_cell_length_a   5.33056501
_cell_length_b   5.33056520
_cell_length_c   7.54886000
_cell_angle_alpha   90.00000000
_cell_angle_beta   90.00000000
_cell_angle_gamma   119.97390833
_symmetry_Int_Tables_number   1
_chemical_formula_structural   Sc2UFe3
_chemical_formula_sum   'Sc4 U2 Fe6'
_cell_volume   185.81151728
_cell_formula_units_Z   2
loop_
 _symmetry_equiv_pos_site_id
 _symmetry_equiv_pos_as_xyz
  1  'x, y, z'
loop_
 _atom_site_type_symbol
 _atom_site_label
 _atom_site_symmetry_multiplicity
 _atom_site_fract_x
 _atom_site_fract_y
 _atom_site_fract_z
 _atom_site_occupancy
  Sc  Sc0  1  0.666544  0.333456  0.060147  1
  Sc  Sc1  1  0.333456  0.666544  0.939853  1
  Sc  Sc2  1  0.333456  0.666544  0.560147  1
  Sc  Sc3  1  0.666544  0.333456  0.439853  1
  U  U4  1  0.000000  0.000000  0.500000  1
  U  U5  1  0.000000  0.000000  0.000000  1
  Fe  Fe6  1  0.835009  0.669334  0.750000  1
  Fe  Fe7  1  0.834356  0.165644  0.750000  1
  Fe  Fe8  1  0.330666  0.164991  0.750000  1
  Fe  Fe9  1  0.164991  0.330666  0.250000  1
  Fe  Fe10  1  0.165644  0.834356  0.250000  1
  Fe  Fe11  1  0.669334  0.835009  0.250000  1
