# generated using pymatgen
data_Ho3Er4Tm13Pb16
_symmetry_space_group_name_H-M   'P 1'
_cell_length_a   8.14153138
_cell_length_b   15.48076606
_cell_length_c   8.20319963
_cell_angle_alpha   90.00952693
_cell_angle_beta   89.87455639
_cell_angle_gamma   90.08251779
_symmetry_Int_Tables_number   1
_chemical_formula_structural   Ho3Er4Tm13Pb16
_chemical_formula_sum   'Ho3 Er4 Tm13 Pb16'
_cell_volume   1033.90427735
_cell_formula_units_Z   1
loop_
 _symmetry_equiv_pos_site_id
 _symmetry_equiv_pos_as_xyz
  1  'x, y, z'
loop_
 _atom_site_type_symbol
 _atom_site_label
 _atom_site_symmetry_multiplicity
 _atom_site_fract_x
 _atom_site_fract_y
 _atom_site_fract_z
 _atom_site_occupancy
  Ho  Ho0  1  0.036601  0.099553  0.176456  1
  Ho  Ho1  1  0.463645  0.900481  0.676403  1
  Ho  Ho2  1  0.963276  0.599688  0.823543  1
  Er  Er3  1  0.963506  0.900208  0.823442  1
  Er  Er4  1  0.536679  0.099614  0.323713  1
  Er  Er5  1  0.036972  0.400246  0.176186  1
  Er  Er6  1  0.537059  0.400357  0.323902  1
  Tm  Tm7  1  0.623045  0.621407  0.158427  1
  Tm  Tm8  1  0.123521  0.878535  0.341810  1
  Tm  Tm9  1  0.376710  0.121464  0.841765  1
  Tm  Tm10  1  0.877080  0.378666  0.658379  1
  Tm  Tm11  1  0.377182  0.378864  0.841516  1
  Tm  Tm12  1  0.876540  0.121362  0.658248  1
  Tm  Tm13  1  0.623316  0.878404  0.158167  1
  Tm  Tm14  1  0.123013  0.621370  0.341741  1
  Tm  Tm15  1  0.462180  0.599991  0.675737  1
  Tm  Tm16  1  0.791381  0.749764  0.495570  1
  Tm  Tm17  1  0.291631  0.749851  0.004615  1
  Tm  Tm18  1  0.208564  0.250124  0.504448  1
  Tm  Tm19  1  0.708411  0.250124  0.995458  1
  Pb  Pb20  1  0.718381  0.457307  0.966741  1
  Pb  Pb21  1  0.218045  0.042662  0.534154  1
  Pb  Pb22  1  0.282079  0.957207  0.033775  1
  Pb  Pb23  1  0.780744  0.542702  0.466999  1
  Pb  Pb24  1  0.282091  0.542780  0.033303  1
  Pb  Pb25  1  0.782227  0.957302  0.465807  1
  Pb  Pb26  1  0.717904  0.042518  0.966023  1
  Pb  Pb27  1  0.218548  0.457720  0.533979  1
  Pb  Pb28  1  0.428709  0.750021  0.372973  1
  Pb  Pb29  1  0.928869  0.749999  0.127413  1
  Pb  Pb30  1  0.571123  0.250107  0.627207  1
  Pb  Pb31  1  0.071081  0.250011  0.872450  1
  Pb  Pb32  1  0.651144  0.749511  0.845222  1
  Pb  Pb33  1  0.151999  0.750022  0.654157  1
  Pb  Pb34  1  0.348495  0.250070  0.154272  1
  Pb  Pb35  1  0.848249  0.249992  0.345997  1
