# generated using pymatgen
data_Co8CuNi3Se16
_symmetry_space_group_name_H-M   'P 1'
_cell_length_a   12.22004448
_cell_length_b   12.22004481
_cell_length_c   12.22004442
_cell_angle_alpha   33.74509037
_cell_angle_beta   33.74508841
_cell_angle_gamma   33.74509008
_symmetry_Int_Tables_number   1
_chemical_formula_structural   Co8CuNi3Se16
_chemical_formula_sum   'Co8 Cu1 Ni3 Se16'
_cell_volume   501.72099393
_cell_formula_units_Z   1
loop_
 _symmetry_equiv_pos_site_id
 _symmetry_equiv_pos_as_xyz
  1  'x, y, z'
loop_
 _atom_site_type_symbol
 _atom_site_label
 _atom_site_symmetry_multiplicity
 _atom_site_fract_x
 _atom_site_fract_y
 _atom_site_fract_z
 _atom_site_occupancy
  Co  Co0  1  0.249785  0.249785  0.249785  1
  Co  Co1  1  0.750267  0.750267  0.750267  1
  Co  Co2  1  0.999689  0.999689  0.499166  1
  Co  Co3  1  0.500110  0.500110  0.001239  1
  Co  Co4  1  0.999689  0.499166  0.999689  1
  Co  Co5  1  0.500110  0.001239  0.500110  1
  Co  Co6  1  0.001239  0.500110  0.500110  1
  Co  Co7  1  0.499166  0.999689  0.999689  1
  Cu  Cu8  1  0.937800  0.937800  0.937800  1
  Ni  Ni9  1  0.437769  0.437769  0.437769  1
  Ni  Ni10  1  0.562317  0.562317  0.562317  1
  Ni  Ni11  1  0.062100  0.062100  0.062100  1
  Se  Se12  1  0.868010  0.868010  0.868010  1
  Se  Se13  1  0.370650  0.370650  0.370650  1
  Se  Se14  1  0.144781  0.144781  0.592476  1
  Se  Se15  1  0.639077  0.639077  0.101107  1
  Se  Se16  1  0.144781  0.592476  0.144781  1
  Se  Se17  1  0.639077  0.101107  0.639077  1
  Se  Se18  1  0.592476  0.144781  0.144781  1
  Se  Se19  1  0.101107  0.639077  0.639077  1
  Se  Se20  1  0.630150  0.630150  0.630150  1
  Se  Se21  1  0.129680  0.129680  0.129680  1
  Se  Se22  1  0.360066  0.360066  0.899438  1
  Se  Se23  1  0.860626  0.860626  0.399354  1
  Se  Se24  1  0.360066  0.899438  0.360066  1
  Se  Se25  1  0.860626  0.399354  0.860626  1
  Se  Se26  1  0.899438  0.360066  0.360066  1
  Se  Se27  1  0.399354  0.860626  0.860626  1
