# generated using pymatgen
data_CeTh6ScNb12Si15Sn
_symmetry_space_group_name_H-M   'P 1'
_cell_length_a   6.99759947
_cell_length_b   7.19579568
_cell_length_c   13.55362600
_cell_angle_alpha   90.20026265
_cell_angle_beta   89.81501002
_cell_angle_gamma   90.06629622
_symmetry_Int_Tables_number   1
_chemical_formula_structural   CeTh6ScNb12Si15Sn
_chemical_formula_sum   'Ce1 Th6 Sc1 Nb12 Si15 Sn1'
_cell_volume   682.46156853
_cell_formula_units_Z   1
loop_
 _symmetry_equiv_pos_site_id
 _symmetry_equiv_pos_as_xyz
  1  'x, y, z'
loop_
 _atom_site_type_symbol
 _atom_site_label
 _atom_site_symmetry_multiplicity
 _atom_site_fract_x
 _atom_site_fract_y
 _atom_site_fract_z
 _atom_site_occupancy
  Ce  Ce0  1  0.497152  0.663397  0.599463  1
  Th  Th1  1  0.001063  0.830971  0.903348  1
  Th  Th2  1  0.499389  0.331685  0.094188  1
  Th  Th3  1  0.008741  0.178204  0.404782  1
  Th  Th4  1  0.497083  0.338478  0.408330  1
  Th  Th5  1  0.000763  0.169540  0.094368  1
  Th  Th6  1  0.501345  0.670413  0.902381  1
  Sc  Sc7  1  0.005242  0.823331  0.602633  1
  Nb  Nb8  1  0.660006  0.181938  0.629172  1
  Nb  Nb9  1  0.161662  0.326925  0.873066  1
  Nb  Nb10  1  0.336524  0.827912  0.123887  1
  Nb  Nb11  1  0.846172  0.659305  0.371308  1
  Nb  Nb12  1  0.326838  0.825310  0.373429  1
  Nb  Nb13  1  0.835844  0.671120  0.123729  1
  Nb  Nb14  1  0.666539  0.169585  0.873638  1
  Nb  Nb15  1  0.164236  0.328746  0.625029  1
  Nb  Nb16  1  0.834981  0.494698  0.749910  1
  Nb  Nb17  1  0.336083  0.003844  0.748625  1
  Nb  Nb18  1  0.163902  0.507250  0.249137  1
  Nb  Nb19  1  0.664133  0.994461  0.246415  1
  Si  Si20  1  0.159402  0.543135  0.042131  1
  Si  Si21  1  0.341836  0.044257  0.954978  1
  Si  Si22  1  0.842180  0.469182  0.546251  1
  Si  Si23  1  0.321575  0.032462  0.548246  1
  Si  Si24  1  0.839828  0.456185  0.955311  1
  Si  Si25  1  0.659800  0.956492  0.042129  1
  Si  Si26  1  0.157500  0.553090  0.464733  1
  Si  Si27  1  0.456249  0.370064  0.751049  1
  Si  Si28  1  0.960755  0.126336  0.746299  1
  Si  Si29  1  0.540909  0.632694  0.250375  1
  Si  Si30  1  0.038565  0.871601  0.249132  1
  Si  Si31  1  0.705447  0.880848  0.743650  1
  Si  Si32  1  0.196607  0.621025  0.746214  1
  Si  Si33  1  0.303095  0.117218  0.250084  1
  Si  Si34  1  0.798484  0.379169  0.249166  1
  Sn  Sn35  1  0.670072  0.949126  0.463415  1
