# generated using pymatgen
data_SrLi2(TaH4)3
_symmetry_space_group_name_H-M   'P 1'
_cell_length_a   6.04713400
_cell_length_b   6.04713206
_cell_length_c   4.97378300
_cell_angle_alpha   90.00000000
_cell_angle_beta   90.00000000
_cell_angle_gamma   119.99999968
_symmetry_Int_Tables_number   1
_chemical_formula_structural   SrLi2(TaH4)3
_chemical_formula_sum   'Sr1 Li2 Ta3 H12'
_cell_volume   157.51303948
_cell_formula_units_Z   1
loop_
 _symmetry_equiv_pos_site_id
 _symmetry_equiv_pos_as_xyz
  1  'x, y, z'
loop_
 _atom_site_type_symbol
 _atom_site_label
 _atom_site_symmetry_multiplicity
 _atom_site_fract_x
 _atom_site_fract_y
 _atom_site_fract_z
 _atom_site_occupancy
  Sr  Sr0  1  0.000000  0.000000  0.000000  1
  Li  Li1  1  0.666667  0.333333  0.000000  1
  Li  Li2  1  0.333333  0.666667  0.000000  1
  Ta  Ta3  1  0.500000  0.000000  0.500000  1
  Ta  Ta4  1  0.000000  0.500000  0.500000  1
  Ta  Ta5  1  0.500000  0.500000  0.500000  1
  H  H6  1  0.794790  0.589581  0.729665  1
  H  H7  1  0.205210  0.410419  0.270335  1
  H  H8  1  0.205210  0.794790  0.270335  1
  H  H9  1  0.794790  0.205210  0.270335  1
  H  H10  1  0.589581  0.794790  0.270335  1
  H  H11  1  0.410419  0.205210  0.270335  1
  H  H12  1  0.410419  0.205210  0.729665  1
  H  H13  1  0.205210  0.410419  0.729665  1
  H  H14  1  0.794790  0.205210  0.729665  1
  H  H15  1  0.589581  0.794790  0.729665  1
  H  H16  1  0.794790  0.589581  0.270335  1
  H  H17  1  0.205210  0.794790  0.729665  1
