# generated using pymatgen
data_Pr2Nd6Cd2CoPt
_symmetry_space_group_name_H-M   'P 1'
_cell_length_a   9.93613973
_cell_length_b   9.93655286
_cell_length_c   9.93793301
_cell_angle_alpha   59.99265220
_cell_angle_beta   59.99677648
_cell_angle_gamma   60.27596382
_symmetry_Int_Tables_number   1
_chemical_formula_structural   Pr2Nd6Cd2CoPt
_chemical_formula_sum   'Pr4 Nd12 Cd4 Co2 Pt2'
_cell_volume   695.17995309
_cell_formula_units_Z   2
loop_
 _symmetry_equiv_pos_site_id
 _symmetry_equiv_pos_as_xyz
  1  'x, y, z'
loop_
 _atom_site_type_symbol
 _atom_site_label
 _atom_site_symmetry_multiplicity
 _atom_site_fract_x
 _atom_site_fract_y
 _atom_site_fract_z
 _atom_site_occupancy
  Pr  Pr0  1  0.561693  0.937371  0.563502  1
  Pr  Pr1  1  0.937371  0.561693  0.937434  1
  Pr  Pr2  1  0.560239  0.560239  0.939761  1
  Pr  Pr3  1  0.935538  0.935538  0.564462  1
  Nd  Nd4  1  0.344438  0.344705  0.357838  1
  Nd  Nd5  1  0.344705  0.344438  0.953020  1
  Nd  Nd6  1  0.340712  0.957997  0.350463  1
  Nd  Nd7  1  0.957997  0.340712  0.350828  1
  Nd  Nd8  1  0.819368  0.189830  0.189252  1
  Nd  Nd9  1  0.189830  0.819368  0.801550  1
  Nd  Nd10  1  0.189903  0.819269  0.189359  1
  Nd  Nd11  1  0.819269  0.189903  0.801469  1
  Nd  Nd12  1  0.188478  0.188478  0.811522  1
  Nd  Nd13  1  0.807979  0.807979  0.192021  1
  Nd  Nd14  1  0.937704  0.561336  0.563149  1
  Nd  Nd15  1  0.561336  0.937704  0.937811  1
  Cd  Cd16  1  0.579882  0.579644  0.578986  1
  Cd  Cd17  1  0.579644  0.579882  0.261487  1
  Cd  Cd18  1  0.580863  0.259830  0.579767  1
  Cd  Cd19  1  0.259830  0.580863  0.579538  1
  Co  Co20  1  0.142574  0.142300  0.141172  1
  Co  Co21  1  0.142300  0.142574  0.573953  1
  Pt  Pt22  1  0.144675  0.573672  0.140957  1
  Pt  Pt23  1  0.573672  0.144675  0.140696  1
