# generated using pymatgen
data_Er4MnCoRu6
_symmetry_space_group_name_H-M   'P 1'
_cell_length_a   5.25831709
_cell_length_b   5.16197098
_cell_length_c   8.86040800
_cell_angle_alpha   90.00000000
_cell_angle_beta   90.00000000
_cell_angle_gamma   120.51846222
_symmetry_Int_Tables_number   1
_chemical_formula_structural   Er4MnCoRu6
_chemical_formula_sum   'Er4 Mn1 Co1 Ru6'
_cell_volume   207.18293314
_cell_formula_units_Z   1
loop_
 _symmetry_equiv_pos_site_id
 _symmetry_equiv_pos_as_xyz
  1  'x, y, z'
loop_
 _atom_site_type_symbol
 _atom_site_label
 _atom_site_symmetry_multiplicity
 _atom_site_fract_x
 _atom_site_fract_y
 _atom_site_fract_z
 _atom_site_occupancy
  Er  Er0  1  0.331824  0.665394  0.431709  1
  Er  Er1  1  0.665875  0.334045  0.563981  1
  Er  Er2  1  0.665875  0.334045  0.936019  1
  Er  Er3  1  0.331824  0.665394  0.068291  1
  Mn  Mn4  1  0.167258  0.334883  0.750000  1
  Co  Co5  1  0.338221  0.169027  0.250000  1
  Ru  Ru6  1  0.173407  0.824315  0.750000  1
  Ru  Ru7  1  0.830692  0.660553  0.250000  1
  Ru  Ru8  1  0.659353  0.828099  0.750000  1
  Ru  Ru9  1  0.002899  0.004730  0.000261  1
  Ru  Ru10  1  0.829874  0.174788  0.250000  1
  Ru  Ru11  1  0.002899  0.004730  0.499739  1
