# generated using pymatgen
data_Hf4Tc7B8Ru3
_symmetry_space_group_name_H-M   'P 1'
_cell_length_a   3.09405800
_cell_length_b   8.58483192
_cell_length_c   10.02696689
_cell_angle_alpha   89.86515384
_cell_angle_beta   90.00000000
_cell_angle_gamma   90.00000000
_symmetry_Int_Tables_number   1
_chemical_formula_structural   Hf4Tc7B8Ru3
_chemical_formula_sum   'Hf4 Tc7 B8 Ru3'
_cell_volume   266.33523485
_cell_formula_units_Z   1
loop_
 _symmetry_equiv_pos_site_id
 _symmetry_equiv_pos_as_xyz
  1  'x, y, z'
loop_
 _atom_site_type_symbol
 _atom_site_label
 _atom_site_symmetry_multiplicity
 _atom_site_fract_x
 _atom_site_fract_y
 _atom_site_fract_z
 _atom_site_occupancy
  Hf  Hf0  1  0.500000  0.836444  0.180444  1
  Hf  Hf1  1  0.500000  0.161302  0.815117  1
  Hf  Hf2  1  0.500000  0.661838  0.683731  1
  Hf  Hf3  1  0.500000  0.340105  0.317948  1
  Tc  Tc4  1  0.000000  0.660742  0.954711  1
  Tc  Tc5  1  0.000000  0.337988  0.048052  1
  Tc  Tc6  1  0.000000  0.839699  0.452641  1
  Tc  Tc7  1  0.000000  0.161343  0.544647  1
  Tc  Tc8  1  0.000000  0.408226  0.760951  1
  Tc  Tc9  1  0.000000  0.591724  0.239533  1
  Tc  Tc10  1  0.000000  0.908419  0.739828  1
  B  B11  1  0.500000  0.967347  0.587453  1
  B  B12  1  0.500000  0.032688  0.412963  1
  B  B13  1  0.500000  0.848750  0.899030  1
  B  B14  1  0.500000  0.150564  0.098842  1
  B  B15  1  0.500000  0.650804  0.399191  1
  B  B16  1  0.500000  0.349574  0.601476  1
  B  B17  1  0.500000  0.466825  0.912762  1
  B  B18  1  0.500000  0.532461  0.087963  1
  Ru  Ru19  1  0.000000  0.000532  0.001550  1
  Ru  Ru20  1  0.000000  0.500031  0.500043  1
  Ru  Ru21  1  0.000000  0.092594  0.261123  1
