# generated using pymatgen
data_SmCu2Ni2Ag
_symmetry_space_group_name_H-M   'P 1'
_cell_length_a   5.08042825
_cell_length_b   5.04429922
_cell_length_c   5.04429891
_cell_angle_alpha   59.73019510
_cell_angle_beta   59.76279581
_cell_angle_gamma   59.76278900
_symmetry_Int_Tables_number   1
_chemical_formula_structural   SmCu2Ni2Ag
_chemical_formula_sum   'Sm1 Cu2 Ni2 Ag1'
_cell_volume   90.89364495
_cell_formula_units_Z   1
loop_
 _symmetry_equiv_pos_site_id
 _symmetry_equiv_pos_as_xyz
  1  'x, y, z'
loop_
 _atom_site_type_symbol
 _atom_site_label
 _atom_site_symmetry_multiplicity
 _atom_site_fract_x
 _atom_site_fract_y
 _atom_site_fract_z
 _atom_site_occupancy
  Sm  Sm0  1  0.997406  0.002594  0.002594  1
  Cu  Cu1  1  0.376629  0.871347  0.375395  1
  Cu  Cu2  1  0.376629  0.375395  0.871347  1
  Ni  Ni3  1  0.376492  0.375221  0.375221  1
  Ni  Ni4  1  0.873065  0.375221  0.375221  1
  Ag  Ag5  1  0.749778  0.750222  0.750222  1
