# generated using pymatgen
data_YLuHf2(Al3Ir)6
_symmetry_space_group_name_H-M   'P 1'
_cell_length_a   7.51065649
_cell_length_b   7.49704677
_cell_length_c   9.32256300
_cell_angle_alpha   90.00000000
_cell_angle_beta   90.00000000
_cell_angle_gamma   119.71736732
_symmetry_Int_Tables_number   1
_chemical_formula_structural   YLuHf2(Al3Ir)6
_chemical_formula_sum   'Y1 Lu1 Hf2 Al18 Ir6'
_cell_volume   455.89404009
_cell_formula_units_Z   1
loop_
 _symmetry_equiv_pos_site_id
 _symmetry_equiv_pos_as_xyz
  1  'x, y, z'
loop_
 _atom_site_type_symbol
 _atom_site_label
 _atom_site_symmetry_multiplicity
 _atom_site_fract_x
 _atom_site_fract_y
 _atom_site_fract_z
 _atom_site_occupancy
  Y  Y0  1  0.670825  0.994084  0.250000  1
  Lu  Lu1  1  0.327922  0.005720  0.750000  1
  Hf  Hf2  1  0.995893  0.672713  0.250000  1
  Hf  Hf3  1  0.004677  0.327621  0.750000  1
  Al  Al4  1  0.127745  0.125316  0.250000  1
  Al  Al5  1  0.873776  0.875045  0.750000  1
  Al  Al6  1  0.000450  0.337703  0.074828  1
  Al  Al7  1  0.000640  0.663158  0.923016  1
  Al  Al8  1  0.000640  0.663158  0.576984  1
  Al  Al9  1  0.332206  0.998735  0.422872  1
  Al  Al10  1  0.000450  0.337703  0.425172  1
  Al  Al11  1  0.666774  0.001512  0.580182  1
  Al  Al12  1  0.666774  0.001512  0.919818  1
  Al  Al13  1  0.332206  0.998735  0.077128  1
  Al  Al14  1  0.331358  0.333214  0.558329  1
  Al  Al15  1  0.668830  0.665871  0.443803  1
  Al  Al16  1  0.668830  0.665871  0.056197  1
  Al  Al17  1  0.331358  0.333214  0.941671  1
  Al  Al18  1  0.333891  0.547328  0.250000  1
  Al  Al19  1  0.664498  0.450918  0.750000  1
  Al  Al20  1  0.554319  0.344417  0.250000  1
  Al  Al21  1  0.445130  0.656367  0.750000  1
  Ir  Ir22  1  0.672719  0.327819  0.998945  1
  Ir  Ir23  1  0.326693  0.672026  0.999995  1
  Ir  Ir24  1  0.326693  0.672026  0.500005  1
  Ir  Ir25  1  0.672719  0.327819  0.501055  1
  Ir  Ir26  1  0.000992  0.000197  0.999249  1
  Ir  Ir27  1  0.000992  0.000197  0.500751  1
