# generated using pymatgen
data_LuTi4SbRh10
_symmetry_space_group_name_H-M   'P 1'
_cell_length_a   4.09625500
_cell_length_b   5.53124740
_cell_length_c   10.87311775
_cell_angle_alpha   90.41778231
_cell_angle_beta   90.00000000
_cell_angle_gamma   90.00000000
_symmetry_Int_Tables_number   1
_chemical_formula_structural   LuTi4SbRh10
_chemical_formula_sum   'Lu1 Ti4 Sb1 Rh10'
_cell_volume   246.35002697
_cell_formula_units_Z   1
loop_
 _symmetry_equiv_pos_site_id
 _symmetry_equiv_pos_as_xyz
  1  'x, y, z'
loop_
 _atom_site_type_symbol
 _atom_site_label
 _atom_site_symmetry_multiplicity
 _atom_site_fract_x
 _atom_site_fract_y
 _atom_site_fract_z
 _atom_site_occupancy
  Lu  Lu0  1  0.500000  0.325427  0.143923  1
  Ti  Ti1  1  0.000000  0.505715  0.500892  1
  Ti  Ti2  1  0.500000  0.666002  0.849062  1
  Ti  Ti3  1  0.500000  0.832728  0.358690  1
  Ti  Ti4  1  0.500000  0.164486  0.638072  1
  Sb  Sb5  1  0.000000  0.000063  0.996914  1
  Rh  Rh6  1  0.000000  0.999517  0.504413  1
  Rh  Rh7  1  0.000000  0.512765  0.987402  1
  Rh  Rh8  1  0.000000  0.064165  0.257322  1
  Rh  Rh9  1  0.000000  0.919349  0.753180  1
  Rh  Rh10  1  0.000000  0.580705  0.268382  1
  Rh  Rh11  1  0.000000  0.418750  0.735506  1
  Rh  Rh12  1  0.500000  0.308294  0.404843  1
  Rh  Rh13  1  0.500000  0.691324  0.608145  1
  Rh  Rh14  1  0.500000  0.808945  0.117719  1
  Rh  Rh15  1  0.500000  0.201764  0.875534  1
