# generated using pymatgen
data_Be2AgP3O10
_symmetry_space_group_name_H-M   'P 1'
_cell_length_a   7.54581541
_cell_length_b   7.54581525
_cell_length_c   9.08276349
_cell_angle_alpha   63.03289992
_cell_angle_beta   63.03289944
_cell_angle_gamma   65.70733162
_symmetry_Int_Tables_number   1
_chemical_formula_structural   Be2AgP3O10
_chemical_formula_sum   'Be4 Ag2 P6 O20'
_cell_volume   396.79442984
_cell_formula_units_Z   2
loop_
 _symmetry_equiv_pos_site_id
 _symmetry_equiv_pos_as_xyz
  1  'x, y, z'
loop_
 _atom_site_type_symbol
 _atom_site_label
 _atom_site_symmetry_multiplicity
 _atom_site_fract_x
 _atom_site_fract_y
 _atom_site_fract_z
 _atom_site_occupancy
  Be  Be0  1  0.707754  0.760415  0.950101  1
  Be  Be1  1  0.292246  0.239585  0.049899  1
  Be  Be2  1  0.239585  0.292246  0.549899  1
  Be  Be3  1  0.760415  0.707754  0.450101  1
  Ag  Ag4  1  0.676495  0.323505  0.250000  1
  Ag  Ag5  1  0.323505  0.676495  0.750000  1
  P  P6  1  0.858706  0.471001  0.768777  1
  P  P7  1  0.471001  0.858706  0.268777  1
  P  P8  1  0.141294  0.528999  0.231223  1
  P  P9  1  0.083470  0.916530  0.250000  1
  P  P10  1  0.916530  0.083470  0.750000  1
  P  P11  1  0.528999  0.141294  0.731223  1
  O  O12  1  0.599802  0.714075  0.160034  1
  O  O13  1  0.400198  0.285925  0.839966  1
  O  O14  1  0.285925  0.400198  0.339966  1
  O  O15  1  0.915480  0.549050  0.342023  1
  O  O16  1  0.764575  0.171379  0.639769  1
  O  O17  1  0.131546  0.098560  0.626065  1
  O  O18  1  0.828621  0.235425  0.860231  1
  O  O19  1  0.206296  0.464773  0.073391  1
  O  O20  1  0.714075  0.599802  0.660034  1
  O  O21  1  0.235425  0.828621  0.360231  1
  O  O22  1  0.549050  0.915480  0.842023  1
  O  O23  1  0.901440  0.868454  0.873935  1
  O  O24  1  0.450950  0.084520  0.157977  1
  O  O25  1  0.084520  0.450950  0.657977  1
  O  O26  1  0.535227  0.793704  0.426609  1
  O  O27  1  0.868454  0.901440  0.373935  1
  O  O28  1  0.171379  0.764575  0.139769  1
  O  O29  1  0.464773  0.206296  0.573391  1
  O  O30  1  0.793704  0.535227  0.926609  1
  O  O31  1  0.098560  0.131546  0.126065  1
