# generated using pymatgen
data_Dy3Ho3(InHg4)2
_symmetry_space_group_name_H-M   'P 1'
_cell_length_a   6.37127196
_cell_length_b   6.37127021
_cell_length_c   10.16966988
_cell_angle_alpha   90.02892348
_cell_angle_beta   90.02892264
_cell_angle_gamma   104.07002692
_symmetry_Int_Tables_number   1
_chemical_formula_structural   Dy3Ho3(InHg4)2
_chemical_formula_sum   'Dy3 Ho3 In2 Hg8'
_cell_volume   400.43341350
_cell_formula_units_Z   1
loop_
 _symmetry_equiv_pos_site_id
 _symmetry_equiv_pos_as_xyz
  1  'x, y, z'
loop_
 _atom_site_type_symbol
 _atom_site_label
 _atom_site_symmetry_multiplicity
 _atom_site_fract_x
 _atom_site_fract_y
 _atom_site_fract_z
 _atom_site_occupancy
  Dy  Dy0  1  0.214286  0.785714  0.000000  1
  Dy  Dy1  1  0.214046  0.785954  0.500000  1
  Dy  Dy2  1  0.785988  0.214012  0.500000  1
  Ho  Ho3  1  0.785644  0.214356  0.000000  1
  Ho  Ho4  1  0.565551  0.565102  0.249894  1
  Ho  Ho5  1  0.434898  0.434449  0.750106  1
  In  In6  1  0.990646  0.991080  0.249618  1
  In  In7  1  0.008920  0.009354  0.750382  1
  Hg  Hg8  1  0.036705  0.489954  0.249774  1
  Hg  Hg9  1  0.962813  0.509352  0.750301  1
  Hg  Hg10  1  0.490648  0.037187  0.249699  1
  Hg  Hg11  1  0.510046  0.963295  0.750226  1
  Hg  Hg12  1  0.291633  0.291916  0.028015  1
  Hg  Hg13  1  0.708084  0.708367  0.971985  1
  Hg  Hg14  1  0.707785  0.707692  0.528261  1
  Hg  Hg15  1  0.292308  0.292215  0.471739  1
