# generated using pymatgen
data_Zr2Be9Tc
_symmetry_space_group_name_H-M   'P 1'
_cell_length_a   7.61016501
_cell_length_b   7.61016492
_cell_length_c   7.61016460
_cell_angle_alpha   35.13563425
_cell_angle_beta   35.13563839
_cell_angle_gamma   35.13562283
_symmetry_Int_Tables_number   1
_chemical_formula_structural   Zr2Be9Tc
_chemical_formula_sum   'Zr2 Be9 Tc1'
_cell_volume   130.37314322
_cell_formula_units_Z   1
loop_
 _symmetry_equiv_pos_site_id
 _symmetry_equiv_pos_as_xyz
  1  'x, y, z'
loop_
 _atom_site_type_symbol
 _atom_site_label
 _atom_site_symmetry_multiplicity
 _atom_site_fract_x
 _atom_site_fract_y
 _atom_site_fract_z
 _atom_site_occupancy
  Zr  Zr0  1  0.142930  0.142930  0.142930  1
  Zr  Zr1  1  0.995858  0.995858  0.995858  1
  Be  Be2  1  0.417413  0.915995  0.417413  1
  Be  Be3  1  0.417413  0.417413  0.915995  1
  Be  Be4  1  0.915995  0.417413  0.417413  1
  Be  Be5  1  0.586256  0.074618  0.586256  1
  Be  Be6  1  0.586256  0.586256  0.074618  1
  Be  Be7  1  0.074618  0.586256  0.586256  1
  Be  Be8  1  0.667502  0.667502  0.667502  1
  Be  Be9  1  0.336133  0.336133  0.336133  1
  Be  Be10  1  0.500870  0.500870  0.500870  1
  Tc  Tc11  1  0.858758  0.858758  0.858758  1
