# generated using pymatgen
data_Sm3Hf(P3Rh4)2
_symmetry_space_group_name_H-M   'P 1'
_cell_length_a   3.96345600
_cell_length_b   11.27802800
_cell_length_c   13.00138700
_cell_angle_alpha   90.00000000
_cell_angle_beta   90.00000000
_cell_angle_gamma   90.00000000
_symmetry_Int_Tables_number   1
_chemical_formula_structural   Sm3Hf(P3Rh4)2
_chemical_formula_sum   'Sm6 Hf2 P12 Rh16'
_cell_volume   581.16157954
_cell_formula_units_Z   2
loop_
 _symmetry_equiv_pos_site_id
 _symmetry_equiv_pos_as_xyz
  1  'x, y, z'
loop_
 _atom_site_type_symbol
 _atom_site_label
 _atom_site_symmetry_multiplicity
 _atom_site_fract_x
 _atom_site_fract_y
 _atom_site_fract_z
 _atom_site_occupancy
  Sm  Sm0  1  0.000000  0.500000  0.523112  1
  Sm  Sm1  1  0.500000  0.000000  0.476888  1
  Sm  Sm2  1  0.500000  0.820029  0.201985  1
  Sm  Sm3  1  0.500000  0.179971  0.201985  1
  Sm  Sm4  1  0.000000  0.679971  0.798015  1
  Sm  Sm5  1  0.000000  0.320029  0.798015  1
  Hf  Hf6  1  0.500000  0.500000  0.157878  1
  Hf  Hf7  1  0.000000  0.000000  0.842122  1
  P  P8  1  0.500000  0.500000  0.880007  1
  P  P9  1  0.000000  0.000000  0.119993  1
  P  P10  1  0.500000  0.500000  0.357334  1
  P  P11  1  0.000000  0.000000  0.642666  1
  P  P12  1  0.500000  0.311762  0.615773  1
  P  P13  1  0.500000  0.688238  0.615773  1
  P  P14  1  0.000000  0.188238  0.384227  1
  P  P15  1  0.000000  0.811762  0.384227  1
  P  P16  1  0.500000  0.842988  0.888363  1
  P  P17  1  0.500000  0.157012  0.888363  1
  P  P18  1  0.000000  0.657012  0.111637  1
  P  P19  1  0.000000  0.342988  0.111637  1
  Rh  Rh20  1  0.500000  0.500000  0.700659  1
  Rh  Rh21  1  0.000000  0.000000  0.299341  1
  Rh  Rh22  1  0.000000  0.500000  0.986909  1
  Rh  Rh23  1  0.500000  0.000000  0.013091  1
  Rh  Rh24  1  0.500000  0.331883  0.991004  1
  Rh  Rh25  1  0.500000  0.668117  0.991004  1
  Rh  Rh26  1  0.000000  0.168117  0.008996  1
  Rh  Rh27  1  0.000000  0.831883  0.008996  1
  Rh  Rh28  1  0.500000  0.291806  0.432081  1
  Rh  Rh29  1  0.500000  0.708194  0.432081  1
  Rh  Rh30  1  0.000000  0.208194  0.567919  1
  Rh  Rh31  1  0.000000  0.791806  0.567919  1
  Rh  Rh32  1  0.500000  0.874707  0.706107  1
  Rh  Rh33  1  0.500000  0.125293  0.706107  1
  Rh  Rh34  1  0.000000  0.625293  0.293893  1
  Rh  Rh35  1  0.000000  0.374707  0.293893  1
