# generated using pymatgen
data_TmLu3(ZnPd)4
_symmetry_space_group_name_H-M   'P 1'
_cell_length_a   3.99663900
_cell_length_b   6.99180987
_cell_length_c   8.18153902
_cell_angle_alpha   89.94271702
_cell_angle_beta   90.00000000
_cell_angle_gamma   90.00000000
_symmetry_Int_Tables_number   1
_chemical_formula_structural   TmLu3(ZnPd)4
_chemical_formula_sum   'Tm1 Lu3 Zn4 Pd4'
_cell_volume   228.62268515
_cell_formula_units_Z   1
loop_
 _symmetry_equiv_pos_site_id
 _symmetry_equiv_pos_as_xyz
  1  'x, y, z'
loop_
 _atom_site_type_symbol
 _atom_site_label
 _atom_site_symmetry_multiplicity
 _atom_site_fract_x
 _atom_site_fract_y
 _atom_site_fract_z
 _atom_site_occupancy
  Tm  Tm0  1  0.250000  0.050595  0.686885  1
  Lu  Lu1  1  0.750000  0.449116  0.187120  1
  Lu  Lu2  1  0.750000  0.949253  0.312640  1
  Lu  Lu3  1  0.250000  0.550742  0.813083  1
  Zn  Zn4  1  0.750000  0.869402  0.936250  1
  Zn  Zn5  1  0.750000  0.369799  0.563831  1
  Zn  Zn6  1  0.250000  0.130493  0.064165  1
  Zn  Zn7  1  0.250000  0.630432  0.436100  1
  Pd  Pd8  1  0.750000  0.256918  0.877444  1
  Pd  Pd9  1  0.750000  0.755569  0.623014  1
  Pd  Pd10  1  0.250000  0.743676  0.123008  1
  Pd  Pd11  1  0.250000  0.244004  0.376461  1
