# generated using pymatgen
data_Yb2Tm2ReRu7
_symmetry_space_group_name_H-M   'P 1'
_cell_length_a   5.17817118
_cell_length_b   5.40757828
_cell_length_c   8.90251354
_cell_angle_alpha   89.99999971
_cell_angle_beta   89.69318443
_cell_angle_gamma   121.47667286
_symmetry_Int_Tables_number   1
_chemical_formula_structural   Yb2Tm2ReRu7
_chemical_formula_sum   'Yb2 Tm2 Re1 Ru7'
_cell_volume   212.59712685
_cell_formula_units_Z   1
loop_
 _symmetry_equiv_pos_site_id
 _symmetry_equiv_pos_as_xyz
  1  'x, y, z'
loop_
 _atom_site_type_symbol
 _atom_site_label
 _atom_site_symmetry_multiplicity
 _atom_site_fract_x
 _atom_site_fract_y
 _atom_site_fract_z
 _atom_site_occupancy
  Yb  Yb0  1  0.325524  0.662763  0.437950  1
  Yb  Yb1  1  0.656261  0.328130  0.557967  1
  Tm  Tm2  1  0.658913  0.329455  0.931483  1
  Tm  Tm3  1  0.330706  0.665354  0.071484  1
  Re  Re4  1  0.675103  0.837552  0.749772  1
  Ru  Ru5  1  0.977561  0.988781  0.500655  1
  Ru  Ru6  1  0.979860  0.989930  0.001139  1
  Ru  Ru7  1  0.833742  0.167079  0.249044  1
  Ru  Ru8  1  0.833742  0.666662  0.249044  1
  Ru  Ru9  1  0.361100  0.180550  0.245687  1
  Ru  Ru10  1  0.183746  0.831618  0.752888  1
  Ru  Ru11  1  0.183746  0.352129  0.752888  1
