# generated using pymatgen
data_CoNi3(TeBr)4
_symmetry_space_group_name_H-M   'P 1'
_cell_length_a   7.35725300
_cell_length_b   7.43635600
_cell_length_c   5.38833800
_cell_angle_alpha   90.00000000
_cell_angle_beta   90.00000000
_cell_angle_gamma   90.00000000
_symmetry_Int_Tables_number   1
_chemical_formula_structural   CoNi3(TeBr)4
_chemical_formula_sum   'Co1 Ni3 Te4 Br4'
_cell_volume   294.80218199
_cell_formula_units_Z   1
loop_
 _symmetry_equiv_pos_site_id
 _symmetry_equiv_pos_as_xyz
  1  'x, y, z'
loop_
 _atom_site_type_symbol
 _atom_site_label
 _atom_site_symmetry_multiplicity
 _atom_site_fract_x
 _atom_site_fract_y
 _atom_site_fract_z
 _atom_site_occupancy
  Co  Co0  1  0.257138  0.000000  0.000000  1
  Ni  Ni1  1  0.739449  0.000000  0.000000  1
  Ni  Ni2  1  0.001071  0.263522  0.500001  1
  Ni  Ni3  1  0.001071  0.736478  0.500001  1
  Te  Te4  1  0.000422  0.218689  0.000000  1
  Te  Te5  1  0.000422  0.781312  0.000000  1
  Te  Te6  1  0.219243  0.000000  0.500001  1
  Te  Te7  1  0.785519  0.000000  0.500001  1
  Br  Br8  1  0.497779  0.226785  0.000000  1
  Br  Br9  1  0.497779  0.773216  0.000000  1
  Br  Br10  1  0.231461  0.500000  0.500001  1
  Br  Br11  1  0.768649  0.500000  0.500001  1
