# generated using pymatgen
data_Rb2Y3Ho3F20
_symmetry_space_group_name_H-M   'P 1'
_cell_length_a   8.27600516
_cell_length_b   8.28417495
_cell_length_c   8.29224412
_cell_angle_alpha   59.90256749
_cell_angle_beta   60.00030004
_cell_angle_gamma   60.09711200
_symmetry_Int_Tables_number   1
_chemical_formula_structural   Rb2Y3Ho3F20
_chemical_formula_sum   'Rb2 Y3 Ho3 F20'
_cell_volume   401.99858599
_cell_formula_units_Z   1
loop_
 _symmetry_equiv_pos_site_id
 _symmetry_equiv_pos_as_xyz
  1  'x, y, z'
loop_
 _atom_site_type_symbol
 _atom_site_label
 _atom_site_symmetry_multiplicity
 _atom_site_fract_x
 _atom_site_fract_y
 _atom_site_fract_z
 _atom_site_occupancy
  Rb  Rb0  1  0.250110  0.249890  0.250110  1
  Rb  Rb1  1  0.750110  0.749890  0.750110  1
  Y  Y2  1  0.759663  0.240337  0.240538  1
  Y  Y3  1  0.240538  0.759462  0.759663  1
  Y  Y4  1  0.240439  0.759561  0.240439  1
  Ho  Ho5  1  0.759708  0.240292  0.759708  1
  Ho  Ho6  1  0.240386  0.240189  0.759811  1
  Ho  Ho7  1  0.759811  0.759614  0.240386  1
  F  F8  1  0.828741  0.500036  0.499964  1
  F  F9  1  0.170404  0.498471  0.501529  1
  F  F10  1  0.501529  0.829596  0.170404  1
  F  F11  1  0.499964  0.171259  0.828741  1
  F  F12  1  0.501588  0.829685  0.498453  1
  F  F13  1  0.170315  0.498412  0.829726  1
  F  F14  1  0.498453  0.170274  0.501588  1
  F  F15  1  0.829726  0.501547  0.170315  1
  F  F16  1  0.501535  0.498465  0.829806  1
  F  F17  1  0.499958  0.500042  0.169323  1
  F  F18  1  0.169323  0.830677  0.499958  1
  F  F19  1  0.829806  0.170194  0.501535  1
  F  F20  1  0.111372  0.111439  0.109452  1
  F  F21  1  0.888128  0.890103  0.889997  1
  F  F22  1  0.109897  0.111872  0.668229  1
  F  F23  1  0.109452  0.667738  0.111372  1
  F  F24  1  0.888561  0.888628  0.332262  1
  F  F25  1  0.889997  0.331771  0.888128  1
  F  F26  1  0.668229  0.110003  0.109897  1
  F  F27  1  0.332262  0.890548  0.888561  1
