# generated using pymatgen
data_LuMg(ZnPt)2
_symmetry_space_group_name_H-M   'P 1'
_cell_length_a   4.14121800
_cell_length_b   6.58379928
_cell_length_c   7.98095055
_cell_angle_alpha   91.74797408
_cell_angle_beta   90.00000000
_cell_angle_gamma   90.00000000
_symmetry_Int_Tables_number   1
_chemical_formula_structural   LuMg(ZnPt)2
_chemical_formula_sum   'Lu2 Mg2 Zn4 Pt4'
_cell_volume   217.49894642
_cell_formula_units_Z   2
loop_
 _symmetry_equiv_pos_site_id
 _symmetry_equiv_pos_as_xyz
  1  'x, y, z'
loop_
 _atom_site_type_symbol
 _atom_site_label
 _atom_site_symmetry_multiplicity
 _atom_site_fract_x
 _atom_site_fract_y
 _atom_site_fract_z
 _atom_site_occupancy
  Lu  Lu0  1  0.750000  0.962915  0.686185  1
  Lu  Lu1  1  0.250000  0.037085  0.313815  1
  Mg  Mg2  1  0.250000  0.534619  0.175200  1
  Mg  Mg3  1  0.750000  0.465381  0.824800  1
  Zn  Zn4  1  0.250000  0.642056  0.559500  1
  Zn  Zn5  1  0.750000  0.357944  0.440500  1
  Zn  Zn6  1  0.750000  0.847274  0.061079  1
  Zn  Zn7  1  0.250000  0.152726  0.938921  1
  Pt  Pt8  1  0.250000  0.750702  0.875553  1
  Pt  Pt9  1  0.750000  0.249298  0.124447  1
  Pt  Pt10  1  0.750000  0.742381  0.372475  1
  Pt  Pt11  1  0.250000  0.257619  0.627525  1
