# generated using pymatgen
data_Tb11Lu(Hg2Pt)4
_symmetry_space_group_name_H-M   'P 1'
_cell_length_a   13.14557700
_cell_length_b   13.14557629
_cell_length_c   3.73346000
_cell_angle_alpha   90.00000000
_cell_angle_beta   90.00000000
_cell_angle_gamma   113.00299794
_symmetry_Int_Tables_number   1
_chemical_formula_structural   Tb11Lu(Hg2Pt)4
_chemical_formula_sum   'Tb11 Lu1 Hg8 Pt4'
_cell_volume   593.86430486
_cell_formula_units_Z   1
loop_
 _symmetry_equiv_pos_site_id
 _symmetry_equiv_pos_as_xyz
  1  'x, y, z'
loop_
 _atom_site_type_symbol
 _atom_site_label
 _atom_site_symmetry_multiplicity
 _atom_site_fract_x
 _atom_site_fract_y
 _atom_site_fract_z
 _atom_site_occupancy
  Tb  Tb0  1  0.422094  0.087009  0.000000  1
  Tb  Tb1  1  0.577906  0.912991  0.000000  1
  Tb  Tb2  1  0.087009  0.422094  0.000000  1
  Tb  Tb3  1  0.912991  0.577906  0.000000  1
  Tb  Tb4  1  0.167231  0.832769  0.000000  1
  Tb  Tb5  1  0.832769  0.167231  0.000000  1
  Tb  Tb6  1  0.355670  0.644330  0.000000  1
  Tb  Tb7  1  0.644330  0.355670  0.000000  1
  Tb  Tb8  1  0.284165  0.284165  0.000000  1
  Tb  Tb9  1  0.715835  0.715835  0.000000  1
  Tb  Tb10  1  0.000000  0.000000  0.000000  1
  Lu  Lu11  1  0.500000  0.500000  0.500000  1
  Hg  Hg12  1  0.367838  0.854827  0.500000  1
  Hg  Hg13  1  0.632162  0.145173  0.500000  1
  Hg  Hg14  1  0.854829  0.367838  0.500000  1
  Hg  Hg15  1  0.145171  0.632162  0.500000  1
  Hg  Hg16  1  0.209688  0.051914  0.500000  1
  Hg  Hg17  1  0.790312  0.948086  0.500000  1
  Hg  Hg18  1  0.051913  0.209687  0.500000  1
  Hg  Hg19  1  0.948087  0.790313  0.500000  1
  Pt  Pt20  1  0.451647  0.263918  0.500000  1
  Pt  Pt21  1  0.548353  0.736082  0.500000  1
  Pt  Pt22  1  0.263919  0.451647  0.500000  1
  Pt  Pt23  1  0.736081  0.548353  0.500000  1
