# generated using pymatgen
data_Ce2SmMg3CuIr2
_symmetry_space_group_name_H-M   'P 1'
_cell_length_a   7.38564100
_cell_length_b   7.58779956
_cell_length_c   3.96901400
_cell_angle_alpha   90.00000000
_cell_angle_beta   90.00000000
_cell_angle_gamma   119.12252851
_symmetry_Int_Tables_number   1
_chemical_formula_structural   Ce2SmMg3CuIr2
_chemical_formula_sum   'Ce2 Sm1 Mg3 Cu1 Ir2'
_cell_volume   194.30761437
_cell_formula_units_Z   1
loop_
 _symmetry_equiv_pos_site_id
 _symmetry_equiv_pos_as_xyz
  1  'x, y, z'
loop_
 _atom_site_type_symbol
 _atom_site_label
 _atom_site_symmetry_multiplicity
 _atom_site_fract_x
 _atom_site_fract_y
 _atom_site_fract_z
 _atom_site_occupancy
  Ce  Ce0  1  0.002781  0.575595  0.000000  1
  Ce  Ce1  1  0.427186  0.424405  0.000000  1
  Sm  Sm2  1  0.582886  0.000000  0.000000  1
  Mg  Mg3  1  0.247948  0.000000  0.500000  1
  Mg  Mg4  1  0.998044  0.238654  0.500000  1
  Mg  Mg5  1  0.759390  0.761346  0.500000  1
  Cu  Cu6  1  0.999759  0.000000  0.000000  1
  Ir  Ir7  1  0.313815  0.645623  0.500000  1
  Ir  Ir8  1  0.668193  0.354377  0.500000  1
