# generated using pymatgen
data_Mg2AgSb2Pt
_symmetry_space_group_name_H-M   'P 1'
_cell_length_a   7.99115641
_cell_length_b   7.99115634
_cell_length_c   7.99115718
_cell_angle_alpha   32.95686132
_cell_angle_beta   32.95685854
_cell_angle_gamma   32.95685786
_symmetry_Int_Tables_number   1
_chemical_formula_structural   Mg2AgSb2Pt
_chemical_formula_sum   'Mg2 Ag1 Sb2 Pt1'
_cell_volume   134.38666047
_cell_formula_units_Z   1
loop_
 _symmetry_equiv_pos_site_id
 _symmetry_equiv_pos_as_xyz
  1  'x, y, z'
loop_
 _atom_site_type_symbol
 _atom_site_label
 _atom_site_symmetry_multiplicity
 _atom_site_fract_x
 _atom_site_fract_y
 _atom_site_fract_z
 _atom_site_occupancy
  Mg  Mg0  1  0.745207  0.745207  0.745207  1
  Mg  Mg1  1  0.252811  0.252811  0.252811  1
  Ag  Ag2  1  0.123919  0.123919  0.123919  1
  Sb  Sb3  1  0.998238  0.998238  0.998238  1
  Sb  Sb4  1  0.504925  0.504925  0.504925  1
  Pt  Pt5  1  0.624900  0.624900  0.624900  1
