# generated using pymatgen
data_Zr18Ta5(RuO2)3
_symmetry_space_group_name_H-M   'P 1'
_cell_length_a   8.75268921
_cell_length_b   8.69310715
_cell_length_c   8.64222000
_cell_angle_alpha   90.00000000
_cell_angle_beta   90.00000000
_cell_angle_gamma   120.65065818
_symmetry_Int_Tables_number   1
_chemical_formula_structural   Zr18Ta5(RuO2)3
_chemical_formula_sum   'Zr18 Ta5 Ru3 O6'
_cell_volume   565.70178763
_cell_formula_units_Z   1
loop_
 _symmetry_equiv_pos_site_id
 _symmetry_equiv_pos_as_xyz
  1  'x, y, z'
loop_
 _atom_site_type_symbol
 _atom_site_label
 _atom_site_symmetry_multiplicity
 _atom_site_fract_x
 _atom_site_fract_y
 _atom_site_fract_z
 _atom_site_occupancy
  Zr  Zr0  1  0.452235  0.907284  0.250000  1
  Zr  Zr1  1  0.545691  0.093272  0.750000  1
  Zr  Zr2  1  0.093198  0.546338  0.250000  1
  Zr  Zr3  1  0.905578  0.453277  0.750000  1
  Zr  Zr4  1  0.453222  0.547317  0.250000  1
  Zr  Zr5  1  0.547448  0.454576  0.750000  1
  Zr  Zr6  1  0.206702  0.411787  0.565466  1
  Zr  Zr7  1  0.794184  0.586678  0.435617  1
  Zr  Zr8  1  0.588119  0.794718  0.563410  1
  Zr  Zr9  1  0.794184  0.586678  0.064383  1
  Zr  Zr10  1  0.413308  0.206893  0.438488  1
  Zr  Zr11  1  0.206702  0.411787  0.934534  1
  Zr  Zr12  1  0.205953  0.794595  0.560559  1
  Zr  Zr13  1  0.413308  0.206893  0.061512  1
  Zr  Zr14  1  0.795755  0.204520  0.437288  1
  Zr  Zr15  1  0.588119  0.794718  0.936590  1
  Zr  Zr16  1  0.795755  0.204520  0.062712  1
  Zr  Zr17  1  0.205953  0.794595  0.939441  1
  Ta  Ta18  1  0.218666  0.105498  0.750000  1
  Ta  Ta19  1  0.109951  0.889502  0.250000  1
  Ta  Ta20  1  0.886548  0.107304  0.750000  1
  Ta  Ta21  1  0.994257  0.999003  0.007080  1
  Ta  Ta22  1  0.994257  0.999003  0.492920  1
  Ru  Ru23  1  0.113529  0.226069  0.250000  1
  Ru  Ru24  1  0.891036  0.780579  0.750000  1
  Ru  Ru25  1  0.776076  0.887017  0.250000  1
  O  O26  1  0.502588  0.999199  0.001311  1
  O  O27  1  0.998816  0.499858  0.000167  1
  O  O28  1  0.502588  0.999199  0.498689  1
  O  O29  1  0.503729  0.503732  0.001863  1
  O  O30  1  0.998816  0.499858  0.499833  1
  O  O31  1  0.503729  0.503732  0.498137  1
