# generated using pymatgen
data_Nb3FeCo3B7
_symmetry_space_group_name_H-M   'P 1'
_cell_length_a   9.30064597
_cell_length_b   9.30064637
_cell_length_c   8.88578500
_cell_angle_alpha   90.00290359
_cell_angle_beta   89.99709557
_cell_angle_gamma   159.99507210
_symmetry_Int_Tables_number   1
_chemical_formula_structural   Nb3FeCo3B7
_chemical_formula_sum   'Nb6 Fe2 Co6 B14'
_cell_volume   262.95191758
_cell_formula_units_Z   2
loop_
 _symmetry_equiv_pos_site_id
 _symmetry_equiv_pos_as_xyz
  1  'x, y, z'
loop_
 _atom_site_type_symbol
 _atom_site_label
 _atom_site_symmetry_multiplicity
 _atom_site_fract_x
 _atom_site_fract_y
 _atom_site_fract_z
 _atom_site_occupancy
  Nb  Nb0  1  0.698255  0.301746  0.249991  1
  Nb  Nb1  1  0.301753  0.698245  0.750035  1
  Nb  Nb2  1  0.580991  0.419010  0.554545  1
  Nb  Nb3  1  0.419023  0.580977  0.445472  1
  Nb  Nb4  1  0.419022  0.580979  0.054510  1
  Nb  Nb5  1  0.580985  0.419015  0.945464  1
  Fe  Fe6  1  0.542351  0.457648  0.250002  1
  Fe  Fe7  1  0.457650  0.542348  0.749998  1
  Co  Co8  1  0.843588  0.156413  0.250012  1
  Co  Co9  1  0.156421  0.843579  0.749999  1
  Co  Co10  1  0.800780  0.199221  0.505369  1
  Co  Co11  1  0.199215  0.800785  0.494640  1
  Co  Co12  1  0.199217  0.800783  0.005334  1
  Co  Co13  1  0.800783  0.199216  0.994654  1
  B  B14  1  0.956006  0.043994  0.249988  1
  B  B15  1  0.043997  0.956003  0.750007  1
  B  B16  1  0.890594  0.109405  0.649306  1
  B  B17  1  0.109416  0.890586  0.350726  1
  B  B18  1  0.109414  0.890586  0.149264  1
  B  B19  1  0.890594  0.109405  0.850726  1
  B  B20  1  0.709444  0.290557  0.643221  1
  B  B21  1  0.290531  0.709470  0.356734  1
  B  B22  1  0.290548  0.709452  0.143177  1
  B  B23  1  0.709443  0.290556  0.856821  1
  B  B24  1  0.984544  0.015456  0.593750  1
  B  B25  1  0.015451  0.984549  0.406259  1
  B  B26  1  0.015441  0.984559  0.093739  1
  B  B27  1  0.984540  0.015459  0.906258  1
