# generated using pymatgen
data_La10Sb8TeSe
_symmetry_space_group_name_H-M   'P 1'
_cell_length_a   7.96351307
_cell_length_b   9.21661492
_cell_length_c   10.25550609
_cell_angle_alpha   102.74542857
_cell_angle_beta   97.57888611
_cell_angle_gamma   106.86334874
_symmetry_Int_Tables_number   1
_chemical_formula_structural   La10Sb8TeSe
_chemical_formula_sum   'La10 Sb8 Te1 Se1'
_cell_volume   686.95615924
_cell_formula_units_Z   1
loop_
 _symmetry_equiv_pos_site_id
 _symmetry_equiv_pos_as_xyz
  1  'x, y, z'
loop_
 _atom_site_type_symbol
 _atom_site_label
 _atom_site_symmetry_multiplicity
 _atom_site_fract_x
 _atom_site_fract_y
 _atom_site_fract_z
 _atom_site_occupancy
  La  La0  1  0.899844  0.550646  0.803026  1
  La  La1  1  0.696108  0.152373  0.399208  1
  La  La2  1  0.502940  0.748105  0.000621  1
  La  La3  1  0.696621  0.643827  0.395464  1
  La  La4  1  0.304109  0.354794  0.601397  1
  La  La5  1  0.098306  0.945452  0.194345  1
  La  La6  1  0.502554  0.253261  0.000760  1
  La  La7  1  0.303856  0.848203  0.601222  1
  La  La8  1  0.096259  0.451677  0.199173  1
  La  La9  1  0.899147  0.051232  0.804263  1
  Sb  Sb10  1  0.599852  0.200530  0.700960  1
  Sb  Sb11  1  0.400076  0.799522  0.299415  1
  Sb  Sb12  1  0.800217  0.099839  0.101738  1
  Sb  Sb13  1  0.200662  0.400324  0.899979  1
  Sb  Sb14  1  0.603468  0.700661  0.699439  1
  Sb  Sb15  1  0.395520  0.298519  0.298121  1
  Sb  Sb16  1  0.201821  0.900172  0.900055  1
  Sb  Sb17  1  0.998810  0.500663  0.500472  1
  Te  Te18  1  0.999404  0.998865  0.498710  1
  Se  Se19  1  0.800425  0.601336  0.101631  1
