# generated using pymatgen
data_Nd10Mg(AlRu2)3
_symmetry_space_group_name_H-M   'P 1'
_cell_length_a   8.61976364
_cell_length_b   8.61976245
_cell_length_c   8.53909100
_cell_angle_alpha   109.28175622
_cell_angle_beta   109.28175344
_cell_angle_gamma   109.66002430
_symmetry_Int_Tables_number   1
_chemical_formula_structural   Nd10Mg(AlRu2)3
_chemical_formula_sum   'Nd10 Mg1 Al3 Ru6'
_cell_volume   489.54265528
_cell_formula_units_Z   1
loop_
 _symmetry_equiv_pos_site_id
 _symmetry_equiv_pos_as_xyz
  1  'x, y, z'
loop_
 _atom_site_type_symbol
 _atom_site_label
 _atom_site_symmetry_multiplicity
 _atom_site_fract_x
 _atom_site_fract_y
 _atom_site_fract_z
 _atom_site_occupancy
  Nd  Nd0  1  0.245023  0.675067  0.429355  1
  Nd  Nd1  1  0.749785  0.811172  0.064982  1
  Nd  Nd2  1  0.430045  0.254977  0.684331  1
  Nd  Nd3  1  0.688828  0.438614  0.253810  1
  Nd  Nd4  1  0.061387  0.750215  0.815197  1
  Nd  Nd5  1  0.824933  0.069956  0.754287  1
  Nd  Nd6  1  0.217521  0.213854  0.214910  1
  Nd  Nd7  1  0.500001  0.000000  0.294470  1
  Nd  Nd8  1  0.286146  0.503668  0.001057  1
  Nd  Nd9  1  0.996333  0.282479  0.497391  1
  Mg  Mg10  1  0.500001  0.000000  0.908703  1
  Al  Al11  1  0.589932  0.591298  0.589418  1
  Al  Al12  1  0.908702  0.498635  0.998121  1
  Al  Al13  1  0.001366  0.910068  0.499487  1
  Ru  Ru14  1  0.237826  0.126007  0.865325  1
  Ru  Ru15  1  0.746987  0.382674  0.630667  1
  Ru  Ru16  1  0.888183  0.262176  0.127501  1
  Ru  Ru17  1  0.117325  0.864312  0.247994  1
  Ru  Ru18  1  0.635687  0.753013  0.383679  1
  Ru  Ru19  1  0.373992  0.611816  0.739319  1
