# generated using pymatgen
data_NaNd6TcBr12
_symmetry_space_group_name_H-M   'P 1'
_cell_length_a   9.61897061
_cell_length_b   9.62106377
_cell_length_c   9.48522086
_cell_angle_alpha   106.78949519
_cell_angle_beta   107.34107855
_cell_angle_gamma   107.13040407
_symmetry_Int_Tables_number   1
_chemical_formula_structural   NaNd6TcBr12
_chemical_formula_sum   'Na1 Nd6 Tc1 Br12'
_cell_volume   729.29117225
_cell_formula_units_Z   1
loop_
 _symmetry_equiv_pos_site_id
 _symmetry_equiv_pos_as_xyz
  1  'x, y, z'
loop_
 _atom_site_type_symbol
 _atom_site_label
 _atom_site_symmetry_multiplicity
 _atom_site_fract_x
 _atom_site_fract_y
 _atom_site_fract_z
 _atom_site_occupancy
  Na  Na0  1  0.500000  0.500000  0.500000  1
  Nd  Nd1  1  0.322995  0.112349  0.031080  1
  Nd  Nd2  1  0.031362  0.321758  0.111677  1
  Nd  Nd3  1  0.106919  0.030290  0.309930  1
  Nd  Nd4  1  0.893080  0.969710  0.690070  1
  Nd  Nd5  1  0.968638  0.678242  0.888322  1
  Nd  Nd6  1  0.677005  0.887651  0.968919  1
  Tc  Tc7  1  0.000000  0.000000  0.000000  1
  Br  Br8  1  0.686388  0.217615  0.072999  1
  Br  Br9  1  0.370450  0.451253  0.153027  1
  Br  Br10  1  0.073557  0.687378  0.219349  1
  Br  Br11  1  0.782609  0.927398  0.314419  1
  Br  Br12  1  0.451090  0.153292  0.371578  1
  Br  Br13  1  0.153742  0.370585  0.452760  1
  Br  Br14  1  0.846259  0.629415  0.547241  1
  Br  Br15  1  0.548910  0.846709  0.628422  1
  Br  Br16  1  0.217390  0.072602  0.685581  1
  Br  Br17  1  0.926443  0.312622  0.780650  1
  Br  Br18  1  0.629551  0.548748  0.846973  1
  Br  Br19  1  0.313612  0.782384  0.927001  1
