# generated using pymatgen
data_Sr4H9Pd2F3
_symmetry_space_group_name_H-M   'P 1'
_cell_length_a   7.64378552
_cell_length_b   7.64378584
_cell_length_c   5.64796617
_cell_angle_alpha   90.07051571
_cell_angle_beta   89.92948291
_cell_angle_gamma   136.62210729
_symmetry_Int_Tables_number   1
_chemical_formula_structural   Sr4H9Pd2F3
_chemical_formula_sum   'Sr4 H9 Pd2 F3'
_cell_volume   226.64361783
_cell_formula_units_Z   1
loop_
 _symmetry_equiv_pos_site_id
 _symmetry_equiv_pos_as_xyz
  1  'x, y, z'
loop_
 _atom_site_type_symbol
 _atom_site_label
 _atom_site_symmetry_multiplicity
 _atom_site_fract_x
 _atom_site_fract_y
 _atom_site_fract_z
 _atom_site_occupancy
  Sr  Sr0  1  0.354246  0.647816  0.000436  1
  Sr  Sr1  1  0.852502  0.145944  0.499011  1
  Sr  Sr2  1  0.645944  0.352502  0.000989  1
  Sr  Sr3  1  0.147816  0.854246  0.499564  1
  H  H4  1  0.499755  0.999755  0.250000  1
  H  H5  1  0.121401  0.887642  0.003782  1
  H  H6  1  0.612103  0.378628  0.497163  1
  H  H7  1  0.878628  0.112103  0.002837  1
  H  H8  1  0.387642  0.621401  0.496218  1
  H  H9  1  0.784378  0.783422  0.213342  1
  H  H10  1  0.215497  0.215935  0.787826  1
  H  H11  1  0.715935  0.715497  0.712174  1
  H  H12  1  0.283422  0.284378  0.286658  1
  Pd  Pd13  1  0.000350  0.000030  0.001298  1
  Pd  Pd14  1  0.500030  0.500350  0.498702  1
  F  F15  1  0.999459  0.499459  0.250000  1
  F  F16  1  0.500460  0.000460  0.750000  1
  F  F17  1  0.000430  0.500430  0.750000  1
