# generated using pymatgen
data_Ca3SmMg2(RuO6)2
_symmetry_space_group_name_H-M   'P 1'
_cell_length_a   5.62917143
_cell_length_b   5.43379368
_cell_length_c   9.46703790
_cell_angle_alpha   54.94306734
_cell_angle_beta   89.95294381
_cell_angle_gamma   90.08471451
_symmetry_Int_Tables_number   1
_chemical_formula_structural   Ca3SmMg2(RuO6)2
_chemical_formula_sum   'Ca3 Sm1 Mg2 Ru2 O12'
_cell_volume   237.04040849
_cell_formula_units_Z   1
loop_
 _symmetry_equiv_pos_site_id
 _symmetry_equiv_pos_as_xyz
  1  'x, y, z'
loop_
 _atom_site_type_symbol
 _atom_site_label
 _atom_site_symmetry_multiplicity
 _atom_site_fract_x
 _atom_site_fract_y
 _atom_site_fract_z
 _atom_site_occupancy
  Ca  Ca0  1  0.443851  0.234227  0.251326  1
  Ca  Ca1  1  0.556313  0.766294  0.748299  1
  Ca  Ca2  1  0.054775  0.236514  0.750906  1
  Sm  Sm3  1  0.938510  0.765936  0.248860  1
  Mg  Mg4  1  0.496476  0.002052  0.998177  1
  Mg  Mg5  1  0.000667  0.998905  0.501733  1
  Ru  Ru6  1  0.001619  0.504677  0.997238  1
  Ru  Ru7  1  0.498095  0.495587  0.502579  1
  O  O8  1  0.700625  0.837449  0.448049  1
  O  O9  1  0.194676  0.157227  0.049014  1
  O  O10  1  0.304736  0.161738  0.547410  1
  O  O11  1  0.806489  0.837304  0.957874  1
  O  O12  1  0.791194  0.265272  0.546106  1
  O  O13  1  0.288177  0.741314  0.948447  1
  O  O14  1  0.208728  0.742281  0.447956  1
  O  O15  1  0.717689  0.247089  0.055742  1
  O  O16  1  0.528301  0.649590  0.256513  1
  O  O17  1  0.029726  0.353270  0.243750  1
  O  O18  1  0.470730  0.353117  0.741639  1
  O  O19  1  0.968623  0.650158  0.758381  1
