# generated using pymatgen
data_NdPt4Au
_symmetry_space_group_name_H-M   'P 1'
_cell_length_a   5.41281896
_cell_length_b   5.41281851
_cell_length_c   5.41281900
_cell_angle_alpha   60.00000311
_cell_angle_beta   60.00000585
_cell_angle_gamma   60.00000468
_symmetry_Int_Tables_number   1
_chemical_formula_structural   NdPt4Au
_chemical_formula_sum   'Nd1 Pt4 Au1'
_cell_volume   112.13870043
_cell_formula_units_Z   1
loop_
 _symmetry_equiv_pos_site_id
 _symmetry_equiv_pos_as_xyz
  1  'x, y, z'
loop_
 _atom_site_type_symbol
 _atom_site_label
 _atom_site_symmetry_multiplicity
 _atom_site_fract_x
 _atom_site_fract_y
 _atom_site_fract_z
 _atom_site_occupancy
  Nd  Nd0  1  0.000000  0.000000  0.000000  1
  Pt  Pt1  1  0.624438  0.624438  0.126684  1
  Pt  Pt2  1  0.624438  0.126684  0.624438  1
  Pt  Pt3  1  0.126684  0.624438  0.624438  1
  Pt  Pt4  1  0.624438  0.624438  0.624438  1
  Au  Au5  1  0.250000  0.250000  0.250000  1
