# generated using pymatgen
data_Cs8Na4SmIn3Sb8
_symmetry_space_group_name_H-M   'P 1'
_cell_length_a   11.60452863
_cell_length_b   11.60452782
_cell_length_c   7.45708727
_cell_angle_alpha   90.14761547
_cell_angle_beta   89.85238013
_cell_angle_gamma   101.39884834
_symmetry_Int_Tables_number   1
_chemical_formula_structural   Cs8Na4SmIn3Sb8
_chemical_formula_sum   'Cs8 Na4 Sm1 In3 Sb8'
_cell_volume   984.39588504
_cell_formula_units_Z   1
loop_
 _symmetry_equiv_pos_site_id
 _symmetry_equiv_pos_as_xyz
  1  'x, y, z'
loop_
 _atom_site_type_symbol
 _atom_site_label
 _atom_site_symmetry_multiplicity
 _atom_site_fract_x
 _atom_site_fract_y
 _atom_site_fract_z
 _atom_site_occupancy
  Cs  Cs0  1  0.075494  0.421535  0.249234  1
  Cs  Cs1  1  0.421535  0.075494  0.750766  1
  Cs  Cs2  1  0.929657  0.579757  0.756332  1
  Cs  Cs3  1  0.579757  0.929657  0.243668  1
  Cs  Cs4  1  0.672715  0.320894  0.212746  1
  Cs  Cs5  1  0.827617  0.171749  0.720546  1
  Cs  Cs6  1  0.320894  0.672715  0.787254  1
  Cs  Cs7  1  0.171749  0.827617  0.279454  1
  Na  Na8  1  0.379898  0.379898  0.000000  1
  Na  Na9  1  0.119664  0.119664  0.500000  1
  Na  Na10  1  0.619039  0.619039  0.000000  1
  Na  Na11  1  0.883068  0.883068  0.500000  1
  Sm  Sm12  1  0.626147  0.626147  0.500000  1
  In  In13  1  0.133714  0.133714  0.000000  1
  In  In14  1  0.370028  0.370028  0.500000  1
  In  In15  1  0.869490  0.869490  0.000000  1
  Sb  Sb16  1  0.845120  0.658226  0.244531  1
  Sb  Sb17  1  0.658226  0.845120  0.755469  1
  Sb  Sb18  1  0.158281  0.344397  0.747719  1
  Sb  Sb19  1  0.344397  0.158281  0.252281  1
  Sb  Sb20  1  0.908732  0.094260  0.202110  1
  Sb  Sb21  1  0.593951  0.396565  0.710677  1
  Sb  Sb22  1  0.094260  0.908732  0.797890  1
  Sb  Sb23  1  0.396565  0.593951  0.289323  1
