# generated using pymatgen
data_Er2Ga(SiRh2)6
_symmetry_space_group_name_H-M   'P 1'
_cell_length_a   9.78396600
_cell_length_b   9.78396641
_cell_length_c   3.86100000
_cell_angle_alpha   90.00000000
_cell_angle_beta   90.00000000
_cell_angle_gamma   120.00000538
_symmetry_Int_Tables_number   1
_chemical_formula_structural   Er2Ga(SiRh2)6
_chemical_formula_sum   'Er2 Ga1 Si6 Rh12'
_cell_volume   320.08129654
_cell_formula_units_Z   1
loop_
 _symmetry_equiv_pos_site_id
 _symmetry_equiv_pos_as_xyz
  1  'x, y, z'
loop_
 _atom_site_type_symbol
 _atom_site_label
 _atom_site_symmetry_multiplicity
 _atom_site_fract_x
 _atom_site_fract_y
 _atom_site_fract_z
 _atom_site_occupancy
  Er  Er0  1  0.333333  0.666667  0.751072  1
  Er  Er1  1  0.000000  0.000000  0.250457  1
  Ga  Ga2  1  0.666667  0.333333  0.583110  1
  Si  Si3  1  0.955774  0.221882  0.749999  1
  Si  Si4  1  0.778118  0.733892  0.749999  1
  Si  Si5  1  0.266108  0.044226  0.749999  1
  Si  Si6  1  0.376672  0.444149  0.251892  1
  Si  Si7  1  0.555851  0.932522  0.251892  1
  Si  Si8  1  0.067478  0.623328  0.251892  1
  Rh  Rh9  1  0.733217  0.953060  0.751960  1
  Rh  Rh10  1  0.046940  0.780158  0.751960  1
  Rh  Rh11  1  0.219842  0.266783  0.751960  1
  Rh  Rh12  1  0.604142  0.717469  0.250168  1
  Rh  Rh13  1  0.282531  0.886673  0.250168  1
  Rh  Rh14  1  0.113327  0.395858  0.250168  1
  Rh  Rh15  1  0.945493  0.460260  0.750314  1
  Rh  Rh16  1  0.539740  0.485234  0.750314  1
  Rh  Rh17  1  0.514766  0.054507  0.750314  1
  Rh  Rh18  1  0.401963  0.212278  0.252183  1
  Rh  Rh19  1  0.787722  0.189685  0.252183  1
  Rh  Rh20  1  0.810315  0.598037  0.252183  1
