# generated using pymatgen
data_Sc8Al3Si13Tc12
_symmetry_space_group_name_H-M   'P 1'
_cell_length_a   6.63430984
_cell_length_b   6.71052065
_cell_length_c   12.43068100
_cell_angle_alpha   90.00000000
_cell_angle_beta   90.00000000
_cell_angle_gamma   89.04286069
_symmetry_Int_Tables_number   1
_chemical_formula_structural   Sc8Al3Si13Tc12
_chemical_formula_sum   'Sc8 Al3 Si13 Tc12'
_cell_volume   553.33263908
_cell_formula_units_Z   1
loop_
 _symmetry_equiv_pos_site_id
 _symmetry_equiv_pos_as_xyz
  1  'x, y, z'
loop_
 _atom_site_type_symbol
 _atom_site_label
 _atom_site_symmetry_multiplicity
 _atom_site_fract_x
 _atom_site_fract_y
 _atom_site_fract_z
 _atom_site_occupancy
  Sc  Sc0  1  0.487831  0.329021  0.090269  1
  Sc  Sc1  1  0.995715  0.170126  0.408187  1
  Sc  Sc2  1  0.508362  0.670571  0.590666  1
  Sc  Sc3  1  0.010212  0.825815  0.911057  1
  Sc  Sc4  1  0.508362  0.670571  0.909334  1
  Sc  Sc5  1  0.010212  0.825815  0.588943  1
  Sc  Sc6  1  0.487831  0.329021  0.409731  1
  Sc  Sc7  1  0.995715  0.170126  0.091813  1
  Al  Al8  1  0.519990  0.355349  0.750000  1
  Al  Al9  1  0.018328  0.134119  0.750000  1
  Al  Al10  1  0.473852  0.647734  0.250000  1
  Si  Si11  1  0.663487  0.049806  0.550432  1
  Si  Si12  1  0.161753  0.451435  0.950324  1
  Si  Si13  1  0.347499  0.941108  0.053462  1
  Si  Si14  1  0.829628  0.545108  0.450248  1
  Si  Si15  1  0.347499  0.941108  0.446538  1
  Si  Si16  1  0.829628  0.545108  0.049752  1
  Si  Si17  1  0.663487  0.049806  0.949568  1
  Si  Si18  1  0.161753  0.451435  0.549676  1
  Si  Si19  1  0.988507  0.870889  0.250000  1
  Si  Si20  1  0.804129  0.638544  0.750000  1
  Si  Si21  1  0.302866  0.854661  0.750000  1
  Si  Si22  1  0.196819  0.367881  0.250000  1
  Si  Si23  1  0.694839  0.153018  0.250000  1
  Tc  Tc24  1  0.825259  0.354402  0.616752  1
  Tc  Tc25  1  0.316399  0.138450  0.884197  1
  Tc  Tc26  1  0.157471  0.649679  0.118719  1
  Tc  Tc27  1  0.703558  0.863770  0.376368  1
  Tc  Tc28  1  0.157471  0.649679  0.381281  1
  Tc  Tc29  1  0.703558  0.863770  0.123632  1
  Tc  Tc30  1  0.825259  0.354402  0.883248  1
  Tc  Tc31  1  0.316399  0.138450  0.615803  1
  Tc  Tc32  1  0.658483  0.976622  0.750000  1
  Tc  Tc33  1  0.164210  0.516207  0.750000  1
  Tc  Tc34  1  0.333906  0.019610  0.250000  1
  Tc  Tc35  1  0.829720  0.486779  0.250000  1
