# generated using pymatgen
data_Dy16In2Ag2Ir3Rh
_symmetry_space_group_name_H-M   'P 1'
_cell_length_a   9.59707287
_cell_length_b   9.59707354
_cell_length_c   9.61232842
_cell_angle_alpha   60.07844704
_cell_angle_beta   60.07844268
_cell_angle_gamma   60.13324653
_symmetry_Int_Tables_number   1
_chemical_formula_structural   Dy16In2Ag2Ir3Rh
_chemical_formula_sum   'Dy16 In2 Ag2 Ir3 Rh1'
_cell_volume   627.39580411
_cell_formula_units_Z   1
loop_
 _symmetry_equiv_pos_site_id
 _symmetry_equiv_pos_as_xyz
  1  'x, y, z'
loop_
 _atom_site_type_symbol
 _atom_site_label
 _atom_site_symmetry_multiplicity
 _atom_site_fract_x
 _atom_site_fract_y
 _atom_site_fract_z
 _atom_site_occupancy
  Dy  Dy0  1  0.599407  0.599407  0.599763  1
  Dy  Dy1  1  0.600131  0.600131  0.199898  1
  Dy  Dy2  1  0.600611  0.199526  0.600797  1
  Dy  Dy3  1  0.199526  0.600611  0.600797  1
  Dy  Dy4  1  0.059152  0.439851  0.440611  1
  Dy  Dy5  1  0.439541  0.060208  0.059275  1
  Dy  Dy6  1  0.439851  0.059152  0.440611  1
  Dy  Dy7  1  0.060208  0.439541  0.059275  1
  Dy  Dy8  1  0.441728  0.441728  0.057447  1
  Dy  Dy9  1  0.061087  0.061087  0.438247  1
  Dy  Dy10  1  0.185164  0.811080  0.812880  1
  Dy  Dy11  1  0.811735  0.184140  0.191294  1
  Dy  Dy12  1  0.811080  0.185164  0.812880  1
  Dy  Dy13  1  0.184140  0.811735  0.191294  1
  Dy  Dy14  1  0.810458  0.810458  0.189993  1
  Dy  Dy15  1  0.187026  0.187026  0.813670  1
  In  In16  1  0.833287  0.507812  0.829165  1
  In  In17  1  0.507812  0.833287  0.829165  1
  Ag  Ag18  1  0.833227  0.833227  0.832166  1
  Ag  Ag19  1  0.833345  0.833345  0.500960  1
  Ir  Ir20  1  0.392382  0.392382  0.824728  1
  Ir  Ir21  1  0.392360  0.824415  0.392200  1
  Ir  Ir22  1  0.824415  0.392360  0.392200  1
  Rh  Rh23  1  0.392331  0.392331  0.390685  1
