# generated using pymatgen
data_Er16Mg3SnPd4
_symmetry_space_group_name_H-M   'P 1'
_cell_length_a   9.65843093
_cell_length_b   9.67172048
_cell_length_c   9.67172200
_cell_angle_alpha   60.00000163
_cell_angle_beta   59.95447503
_cell_angle_gamma   59.95447355
_symmetry_Int_Tables_number   1
_chemical_formula_structural   Er16Mg3SnPd4
_chemical_formula_sum   'Er16 Mg3 Sn1 Pd4'
_cell_volume   638.41037619
_cell_formula_units_Z   1
loop_
 _symmetry_equiv_pos_site_id
 _symmetry_equiv_pos_as_xyz
  1  'x, y, z'
loop_
 _atom_site_type_symbol
 _atom_site_label
 _atom_site_symmetry_multiplicity
 _atom_site_fract_x
 _atom_site_fract_y
 _atom_site_fract_z
 _atom_site_occupancy
  Er  Er0  1  0.352861  0.351502  0.351502  1
  Er  Er1  1  0.352861  0.351502  0.944134  1
  Er  Er2  1  0.352861  0.944134  0.351502  1
  Er  Er3  1  0.946179  0.351273  0.351273  1
  Er  Er4  1  0.813459  0.186983  0.186983  1
  Er  Er5  1  0.189256  0.811619  0.811619  1
  Er  Er6  1  0.189256  0.811619  0.187505  1
  Er  Er7  1  0.813459  0.186983  0.812576  1
  Er  Er8  1  0.189256  0.187505  0.811619  1
  Er  Er9  1  0.813459  0.812576  0.186983  1
  Er  Er10  1  0.932535  0.566383  0.566383  1
  Er  Er11  1  0.566628  0.933246  0.933246  1
  Er  Er12  1  0.566628  0.933246  0.566879  1
  Er  Er13  1  0.932535  0.566383  0.934700  1
  Er  Er14  1  0.566628  0.566879  0.933246  1
  Er  Er15  1  0.932535  0.934700  0.566383  1
  Mg  Mg16  1  0.579497  0.581025  0.581025  1
  Mg  Mg17  1  0.579497  0.581025  0.258454  1
  Mg  Mg18  1  0.579497  0.258454  0.581025  1
  Sn  Sn19  1  0.252586  0.582471  0.582471  1
  Pd  Pd20  1  0.143788  0.144261  0.144261  1
  Pd  Pd21  1  0.143788  0.144261  0.567689  1
  Pd  Pd22  1  0.143788  0.567689  0.144261  1
  Pd  Pd23  1  0.567159  0.144280  0.144280  1
