# generated using pymatgen
data_Dy2Tm10TcOs3
_symmetry_space_group_name_H-M   'P 1'
_cell_length_a   7.38475252
_cell_length_b   8.93156800
_cell_length_c   6.24387338
_cell_angle_alpha   90.00000000
_cell_angle_beta   89.95664506
_cell_angle_gamma   90.00000000
_symmetry_Int_Tables_number   1
_chemical_formula_structural   Dy2Tm10TcOs3
_chemical_formula_sum   'Dy2 Tm10 Tc1 Os3'
_cell_volume   411.82965681
_cell_formula_units_Z   1
loop_
 _symmetry_equiv_pos_site_id
 _symmetry_equiv_pos_as_xyz
  1  'x, y, z'
loop_
 _atom_site_type_symbol
 _atom_site_label
 _atom_site_symmetry_multiplicity
 _atom_site_fract_x
 _atom_site_fract_y
 _atom_site_fract_z
 _atom_site_occupancy
  Dy  Dy0  1  0.039892  0.250000  0.625990  1
  Dy  Dy1  1  0.539023  0.250000  0.875547  1
  Tm  Tm2  1  0.959668  0.750000  0.370888  1
  Tm  Tm3  1  0.460538  0.750000  0.129381  1
  Tm  Tm4  1  0.174464  0.061686  0.163781  1
  Tm  Tm5  1  0.824860  0.937285  0.833715  1
  Tm  Tm6  1  0.325359  0.936584  0.664713  1
  Tm  Tm7  1  0.824860  0.562715  0.833715  1
  Tm  Tm8  1  0.675075  0.061960  0.335197  1
  Tm  Tm9  1  0.174464  0.438314  0.163781  1
  Tm  Tm10  1  0.675075  0.438040  0.335197  1
  Tm  Tm11  1  0.325359  0.563416  0.664713  1
  Tc  Tc12  1  0.382407  0.250000  0.462324  1
  Os  Os13  1  0.618832  0.750000  0.538646  1
  Os  Os14  1  0.117754  0.750000  0.962232  1
  Os  Os15  1  0.882368  0.250000  0.040178  1
