# generated using pymatgen
data_Th2Sc3Ge4
_symmetry_space_group_name_H-M   'P 1'
_cell_length_a   7.47118000
_cell_length_b   7.58365200
_cell_length_c   14.22949700
_cell_angle_alpha   90.00000000
_cell_angle_beta   90.00000000
_cell_angle_gamma   90.00000000
_symmetry_Int_Tables_number   1
_chemical_formula_structural   Th2Sc3Ge4
_chemical_formula_sum   'Th8 Sc12 Ge16'
_cell_volume   806.22663940
_cell_formula_units_Z   4
loop_
 _symmetry_equiv_pos_site_id
 _symmetry_equiv_pos_as_xyz
  1  'x, y, z'
loop_
 _atom_site_type_symbol
 _atom_site_label
 _atom_site_symmetry_multiplicity
 _atom_site_fract_x
 _atom_site_fract_y
 _atom_site_fract_z
 _atom_site_occupancy
  Th  Th0  1  0.995290  0.174894  0.095762  1
  Th  Th1  1  0.004710  0.825106  0.904238  1
  Th  Th2  1  0.504710  0.674894  0.904238  1
  Th  Th3  1  0.004710  0.825106  0.595762  1
  Th  Th4  1  0.495290  0.325106  0.095762  1
  Th  Th5  1  0.995290  0.174894  0.404238  1
  Th  Th6  1  0.495290  0.325106  0.404238  1
  Th  Th7  1  0.504710  0.674894  0.595762  1
  Sc  Sc8  1  0.172737  0.499467  0.750000  1
  Sc  Sc9  1  0.827263  0.500533  0.250000  1
  Sc  Sc10  1  0.327263  0.999467  0.250000  1
  Sc  Sc11  1  0.672737  0.000533  0.750000  1
  Sc  Sc12  1  0.342127  0.166092  0.625479  1
  Sc  Sc13  1  0.657873  0.833908  0.374521  1
  Sc  Sc14  1  0.157873  0.666092  0.374521  1
  Sc  Sc15  1  0.657873  0.833908  0.125479  1
  Sc  Sc16  1  0.842127  0.333908  0.625479  1
  Sc  Sc17  1  0.342127  0.166092  0.874521  1
  Sc  Sc18  1  0.842127  0.333908  0.874521  1
  Sc  Sc19  1  0.157873  0.666092  0.125479  1
  Ge  Ge20  1  0.182645  0.456845  0.543431  1
  Ge  Ge21  1  0.817355  0.543155  0.456569  1
  Ge  Ge22  1  0.317355  0.956845  0.456569  1
  Ge  Ge23  1  0.817355  0.543155  0.043431  1
  Ge  Ge24  1  0.682645  0.043155  0.543431  1
  Ge  Ge25  1  0.182645  0.456845  0.956569  1
  Ge  Ge26  1  0.682645  0.043155  0.956569  1
  Ge  Ge27  1  0.317355  0.956845  0.043431  1
  Ge  Ge28  1  0.038240  0.131541  0.750000  1
  Ge  Ge29  1  0.961760  0.868459  0.250000  1
  Ge  Ge30  1  0.461760  0.631541  0.250000  1
  Ge  Ge31  1  0.538240  0.368459  0.750000  1
  Ge  Ge32  1  0.310837  0.865478  0.750000  1
  Ge  Ge33  1  0.689163  0.134522  0.250000  1
  Ge  Ge34  1  0.189163  0.365478  0.250000  1
  Ge  Ge35  1  0.810837  0.634522  0.750000  1
