# generated using pymatgen
data_BaNb2MoS6
_symmetry_space_group_name_H-M   'P 1'
_cell_length_a   5.78985900
_cell_length_b   5.78985877
_cell_length_c   16.08477700
_cell_angle_alpha   90.00000000
_cell_angle_beta   90.00000000
_cell_angle_gamma   119.99999561
_symmetry_Int_Tables_number   1
_chemical_formula_structural   BaNb2MoS6
_chemical_formula_sum   'Ba2 Nb4 Mo2 S12'
_cell_volume   466.96212087
_cell_formula_units_Z   2
loop_
 _symmetry_equiv_pos_site_id
 _symmetry_equiv_pos_as_xyz
  1  'x, y, z'
loop_
 _atom_site_type_symbol
 _atom_site_label
 _atom_site_symmetry_multiplicity
 _atom_site_fract_x
 _atom_site_fract_y
 _atom_site_fract_z
 _atom_site_occupancy
  Ba  Ba0  1  0.000000  0.000000  0.000000  1
  Ba  Ba1  1  0.000000  0.000000  0.500000  1
  Nb  Nb2  1  0.333333  0.666667  0.250000  1
  Nb  Nb3  1  0.666667  0.333333  0.750000  1
  Nb  Nb4  1  0.666667  0.333333  0.250000  1
  Nb  Nb5  1  0.333333  0.666667  0.750000  1
  Mo  Mo6  1  0.000000  0.000000  0.750000  1
  Mo  Mo7  1  0.000000  0.000000  0.250000  1
  S  S8  1  0.331195  0.000000  0.153201  1
  S  S9  1  0.000000  0.331195  0.153201  1
  S  S10  1  0.668805  0.668805  0.153201  1
  S  S11  1  0.331195  0.331195  0.653201  1
  S  S12  1  0.668805  0.668805  0.346799  1
  S  S13  1  0.668805  0.000000  0.653201  1
  S  S14  1  0.000000  0.668805  0.653201  1
  S  S15  1  0.000000  0.668805  0.846799  1
  S  S16  1  0.331195  0.331195  0.846799  1
  S  S17  1  0.000000  0.331195  0.346799  1
  S  S18  1  0.331195  0.000000  0.346799  1
  S  S19  1  0.668805  0.000000  0.846799  1
