# generated using pymatgen
data_Lu(Al5Ru)2
_symmetry_space_group_name_H-M   'P 1'
_cell_length_a   6.84215651
_cell_length_b   6.84215696
_cell_length_c   9.11871500
_cell_angle_alpha   90.00000000
_cell_angle_beta   90.00000000
_cell_angle_gamma   96.68428791
_symmetry_Int_Tables_number   1
_chemical_formula_structural   Lu(Al5Ru)2
_chemical_formula_sum   'Lu2 Al20 Ru4'
_cell_volume   423.99187058
_cell_formula_units_Z   2
loop_
 _symmetry_equiv_pos_site_id
 _symmetry_equiv_pos_as_xyz
  1  'x, y, z'
loop_
 _atom_site_type_symbol
 _atom_site_label
 _atom_site_symmetry_multiplicity
 _atom_site_fract_x
 _atom_site_fract_y
 _atom_site_fract_z
 _atom_site_occupancy
  Lu  Lu0  1  0.872046  0.127954  0.750000  1
  Lu  Lu1  1  0.127954  0.872046  0.250000  1
  Al  Al2  1  0.623645  0.376355  0.549908  1
  Al  Al3  1  0.376355  0.623645  0.450092  1
  Al  Al4  1  0.376355  0.623645  0.049908  1
  Al  Al5  1  0.623645  0.376355  0.950092  1
  Al  Al6  1  0.226159  0.226159  0.500000  1
  Al  Al7  1  0.773841  0.773841  0.500000  1
  Al  Al8  1  0.773841  0.773841  0.000000  1
  Al  Al9  1  0.226159  0.226159  0.000000  1
  Al  Al10  1  0.845079  0.154921  0.098719  1
  Al  Al11  1  0.154921  0.845079  0.901281  1
  Al  Al12  1  0.154921  0.845079  0.598719  1
  Al  Al13  1  0.845079  0.154921  0.401281  1
  Al  Al14  1  0.859381  0.585106  0.750000  1
  Al  Al15  1  0.140619  0.414894  0.250000  1
  Al  Al16  1  0.414894  0.140619  0.750000  1
  Al  Al17  1  0.585106  0.859381  0.250000  1
  Al  Al18  1  0.221566  0.478468  0.750000  1
  Al  Al19  1  0.778434  0.521532  0.250000  1
  Al  Al20  1  0.521532  0.778434  0.750000  1
  Al  Al21  1  0.478468  0.221566  0.250000  1
  Ru  Ru22  1  0.000000  0.500000  0.500000  1
  Ru  Ru23  1  0.000000  0.500000  0.000000  1
  Ru  Ru24  1  0.500000  0.000000  0.000000  1
  Ru  Ru25  1  0.500000  0.000000  0.500000  1
