# generated using pymatgen
data_Tb3In3Hg2Rh
_symmetry_space_group_name_H-M   'P 1'
_cell_length_a   7.97476700
_cell_length_b   7.97476568
_cell_length_c   3.93392000
_cell_angle_alpha   90.00000000
_cell_angle_beta   90.00000000
_cell_angle_gamma   120.00000962
_symmetry_Int_Tables_number   1
_chemical_formula_structural   Tb3In3Hg2Rh
_chemical_formula_sum   'Tb3 In3 Hg2 Rh1'
_cell_volume   216.66663967
_cell_formula_units_Z   1
loop_
 _symmetry_equiv_pos_site_id
 _symmetry_equiv_pos_as_xyz
  1  'x, y, z'
loop_
 _atom_site_type_symbol
 _atom_site_label
 _atom_site_symmetry_multiplicity
 _atom_site_fract_x
 _atom_site_fract_y
 _atom_site_fract_z
 _atom_site_occupancy
  Tb  Tb0  1  0.971784  0.582653  0.500000  1
  Tb  Tb1  1  0.417347  0.389130  0.500000  1
  Tb  Tb2  1  0.610870  0.028216  0.500000  1
  In  In3  1  0.730969  0.723728  0.000000  1
  In  In4  1  0.992759  0.269031  0.000000  1
  In  In5  1  0.276272  0.007241  0.000000  1
  Hg  Hg6  1  0.333333  0.666667  0.000000  1
  Hg  Hg7  1  0.000000  0.000000  0.500000  1
  Rh  Rh8  1  0.666667  0.333333  0.000000  1
