# generated using pymatgen
data_Tm4Zn5Ni9
_symmetry_space_group_name_H-M   'P 1'
_cell_length_a   5.11038152
_cell_length_b   5.11038124
_cell_length_c   12.22586814
_cell_angle_alpha   77.93633140
_cell_angle_beta   77.93632913
_cell_angle_gamma   60.00000383
_symmetry_Int_Tables_number   1
_chemical_formula_structural   Tm4Zn5Ni9
_chemical_formula_sum   'Tm4 Zn5 Ni9'
_cell_volume   268.34096815
_cell_formula_units_Z   1
loop_
 _symmetry_equiv_pos_site_id
 _symmetry_equiv_pos_as_xyz
  1  'x, y, z'
loop_
 _atom_site_type_symbol
 _atom_site_label
 _atom_site_symmetry_multiplicity
 _atom_site_fract_x
 _atom_site_fract_y
 _atom_site_fract_z
 _atom_site_occupancy
  Tm  Tm0  1  0.953122  0.953122  0.140634  1
  Tm  Tm1  1  0.046878  0.046878  0.859366  1
  Tm  Tm2  1  0.855042  0.855042  0.434872  1
  Tm  Tm3  1  0.144958  0.144958  0.565128  1
  Zn  Zn4  1  0.500000  0.500000  0.500000  1
  Zn  Zn5  1  0.722650  0.722650  0.832051  1
  Zn  Zn6  1  0.277350  0.277350  0.167949  1
  Zn  Zn7  1  0.610334  0.610334  0.168997  1
  Zn  Zn8  1  0.389666  0.389666  0.831003  1
  Ni  Ni9  1  0.000000  0.500000  0.000000  1
  Ni  Ni10  1  0.500000  0.000000  0.000000  1
  Ni  Ni11  1  0.500000  0.500000  0.000000  1
  Ni  Ni12  1  0.385198  0.385198  0.335245  1
  Ni  Ni13  1  0.894358  0.385198  0.335245  1
  Ni  Ni14  1  0.385198  0.894358  0.335245  1
  Ni  Ni15  1  0.614802  0.614802  0.664755  1
  Ni  Ni16  1  0.105642  0.614802  0.664755  1
  Ni  Ni17  1  0.614802  0.105642  0.664755  1
