# generated using pymatgen
data_SmTa6GaS12
_symmetry_space_group_name_H-M   'P 1'
_cell_length_a   5.80140200
_cell_length_b   5.80140069
_cell_length_c   14.24086200
_cell_angle_alpha   90.00000000
_cell_angle_beta   90.00000000
_cell_angle_gamma   120.00000745
_symmetry_Int_Tables_number   1
_chemical_formula_structural   SmTa6GaS12
_chemical_formula_sum   'Sm1 Ta6 Ga1 S12'
_cell_volume   415.08085232
_cell_formula_units_Z   1
loop_
 _symmetry_equiv_pos_site_id
 _symmetry_equiv_pos_as_xyz
  1  'x, y, z'
loop_
 _atom_site_type_symbol
 _atom_site_label
 _atom_site_symmetry_multiplicity
 _atom_site_fract_x
 _atom_site_fract_y
 _atom_site_fract_z
 _atom_site_occupancy
  Sm  Sm0  1  0.000000  0.000000  0.000000  1
  Ta  Ta1  1  0.333333  0.666667  0.248556  1
  Ta  Ta2  1  0.666667  0.333333  0.751444  1
  Ta  Ta3  1  0.666667  0.333333  0.248556  1
  Ta  Ta4  1  0.333333  0.666667  0.751444  1
  Ta  Ta5  1  0.000000  0.000000  0.245357  1
  Ta  Ta6  1  0.000000  0.000000  0.754643  1
  Ga  Ga7  1  0.000000  0.000000  0.500000  1
  S  S8  1  0.340758  0.000000  0.136625  1
  S  S9  1  0.000000  0.340758  0.136625  1
  S  S10  1  0.659242  0.659242  0.136625  1
  S  S11  1  0.330522  0.330522  0.643867  1
  S  S12  1  0.669478  0.669478  0.356133  1
  S  S13  1  0.669478  0.000000  0.643867  1
  S  S14  1  0.000000  0.669478  0.643867  1
  S  S15  1  0.000000  0.659242  0.863375  1
  S  S16  1  0.340758  0.340758  0.863375  1
  S  S17  1  0.000000  0.330522  0.356133  1
  S  S18  1  0.330522  0.000000  0.356133  1
  S  S19  1  0.659242  0.000000  0.863375  1
