# generated using pymatgen
data_Tb2Tm3Co19(Si2P)4
_symmetry_space_group_name_H-M   'P 1'
_cell_length_a   12.07997331
_cell_length_b   12.08882414
_cell_length_c   3.68209600
_cell_angle_alpha   90.00000000
_cell_angle_beta   90.00000000
_cell_angle_gamma   120.01186598
_symmetry_Int_Tables_number   1
_chemical_formula_structural   Tb2Tm3Co19(Si2P)4
_chemical_formula_sum   'Tb2 Tm3 Co19 Si8 P4'
_cell_volume   465.61164388
_cell_formula_units_Z   1
loop_
 _symmetry_equiv_pos_site_id
 _symmetry_equiv_pos_as_xyz
  1  'x, y, z'
loop_
 _atom_site_type_symbol
 _atom_site_label
 _atom_site_symmetry_multiplicity
 _atom_site_fract_x
 _atom_site_fract_y
 _atom_site_fract_z
 _atom_site_occupancy
  Tb  Tb0  1  0.333296  0.667199  0.000000  1
  Tb  Tb1  1  0.664969  0.332802  0.000000  1
  Tm  Tm2  1  0.184112  0.998835  0.500000  1
  Tm  Tm3  1  0.001061  0.185693  0.500000  1
  Tm  Tm4  1  0.813766  0.813891  0.500000  1
  Co  Co5  1  0.196718  0.370969  0.000000  1
  Co  Co6  1  0.628174  0.824413  0.000000  1
  Co  Co7  1  0.175052  0.804535  0.000000  1
  Co  Co8  1  0.822291  0.626645  0.000000  1
  Co  Co9  1  0.804281  0.175895  0.000000  1
  Co  Co10  1  0.376579  0.201188  0.000000  1
  Co  Co11  1  0.558423  0.000771  0.000000  1
  Co  Co12  1  0.000204  0.558920  0.000000  1
  Co  Co13  1  0.440801  0.443904  0.000000  1
  Co  Co14  1  0.123669  0.478396  0.500000  1
  Co  Co15  1  0.521484  0.645080  0.500000  1
  Co  Co16  1  0.355159  0.877697  0.500000  1
  Co  Co17  1  0.637866  0.514175  0.500000  1
  Co  Co18  1  0.876886  0.355620  0.500000  1
  Co  Co19  1  0.478615  0.125156  0.500000  1
  Co  Co20  1  0.724661  0.000293  0.500000  1
  Co  Co21  1  0.998697  0.723523  0.500000  1
  Co  Co22  1  0.281816  0.277220  0.500000  1
  Co  Co23  1  0.000963  0.000809  0.000000  1
  Si  Si24  1  0.369454  0.000449  0.000000  1
  Si  Si25  1  0.000262  0.369788  0.000000  1
  Si  Si26  1  0.630357  0.630140  0.000000  1
  Si  Si27  1  0.318080  0.477169  0.500000  1
  Si  Si28  1  0.523222  0.841955  0.500000  1
  Si  Si29  1  0.158474  0.682124  0.500000  1
  Si  Si30  1  0.839671  0.522273  0.500000  1
  Si  Si31  1  0.682501  0.159242  0.500000  1
  P  P32  1  0.477976  0.313497  0.500000  1
  P  P33  1  0.820528  0.000241  0.000000  1
  P  P34  1  0.998485  0.819342  0.000000  1
  P  P35  1  0.181449  0.180146  0.000000  1
