# generated using pymatgen
data_Er(GaCu)6
_symmetry_space_group_name_H-M   'P 1'
_cell_length_a   5.24569163
_cell_length_b   6.59182092
_cell_length_c   6.59182148
_cell_angle_alpha   79.96946041
_cell_angle_beta   66.55342621
_cell_angle_gamma   66.55342498
_symmetry_Int_Tables_number   1
_chemical_formula_structural   Er(GaCu)6
_chemical_formula_sum   'Er1 Ga6 Cu6'
_cell_volume   191.81555680
_cell_formula_units_Z   1
loop_
 _symmetry_equiv_pos_site_id
 _symmetry_equiv_pos_as_xyz
  1  'x, y, z'
loop_
 _atom_site_type_symbol
 _atom_site_label
 _atom_site_symmetry_multiplicity
 _atom_site_fract_x
 _atom_site_fract_y
 _atom_site_fract_z
 _atom_site_occupancy
  Er  Er0  1  0.000000  0.000000  0.000000  1
  Ga  Ga1  1  0.000000  0.652249  0.347751  1
  Ga  Ga2  1  0.000000  0.347751  0.652249  1
  Ga  Ga3  1  0.346858  0.653142  0.653142  1
  Ga  Ga4  1  0.653142  0.346858  0.346858  1
  Ga  Ga5  1  0.312438  0.187562  0.187562  1
  Ga  Ga6  1  0.687562  0.812438  0.812438  1
  Cu  Cu7  1  0.500000  0.236467  0.763533  1
  Cu  Cu8  1  0.500000  0.763533  0.236467  1
  Cu  Cu9  1  0.000000  0.500000  0.000000  1
  Cu  Cu10  1  0.500000  0.500000  0.000000  1
  Cu  Cu11  1  0.000000  0.000000  0.500000  1
  Cu  Cu12  1  0.500000  0.000000  0.500000  1
