# generated using pymatgen
data_Na11Zn2As5
_symmetry_space_group_name_H-M   'P 1'
_cell_length_a   8.48448649
_cell_length_b   10.18419898
_cell_length_c   10.92378052
_cell_angle_alpha   103.43255791
_cell_angle_beta   97.08414868
_cell_angle_gamma   107.50248531
_symmetry_Int_Tables_number   1
_chemical_formula_structural   Na11Zn2As5
_chemical_formula_sum   'Na22 Zn4 As10'
_cell_volume   856.37464770
_cell_formula_units_Z   2
loop_
 _symmetry_equiv_pos_site_id
 _symmetry_equiv_pos_as_xyz
  1  'x, y, z'
loop_
 _atom_site_type_symbol
 _atom_site_label
 _atom_site_symmetry_multiplicity
 _atom_site_fract_x
 _atom_site_fract_y
 _atom_site_fract_z
 _atom_site_occupancy
  Na  Na0  1  0.854850  0.572781  0.963010  1
  Na  Na1  1  0.145150  0.427219  0.036990  1
  Na  Na2  1  0.306634  0.894465  0.776606  1
  Na  Na3  1  0.693366  0.105535  0.223394  1
  Na  Na4  1  0.630255  0.165139  0.530706  1
  Na  Na5  1  0.369745  0.834861  0.469294  1
  Na  Na6  1  0.631622  0.672638  0.559076  1
  Na  Na7  1  0.368378  0.327362  0.440924  1
  Na  Na8  1  0.205901  0.558237  0.572357  1
  Na  Na9  1  0.794099  0.441763  0.427643  1
  Na  Na10  1  0.049564  0.705249  0.266288  1
  Na  Na11  1  0.950436  0.294751  0.733712  1
  Na  Na12  1  0.205452  0.080406  0.571697  1
  Na  Na13  1  0.794548  0.919594  0.428303  1
  Na  Na14  1  0.873448  0.094866  0.981590  1
  Na  Na15  1  0.126552  0.905134  0.018410  1
  Na  Na16  1  0.584687  0.226660  0.862028  1
  Na  Na17  1  0.415313  0.773340  0.137972  1
  Na  Na18  1  0.396507  0.248713  0.142040  1
  Na  Na19  1  0.603493  0.751287  0.857960  1
  Na  Na20  1  0.349088  0.412346  0.791343  1
  Na  Na21  1  0.650912  0.587654  0.208657  1
  Zn  Zn22  1  0.945683  0.958293  0.718242  1
  Zn  Zn23  1  0.054317  0.041707  0.281758  1
  Zn  Zn24  1  0.945646  0.624202  0.715056  1
  Zn  Zn25  1  0.054354  0.375798  0.284944  1
  As  As26  1  0.002798  0.763799  0.548069  1
  As  As27  1  0.997202  0.236201  0.451931  1
  As  As28  1  0.654832  0.452807  0.691363  1
  As  As29  1  0.345168  0.547193  0.308637  1
  As  As30  1  0.656393  0.972012  0.699581  1
  As  As31  1  0.343607  0.027988  0.300419  1
  As  As32  1  0.196147  0.150044  0.870286  1
  As  As33  1  0.803853  0.849956  0.129714  1
  As  As34  1  0.194456  0.633193  0.868975  1
  As  As35  1  0.805544  0.366807  0.131025  1
