# generated using pymatgen
data_Zr16TiCo4Pd3
_symmetry_space_group_name_H-M   'P 1'
_cell_length_a   8.83485226
_cell_length_b   8.83457548
_cell_length_c   8.83472900
_cell_angle_alpha   60.13818079
_cell_angle_beta   60.13987689
_cell_angle_gamma   60.13814812
_symmetry_Int_Tables_number   1
_chemical_formula_structural   Zr16TiCo4Pd3
_chemical_formula_sum   'Zr16 Ti1 Co4 Pd3'
_cell_volume   489.13183977
_cell_formula_units_Z   1
loop_
 _symmetry_equiv_pos_site_id
 _symmetry_equiv_pos_as_xyz
  1  'x, y, z'
loop_
 _atom_site_type_symbol
 _atom_site_label
 _atom_site_symmetry_multiplicity
 _atom_site_fract_x
 _atom_site_fract_y
 _atom_site_fract_z
 _atom_site_occupancy
  Zr  Zr0  1  0.041111  0.651445  0.651392  1
  Zr  Zr1  1  0.651435  0.041100  0.651399  1
  Zr  Zr2  1  0.651414  0.651429  0.041103  1
  Zr  Zr3  1  0.646069  0.646072  0.646043  1
  Zr  Zr4  1  0.802056  0.802058  0.196767  1
  Zr  Zr5  1  0.193996  0.193965  0.801284  1
  Zr  Zr6  1  0.802059  0.196727  0.802072  1
  Zr  Zr7  1  0.193976  0.801306  0.193980  1
  Zr  Zr8  1  0.196736  0.802074  0.802087  1
  Zr  Zr9  1  0.801314  0.193934  0.193968  1
  Zr  Zr10  1  0.436281  0.436257  0.077328  1
  Zr  Zr11  1  0.064308  0.064345  0.435935  1
  Zr  Zr12  1  0.436279  0.077337  0.436260  1
  Zr  Zr13  1  0.064331  0.435898  0.064367  1
  Zr  Zr14  1  0.077311  0.436274  0.436276  1
  Zr  Zr15  1  0.435896  0.064356  0.064360  1
  Ti  Ti16  1  0.425931  0.425986  0.425929  1
  Co  Co17  1  0.422040  0.856625  0.856633  1
  Co  Co18  1  0.856673  0.422075  0.856633  1
  Co  Co19  1  0.856681  0.856636  0.422079  1
  Co  Co20  1  0.860204  0.860184  0.860191  1
  Pd  Pd21  1  0.757070  0.413416  0.413411  1
  Pd  Pd22  1  0.413413  0.757079  0.413423  1
  Pd  Pd23  1  0.413411  0.413420  0.757079  1
