# generated using pymatgen
data_Tb2Dy10Co4CuSn
_symmetry_space_group_name_H-M   'P 1'
_cell_length_a   8.31426943
_cell_length_b   8.31426849
_cell_length_c   8.31426882
_cell_angle_alpha   106.96990838
_cell_angle_beta   110.32061534
_cell_angle_gamma   111.15286552
_symmetry_Int_Tables_number   1
_chemical_formula_structural   Tb2Dy10Co4CuSn
_chemical_formula_sum   'Tb2 Dy10 Co4 Cu1 Sn1'
_cell_volume   441.78248535
_cell_formula_units_Z   1
loop_
 _symmetry_equiv_pos_site_id
 _symmetry_equiv_pos_as_xyz
  1  'x, y, z'
loop_
 _atom_site_type_symbol
 _atom_site_label
 _atom_site_symmetry_multiplicity
 _atom_site_fract_x
 _atom_site_fract_y
 _atom_site_fract_z
 _atom_site_occupancy
  Tb  Tb0  1  0.476588  0.290764  0.185824  1
  Tb  Tb1  1  0.104940  0.290764  0.814176  1
  Dy  Dy2  1  0.894691  0.709223  0.185468  1
  Dy  Dy3  1  0.523756  0.709223  0.814532  1
  Dy  Dy4  1  0.305371  0.620427  0.315056  1
  Dy  Dy5  1  0.305371  0.990316  0.684944  1
  Dy  Dy6  1  0.694562  0.379861  0.685299  1
  Dy  Dy7  1  0.694562  0.009263  0.314701  1
  Dy  Dy8  1  0.199587  0.214747  0.414415  1
  Dy  Dy9  1  0.800331  0.785171  0.585585  1
  Dy  Dy10  1  0.199587  0.785171  0.984839  1
  Dy  Dy11  1  0.800331  0.214747  0.015161  1
  Co  Co12  1  0.500359  0.613137  0.112779  1
  Co  Co13  1  0.500359  0.387580  0.887221  1
  Co  Co14  1  0.376523  0.999882  0.376640  1
  Co  Co15  1  0.623242  0.999882  0.623360  1
  Cu  Cu16  1  0.999787  0.999787  0.000000  1
  Sn  Sn17  1  0.000052  0.500052  0.500000  1
