# generated using pymatgen
data_Dy8Sc12Si15Sb
_symmetry_space_group_name_H-M   'P 1'
_cell_length_a   7.15348359
_cell_length_b   7.40655398
_cell_length_c   14.04606855
_cell_angle_alpha   90.09529348
_cell_angle_beta   89.01674279
_cell_angle_gamma   90.12497645
_symmetry_Int_Tables_number   1
_chemical_formula_structural   Dy8Sc12Si15Sb
_chemical_formula_sum   'Dy8 Sc12 Si15 Sb1'
_cell_volume   744.08577229
_cell_formula_units_Z   1
loop_
 _symmetry_equiv_pos_site_id
 _symmetry_equiv_pos_as_xyz
  1  'x, y, z'
loop_
 _atom_site_type_symbol
 _atom_site_label
 _atom_site_symmetry_multiplicity
 _atom_site_fract_x
 _atom_site_fract_y
 _atom_site_fract_z
 _atom_site_occupancy
  Dy  Dy0  1  0.012758  0.176151  0.097061  1
  Dy  Dy1  1  0.987448  0.824572  0.903488  1
  Dy  Dy2  1  0.487588  0.675831  0.903387  1
  Dy  Dy3  1  0.990002  0.829261  0.597759  1
  Dy  Dy4  1  0.512820  0.324332  0.097474  1
  Dy  Dy5  1  0.004539  0.171292  0.400192  1
  Dy  Dy6  1  0.510896  0.320946  0.399829  1
  Dy  Dy7  1  0.505198  0.682699  0.600004  1
  Sc  Sc8  1  0.162321  0.501451  0.753934  1
  Sc  Sc9  1  0.837445  0.498284  0.251476  1
  Sc  Sc10  1  0.337763  0.001846  0.250291  1
  Sc  Sc11  1  0.663537  0.998603  0.751000  1
  Sc  Sc12  1  0.343411  0.161445  0.630469  1
  Sc  Sc13  1  0.662802  0.825958  0.372889  1
  Sc  Sc14  1  0.159959  0.681835  0.370695  1
  Sc  Sc15  1  0.668872  0.823414  0.124555  1
  Sc  Sc16  1  0.826589  0.324870  0.625437  1
  Sc  Sc17  1  0.330061  0.175832  0.875007  1
  Sc  Sc18  1  0.830902  0.323436  0.875259  1
  Sc  Sc19  1  0.169489  0.676478  0.125105  1
  Si  Si20  1  0.034237  0.118638  0.750606  1
  Si  Si21  1  0.963510  0.884476  0.247227  1
  Si  Si22  1  0.463336  0.616864  0.248002  1
  Si  Si23  1  0.534811  0.383694  0.752334  1
  Si  Si24  1  0.287123  0.869131  0.751857  1
  Si  Si25  1  0.712642  0.126360  0.247781  1
  Si  Si26  1  0.211941  0.374218  0.249304  1
  Si  Si27  1  0.790676  0.627244  0.751121  1
  Si  Si28  1  0.818408  0.539983  0.456902  1
  Si  Si29  1  0.335507  0.964074  0.460233  1
  Si  Si30  1  0.844101  0.534625  0.039796  1
  Si  Si31  1  0.665437  0.037398  0.538808  1
  Si  Si32  1  0.155228  0.465370  0.960885  1
  Si  Si33  1  0.655312  0.034632  0.960182  1
  Si  Si34  1  0.343849  0.965951  0.040054  1
  Sb  Sb35  1  0.179481  0.458807  0.539595  1
