# generated using pymatgen
data_Sc4TcSn3N
_symmetry_space_group_name_H-M   'P 1'
_cell_length_a   8.32010200
_cell_length_b   8.32010313
_cell_length_c   5.67598400
_cell_angle_alpha   90.00000000
_cell_angle_beta   90.00000000
_cell_angle_gamma   119.99999550
_symmetry_Int_Tables_number   1
_chemical_formula_structural   Sc4TcSn3N
_chemical_formula_sum   'Sc8 Tc2 Sn6 N2'
_cell_volume   340.27431943
_cell_formula_units_Z   2
loop_
 _symmetry_equiv_pos_site_id
 _symmetry_equiv_pos_as_xyz
  1  'x, y, z'
loop_
 _atom_site_type_symbol
 _atom_site_label
 _atom_site_symmetry_multiplicity
 _atom_site_fract_x
 _atom_site_fract_y
 _atom_site_fract_z
 _atom_site_occupancy
  Sc  Sc0  1  0.333333  0.666667  0.500000  1
  Sc  Sc1  1  0.666667  0.333333  0.500000  1
  Sc  Sc2  1  0.787861  0.787861  0.749948  1
  Sc  Sc3  1  0.212139  0.000000  0.749948  1
  Sc  Sc4  1  0.000000  0.212139  0.749948  1
  Sc  Sc5  1  0.212139  0.212139  0.250052  1
  Sc  Sc6  1  0.787861  0.000000  0.250052  1
  Sc  Sc7  1  0.000000  0.787861  0.250052  1
  Tc  Tc8  1  0.666667  0.333333  0.000000  1
  Tc  Tc9  1  0.333333  0.666667  0.000000  1
  Sn  Sn10  1  0.407409  0.407409  0.765854  1
  Sn  Sn11  1  0.592591  0.000000  0.765854  1
  Sn  Sn12  1  0.000000  0.592591  0.765854  1
  Sn  Sn13  1  0.592591  0.592591  0.234146  1
  Sn  Sn14  1  0.407409  0.000000  0.234146  1
  Sn  Sn15  1  0.000000  0.407409  0.234146  1
  N  N16  1  0.000000  0.000000  0.000000  1
  N  N17  1  0.000000  0.000000  0.500000  1
