# generated using pymatgen
data_YSc5Mn2(Co4P3)4
_symmetry_space_group_name_H-M   'P 1'
_cell_length_a   3.61073300
_cell_length_b   10.38769800
_cell_length_c   11.98358800
_cell_angle_alpha   90.00000000
_cell_angle_beta   90.00000000
_cell_angle_gamma   90.00000000
_symmetry_Int_Tables_number   1
_chemical_formula_structural   YSc5Mn2(Co4P3)4
_chemical_formula_sum   'Y1 Sc5 Mn2 Co16 P12'
_cell_volume   449.47087932
_cell_formula_units_Z   1
loop_
 _symmetry_equiv_pos_site_id
 _symmetry_equiv_pos_as_xyz
  1  'x, y, z'
loop_
 _atom_site_type_symbol
 _atom_site_label
 _atom_site_symmetry_multiplicity
 _atom_site_fract_x
 _atom_site_fract_y
 _atom_site_fract_z
 _atom_site_occupancy
  Y  Y0  1  0.500000  0.000000  0.475140  1
  Sc  Sc1  1  0.000000  0.500000  0.523797  1
  Sc  Sc2  1  0.500000  0.818532  0.204115  1
  Sc  Sc3  1  0.500000  0.181468  0.204115  1
  Sc  Sc4  1  0.000000  0.680187  0.794730  1
  Sc  Sc5  1  0.000000  0.319813  0.794730  1
  Mn  Mn6  1  0.500000  0.500000  0.160404  1
  Mn  Mn7  1  0.000000  0.000000  0.841974  1
  Co  Co8  1  0.500000  0.500000  0.702554  1
  Co  Co9  1  0.000000  0.000000  0.294642  1
  Co  Co10  1  0.000000  0.500000  0.986048  1
  Co  Co11  1  0.500000  0.000000  0.013301  1
  Co  Co12  1  0.500000  0.333151  0.992795  1
  Co  Co13  1  0.500000  0.666849  0.992795  1
  Co  Co14  1  0.000000  0.167811  0.007269  1
  Co  Co15  1  0.000000  0.832189  0.007269  1
  Co  Co16  1  0.500000  0.299503  0.431076  1
  Co  Co17  1  0.500000  0.700497  0.431076  1
  Co  Co18  1  0.000000  0.206081  0.569674  1
  Co  Co19  1  0.000000  0.793919  0.569674  1
  Co  Co20  1  0.500000  0.876437  0.709431  1
  Co  Co21  1  0.500000  0.123563  0.709431  1
  Co  Co22  1  0.000000  0.621792  0.291538  1
  Co  Co23  1  0.000000  0.378208  0.291538  1
  P  P24  1  0.500000  0.500000  0.879721  1
  P  P25  1  0.000000  0.000000  0.118707  1
  P  P26  1  0.500000  0.500000  0.350184  1
  P  P27  1  0.000000  0.000000  0.654937  1
  P  P28  1  0.500000  0.315690  0.618336  1
  P  P29  1  0.500000  0.684310  0.618336  1
  P  P30  1  0.000000  0.188246  0.379892  1
  P  P31  1  0.000000  0.811754  0.379892  1
  P  P32  1  0.500000  0.844253  0.890491  1
  P  P33  1  0.500000  0.155747  0.890491  1
  P  P34  1  0.000000  0.654522  0.109947  1
  P  P35  1  0.000000  0.345478  0.109947  1
