# generated using pymatgen
data_Mn2GaGeRh4
_symmetry_space_group_name_H-M   'P 1'
_cell_length_a   7.44443863
_cell_length_b   7.44443863
_cell_length_c   7.44444010
_cell_angle_alpha   33.56816608
_cell_angle_beta   33.56816225
_cell_angle_gamma   33.56817383
_symmetry_Int_Tables_number   1
_chemical_formula_structural   Mn2GaGeRh4
_chemical_formula_sum   'Mn2 Ga1 Ge1 Rh4'
_cell_volume   112.35306131
_cell_formula_units_Z   1
loop_
 _symmetry_equiv_pos_site_id
 _symmetry_equiv_pos_as_xyz
  1  'x, y, z'
loop_
 _atom_site_type_symbol
 _atom_site_label
 _atom_site_symmetry_multiplicity
 _atom_site_fract_x
 _atom_site_fract_y
 _atom_site_fract_z
 _atom_site_occupancy
  Mn  Mn0  1  0.251357  0.251357  0.251357  1
  Mn  Mn1  1  0.748643  0.748643  0.748643  1
  Ga  Ga2  1  0.000000  0.000000  0.000000  1
  Ge  Ge3  1  0.500000  0.500000  0.500000  1
  Rh  Rh4  1  0.376194  0.376194  0.376194  1
  Rh  Rh5  1  0.873975  0.873975  0.873975  1
  Rh  Rh6  1  0.623806  0.623806  0.623806  1
  Rh  Rh7  1  0.126025  0.126025  0.126025  1
