# generated using pymatgen
data_NaNpCl4
_symmetry_space_group_name_H-M   'P 1'
_cell_length_a   6.83533447
_cell_length_b   6.95894501
_cell_length_c   7.17672906
_cell_angle_alpha   89.62205390
_cell_angle_beta   87.67124138
_cell_angle_gamma   77.92809291
_symmetry_Int_Tables_number   1
_chemical_formula_structural   NaNpCl4
_chemical_formula_sum   'Na2 Np2 Cl8'
_cell_volume   333.54794260
_cell_formula_units_Z   2
loop_
 _symmetry_equiv_pos_site_id
 _symmetry_equiv_pos_as_xyz
  1  'x, y, z'
loop_
 _atom_site_type_symbol
 _atom_site_label
 _atom_site_symmetry_multiplicity
 _atom_site_fract_x
 _atom_site_fract_y
 _atom_site_fract_z
 _atom_site_occupancy
  Na  Na0  1  0.232674  0.195230  0.534194  1
  Na  Na1  1  0.767326  0.804770  0.465806  1
  Np  Np2  1  0.789578  0.300552  0.058694  1
  Np  Np3  1  0.210422  0.699448  0.941306  1
  Cl  Cl4  1  0.607557  0.199402  0.371337  1
  Cl  Cl5  1  0.392443  0.800598  0.628663  1
  Cl  Cl6  1  0.093281  0.001037  0.212386  1
  Cl  Cl7  1  0.906719  0.998963  0.787614  1
  Cl  Cl8  1  0.046259  0.507130  0.245838  1
  Cl  Cl9  1  0.953741  0.492870  0.754162  1
  Cl  Cl10  1  0.567148  0.688427  0.120885  1
  Cl  Cl11  1  0.432852  0.311573  0.879115  1
