# generated using pymatgen
data_ErGa6CoNi5
_symmetry_space_group_name_H-M   'P 1'
_cell_length_a   5.01864331
_cell_length_b   6.47603083
_cell_length_c   6.49049654
_cell_angle_alpha   83.64080347
_cell_angle_beta   66.75524601
_cell_angle_gamma   67.30796345
_symmetry_Int_Tables_number   1
_chemical_formula_structural   ErGa6CoNi5
_chemical_formula_sum   'Er1 Ga6 Co1 Ni5'
_cell_volume   178.60591009
_cell_formula_units_Z   1
loop_
 _symmetry_equiv_pos_site_id
 _symmetry_equiv_pos_as_xyz
  1  'x, y, z'
loop_
 _atom_site_type_symbol
 _atom_site_label
 _atom_site_symmetry_multiplicity
 _atom_site_fract_x
 _atom_site_fract_y
 _atom_site_fract_z
 _atom_site_occupancy
  Er  Er0  1  0.000000  0.000000  0.000000  1
  Ga  Ga1  1  0.004524  0.342693  0.654500  1
  Ga  Ga2  1  0.995476  0.657307  0.345500  1
  Ga  Ga3  1  0.499365  0.185267  0.812897  1
  Ga  Ga4  1  0.500635  0.814733  0.187103  1
  Ga  Ga5  1  0.343143  0.661921  0.657424  1
  Ga  Ga6  1  0.656857  0.338079  0.342576  1
  Co  Co7  1  0.500000  0.000000  0.500000  1
  Ni  Ni8  1  0.261293  0.237011  0.236382  1
  Ni  Ni9  1  0.738707  0.762989  0.763618  1
  Ni  Ni10  1  0.500000  0.500000  0.000000  1
  Ni  Ni11  1  0.000000  0.500000  0.000000  1
  Ni  Ni12  1  0.000000  0.000000  0.500000  1
