# generated using pymatgen
data_DyY3Ga18Ir5Pd
_symmetry_space_group_name_H-M   'P 1'
_cell_length_a   7.60838314
_cell_length_b   7.60825034
_cell_length_c   9.50056700
_cell_angle_alpha   90.05397007
_cell_angle_beta   90.05167036
_cell_angle_gamma   119.86880552
_symmetry_Int_Tables_number   1
_chemical_formula_structural   DyY3Ga18Ir5Pd
_chemical_formula_sum   'Dy1 Y3 Ga18 Ir5 Pd1'
_cell_volume   476.90207431
_cell_formula_units_Z   1
loop_
 _symmetry_equiv_pos_site_id
 _symmetry_equiv_pos_as_xyz
  1  'x, y, z'
loop_
 _atom_site_type_symbol
 _atom_site_label
 _atom_site_symmetry_multiplicity
 _atom_site_fract_x
 _atom_site_fract_y
 _atom_site_fract_z
 _atom_site_occupancy
  Dy  Dy0  1  0.996882  0.668626  0.251015  1
  Y  Y1  1  0.003151  0.331401  0.748997  1
  Y  Y2  1  0.668631  0.996830  0.251001  1
  Y  Y3  1  0.331364  0.003143  0.748999  1
  Ga  Ga4  1  0.127743  0.127617  0.251119  1
  Ga  Ga5  1  0.872294  0.872314  0.748860  1
  Ga  Ga6  1  0.999455  0.336794  0.082056  1
  Ga  Ga7  1  0.000525  0.663254  0.918069  1
  Ga  Ga8  1  0.001121  0.666060  0.579534  1
  Ga  Ga9  1  0.333889  0.998792  0.420354  1
  Ga  Ga10  1  0.998848  0.333979  0.420354  1
  Ga  Ga11  1  0.666065  0.001143  0.579579  1
  Ga  Ga12  1  0.663242  0.000540  0.918021  1
  Ga  Ga13  1  0.336697  0.999405  0.082054  1
  Ga  Ga14  1  0.332321  0.332316  0.563850  1
  Ga  Ga15  1  0.667728  0.667684  0.436087  1
  Ga  Ga16  1  0.664517  0.664452  0.066478  1
  Ga  Ga17  1  0.335587  0.335578  0.933604  1
  Ga  Ga18  1  0.338556  0.546555  0.250294  1
  Ga  Ga19  1  0.661350  0.453422  0.749694  1
  Ga  Ga20  1  0.546662  0.338792  0.250290  1
  Ga  Ga21  1  0.453445  0.661379  0.749712  1
  Ir  Ir22  1  0.671721  0.328314  0.000020  1
  Ir  Ir23  1  0.328222  0.671676  0.000041  1
  Ir  Ir24  1  0.328476  0.671422  0.499977  1
  Ir  Ir25  1  0.671480  0.328596  0.499975  1
  Ir  Ir26  1  0.000026  0.999943  0.499945  1
  Pd  Pd27  1  0.000003  0.999972  0.000023  1
