# generated using pymatgen
data_Li4Ca2TmLuSi8
_symmetry_space_group_name_H-M   'P 1'
_cell_length_a   3.76942200
_cell_length_b   7.76346763
_cell_length_c   10.34800621
_cell_angle_alpha   89.25572391
_cell_angle_beta   90.00000000
_cell_angle_gamma   90.00000000
_symmetry_Int_Tables_number   1
_chemical_formula_structural   Li4Ca2TmLuSi8
_chemical_formula_sum   'Li4 Ca2 Tm1 Lu1 Si8'
_cell_volume   302.79628708
_cell_formula_units_Z   1
loop_
 _symmetry_equiv_pos_site_id
 _symmetry_equiv_pos_as_xyz
  1  'x, y, z'
loop_
 _atom_site_type_symbol
 _atom_site_label
 _atom_site_symmetry_multiplicity
 _atom_site_fract_x
 _atom_site_fract_y
 _atom_site_fract_z
 _atom_site_occupancy
  Li  Li0  1  0.250000  0.999142  0.389565  1
  Li  Li1  1  0.750000  0.000854  0.610344  1
  Li  Li2  1  0.250000  0.489076  0.108916  1
  Li  Li3  1  0.750000  0.510973  0.891116  1
  Ca  Ca4  1  0.250000  0.637432  0.635291  1
  Ca  Ca5  1  0.750000  0.362556  0.364706  1
  Tm  Tm6  1  0.250000  0.128894  0.864819  1
  Lu  Lu7  1  0.750000  0.871404  0.135212  1
  Si  Si8  1  0.750000  0.258691  0.059079  1
  Si  Si9  1  0.250000  0.741216  0.941436  1
  Si  Si10  1  0.750000  0.774103  0.424744  1
  Si  Si11  1  0.250000  0.226129  0.574964  1
  Si  Si12  1  0.750000  0.846656  0.828283  1
  Si  Si13  1  0.250000  0.152678  0.171883  1
  Si  Si14  1  0.750000  0.331462  0.686221  1
  Si  Si15  1  0.250000  0.668732  0.313421  1
