# generated using pymatgen
data_Lu10GeBi3Ir2
_symmetry_space_group_name_H-M   'P 1'
_cell_length_a   7.68982473
_cell_length_b   8.68102422
_cell_length_c   11.93299500
_cell_angle_alpha   90.09657956
_cell_angle_beta   89.97506943
_cell_angle_gamma   90.21812361
_symmetry_Int_Tables_number   1
_chemical_formula_structural   Lu10GeBi3Ir2
_chemical_formula_sum   'Lu20 Ge2 Bi6 Ir4'
_cell_volume   796.58672279
_cell_formula_units_Z   2
loop_
 _symmetry_equiv_pos_site_id
 _symmetry_equiv_pos_as_xyz
  1  'x, y, z'
loop_
 _atom_site_type_symbol
 _atom_site_label
 _atom_site_symmetry_multiplicity
 _atom_site_fract_x
 _atom_site_fract_y
 _atom_site_fract_z
 _atom_site_occupancy
  Lu  Lu0  1  0.826623  0.736726  0.793430  1
  Lu  Lu1  1  0.173377  0.263274  0.206570  1
  Lu  Lu2  1  0.343432  0.260183  0.717940  1
  Lu  Lu3  1  0.656568  0.739817  0.282060  1
  Lu  Lu4  1  0.382359  0.737735  0.699757  1
  Lu  Lu5  1  0.617641  0.262265  0.300243  1
  Lu  Lu6  1  0.857215  0.261633  0.806321  1
  Lu  Lu7  1  0.142785  0.738367  0.193679  1
  Lu  Lu8  1  0.944343  0.752875  0.500421  1
  Lu  Lu9  1  0.055657  0.247125  0.499579  1
  Lu  Lu10  1  0.455027  0.270772  0.997570  1
  Lu  Lu11  1  0.544973  0.729228  0.002430  1
  Lu  Lu12  1  0.676529  0.045538  0.566831  1
  Lu  Lu13  1  0.323471  0.954462  0.433169  1
  Lu  Lu14  1  0.178089  0.958033  0.934759  1
  Lu  Lu15  1  0.329282  0.543140  0.423511  1
  Lu  Lu16  1  0.821911  0.041967  0.065241  1
  Lu  Lu17  1  0.670718  0.456860  0.576489  1
  Lu  Lu18  1  0.817919  0.455707  0.064981  1
  Lu  Lu19  1  0.182081  0.544293  0.935019  1
  Ge  Ge20  1  0.560914  0.493926  0.828605  1
  Ge  Ge21  1  0.439086  0.506074  0.171395  1
  Bi  Bi22  1  0.067772  0.510106  0.671042  1
  Bi  Bi23  1  0.433110  0.993256  0.167782  1
  Bi  Bi24  1  0.932228  0.489894  0.328958  1
  Bi  Bi25  1  0.566890  0.006744  0.832218  1
  Bi  Bi26  1  0.932326  0.010226  0.322618  1
  Bi  Bi27  1  0.067674  0.989774  0.677382  1
  Ir  Ir28  1  0.575620  0.749094  0.508534  1
  Ir  Ir29  1  0.424380  0.250906  0.491466  1
  Ir  Ir30  1  0.071563  0.252263  0.987304  1
  Ir  Ir31  1  0.928437  0.747737  0.012696  1
