# generated using pymatgen
data_DyInFe3P7Ru9
_symmetry_space_group_name_H-M   'P 1'
_cell_length_a   9.32825900
_cell_length_b   9.32825888
_cell_length_c   3.81396000
_cell_angle_alpha   90.00000000
_cell_angle_beta   90.00000000
_cell_angle_gamma   119.99999591
_symmetry_Int_Tables_number   1
_chemical_formula_structural   DyInFe3P7Ru9
_chemical_formula_sum   'Dy1 In1 Fe3 P7 Ru9'
_cell_volume   287.41403368
_cell_formula_units_Z   1
loop_
 _symmetry_equiv_pos_site_id
 _symmetry_equiv_pos_as_xyz
  1  'x, y, z'
loop_
 _atom_site_type_symbol
 _atom_site_label
 _atom_site_symmetry_multiplicity
 _atom_site_fract_x
 _atom_site_fract_y
 _atom_site_fract_z
 _atom_site_occupancy
  Dy  Dy0  1  0.333333  0.666667  0.000000  1
  In  In1  1  0.000000  0.000000  0.500000  1
  Fe  Fe2  1  0.939381  0.475230  0.000000  1
  Fe  Fe3  1  0.524770  0.464152  0.000000  1
  Fe  Fe4  1  0.535848  0.060619  0.000000  1
  P  P5  1  0.964620  0.719587  0.000000  1
  P  P6  1  0.280413  0.245033  0.000000  1
  P  P7  1  0.754967  0.035380  0.000000  1
  P  P8  1  0.065069  0.444610  0.500000  1
  P  P9  1  0.555390  0.620458  0.500000  1
  P  P10  1  0.379542  0.934931  0.500000  1
  P  P11  1  0.666667  0.333333  0.000000  1
  Ru  Ru12  1  0.754370  0.780672  0.000000  1
  Ru  Ru13  1  0.219328  0.973698  0.000000  1
  Ru  Ru14  1  0.026302  0.245630  0.000000  1
  Ru  Ru15  1  0.106331  0.715588  0.500000  1
  Ru  Ru16  1  0.284412  0.390744  0.500000  1
  Ru  Ru17  1  0.609256  0.893669  0.500000  1
  Ru  Ru18  1  0.759698  0.541868  0.500000  1
  Ru  Ru19  1  0.458132  0.217831  0.500000  1
  Ru  Ru20  1  0.782169  0.240302  0.500000  1
