# generated using pymatgen
data_Rb2CoSO4F3
_symmetry_space_group_name_H-M   'P 1'
_cell_length_a   11.36641800
_cell_length_b   7.48220600
_cell_length_c   8.94542962
_cell_angle_alpha   86.77934558
_cell_angle_beta   90.00000000
_cell_angle_gamma   90.00000000
_symmetry_Int_Tables_number   1
_chemical_formula_structural   Rb2CoSO4F3
_chemical_formula_sum   'Rb8 Co4 S4 O16 F12'
_cell_volume   759.57036165
_cell_formula_units_Z   4
loop_
 _symmetry_equiv_pos_site_id
 _symmetry_equiv_pos_as_xyz
  1  'x, y, z'
loop_
 _atom_site_type_symbol
 _atom_site_label
 _atom_site_symmetry_multiplicity
 _atom_site_fract_x
 _atom_site_fract_y
 _atom_site_fract_z
 _atom_site_occupancy
  Rb  Rb0  1  0.190083  0.302256  0.673874  1
  Rb  Rb1  1  0.690083  0.697744  0.826126  1
  Rb  Rb2  1  0.809917  0.697744  0.326126  1
  Rb  Rb3  1  0.309917  0.302256  0.173874  1
  Rb  Rb4  1  0.309383  0.805210  0.830704  1
  Rb  Rb5  1  0.809383  0.194790  0.669296  1
  Rb  Rb6  1  0.690617  0.194790  0.169296  1
  Rb  Rb7  1  0.190617  0.805210  0.330704  1
  Co  Co8  1  0.500000  0.000000  0.500000  1
  Co  Co9  1  0.000000  0.000000  0.000000  1
  Co  Co10  1  0.500000  0.500000  0.500000  1
  Co  Co11  1  0.000000  0.500000  0.000000  1
  S  S12  1  0.501207  0.252643  0.795115  1
  S  S13  1  0.001207  0.747357  0.704885  1
  S  S14  1  0.498793  0.747357  0.204885  1
  S  S15  1  0.998793  0.252643  0.295115  1
  O  O16  1  0.401669  0.183202  0.886339  1
  O  O17  1  0.901669  0.816798  0.613661  1
  O  O18  1  0.598331  0.816798  0.113661  1
  O  O19  1  0.098331  0.183202  0.386339  1
  O  O20  1  0.594276  0.331916  0.884243  1
  O  O21  1  0.094276  0.668084  0.615757  1
  O  O22  1  0.405724  0.668084  0.115757  1
  O  O23  1  0.905724  0.331916  0.384243  1
  O  O24  1  0.444867  0.398669  0.688606  1
  O  O25  1  0.944867  0.601331  0.811394  1
  O  O26  1  0.555133  0.601331  0.311394  1
  O  O27  1  0.055133  0.398669  0.188606  1
  O  O28  1  0.054044  0.890006  0.795287  1
  O  O29  1  0.554044  0.109994  0.704713  1
  O  O30  1  0.945956  0.109994  0.204713  1
  O  O31  1  0.445956  0.890006  0.295287  1
  F  F32  1  0.343952  0.522311  0.443910  1
  F  F33  1  0.843952  0.477689  0.056090  1
  F  F34  1  0.656048  0.477689  0.556090  1
  F  F35  1  0.156048  0.522311  0.943910  1
  F  F36  1  0.156353  0.022875  0.045266  1
  F  F37  1  0.656353  0.977125  0.454734  1
  F  F38  1  0.843647  0.977125  0.954734  1
  F  F39  1  0.343647  0.022875  0.545266  1
  F  F40  1  0.001873  0.763042  0.096516  1
  F  F41  1  0.501873  0.236958  0.403484  1
  F  F42  1  0.998127  0.236958  0.903484  1
  F  F43  1  0.498127  0.763042  0.596516  1
