# generated using pymatgen
data_ZrU3Si6Ru7
_symmetry_space_group_name_H-M   'P 1'
_cell_length_a   7.08237707
_cell_length_b   7.08237839
_cell_length_c   7.08237891
_cell_angle_alpha   109.64265206
_cell_angle_beta   109.64264863
_cell_angle_gamma   109.64265448
_symmetry_Int_Tables_number   1
_chemical_formula_structural   ZrU3Si6Ru7
_chemical_formula_sum   'Zr1 U3 Si6 Ru7'
_cell_volume   271.72400572
_cell_formula_units_Z   1
loop_
 _symmetry_equiv_pos_site_id
 _symmetry_equiv_pos_as_xyz
  1  'x, y, z'
loop_
 _atom_site_type_symbol
 _atom_site_label
 _atom_site_symmetry_multiplicity
 _atom_site_fract_x
 _atom_site_fract_y
 _atom_site_fract_z
 _atom_site_occupancy
  Zr  Zr0  1  0.500000  0.500000  0.500000  1
  U  U1  1  0.000000  0.000000  0.500000  1
  U  U2  1  0.500000  0.000000  0.000000  1
  U  U3  1  0.000000  0.500000  0.000000  1
  Si  Si4  1  0.315388  0.315388  0.006889  1
  Si  Si5  1  0.006889  0.315388  0.315388  1
  Si  Si6  1  0.993111  0.684612  0.684612  1
  Si  Si7  1  0.684612  0.993111  0.684612  1
  Si  Si8  1  0.315388  0.006889  0.315388  1
  Si  Si9  1  0.684612  0.684612  0.993111  1
  Ru  Ru10  1  0.751924  0.248076  0.500000  1
  Ru  Ru11  1  0.500000  0.248076  0.751924  1
  Ru  Ru12  1  0.500000  0.751924  0.248076  1
  Ru  Ru13  1  0.248076  0.500000  0.751924  1
  Ru  Ru14  1  0.751924  0.500000  0.248076  1
  Ru  Ru15  1  0.248076  0.751924  0.500000  1
  Ru  Ru16  1  0.000000  0.000000  0.000000  1
