# generated using pymatgen
data_Ho(Th3Au5)2
_symmetry_space_group_name_H-M   'P 1'
_cell_length_a   8.92047679
_cell_length_b   8.92047735
_cell_length_c   10.77030200
_cell_angle_alpha   90.00000000
_cell_angle_beta   90.00000000
_cell_angle_gamma   106.57194220
_symmetry_Int_Tables_number   1
_chemical_formula_structural   Ho(Th3Au5)2
_chemical_formula_sum   'Ho2 Th12 Au20'
_cell_volume   821.44616562
_cell_formula_units_Z   2
loop_
 _symmetry_equiv_pos_site_id
 _symmetry_equiv_pos_as_xyz
  1  'x, y, z'
loop_
 _atom_site_type_symbol
 _atom_site_label
 _atom_site_symmetry_multiplicity
 _atom_site_fract_x
 _atom_site_fract_y
 _atom_site_fract_z
 _atom_site_occupancy
  Ho  Ho0  1  0.000000  0.000000  0.000000  1
  Ho  Ho1  1  0.500000  0.500000  0.500000  1
  Th  Th2  1  0.692293  0.307707  0.000000  1
  Th  Th3  1  0.307707  0.692293  0.000000  1
  Th  Th4  1  0.807707  0.192293  0.500000  1
  Th  Th5  1  0.192293  0.807707  0.500000  1
  Th  Th6  1  0.000801  0.500801  0.250000  1
  Th  Th7  1  0.999199  0.499199  0.750000  1
  Th  Th8  1  0.499199  0.999199  0.750000  1
  Th  Th9  1  0.500801  0.000801  0.250000  1
  Th  Th10  1  0.308361  0.308361  0.193330  1
  Th  Th11  1  0.691639  0.691639  0.806670  1
  Th  Th12  1  0.191639  0.191639  0.693330  1
  Th  Th13  1  0.808361  0.808361  0.306670  1
  Au  Au14  1  0.859742  0.147546  0.205343  1
  Au  Au15  1  0.140258  0.852454  0.794657  1
  Au  Au16  1  0.640258  0.352454  0.705343  1
  Au  Au17  1  0.647546  0.359742  0.294657  1
  Au  Au18  1  0.359742  0.647546  0.294657  1
  Au  Au19  1  0.352454  0.640258  0.705343  1
  Au  Au20  1  0.852454  0.140258  0.794657  1
  Au  Au21  1  0.147546  0.859742  0.205343  1
  Au  Au22  1  0.938865  0.649553  0.002097  1
  Au  Au23  1  0.061135  0.350447  0.997903  1
  Au  Au24  1  0.561135  0.850447  0.502097  1
  Au  Au25  1  0.149553  0.438865  0.497903  1
  Au  Au26  1  0.438865  0.149553  0.497903  1
  Au  Au27  1  0.850447  0.561135  0.502097  1
  Au  Au28  1  0.350447  0.061135  0.997903  1
  Au  Au29  1  0.649553  0.938865  0.002097  1
  Au  Au30  1  0.099861  0.099861  0.400442  1
  Au  Au31  1  0.900139  0.900139  0.599558  1
  Au  Au32  1  0.400139  0.400139  0.900442  1
  Au  Au33  1  0.599861  0.599861  0.099558  1
