# generated using pymatgen
data_Dy2Er4B14OsW
_symmetry_space_group_name_H-M   'P 1'
_cell_length_a   8.07120444
_cell_length_b   8.07120489
_cell_length_c   9.37019774
_cell_angle_alpha   89.93178547
_cell_angle_beta   90.06821512
_cell_angle_gamma   155.05092471
_symmetry_Int_Tables_number   1
_chemical_formula_structural   Dy2Er4B14OsW
_chemical_formula_sum   'Dy2 Er4 B14 Os1 W1'
_cell_volume   257.48069068
_cell_formula_units_Z   1
loop_
 _symmetry_equiv_pos_site_id
 _symmetry_equiv_pos_as_xyz
  1  'x, y, z'
loop_
 _atom_site_type_symbol
 _atom_site_label
 _atom_site_symmetry_multiplicity
 _atom_site_fract_x
 _atom_site_fract_y
 _atom_site_fract_z
 _atom_site_occupancy
  Dy  Dy0  1  0.893617  0.106383  0.437087  1
  Dy  Dy1  1  0.753994  0.246006  0.750131  1
  Er  Er2  1  0.106995  0.893005  0.557873  1
  Er  Er3  1  0.893859  0.106141  0.061946  1
  Er  Er4  1  0.107200  0.892800  0.942264  1
  Er  Er5  1  0.243232  0.756768  0.249875  1
  B  B6  1  0.726118  0.273882  0.464339  1
  B  B7  1  0.271307  0.728693  0.531210  1
  B  B8  1  0.726794  0.273206  0.036130  1
  B  B9  1  0.271807  0.728193  0.969192  1
  B  B10  1  0.632011  0.367989  0.150932  1
  B  B11  1  0.365258  0.634742  0.853400  1
  B  B12  1  0.631963  0.368037  0.348953  1
  B  B13  1  0.365117  0.634883  0.647535  1
  B  B14  1  0.520964  0.479036  0.095676  1
  B  B15  1  0.480987  0.519013  0.909681  1
  B  B16  1  0.521112  0.478888  0.403410  1
  B  B17  1  0.481113  0.518887  0.590942  1
  B  B18  1  0.457258  0.542742  0.249117  1
  B  B19  1  0.547244  0.452756  0.750304  1
  Os  Os20  1  0.054064  0.945936  0.249610  1
  W  W21  1  0.947990  0.052010  0.750393  1
