# generated using pymatgen
data_TbPr5Np2O14
_symmetry_space_group_name_H-M   'P 1'
_cell_length_a   6.78573614
_cell_length_b   6.73223267
_cell_length_c   8.02743224
_cell_angle_alpha   106.93460006
_cell_angle_beta   89.44064538
_cell_angle_gamma   98.55281736
_symmetry_Int_Tables_number   1
_chemical_formula_structural   TbPr5Np2O14
_chemical_formula_sum   'Tb1 Pr5 Np2 O14'
_cell_volume   346.69703228
_cell_formula_units_Z   1
loop_
 _symmetry_equiv_pos_site_id
 _symmetry_equiv_pos_as_xyz
  1  'x, y, z'
loop_
 _atom_site_type_symbol
 _atom_site_label
 _atom_site_symmetry_multiplicity
 _atom_site_fract_x
 _atom_site_fract_y
 _atom_site_fract_z
 _atom_site_occupancy
  Tb  Tb0  1  0.276567  0.535657  0.878299  1
  Pr  Pr1  1  0.725295  0.465811  0.120590  1
  Pr  Pr2  1  0.743842  0.489884  0.613743  1
  Pr  Pr3  1  0.540250  0.997384  0.752287  1
  Pr  Pr4  1  0.458463  0.001055  0.247796  1
  Pr  Pr5  1  0.255128  0.512462  0.393156  1
  Np  Np6  1  0.003079  0.999649  0.997412  1
  Np  Np7  1  0.001688  0.002694  0.501623  1
  O  O8  1  0.717893  0.067490  0.484401  1
  O  O9  1  0.931168  0.692055  0.977093  1
  O  O10  1  0.705080  0.085334  0.047414  1
  O  O11  1  0.936166  0.655048  0.380929  1
  O  O12  1  0.874470  0.895501  0.722956  1
  O  O13  1  0.552269  0.363887  0.833112  1
  O  O14  1  0.553368  0.365775  0.350987  1
  O  O15  1  0.442580  0.635126  0.657382  1
  O  O16  1  0.429738  0.633464  0.160894  1
  O  O17  1  0.124978  0.106540  0.276747  1
  O  O18  1  0.067804  0.350828  0.626990  1
  O  O19  1  0.298126  0.907544  0.952275  1
  O  O20  1  0.077075  0.303518  0.008172  1
  O  O21  1  0.284973  0.933294  0.515743  1
