# generated using pymatgen
data_Ho7Er3(Sn3S)2
_symmetry_space_group_name_H-M   'P 1'
_cell_length_a   9.02170800
_cell_length_b   9.02170859
_cell_length_c   6.64539100
_cell_angle_alpha   90.00000000
_cell_angle_beta   90.00000000
_cell_angle_gamma   119.99999782
_symmetry_Int_Tables_number   1
_chemical_formula_structural   Ho7Er3(Sn3S)2
_chemical_formula_sum   'Ho7 Er3 Sn6 S2'
_cell_volume   468.41278649
_cell_formula_units_Z   1
loop_
 _symmetry_equiv_pos_site_id
 _symmetry_equiv_pos_as_xyz
  1  'x, y, z'
loop_
 _atom_site_type_symbol
 _atom_site_label
 _atom_site_symmetry_multiplicity
 _atom_site_fract_x
 _atom_site_fract_y
 _atom_site_fract_z
 _atom_site_occupancy
  Ho  Ho0  1  0.666667  0.333333  0.000000  1
  Ho  Ho1  1  0.755717  0.755759  0.749930  1
  Ho  Ho2  1  0.244241  0.999958  0.749930  1
  Ho  Ho3  1  0.000042  0.244283  0.749930  1
  Ho  Ho4  1  0.244241  0.244283  0.250070  1
  Ho  Ho5  1  0.755717  0.999958  0.250070  1
  Ho  Ho6  1  0.000042  0.755759  0.250070  1
  Er  Er7  1  0.333333  0.666667  0.000000  1
  Er  Er8  1  0.333333  0.666667  0.500000  1
  Er  Er9  1  0.666667  0.333333  0.500000  1
  Sn  Sn10  1  0.398372  0.398616  0.749686  1
  Sn  Sn11  1  0.601384  0.999756  0.749686  1
  Sn  Sn12  1  0.000244  0.601628  0.749686  1
  Sn  Sn13  1  0.601384  0.601628  0.250314  1
  Sn  Sn14  1  0.398372  0.999756  0.250314  1
  Sn  Sn15  1  0.000244  0.398616  0.250314  1
  S  S16  1  0.000000  0.000000  0.000000  1
  S  S17  1  0.000000  0.000000  0.500000  1
