# generated using pymatgen
data_Pr4Dy2(PtRh5)3
_symmetry_space_group_name_H-M   'P 1'
_cell_length_a   5.38794100
_cell_length_b   5.38926827
_cell_length_c   17.74906000
_cell_angle_alpha   89.99829897
_cell_angle_beta   90.00036156
_cell_angle_gamma   119.99098808
_symmetry_Int_Tables_number   1
_chemical_formula_structural   Pr4Dy2(PtRh5)3
_chemical_formula_sum   'Pr4 Dy2 Pt3 Rh15'
_cell_volume   446.37314050
_cell_formula_units_Z   1
loop_
 _symmetry_equiv_pos_site_id
 _symmetry_equiv_pos_as_xyz
  1  'x, y, z'
loop_
 _atom_site_type_symbol
 _atom_site_label
 _atom_site_symmetry_multiplicity
 _atom_site_fract_x
 _atom_site_fract_y
 _atom_site_fract_z
 _atom_site_occupancy
  Pr  Pr0  1  0.333343  0.666671  0.542322  1
  Pr  Pr1  1  0.666648  0.333345  0.042958  1
  Pr  Pr2  1  0.333325  0.666653  0.750461  1
  Pr  Pr3  1  0.666680  0.333352  0.250452  1
  Dy  Dy4  1  0.666668  0.333317  0.454935  1
  Dy  Dy5  1  0.333342  0.666692  0.955633  1
  Pt  Pt6  1  0.000015  0.999987  0.250029  1
  Pt  Pt7  1  0.999987  0.000024  0.999360  1
  Pt  Pt8  1  0.000025  0.000017  0.499865  1
  Rh  Rh9  1  0.167974  0.335961  0.126894  1
  Rh  Rh10  1  0.832604  0.665201  0.627607  1
  Rh  Rh11  1  0.664020  0.832007  0.126883  1
  Rh  Rh12  1  0.167983  0.831998  0.126882  1
  Rh  Rh13  1  0.832585  0.167415  0.627593  1
  Rh  Rh14  1  0.334812  0.167400  0.627595  1
  Rh  Rh15  1  0.832594  0.665164  0.873096  1
  Rh  Rh16  1  0.832603  0.167398  0.873063  1
  Rh  Rh17  1  0.334831  0.167397  0.873095  1
  Rh  Rh18  1  0.663834  0.831908  0.373713  1
  Rh  Rh19  1  0.168075  0.831905  0.373713  1
  Rh  Rh20  1  0.168068  0.336133  0.373703  1
  Rh  Rh21  1  0.999984  0.000138  0.749785  1
  Rh  Rh22  1  0.333331  0.666660  0.250209  1
  Rh  Rh23  1  0.666666  0.333259  0.750150  1
