# generated using pymatgen
data_LiDy4Mn3(P3Ir4)4
_symmetry_space_group_name_H-M   'P 1'
_cell_length_a   12.62647892
_cell_length_b   12.66902123
_cell_length_c   3.95466500
_cell_angle_alpha   90.00000000
_cell_angle_beta   90.00000000
_cell_angle_gamma   120.11151725
_symmetry_Int_Tables_number   1
_chemical_formula_structural   LiDy4Mn3(P3Ir4)4
_chemical_formula_sum   'Li1 Dy4 Mn3 P12 Ir16'
_cell_volume   547.23835637
_cell_formula_units_Z   1
loop_
 _symmetry_equiv_pos_site_id
 _symmetry_equiv_pos_as_xyz
  1  'x, y, z'
loop_
 _atom_site_type_symbol
 _atom_site_label
 _atom_site_symmetry_multiplicity
 _atom_site_fract_x
 _atom_site_fract_y
 _atom_site_fract_z
 _atom_site_occupancy
  Li  Li0  1  0.000000  0.811742  0.000000  1
  Dy  Dy1  1  0.334079  0.666308  0.500000  1
  Dy  Dy2  1  0.665921  0.332228  0.500000  1
  Dy  Dy3  1  0.187220  0.187312  0.000000  1
  Dy  Dy4  1  0.812780  0.000092  0.000000  1
  Mn  Mn5  1  0.000000  0.457427  0.500000  1
  Mn  Mn6  1  0.540259  0.542880  0.500000  1
  Mn  Mn7  1  0.459741  0.002621  0.500000  1
  P  P8  1  0.000000  0.636540  0.500000  1
  P  P9  1  0.364747  0.364591  0.500000  1
  P  P10  1  0.635253  0.999844  0.500000  1
  P  P11  1  0.519060  0.686939  0.000000  1
  P  P12  1  0.311729  0.830912  0.000000  1
  P  P13  1  0.167649  0.482707  0.000000  1
  P  P14  1  0.480940  0.167879  0.000000  1
  P  P15  1  0.688271  0.519183  0.000000  1
  P  P16  1  0.832351  0.315057  0.000000  1
  P  P17  1  0.000000  0.177857  0.500000  1
  P  P18  1  0.823015  0.820322  0.500000  1
  P  P19  1  0.176985  0.997308  0.500000  1
  Ir  Ir20  1  0.506650  0.867981  0.000000  1
  Ir  Ir21  1  0.130813  0.639366  0.000000  1
  Ir  Ir22  1  0.360237  0.493074  0.000000  1
  Ir  Ir23  1  0.493350  0.361330  0.000000  1
  Ir  Ir24  1  0.869187  0.508552  0.000000  1
  Ir  Ir25  1  0.639763  0.132835  0.000000  1
  Ir  Ir26  1  0.000000  0.281508  0.000000  1
  Ir  Ir27  1  0.720233  0.719264  0.000000  1
  Ir  Ir28  1  0.279767  0.999030  0.000000  1
  Ir  Ir29  1  0.624567  0.803682  0.500000  1
  Ir  Ir30  1  0.196056  0.819220  0.500000  1
  Ir  Ir31  1  0.179344  0.375771  0.500000  1
  Ir  Ir32  1  0.375433  0.179115  0.500000  1
  Ir  Ir33  1  0.803944  0.623164  0.500000  1
  Ir  Ir34  1  0.820656  0.196427  0.500000  1
  Ir  Ir35  1  0.000000  0.999930  0.500000  1
