# generated using pymatgen
data_Y8Er2BiPb7
_symmetry_space_group_name_H-M   'P 1'
_cell_length_a   8.23873400
_cell_length_b   8.29613593
_cell_length_c   15.59688317
_cell_angle_alpha   90.13707458
_cell_angle_beta   90.00000000
_cell_angle_gamma   90.00000000
_symmetry_Int_Tables_number   1
_chemical_formula_structural   Y8Er2BiPb7
_chemical_formula_sum   'Y16 Er4 Bi2 Pb14'
_cell_volume   1066.03856650
_cell_formula_units_Z   2
loop_
 _symmetry_equiv_pos_site_id
 _symmetry_equiv_pos_as_xyz
  1  'x, y, z'
loop_
 _atom_site_type_symbol
 _atom_site_label
 _atom_site_symmetry_multiplicity
 _atom_site_fract_x
 _atom_site_fract_y
 _atom_site_fract_z
 _atom_site_occupancy
  Y  Y0  1  0.378064  0.840279  0.877873  1
  Y  Y1  1  0.878064  0.659721  0.622127  1
  Y  Y2  1  0.621582  0.155283  0.378147  1
  Y  Y3  1  0.121582  0.344717  0.121853  1
  Y  Y4  1  0.626736  0.159270  0.121766  1
  Y  Y5  1  0.126736  0.340730  0.378234  1
  Y  Y6  1  0.376547  0.841874  0.621528  1
  Y  Y7  1  0.876547  0.658126  0.878472  1
  Y  Y8  1  0.540469  0.328449  0.897570  1
  Y  Y9  1  0.040469  0.171551  0.602430  1
  Y  Y10  1  0.458198  0.676241  0.397726  1
  Y  Y11  1  0.958198  0.823759  0.102274  1
  Y  Y12  1  0.462986  0.671359  0.101315  1
  Y  Y13  1  0.962986  0.828641  0.398685  1
  Y  Y14  1  0.534891  0.323422  0.602311  1
  Y  Y15  1  0.034891  0.176578  0.897689  1
  Er  Er16  1  0.208030  0.502216  0.749707  1
  Er  Er17  1  0.708030  0.997784  0.750293  1
  Er  Er18  1  0.791739  0.498005  0.248541  1
  Er  Er19  1  0.291739  0.001995  0.251459  1
  Bi  Bi20  1  0.279468  0.030658  0.044586  1
  Bi  Bi21  1  0.779468  0.469342  0.455414  1
  Pb  Pb22  1  0.720007  0.968346  0.543580  1
  Pb  Pb23  1  0.220007  0.531654  0.956420  1
  Pb  Pb24  1  0.720474  0.968308  0.956523  1
  Pb  Pb25  1  0.220474  0.531692  0.543477  1
  Pb  Pb26  1  0.281083  0.031881  0.456536  1
  Pb  Pb27  1  0.781083  0.468119  0.043464  1
  Pb  Pb28  1  0.571082  0.627018  0.749000  1
  Pb  Pb29  1  0.071082  0.872982  0.751000  1
  Pb  Pb30  1  0.430075  0.372739  0.250019  1
  Pb  Pb31  1  0.930075  0.127261  0.249981  1
  Pb  Pb32  1  0.348922  0.153982  0.750908  1
  Pb  Pb33  1  0.848922  0.346018  0.749092  1
  Pb  Pb34  1  0.649648  0.845272  0.249777  1
  Pb  Pb35  1  0.149648  0.654728  0.250223  1
