# generated using pymatgen
data_Tb9Er(IrRh2)2
_symmetry_space_group_name_H-M   'P 1'
_cell_length_a   10.92366300
_cell_length_b   10.92366300
_cell_length_c   6.38561100
_cell_angle_alpha   90.00000000
_cell_angle_beta   90.00000000
_cell_angle_gamma   90.00000000
_symmetry_Int_Tables_number   1
_chemical_formula_structural   Tb9Er(IrRh2)2
_chemical_formula_sum   'Tb18 Er2 Ir4 Rh8'
_cell_volume   761.97205760
_cell_formula_units_Z   2
loop_
 _symmetry_equiv_pos_site_id
 _symmetry_equiv_pos_as_xyz
  1  'x, y, z'
loop_
 _atom_site_type_symbol
 _atom_site_label
 _atom_site_symmetry_multiplicity
 _atom_site_fract_x
 _atom_site_fract_y
 _atom_site_fract_z
 _atom_site_occupancy
  Tb  Tb0  1  0.291220  0.089627  0.378065  1
  Tb  Tb1  1  0.291220  0.910373  0.878065  1
  Tb  Tb2  1  0.708780  0.089627  0.878065  1
  Tb  Tb3  1  0.708780  0.910373  0.378065  1
  Tb  Tb4  1  0.587395  0.789547  0.878806  1
  Tb  Tb5  1  0.587395  0.210453  0.378806  1
  Tb  Tb6  1  0.412605  0.789547  0.378806  1
  Tb  Tb7  1  0.412605  0.210453  0.878806  1
  Tb  Tb8  1  0.210453  0.412605  0.621194  1
  Tb  Tb9  1  0.210453  0.587395  0.121194  1
  Tb  Tb10  1  0.789547  0.412605  0.121194  1
  Tb  Tb11  1  0.789547  0.587395  0.621194  1
  Tb  Tb12  1  0.910373  0.708780  0.121935  1
  Tb  Tb13  1  0.910373  0.291220  0.621935  1
  Tb  Tb14  1  0.089627  0.708780  0.621935  1
  Tb  Tb15  1  0.089627  0.291220  0.121935  1
  Tb  Tb16  1  0.000000  0.000000  0.500000  1
  Tb  Tb17  1  0.000000  0.000000  0.000000  1
  Er  Er18  1  0.500000  0.500000  0.000000  1
  Er  Er19  1  0.500000  0.500000  0.500000  1
  Ir  Ir20  1  0.653806  0.346194  0.750000  1
  Ir  Ir21  1  0.653806  0.653806  0.250000  1
  Ir  Ir22  1  0.346194  0.346194  0.250000  1
  Ir  Ir23  1  0.346194  0.653806  0.750000  1
  Rh  Rh24  1  0.846416  0.153584  0.250000  1
  Rh  Rh25  1  0.846416  0.846416  0.750000  1
  Rh  Rh26  1  0.153584  0.153584  0.750000  1
  Rh  Rh27  1  0.153584  0.846416  0.250000  1
  Rh  Rh28  1  0.500000  0.000000  0.122189  1
  Rh  Rh29  1  0.500000  0.000000  0.622189  1
  Rh  Rh30  1  0.000000  0.500000  0.877811  1
  Rh  Rh31  1  0.000000  0.500000  0.377811  1
