# generated using pymatgen
data_Li4Nd4Sn3Sb
_symmetry_space_group_name_H-M   'P 1'
_cell_length_a   9.54117679
_cell_length_b   9.54175952
_cell_length_c   7.62738784
_cell_angle_alpha   90.00000066
_cell_angle_beta   90.04642240
_cell_angle_gamma   120.00202269
_symmetry_Int_Tables_number   1
_chemical_formula_structural   Li4Nd4Sn3Sb
_chemical_formula_sum   'Li8 Nd8 Sn6 Sb2'
_cell_volume   601.35071142
_cell_formula_units_Z   2
loop_
 _symmetry_equiv_pos_site_id
 _symmetry_equiv_pos_as_xyz
  1  'x, y, z'
loop_
 _atom_site_type_symbol
 _atom_site_label
 _atom_site_symmetry_multiplicity
 _atom_site_fract_x
 _atom_site_fract_y
 _atom_site_fract_z
 _atom_site_occupancy
  Li  Li0  1  0.167092  0.333902  0.285329  1
  Li  Li1  1  0.167092  0.833190  0.285329  1
  Li  Li2  1  0.666349  0.833174  0.286602  1
  Li  Li3  1  0.833034  0.666314  0.786568  1
  Li  Li4  1  0.833034  0.166720  0.786568  1
  Li  Li5  1  0.333233  0.166617  0.787541  1
  Li  Li6  1  0.332804  0.666402  0.668467  1
  Li  Li7  1  0.667227  0.333613  0.170442  1
  Nd  Nd8  1  0.513876  0.024060  0.493513  1
  Nd  Nd9  1  0.513876  0.489816  0.493513  1
  Nd  Nd10  1  0.974294  0.487147  0.492477  1
  Nd  Nd11  1  0.489948  0.978006  0.995349  1
  Nd  Nd12  1  0.489948  0.511942  0.995349  1
  Nd  Nd13  1  0.021904  0.510951  0.995952  1
  Nd  Nd14  1  0.998914  0.999457  0.497652  1
  Nd  Nd15  1  0.997646  0.998823  0.001341  1
  Sn  Sn16  1  0.666418  0.833209  0.730632  1
  Sn  Sn17  1  0.833547  0.666677  0.231504  1
  Sn  Sn18  1  0.833547  0.166869  0.231504  1
  Sn  Sn19  1  0.333584  0.166791  0.230840  1
  Sn  Sn20  1  0.333029  0.666515  0.264782  1
  Sn  Sn21  1  0.666944  0.333471  0.765092  1
  Sb  Sb22  1  0.166330  0.333429  0.732814  1
  Sb  Sb23  1  0.166330  0.832902  0.732814  1
