# generated using pymatgen
data_Ac20Si15P
_symmetry_space_group_name_H-M   'P 1'
_cell_length_a   8.28675034
_cell_length_b   8.27470558
_cell_length_c   16.31645330
_cell_angle_alpha   89.85033140
_cell_angle_beta   89.53048419
_cell_angle_gamma   90.03176107
_symmetry_Int_Tables_number   1
_chemical_formula_structural   Ac20Si15P
_chemical_formula_sum   'Ac20 Si15 P1'
_cell_volume   1118.78447559
_cell_formula_units_Z   1
loop_
 _symmetry_equiv_pos_site_id
 _symmetry_equiv_pos_as_xyz
  1  'x, y, z'
loop_
 _atom_site_type_symbol
 _atom_site_label
 _atom_site_symmetry_multiplicity
 _atom_site_fract_x
 _atom_site_fract_y
 _atom_site_fract_z
 _atom_site_occupancy
  Ac  Ac0  1  0.314286  0.310710  0.999295  1
  Ac  Ac1  1  0.188426  0.810297  0.248879  1
  Ac  Ac2  1  0.806559  0.190214  0.750794  1
  Ac  Ac3  1  0.688529  0.686268  0.499456  1
  Ac  Ac4  1  0.380720  0.011210  0.445213  1
  Ac  Ac5  1  0.484094  0.878907  0.698341  1
  Ac  Ac6  1  0.514023  0.122450  0.196816  1
  Ac  Ac7  1  0.876995  0.484324  0.302161  1
  Ac  Ac8  1  0.123390  0.511434  0.801823  1
  Ac  Ac9  1  0.624969  0.985041  0.947219  1
  Ac  Ac10  1  0.010120  0.375989  0.552761  1
  Ac  Ac11  1  0.986288  0.621745  0.052447  1
  Ac  Ac12  1  0.129900  0.980697  0.874398  1
  Ac  Ac13  1  0.523368  0.626697  0.126421  1
  Ac  Ac14  1  0.468827  0.368279  0.629159  1
  Ac  Ac15  1  0.626926  0.523933  0.873340  1
  Ac  Ac16  1  0.372083  0.474176  0.374079  1
  Ac  Ac17  1  0.875719  0.022832  0.377599  1
  Ac  Ac18  1  0.977398  0.126825  0.123324  1
  Ac  Ac19  1  0.027099  0.879427  0.623519  1
  Si  Si20  1  0.329819  0.699033  0.956696  1
  Si  Si21  1  0.668627  0.302551  0.459264  1
  Si  Si22  1  0.700272  0.331966  0.042414  1
  Si  Si23  1  0.301857  0.668865  0.543125  1
  Si  Si24  1  0.802809  0.830607  0.208401  1
  Si  Si25  1  0.169886  0.197131  0.291663  1
  Si  Si26  1  0.833439  0.802833  0.791151  1
  Si  Si27  1  0.288928  0.919090  0.058312  1
  Si  Si28  1  0.581379  0.788513  0.309169  1
  Si  Si29  1  0.429707  0.208641  0.814055  1
  Si  Si30  1  0.791662  0.582709  0.689484  1
  Si  Si31  1  0.210016  0.420500  0.190792  1
  Si  Si32  1  0.706889  0.079870  0.559936  1
  Si  Si33  1  0.921801  0.290238  0.940875  1
  Si  Si34  1  0.080376  0.709511  0.441805  1
  P  P35  1  0.182819  0.176490  0.705815  1
