# generated using pymatgen
data_KPr2CuSe4
_symmetry_space_group_name_H-M   'P 1'
_cell_length_a   7.54986201
_cell_length_b   7.54986217
_cell_length_c   14.70337500
_cell_angle_alpha   90.00000000
_cell_angle_beta   90.00000000
_cell_angle_gamma   147.36601497
_symmetry_Int_Tables_number   1
_chemical_formula_structural   KPr2CuSe4
_chemical_formula_sum   'K2 Pr4 Cu2 Se8'
_cell_volume   451.96171421
_cell_formula_units_Z   2
loop_
 _symmetry_equiv_pos_site_id
 _symmetry_equiv_pos_as_xyz
  1  'x, y, z'
loop_
 _atom_site_type_symbol
 _atom_site_label
 _atom_site_symmetry_multiplicity
 _atom_site_fract_x
 _atom_site_fract_y
 _atom_site_fract_z
 _atom_site_occupancy
  K  K0  1  0.109080  0.890920  0.250000  1
  K  K1  1  0.890920  0.109080  0.750000  1
  Pr  Pr2  1  0.634950  0.365050  0.936037  1
  Pr  Pr3  1  0.365050  0.634950  0.436037  1
  Pr  Pr4  1  0.634950  0.365050  0.563963  1
  Pr  Pr5  1  0.365050  0.634950  0.063963  1
  Cu  Cu6  1  0.161044  0.838956  0.750000  1
  Cu  Cu7  1  0.838956  0.161044  0.250000  1
  Se  Se8  1  0.000000  0.000000  0.500000  1
  Se  Se9  1  0.000000  0.000000  0.000000  1
  Se  Se10  1  0.734091  0.265909  0.116583  1
  Se  Se11  1  0.265909  0.734091  0.883417  1
  Se  Se12  1  0.565908  0.434092  0.750000  1
  Se  Se13  1  0.734091  0.265909  0.383417  1
  Se  Se14  1  0.434092  0.565908  0.250000  1
  Se  Se15  1  0.265909  0.734091  0.616583  1
