# generated using pymatgen
data_La5Tb2Pr7Rh6
_symmetry_space_group_name_H-M   'P 1'
_cell_length_a   6.51796303
_cell_length_b   10.16429043
_cell_length_c   10.10856959
_cell_angle_alpha   120.13735507
_cell_angle_beta   89.86932594
_cell_angle_gamma   90.01805160
_symmetry_Int_Tables_number   1
_chemical_formula_structural   La5Tb2Pr7Rh6
_chemical_formula_sum   'La5 Tb2 Pr7 Rh6'
_cell_volume   579.16885810
_cell_formula_units_Z   1
loop_
 _symmetry_equiv_pos_site_id
 _symmetry_equiv_pos_as_xyz
  1  'x, y, z'
loop_
 _atom_site_type_symbol
 _atom_site_label
 _atom_site_symmetry_multiplicity
 _atom_site_fract_x
 _atom_site_fract_y
 _atom_site_fract_z
 _atom_site_occupancy
  La  La0  1  0.253211  0.124910  0.872269  1
  La  La1  1  0.253093  0.747689  0.872534  1
  La  La2  1  0.253209  0.127352  0.253893  1
  La  La3  1  0.754173  0.872982  0.124916  1
  La  La4  1  0.753238  0.251957  0.124590  1
  Tb  Tb5  1  0.470700  0.332409  0.666759  1
  Tb  Tb6  1  0.972236  0.668323  0.334885  1
  Pr  Pr7  1  0.750227  0.872461  0.745178  1
  Pr  Pr8  1  0.442271  0.539532  0.460188  1
  Pr  Pr9  1  0.435382  0.919489  0.459897  1
  Pr  Pr10  1  0.435638  0.538662  0.078698  1
  Pr  Pr11  1  0.939532  0.460808  0.540002  1
  Pr  Pr12  1  0.933192  0.080254  0.540024  1
  Pr  Pr13  1  0.936227  0.461774  0.921703  1
  Rh  Rh14  1  0.182534  0.811586  0.186778  1
  Rh  Rh15  1  0.183138  0.376164  0.189123  1
  Rh  Rh16  1  0.190200  0.810933  0.624900  1
  Rh  Rh17  1  0.682028  0.192666  0.815407  1
  Rh  Rh18  1  0.682148  0.621429  0.813297  1
  Rh  Rh19  1  0.683625  0.188619  0.374960  1
