# generated using pymatgen
data_Nd4Sm2CoCl10
_symmetry_space_group_name_H-M   'P 1'
_cell_length_a   7.33740590
_cell_length_b   9.04263689
_cell_length_c   9.16303702
_cell_angle_alpha   109.31615820
_cell_angle_beta   106.86995099
_cell_angle_gamma   96.67603565
_symmetry_Int_Tables_number   1
_chemical_formula_structural   Nd4Sm2CoCl10
_chemical_formula_sum   'Nd4 Sm2 Co1 Cl10'
_cell_volume   533.67002011
_cell_formula_units_Z   1
loop_
 _symmetry_equiv_pos_site_id
 _symmetry_equiv_pos_as_xyz
  1  'x, y, z'
loop_
 _atom_site_type_symbol
 _atom_site_label
 _atom_site_symmetry_multiplicity
 _atom_site_fract_x
 _atom_site_fract_y
 _atom_site_fract_z
 _atom_site_occupancy
  Nd  Nd0  1  0.130854  0.758869  0.051443  1
  Nd  Nd1  1  0.627029  0.804453  0.853077  1
  Nd  Nd2  1  0.870110  0.241257  0.950607  1
  Nd  Nd3  1  0.976763  0.106221  0.311873  1
  Sm  Sm4  1  0.369684  0.191440  0.141920  1
  Sm  Sm5  1  0.026090  0.897179  0.692918  1
  Co  Co6  1  0.999992  0.999577  0.000432  1
  Cl  Cl7  1  0.448973  0.076206  0.829080  1
  Cl  Cl8  1  0.753845  0.545557  0.919871  1
  Cl  Cl9  1  0.248805  0.451742  0.081660  1
  Cl  Cl10  1  0.915841  0.164297  0.636319  1
  Cl  Cl11  1  0.646320  0.728132  0.542217  1
  Cl  Cl12  1  0.547138  0.925369  0.170033  1
  Cl  Cl13  1  0.086141  0.835082  0.369235  1
  Cl  Cl14  1  0.791735  0.348502  0.253987  1
  Cl  Cl15  1  0.196490  0.650077  0.742178  1
  Cl  Cl16  1  0.364190  0.276041  0.453152  1
