# generated using pymatgen
data_YbHf3(Si3Ni5)4
_symmetry_space_group_name_H-M   'P 1'
_cell_length_a   3.71814500
_cell_length_b   6.59794911
_cell_length_c   18.39801256
_cell_angle_alpha   90.25378528
_cell_angle_beta   90.00000000
_cell_angle_gamma   90.00000000
_symmetry_Int_Tables_number   1
_chemical_formula_structural   YbHf3(Si3Ni5)4
_chemical_formula_sum   'Yb1 Hf3 Si12 Ni20'
_cell_volume   451.33803555
_cell_formula_units_Z   1
loop_
 _symmetry_equiv_pos_site_id
 _symmetry_equiv_pos_as_xyz
  1  'x, y, z'
loop_
 _atom_site_type_symbol
 _atom_site_label
 _atom_site_symmetry_multiplicity
 _atom_site_fract_x
 _atom_site_fract_y
 _atom_site_fract_z
 _atom_site_occupancy
  Yb  Yb0  1  0.250000  0.877571  0.142724  1
  Hf  Hf1  1  0.250000  0.622415  0.643329  1
  Hf  Hf2  1  0.750000  0.378184  0.357854  1
  Hf  Hf3  1  0.750000  0.120197  0.855216  1
  Si  Si4  1  0.250000  0.853445  0.922992  1
  Si  Si5  1  0.750000  0.158403  0.075138  1
  Si  Si6  1  0.750000  0.351778  0.577865  1
  Si  Si7  1  0.250000  0.646159  0.424534  1
  Si  Si8  1  0.750000  0.623016  0.759520  1
  Si  Si9  1  0.250000  0.376561  0.241457  1
  Si  Si10  1  0.250000  0.405770  0.910284  1
  Si  Si11  1  0.750000  0.582578  0.083973  1
  Si  Si12  1  0.750000  0.906263  0.586479  1
  Si  Si13  1  0.250000  0.094155  0.415511  1
  Si  Si14  1  0.250000  0.121370  0.739096  1
  Si  Si15  1  0.750000  0.877038  0.262981  1
  Ni  Ni16  1  0.250000  0.134545  0.993478  1
  Ni  Ni17  1  0.750000  0.379612  0.981078  1
  Ni  Ni18  1  0.750000  0.121283  0.487042  1
  Ni  Ni19  1  0.250000  0.615537  0.011318  1
  Ni  Ni20  1  0.250000  0.359931  0.116878  1
  Ni  Ni21  1  0.750000  0.647045  0.883322  1
  Ni  Ni22  1  0.750000  0.853810  0.387219  1
  Ni  Ni23  1  0.250000  0.143861  0.615233  1
  Ni  Ni24  1  0.250000  0.070574  0.295804  1
  Ni  Ni25  1  0.750000  0.928386  0.706582  1
  Ni  Ni26  1  0.750000  0.567485  0.207002  1
  Ni  Ni27  1  0.250000  0.430028  0.790775  1
  Ni  Ni28  1  0.750000  0.628998  0.506898  1
  Ni  Ni29  1  0.250000  0.370547  0.496255  1
  Ni  Ni30  1  0.250000  0.820170  0.799287  1
  Ni  Ni31  1  0.750000  0.184277  0.202316  1
  Ni  Ni32  1  0.750000  0.318998  0.700126  1
  Ni  Ni33  1  0.250000  0.680322  0.302109  1
  Ni  Ni34  1  0.250000  0.879430  0.514479  1
  Ni  Ni35  1  0.750000  0.870261  0.003845  1
