# generated using pymatgen
data_Ho5Er3Ti3Si16Mo9
_symmetry_space_group_name_H-M   'P 1'
_cell_length_a   6.89592741
_cell_length_b   6.89594787
_cell_length_c   12.76796002
_cell_angle_alpha   89.99917210
_cell_angle_beta   89.99371674
_cell_angle_gamma   89.80763042
_symmetry_Int_Tables_number   1
_chemical_formula_structural   Ho5Er3Ti3Si16Mo9
_chemical_formula_sum   'Ho5 Er3 Ti3 Si16 Mo9'
_cell_volume   607.16358185
_cell_formula_units_Z   1
loop_
 _symmetry_equiv_pos_site_id
 _symmetry_equiv_pos_as_xyz
  1  'x, y, z'
loop_
 _atom_site_type_symbol
 _atom_site_label
 _atom_site_symmetry_multiplicity
 _atom_site_fract_x
 _atom_site_fract_y
 _atom_site_fract_z
 _atom_site_occupancy
  Ho  Ho0  1  0.339407  0.001814  0.468568  1
  Ho  Ho1  1  0.497237  0.839077  0.719349  1
  Ho  Ho2  1  0.499250  0.161692  0.217458  1
  Ho  Ho3  1  0.839146  0.497235  0.280688  1
  Ho  Ho4  1  0.161680  0.499240  0.782522  1
  Er  Er5  1  0.659354  0.000256  0.968924  1
  Er  Er6  1  0.001435  0.339654  0.531444  1
  Er  Er7  1  0.000200  0.659306  0.031030  1
  Ti  Ti8  1  0.169926  0.831499  0.248564  1
  Ti  Ti9  1  0.831520  0.169936  0.751386  1
  Ti  Ti10  1  0.668921  0.668798  0.500007  1
  Si  Si11  1  0.200767  0.129403  0.683318  1
  Si  Si12  1  0.373549  0.697405  0.934054  1
  Si  Si13  1  0.629154  0.299034  0.433532  1
  Si  Si14  1  0.697412  0.373544  0.065943  1
  Si  Si15  1  0.298859  0.628690  0.566530  1
  Si  Si16  1  0.796857  0.871571  0.183754  1
  Si  Si17  1  0.129170  0.200997  0.316638  1
  Si  Si18  1  0.871598  0.796823  0.816254  1
  Si  Si19  1  0.287930  0.963590  0.061531  1
  Si  Si20  1  0.539334  0.791283  0.313479  1
  Si  Si21  1  0.458430  0.210686  0.815217  1
  Si  Si22  1  0.791438  0.539216  0.686407  1
  Si  Si23  1  0.210694  0.458453  0.184780  1
  Si  Si24  1  0.709980  0.041211  0.563820  1
  Si  Si25  1  0.963603  0.287932  0.938485  1
  Si  Si26  1  0.041025  0.709521  0.436240  1
  Mo  Mo27  1  0.331472  0.331469  0.000000  1
  Mo  Mo28  1  0.155521  0.001588  0.873138  1
  Mo  Mo29  1  0.496553  0.666671  0.124311  1
  Mo  Mo30  1  0.505760  0.340467  0.624537  1
  Mo  Mo31  1  0.666678  0.496554  0.875672  1
  Mo  Mo32  1  0.340326  0.505658  0.375512  1
  Mo  Mo33  1  0.840782  0.993486  0.374270  1
  Mo  Mo34  1  0.001598  0.155527  0.126860  1
  Mo  Mo35  1  0.993436  0.840713  0.625777  1
