# generated using pymatgen
data_Nd16Cd3InIr4
_symmetry_space_group_name_H-M   'P 1'
_cell_length_a   9.97935985
_cell_length_b   9.97936026
_cell_length_c   9.97936094
_cell_angle_alpha   59.85525124
_cell_angle_beta   59.85525167
_cell_angle_gamma   59.85525239
_symmetry_Int_Tables_number   1
_chemical_formula_structural   Nd16Cd3InIr4
_chemical_formula_sum   'Nd16 Cd3 In1 Ir4'
_cell_volume   700.42914235
_cell_formula_units_Z   1
loop_
 _symmetry_equiv_pos_site_id
 _symmetry_equiv_pos_as_xyz
  1  'x, y, z'
loop_
 _atom_site_type_symbol
 _atom_site_label
 _atom_site_symmetry_multiplicity
 _atom_site_fract_x
 _atom_site_fract_y
 _atom_site_fract_z
 _atom_site_occupancy
  Nd  Nd0  1  0.347810  0.347810  0.347810  1
  Nd  Nd1  1  0.349850  0.349850  0.953143  1
  Nd  Nd2  1  0.349850  0.953143  0.349850  1
  Nd  Nd3  1  0.953143  0.349850  0.349850  1
  Nd  Nd4  1  0.810200  0.189546  0.189546  1
  Nd  Nd5  1  0.189828  0.807504  0.807504  1
  Nd  Nd6  1  0.189546  0.810200  0.189546  1
  Nd  Nd7  1  0.807504  0.189828  0.807504  1
  Nd  Nd8  1  0.189546  0.189546  0.810200  1
  Nd  Nd9  1  0.807504  0.807504  0.189828  1
  Nd  Nd10  1  0.942640  0.561101  0.561101  1
  Nd  Nd11  1  0.559546  0.939682  0.939682  1
  Nd  Nd12  1  0.561101  0.942640  0.561101  1
  Nd  Nd13  1  0.939682  0.559546  0.939682  1
  Nd  Nd14  1  0.561101  0.561101  0.942640  1
  Nd  Nd15  1  0.939682  0.939682  0.559546  1
  Cd  Cd16  1  0.579499  0.579499  0.258456  1
  Cd  Cd17  1  0.579499  0.258456  0.579499  1
  Cd  Cd18  1  0.258456  0.579499  0.579499  1
  In  In19  1  0.581261  0.581261  0.581261  1
  Ir  Ir20  1  0.142201  0.142201  0.142201  1
  Ir  Ir21  1  0.142465  0.142465  0.575619  1
  Ir  Ir22  1  0.142465  0.575619  0.142465  1
  Ir  Ir23  1  0.575619  0.142465  0.142465  1
