# generated using pymatgen
data_Tb4Er3FeI12
_symmetry_space_group_name_H-M   'P 1'
_cell_length_a   9.82253662
_cell_length_b   9.79250871
_cell_length_c   9.75342942
_cell_angle_alpha   106.82156403
_cell_angle_beta   107.15991087
_cell_angle_gamma   107.12491645
_symmetry_Int_Tables_number   1
_chemical_formula_structural   Tb4Er3FeI12
_chemical_formula_sum   'Tb4 Er3 Fe1 I12'
_cell_volume   780.54169314
_cell_formula_units_Z   1
loop_
 _symmetry_equiv_pos_site_id
 _symmetry_equiv_pos_as_xyz
  1  'x, y, z'
loop_
 _atom_site_type_symbol
 _atom_site_label
 _atom_site_symmetry_multiplicity
 _atom_site_fract_x
 _atom_site_fract_y
 _atom_site_fract_z
 _atom_site_occupancy
  Tb  Tb0  1  0.912189  0.979031  0.722197  1
  Tb  Tb1  1  0.705760  0.906303  0.978173  1
  Tb  Tb2  1  0.976946  0.705703  0.906648  1
  Tb  Tb3  1  0.089320  0.021109  0.277889  1
  Er  Er4  1  0.288883  0.093676  0.022030  1
  Er  Er5  1  0.022375  0.288359  0.091554  1
  Er  Er6  1  0.500172  0.500618  0.499761  1
  Fe  Fe7  1  0.999610  0.998823  0.000470  1
  I  I8  1  0.836453  0.614735  0.536624  1
  I  I9  1  0.538921  0.837741  0.612779  1
  I  I10  1  0.610815  0.534040  0.835053  1
  I  I11  1  0.162951  0.385597  0.460216  1
  I  I12  1  0.461945  0.163471  0.384006  1
  I  I13  1  0.385933  0.463400  0.163207  1
  I  I14  1  0.928785  0.318936  0.776634  1
  I  I15  1  0.777620  0.930477  0.319760  1
  I  I16  1  0.321954  0.778117  0.929834  1
  I  I17  1  0.072238  0.680186  0.226497  1
  I  I18  1  0.226322  0.071462  0.684884  1
  I  I19  1  0.680809  0.228216  0.071784  1
