# generated using pymatgen
data_Dy3Mg3(Ni7B2)2
_symmetry_space_group_name_H-M   'P 1'
_cell_length_a   4.97898100
_cell_length_b   4.97898172
_cell_length_c   14.06060000
_cell_angle_alpha   90.00000000
_cell_angle_beta   90.00000000
_cell_angle_gamma   120.00001513
_symmetry_Int_Tables_number   1
_chemical_formula_structural   Dy3Mg3(Ni7B2)2
_chemical_formula_sum   'Dy3 Mg3 Ni14 B4'
_cell_volume   301.86684802
_cell_formula_units_Z   1
loop_
 _symmetry_equiv_pos_site_id
 _symmetry_equiv_pos_as_xyz
  1  'x, y, z'
loop_
 _atom_site_type_symbol
 _atom_site_label
 _atom_site_symmetry_multiplicity
 _atom_site_fract_x
 _atom_site_fract_y
 _atom_site_fract_z
 _atom_site_occupancy
  Dy  Dy0  1  0.333333  0.666667  0.031292  1
  Dy  Dy1  1  0.666667  0.333333  0.747536  1
  Dy  Dy2  1  0.333333  0.666667  0.258320  1
  Mg  Mg3  1  0.333333  0.666667  0.475592  1
  Mg  Mg4  1  0.666667  0.333333  0.964119  1
  Mg  Mg5  1  0.666667  0.333333  0.525736  1
  Ni  Ni6  1  0.833455  0.166545  0.356105  1
  Ni  Ni7  1  0.833455  0.666911  0.356105  1
  Ni  Ni8  1  0.000000  0.000000  0.998282  1
  Ni  Ni9  1  0.000000  0.000000  0.500274  1
  Ni  Ni10  1  0.833291  0.666581  0.147658  1
  Ni  Ni11  1  0.166116  0.833884  0.644995  1
  Ni  Ni12  1  0.667768  0.833884  0.644995  1
  Ni  Ni13  1  0.333419  0.166709  0.147658  1
  Ni  Ni14  1  0.833291  0.166709  0.147658  1
  Ni  Ni15  1  0.165905  0.331811  0.851590  1
  Ni  Ni16  1  0.165905  0.834095  0.851590  1
  Ni  Ni17  1  0.166116  0.332232  0.644995  1
  Ni  Ni18  1  0.668189  0.834095  0.851590  1
  Ni  Ni19  1  0.333089  0.166545  0.356105  1
  B  B20  1  0.666667  0.333333  0.251328  1
  B  B21  1  0.333333  0.666667  0.748580  1
  B  B22  1  0.000000  0.000000  0.747120  1
  B  B23  1  0.000000  0.000000  0.250775  1
