# generated using pymatgen
data_Lu4Al18TcNi5
_symmetry_space_group_name_H-M   'P 1'
_cell_length_a   7.41368975
_cell_length_b   7.41350085
_cell_length_c   9.20723404
_cell_angle_alpha   89.78789962
_cell_angle_beta   89.79373831
_cell_angle_gamma   119.77868190
_symmetry_Int_Tables_number   1
_chemical_formula_structural   Lu4Al18TcNi5
_chemical_formula_sum   'Lu4 Al18 Tc1 Ni5'
_cell_volume   439.20804855
_cell_formula_units_Z   1
loop_
 _symmetry_equiv_pos_site_id
 _symmetry_equiv_pos_as_xyz
  1  'x, y, z'
loop_
 _atom_site_type_symbol
 _atom_site_label
 _atom_site_symmetry_multiplicity
 _atom_site_fract_x
 _atom_site_fract_y
 _atom_site_fract_z
 _atom_site_occupancy
  Lu  Lu0  1  0.990391  0.665223  0.251827  1
  Lu  Lu1  1  0.002067  0.328416  0.748580  1
  Lu  Lu2  1  0.671332  0.997947  0.251360  1
  Lu  Lu3  1  0.334391  0.009494  0.748095  1
  Al  Al4  1  0.120040  0.120545  0.249909  1
  Al  Al5  1  0.878574  0.879115  0.750747  1
  Al  Al6  1  0.997508  0.335301  0.073432  1
  Al  Al7  1  0.004776  0.668873  0.925568  1
  Al  Al8  1  0.005729  0.666153  0.574100  1
  Al  Al9  1  0.334022  0.994573  0.425966  1
  Al  Al10  1  0.004737  0.334279  0.426626  1
  Al  Al11  1  0.665948  0.995606  0.573241  1
  Al  Al12  1  0.664295  0.002441  0.926678  1
  Al  Al13  1  0.330786  0.994949  0.074469  1
  Al  Al14  1  0.332491  0.330266  0.549206  1
  Al  Al15  1  0.670401  0.668245  0.450733  1
  Al  Al16  1  0.667448  0.669925  0.051272  1
  Al  Al17  1  0.329773  0.332095  0.948673  1
  Al  Al18  1  0.338177  0.555679  0.249317  1
  Al  Al19  1  0.661302  0.452705  0.752530  1
  Al  Al20  1  0.546907  0.338766  0.247391  1
  Al  Al21  1  0.444467  0.661548  0.750036  1
  Tc  Tc22  1  0.674377  0.326128  0.499895  1
  Ni  Ni23  1  0.671648  0.329520  0.999872  1
  Ni  Ni24  1  0.327489  0.672085  0.999472  1
  Ni  Ni25  1  0.330469  0.669912  0.499797  1
  Ni  Ni26  1  0.998227  0.001138  0.000220  1
  Ni  Ni27  1  0.002228  0.999073  0.500988  1
