# generated using pymatgen
data_La3YbPr3CoI12
_symmetry_space_group_name_H-M   'P 1'
_cell_length_a   10.17656625
_cell_length_b   10.18397912
_cell_length_c   10.02610259
_cell_angle_alpha   107.33537863
_cell_angle_beta   106.61943973
_cell_angle_gamma   106.99208726
_symmetry_Int_Tables_number   1
_chemical_formula_structural   La3YbPr3CoI12
_chemical_formula_sum   'La3 Yb1 Pr3 Co1 I12'
_cell_volume   865.75087722
_cell_formula_units_Z   1
loop_
 _symmetry_equiv_pos_site_id
 _symmetry_equiv_pos_as_xyz
  1  'x, y, z'
loop_
 _atom_site_type_symbol
 _atom_site_label
 _atom_site_symmetry_multiplicity
 _atom_site_fract_x
 _atom_site_fract_y
 _atom_site_fract_z
 _atom_site_occupancy
  La  La0  1  0.975646  0.903748  0.711722  1
  La  La1  1  0.024035  0.094939  0.287889  1
  La  La2  1  0.101377  0.307533  0.025518  1
  Yb  Yb3  1  0.500433  0.500056  0.500569  1
  Pr  Pr4  1  0.303876  0.025647  0.100829  1
  Pr  Pr5  1  0.899119  0.696373  0.974144  1
  Pr  Pr6  1  0.695826  0.973723  0.899153  1
  Co  Co7  1  0.000043  0.000198  0.999727  1
  I  I8  1  0.540629  0.618872  0.840599  1
  I  I9  1  0.461505  0.380792  0.160734  1
  I  I10  1  0.320257  0.927979  0.775114  1
  I  I11  1  0.384053  0.163751  0.462609  1
  I  I12  1  0.927654  0.774678  0.319839  1
  I  I13  1  0.679717  0.071938  0.224987  1
  I  I14  1  0.071668  0.223459  0.677033  1
  I  I15  1  0.774210  0.317937  0.927301  1
  I  I16  1  0.223319  0.682090  0.072067  1
  I  I17  1  0.836029  0.537020  0.615801  1
  I  I18  1  0.164576  0.463225  0.386954  1
  I  I19  1  0.616028  0.836041  0.537411  1
