# generated using pymatgen
data_Nd2YSi2GeRh6
_symmetry_space_group_name_H-M   'P 1'
_cell_length_a   5.65451000
_cell_length_b   5.65450837
_cell_length_c   15.27473100
_cell_angle_alpha   90.00000000
_cell_angle_beta   90.00000000
_cell_angle_gamma   119.99999784
_symmetry_Int_Tables_number   1
_chemical_formula_structural   Nd2YSi2GeRh6
_chemical_formula_sum   'Nd4 Y2 Si4 Ge2 Rh12'
_cell_volume   422.95487936
_cell_formula_units_Z   2
loop_
 _symmetry_equiv_pos_site_id
 _symmetry_equiv_pos_as_xyz
  1  'x, y, z'
loop_
 _atom_site_type_symbol
 _atom_site_label
 _atom_site_symmetry_multiplicity
 _atom_site_fract_x
 _atom_site_fract_y
 _atom_site_fract_z
 _atom_site_occupancy
  Nd  Nd0  1  0.666667  0.333333  0.963366  1
  Nd  Nd1  1  0.666667  0.333333  0.536634  1
  Nd  Nd2  1  0.666667  0.333333  0.750000  1
  Nd  Nd3  1  0.333333  0.666667  0.250000  1
  Y  Y4  1  0.333333  0.666667  0.035890  1
  Y  Y5  1  0.333333  0.666667  0.464110  1
  Si  Si6  1  0.666667  0.333333  0.250000  1
  Si  Si7  1  0.000000  0.000000  0.250000  1
  Si  Si8  1  0.000000  0.000000  0.750000  1
  Si  Si9  1  0.333333  0.666667  0.750000  1
  Ge  Ge10  1  0.000000  0.000000  0.499230  1
  Ge  Ge11  1  0.000000  0.000000  0.000770  1
  Rh  Rh12  1  0.166816  0.333632  0.865908  1
  Rh  Rh13  1  0.166816  0.333632  0.634092  1
  Rh  Rh14  1  0.666368  0.833184  0.865908  1
  Rh  Rh15  1  0.331988  0.165994  0.365269  1
  Rh  Rh16  1  0.834006  0.668012  0.365269  1
  Rh  Rh17  1  0.834006  0.165994  0.365269  1
  Rh  Rh18  1  0.834006  0.165994  0.134731  1
  Rh  Rh19  1  0.331988  0.165994  0.134731  1
  Rh  Rh20  1  0.666368  0.833184  0.634092  1
  Rh  Rh21  1  0.166816  0.833184  0.634092  1
  Rh  Rh22  1  0.834006  0.668012  0.134731  1
  Rh  Rh23  1  0.166816  0.833184  0.865908  1
