# generated using pymatgen
data_GdDy(SeO3)3
_symmetry_space_group_name_H-M   'P 1'
_cell_length_a   7.15397974
_cell_length_b   8.20832597
_cell_length_c   9.14529627
_cell_angle_alpha   71.20301263
_cell_angle_beta   70.03613947
_cell_angle_gamma   66.18118345
_symmetry_Int_Tables_number   1
_chemical_formula_structural   GdDy(SeO3)3
_chemical_formula_sum   'Gd2 Dy2 Se6 O18'
_cell_volume   451.03316720
_cell_formula_units_Z   2
loop_
 _symmetry_equiv_pos_site_id
 _symmetry_equiv_pos_as_xyz
  1  'x, y, z'
loop_
 _atom_site_type_symbol
 _atom_site_label
 _atom_site_symmetry_multiplicity
 _atom_site_fract_x
 _atom_site_fract_y
 _atom_site_fract_z
 _atom_site_occupancy
  Gd  Gd0  1  0.334422  0.728131  0.589806  1
  Gd  Gd1  1  0.665578  0.271869  0.410194  1
  Dy  Dy2  1  0.741372  0.735108  0.799156  1
  Dy  Dy3  1  0.258628  0.264892  0.200844  1
  Se  Se4  1  0.427269  0.776805  0.197075  1
  Se  Se5  1  0.572731  0.223195  0.802925  1
  Se  Se6  1  0.148814  0.748553  0.965244  1
  Se  Se7  1  0.851186  0.251447  0.034756  1
  Se  Se8  1  0.886577  0.759590  0.415833  1
  Se  Se9  1  0.113423  0.240410  0.584167  1
  O  O10  1  0.647867  0.791454  0.050496  1
  O  O11  1  0.352133  0.208546  0.949504  1
  O  O12  1  0.361679  0.944805  0.301136  1
  O  O13  1  0.638321  0.055195  0.698864  1
  O  O14  1  0.517441  0.596703  0.349112  1
  O  O15  1  0.482559  0.403297  0.650888  1
  O  O16  1  0.167986  0.565189  0.119651  1
  O  O17  1  0.832014  0.434811  0.880349  1
  O  O18  1  0.407150  0.710594  0.850331  1
  O  O19  1  0.592850  0.289406  0.149669  1
  O  O20  1  0.342023  0.252237  0.435720  1
  O  O21  1  0.657977  0.747763  0.564280  1
  O  O22  1  0.969367  0.292406  0.444540  1
  O  O23  1  0.030633  0.707594  0.555460  1
  O  O24  1  0.157846  0.014645  0.654325  1
  O  O25  1  0.842154  0.985355  0.345675  1
  O  O26  1  0.934941  0.305500  0.165610  1
  O  O27  1  0.065059  0.694500  0.834390  1
