# generated using pymatgen
data_Ti6Mn5Si12Pt
_symmetry_space_group_name_H-M   'P 1'
_cell_length_a   9.50320794
_cell_length_b   9.50320734
_cell_length_c   9.50320683
_cell_angle_alpha   149.25172423
_cell_angle_beta   132.00928132
_cell_angle_gamma   58.08417736
_symmetry_Int_Tables_number   1
_chemical_formula_structural   Ti6Mn5Si12Pt
_chemical_formula_sum   'Ti6 Mn5 Si12 Pt1'
_cell_volume   323.58706757
_cell_formula_units_Z   1
loop_
 _symmetry_equiv_pos_site_id
 _symmetry_equiv_pos_as_xyz
  1  'x, y, z'
loop_
 _atom_site_type_symbol
 _atom_site_label
 _atom_site_symmetry_multiplicity
 _atom_site_fract_x
 _atom_site_fract_y
 _atom_site_fract_z
 _atom_site_occupancy
  Ti  Ti0  1  0.358602  0.093789  0.264813  1
  Ti  Ti1  1  0.642457  0.905403  0.737053  1
  Ti  Ti2  1  0.171026  0.906211  0.264813  1
  Ti  Ti3  1  0.831648  0.094597  0.737053  1
  Ti  Ti4  1  0.645465  0.641853  0.003613  1
  Ti  Ti5  1  0.361760  0.358147  0.003613  1
  Mn  Mn6  1  0.502860  0.003810  0.003944  1
  Mn  Mn7  1  0.502860  0.498916  0.499050  1
  Mn  Mn8  1  0.000134  0.996190  0.499050  1
  Mn  Mn9  1  0.000134  0.501084  0.003944  1
  Mn  Mn10  1  0.748559  0.500000  0.248559  1
  Si  Si11  1  0.985201  0.771592  0.756793  1
  Si  Si12  1  0.985201  0.228408  0.213607  1
  Si  Si13  1  0.507749  0.232662  0.740412  1
  Si  Si14  1  0.507749  0.767338  0.275087  1
  Si  Si15  1  0.199216  0.198528  0.000688  1
  Si  Si16  1  0.802160  0.801472  0.000688  1
  Si  Si17  1  0.295316  0.794313  0.501002  1
  Si  Si18  1  0.706689  0.205687  0.501002  1
  Si  Si19  1  0.714678  0.366210  0.348467  1
  Si  Si20  1  0.293285  0.641818  0.651467  1
  Si  Si21  1  0.982257  0.633790  0.348467  1
  Si  Si22  1  0.009648  0.358182  0.651467  1
  Pt  Pt23  1  0.245350  0.500000  0.745350  1
