# generated using pymatgen
data_Y4Re6TcW
_symmetry_space_group_name_H-M   'P 1'
_cell_length_a   5.44515900
_cell_length_b   5.44515923
_cell_length_c   8.91324200
_cell_angle_alpha   90.00000000
_cell_angle_beta   90.00000000
_cell_angle_gamma   120.00000467
_symmetry_Int_Tables_number   1
_chemical_formula_structural   Y4Re6TcW
_chemical_formula_sum   'Y4 Re6 Tc1 W1'
_cell_volume   228.86925678
_cell_formula_units_Z   1
loop_
 _symmetry_equiv_pos_site_id
 _symmetry_equiv_pos_as_xyz
  1  'x, y, z'
loop_
 _atom_site_type_symbol
 _atom_site_label
 _atom_site_symmetry_multiplicity
 _atom_site_fract_x
 _atom_site_fract_y
 _atom_site_fract_z
 _atom_site_occupancy
  Y  Y0  1  0.333333  0.666667  0.435469  1
  Y  Y1  1  0.666667  0.333333  0.564531  1
  Y  Y2  1  0.666667  0.333333  0.938220  1
  Y  Y3  1  0.333333  0.666667  0.061780  1
  Re  Re4  1  0.828257  0.171743  0.250318  1
  Re  Re5  1  0.828257  0.656513  0.250318  1
  Re  Re6  1  0.343487  0.171743  0.250318  1
  Re  Re7  1  0.171743  0.828257  0.749682  1
  Re  Re8  1  0.171743  0.343487  0.749682  1
  Re  Re9  1  0.656513  0.828257  0.749682  1
  Tc  Tc10  1  0.000000  0.000000  0.000000  1
  W  W11  1  0.000000  0.000000  0.500000  1
