# generated using pymatgen
data_Tb2PrNd7Ir4
_symmetry_space_group_name_H-M   'P 1'
_cell_length_a   6.69134861
_cell_length_b   7.30112866
_cell_length_c   8.92722589
_cell_angle_alpha   96.41429041
_cell_angle_beta   112.10523355
_cell_angle_gamma   90.01756727
_symmetry_Int_Tables_number   1
_chemical_formula_structural   Tb2PrNd7Ir4
_chemical_formula_sum   'Tb2 Pr1 Nd7 Ir4'
_cell_volume   401.12143507
_cell_formula_units_Z   1
loop_
 _symmetry_equiv_pos_site_id
 _symmetry_equiv_pos_as_xyz
  1  'x, y, z'
loop_
 _atom_site_type_symbol
 _atom_site_label
 _atom_site_symmetry_multiplicity
 _atom_site_fract_x
 _atom_site_fract_y
 _atom_site_fract_z
 _atom_site_occupancy
  Tb  Tb0  1  0.436313  0.750352  0.999979  1
  Tb  Tb1  1  0.563012  0.249589  0.999624  1
  Pr  Pr2  1  0.975383  0.922854  0.181423  1
  Nd  Nd3  1  0.792860  0.577509  0.816350  1
  Nd  Nd4  1  0.024225  0.078080  0.818520  1
  Nd  Nd5  1  0.207170  0.422293  0.183273  1
  Nd  Nd6  1  0.647968  0.812970  0.432817  1
  Nd  Nd7  1  0.215466  0.685190  0.565862  1
  Nd  Nd8  1  0.352013  0.187126  0.567976  1
  Nd  Nd9  1  0.784538  0.314662  0.434353  1
  Ir  Ir10  1  0.814079  0.569823  0.215359  1
  Ir  Ir11  1  0.599919  0.929229  0.786378  1
  Ir  Ir12  1  0.185378  0.428920  0.784911  1
  Ir  Ir13  1  0.401677  0.071404  0.213177  1
