# generated using pymatgen
data_Hf11Th8Si16Hg
_symmetry_space_group_name_H-M   'P 1'
_cell_length_a   7.41492253
_cell_length_b   7.41492266
_cell_length_c   13.56125206
_cell_angle_alpha   89.64759581
_cell_angle_beta   90.35240090
_cell_angle_gamma   89.88418144
_symmetry_Int_Tables_number   1
_chemical_formula_structural   Hf11Th8Si16Hg
_chemical_formula_sum   'Hf11 Th8 Si16 Hg1'
_cell_volume   745.58245784
_cell_formula_units_Z   1
loop_
 _symmetry_equiv_pos_site_id
 _symmetry_equiv_pos_as_xyz
  1  'x, y, z'
loop_
 _atom_site_type_symbol
 _atom_site_label
 _atom_site_symmetry_multiplicity
 _atom_site_fract_x
 _atom_site_fract_y
 _atom_site_fract_z
 _atom_site_occupancy
  Hf  Hf0  1  0.826732  0.826732  0.500000  1
  Hf  Hf1  1  0.325037  0.675003  0.249848  1
  Hf  Hf2  1  0.675003  0.325037  0.750152  1
  Hf  Hf3  1  0.150834  0.999194  0.376097  1
  Hf  Hf4  1  0.853131  0.997084  0.879334  1
  Hf  Hf5  1  0.504299  0.653835  0.626906  1
  Hf  Hf6  1  0.351261  0.487247  0.878196  1
  Hf  Hf7  1  0.487247  0.351261  0.121804  1
  Hf  Hf8  1  0.653835  0.504299  0.373094  1
  Hf  Hf9  1  0.999194  0.150834  0.623903  1
  Hf  Hf10  1  0.997084  0.853131  0.120666  1
  Th  Th11  1  0.998022  0.345722  0.213828  1
  Th  Th12  1  0.004933  0.657223  0.716116  1
  Th  Th13  1  0.154858  0.497817  0.465836  1
  Th  Th14  1  0.497678  0.847086  0.033166  1
  Th  Th15  1  0.847086  0.497678  0.966834  1
  Th  Th16  1  0.497817  0.154858  0.534164  1
  Th  Th17  1  0.345722  0.998022  0.786172  1
  Th  Th18  1  0.657223  0.004933  0.283884  1
  Si  Si19  1  0.365530  0.300887  0.316139  1
  Si  Si20  1  0.634391  0.700945  0.818294  1
  Si  Si21  1  0.203640  0.865596  0.566555  1
  Si  Si22  1  0.131862  0.773368  0.927660  1
  Si  Si23  1  0.773368  0.131862  0.072340  1
  Si  Si24  1  0.865596  0.203640  0.433445  1
  Si  Si25  1  0.300887  0.365530  0.683861  1
  Si  Si26  1  0.700945  0.634391  0.181706  1
  Si  Si27  1  0.291808  0.043896  0.192237  1
  Si  Si28  1  0.710895  0.953790  0.687100  1
  Si  Si29  1  0.454622  0.790422  0.435913  1
  Si  Si30  1  0.210580  0.569092  0.066576  1
  Si  Si31  1  0.569092  0.210580  0.933424  1
  Si  Si32  1  0.790422  0.454622  0.564087  1
  Si  Si33  1  0.043896  0.291808  0.807763  1
  Si  Si34  1  0.953790  0.710895  0.312900  1
  Hg  Hg35  1  0.171676  0.171676  0.000000  1
