# generated using pymatgen
data_Tb3Dy2Tm11(TlRh)4
_symmetry_space_group_name_H-M   'P 1'
_cell_length_a   9.60169655
_cell_length_b   9.60386444
_cell_length_c   9.60635528
_cell_angle_alpha   60.03922757
_cell_angle_beta   59.92514523
_cell_angle_gamma   59.94548975
_symmetry_Int_Tables_number   1
_chemical_formula_structural   Tb3Dy2Tm11(TlRh)4
_chemical_formula_sum   'Tb3 Dy2 Tm11 Tl4 Rh4'
_cell_volume   625.95146395
_cell_formula_units_Z   1
loop_
 _symmetry_equiv_pos_site_id
 _symmetry_equiv_pos_as_xyz
  1  'x, y, z'
loop_
 _atom_site_type_symbol
 _atom_site_label
 _atom_site_symmetry_multiplicity
 _atom_site_fract_x
 _atom_site_fract_y
 _atom_site_fract_z
 _atom_site_occupancy
  Tb  Tb0  1  0.061849  0.062042  0.438043  1
  Tb  Tb1  1  0.438620  0.061779  0.438110  1
  Tb  Tb2  1  0.062258  0.437909  0.062196  1
  Dy  Dy3  1  0.048743  0.650690  0.650917  1
  Dy  Dy4  1  0.439051  0.438847  0.061055  1
  Tm  Tm5  1  0.651011  0.048058  0.649829  1
  Tm  Tm6  1  0.187417  0.812653  0.186801  1
  Tm  Tm7  1  0.187295  0.186782  0.812934  1
  Tm  Tm8  1  0.812259  0.812492  0.187634  1
  Tm  Tm9  1  0.442205  0.058201  0.057931  1
  Tm  Tm10  1  0.812514  0.187194  0.187089  1
  Tm  Tm11  1  0.058794  0.441370  0.441012  1
  Tm  Tm12  1  0.812022  0.187707  0.812672  1
  Tm  Tm13  1  0.186929  0.813176  0.813599  1
  Tm  Tm14  1  0.651161  0.649740  0.048099  1
  Tm  Tm15  1  0.649993  0.651037  0.651010  1
  Tl  Tl16  1  0.414086  0.414610  0.414316  1
  Tl  Tl17  1  0.756657  0.414920  0.414947  1
  Tl  Tl18  1  0.415473  0.756658  0.413276  1
  Tl  Tl19  1  0.415471  0.413196  0.757078  1
  Rh  Rh20  1  0.857051  0.856970  0.426639  1
  Rh  Rh21  1  0.854416  0.859446  0.859382  1
  Rh  Rh22  1  0.428099  0.857798  0.858347  1
  Rh  Rh23  1  0.856627  0.426726  0.857082  1
