# generated using pymatgen
data_Cs2Zr(BrO3)6
_symmetry_space_group_name_H-M   'P 1'
_cell_length_a   8.02549084
_cell_length_b   8.02549096
_cell_length_c   8.02549000
_cell_angle_alpha   96.71179656
_cell_angle_beta   96.71179666
_cell_angle_gamma   96.71178266
_symmetry_Int_Tables_number   1
_chemical_formula_structural   Cs2Zr(BrO3)6
_chemical_formula_sum   'Cs2 Zr1 Br6 O18'
_cell_volume   505.36430160
_cell_formula_units_Z   1
loop_
 _symmetry_equiv_pos_site_id
 _symmetry_equiv_pos_as_xyz
  1  'x, y, z'
loop_
 _atom_site_type_symbol
 _atom_site_label
 _atom_site_symmetry_multiplicity
 _atom_site_fract_x
 _atom_site_fract_y
 _atom_site_fract_z
 _atom_site_occupancy
  Cs  Cs0  1  0.165013  0.165013  0.165013  1
  Cs  Cs1  1  0.834987  0.834987  0.834987  1
  Zr  Zr2  1  0.500000  0.500000  0.500000  1
  Br  Br3  1  0.703470  0.315111  0.156470  1
  Br  Br4  1  0.684889  0.843530  0.296530  1
  Br  Br5  1  0.156470  0.703470  0.315111  1
  Br  Br6  1  0.843530  0.296530  0.684889  1
  Br  Br7  1  0.296530  0.684889  0.843530  1
  Br  Br8  1  0.315111  0.156470  0.703470  1
  O  O9  1  0.882395  0.368985  0.287922  1
  O  O10  1  0.631015  0.712078  0.117605  1
  O  O11  1  0.712078  0.117605  0.631015  1
  O  O12  1  0.670488  0.702620  0.450413  1
  O  O13  1  0.681009  0.107994  0.098603  1
  O  O14  1  0.450413  0.670488  0.702620  1
  O  O15  1  0.297380  0.549587  0.329512  1
  O  O16  1  0.329512  0.297380  0.549587  1
  O  O17  1  0.107994  0.098603  0.681009  1
  O  O18  1  0.901397  0.318991  0.892006  1
  O  O19  1  0.702620  0.450413  0.670488  1
  O  O20  1  0.117605  0.631015  0.712078  1
  O  O21  1  0.549587  0.329512  0.297380  1
  O  O22  1  0.318991  0.892006  0.901397  1
  O  O23  1  0.892006  0.901397  0.318991  1
  O  O24  1  0.368985  0.287922  0.882395  1
  O  O25  1  0.287922  0.882395  0.368985  1
  O  O26  1  0.098603  0.681009  0.107994  1
