# generated using pymatgen
data_AcAl5Pd3
_symmetry_space_group_name_H-M   'P 1'
_cell_length_a   4.20533900
_cell_length_b   7.48508000
_cell_length_c   20.99106600
_cell_angle_alpha   90.00000000
_cell_angle_beta   90.00000000
_cell_angle_gamma   90.00000000
_symmetry_Int_Tables_number   1
_chemical_formula_structural   AcAl5Pd3
_chemical_formula_sum   'Ac4 Al20 Pd12'
_cell_volume   660.74205750
_cell_formula_units_Z   4
loop_
 _symmetry_equiv_pos_site_id
 _symmetry_equiv_pos_as_xyz
  1  'x, y, z'
loop_
 _atom_site_type_symbol
 _atom_site_label
 _atom_site_symmetry_multiplicity
 _atom_site_fract_x
 _atom_site_fract_y
 _atom_site_fract_z
 _atom_site_occupancy
  Ac  Ac0  1  0.250000  0.117238  0.639467  1
  Ac  Ac1  1  0.750000  0.882762  0.360533  1
  Ac  Ac2  1  0.250000  0.382762  0.139467  1
  Ac  Ac3  1  0.750000  0.617238  0.860533  1
  Al  Al4  1  0.750000  0.355219  0.384960  1
  Al  Al5  1  0.750000  0.889425  0.983252  1
  Al  Al6  1  0.750000  0.694462  0.200703  1
  Al  Al7  1  0.250000  0.867766  0.494075  1
  Al  Al8  1  0.250000  0.632234  0.994075  1
  Al  Al9  1  0.250000  0.305538  0.799297  1
  Al  Al10  1  0.750000  0.076645  0.210009  1
  Al  Al11  1  0.250000  0.644781  0.615040  1
  Al  Al12  1  0.250000  0.576645  0.289991  1
  Al  Al13  1  0.250000  0.194462  0.299297  1
  Al  Al14  1  0.750000  0.144781  0.884960  1
  Al  Al15  1  0.250000  0.923355  0.789991  1
  Al  Al16  1  0.750000  0.367766  0.005925  1
  Al  Al17  1  0.750000  0.610575  0.483252  1
  Al  Al18  1  0.750000  0.132234  0.505925  1
  Al  Al19  1  0.250000  0.110575  0.016748  1
  Al  Al20  1  0.250000  0.855219  0.115040  1
  Al  Al21  1  0.250000  0.389425  0.516748  1
  Al  Al22  1  0.750000  0.423355  0.710009  1
  Al  Al23  1  0.750000  0.805538  0.700703  1
  Pd  Pd24  1  0.750000  0.386225  0.264749  1
  Pd  Pd25  1  0.250000  0.886225  0.235251  1
  Pd  Pd26  1  0.250000  0.613775  0.735251  1
  Pd  Pd27  1  0.750000  0.113775  0.764749  1
  Pd  Pd28  1  0.250000  0.168080  0.428149  1
  Pd  Pd29  1  0.750000  0.427151  0.584713  1
  Pd  Pd30  1  0.750000  0.072849  0.084713  1
  Pd  Pd31  1  0.250000  0.927151  0.915287  1
  Pd  Pd32  1  0.750000  0.831920  0.571851  1
  Pd  Pd33  1  0.250000  0.331920  0.928149  1
  Pd  Pd34  1  0.750000  0.668080  0.071851  1
  Pd  Pd35  1  0.250000  0.572849  0.415287  1
