# generated using pymatgen
data_Y2Er2TmRu2
_symmetry_space_group_name_H-M   'P 1'
_cell_length_a   6.31645192
_cell_length_b   7.25609707
_cell_length_c   8.42365466
_cell_angle_alpha   96.82738244
_cell_angle_beta   112.01958976
_cell_angle_gamma   90.00000328
_symmetry_Int_Tables_number   1
_chemical_formula_structural   Y2Er2TmRu2
_chemical_formula_sum   'Y4 Er4 Tm2 Ru4'
_cell_volume   354.96237305
_cell_formula_units_Z   2
loop_
 _symmetry_equiv_pos_site_id
 _symmetry_equiv_pos_as_xyz
  1  'x, y, z'
loop_
 _atom_site_type_symbol
 _atom_site_label
 _atom_site_symmetry_multiplicity
 _atom_site_fract_x
 _atom_site_fract_y
 _atom_site_fract_z
 _atom_site_occupancy
  Y  Y0  1  0.789688  0.083258  0.812602  1
  Y  Y1  1  0.977086  0.416742  0.187398  1
  Y  Y2  1  0.210312  0.916742  0.187398  1
  Y  Y3  1  0.022914  0.583258  0.812602  1
  Er  Er4  1  0.205231  0.184373  0.566014  1
  Er  Er5  1  0.639217  0.315627  0.433986  1
  Er  Er6  1  0.794769  0.815627  0.433986  1
  Er  Er7  1  0.360783  0.684373  0.566014  1
  Tm  Tm8  1  0.420643  0.250000  0.000000  1
  Tm  Tm9  1  0.579357  0.750000  0.000000  1
  Ru  Ru10  1  0.598265  0.424677  0.779231  1
  Ru  Ru11  1  0.819031  0.075323  0.220769  1
  Ru  Ru12  1  0.401735  0.575323  0.220769  1
  Ru  Ru13  1  0.180969  0.924677  0.779231  1
