# generated using pymatgen
data_CdHg3(Rh2O7)2
_symmetry_space_group_name_H-M   'P 1'
_cell_length_a   7.29813308
_cell_length_b   7.25485894
_cell_length_c   7.25485900
_cell_angle_alpha   60.00000430
_cell_angle_beta   60.19595683
_cell_angle_gamma   60.19596941
_symmetry_Int_Tables_number   1
_chemical_formula_structural   CdHg3(Rh2O7)2
_chemical_formula_sum   'Cd1 Hg3 Rh4 O14'
_cell_volume   272.41736379
_cell_formula_units_Z   1
loop_
 _symmetry_equiv_pos_site_id
 _symmetry_equiv_pos_as_xyz
  1  'x, y, z'
loop_
 _atom_site_type_symbol
 _atom_site_label
 _atom_site_symmetry_multiplicity
 _atom_site_fract_x
 _atom_site_fract_y
 _atom_site_fract_z
 _atom_site_occupancy
  Cd  Cd0  1  0.625000  0.125000  0.125000  1
  Hg  Hg1  1  0.125000  0.625000  0.125000  1
  Hg  Hg2  1  0.125000  0.125000  0.625000  1
  Hg  Hg3  1  0.125000  0.125000  0.125000  1
  Rh  Rh4  1  0.125000  0.625000  0.625000  1
  Rh  Rh5  1  0.625000  0.125000  0.625000  1
  Rh  Rh6  1  0.625000  0.625000  0.125000  1
  Rh  Rh7  1  0.625000  0.625000  0.625000  1
  O  O8  1  0.695492  0.705587  0.299461  1
  O  O9  1  0.302143  0.300772  0.698542  1
  O  O10  1  0.695492  0.299461  0.705587  1
  O  O11  1  0.302143  0.698542  0.300772  1
  O  O12  1  0.302143  0.698542  0.698542  1
  O  O13  1  0.695492  0.299461  0.299461  1
  O  O14  1  0.554508  0.544413  0.950539  1
  O  O15  1  0.947857  0.949228  0.551458  1
  O  O16  1  0.554508  0.950539  0.544413  1
  O  O17  1  0.947857  0.551458  0.949228  1
  O  O18  1  0.947857  0.551458  0.551458  1
  O  O19  1  0.554508  0.950539  0.950539  1
  O  O20  1  0.239109  0.253630  0.253630  1
  O  O21  1  0.010891  0.996370  0.996370  1
