# generated using pymatgen
data_Yb7LuBi6
_symmetry_space_group_name_H-M   'P 1'
_cell_length_a   8.24433329
_cell_length_b   8.32630872
_cell_length_c   8.32630838
_cell_angle_alpha   109.66980251
_cell_angle_beta   109.27190283
_cell_angle_gamma   109.27190089
_symmetry_Int_Tables_number   1
_chemical_formula_structural   Yb7LuBi6
_chemical_formula_sum   'Yb7 Lu1 Bi6'
_cell_volume   441.06342320
_cell_formula_units_Z   1
loop_
 _symmetry_equiv_pos_site_id
 _symmetry_equiv_pos_as_xyz
  1  'x, y, z'
loop_
 _atom_site_type_symbol
 _atom_site_label
 _atom_site_symmetry_multiplicity
 _atom_site_fract_x
 _atom_site_fract_y
 _atom_site_fract_z
 _atom_site_occupancy
  Yb  Yb0  1  0.649819  0.500000  0.000000  1
  Yb  Yb1  1  0.499545  0.001147  0.651439  1
  Yb  Yb2  1  0.354274  0.351331  0.354712  1
  Yb  Yb3  1  0.502943  0.003381  0.148669  1
  Yb  Yb4  1  0.998398  0.650292  0.498853  1
  Yb  Yb5  1  0.848106  0.848561  0.849708  1
  Yb  Yb6  1  0.999562  0.145288  0.496619  1
  Lu  Lu7  1  0.148395  0.500000  0.000000  1
  Bi  Bi8  1  0.370163  0.623950  0.755950  1
  Bi  Bi9  1  0.883312  0.256694  0.124874  1
  Bi  Bi10  1  0.614214  0.744050  0.368000  1
  Bi  Bi11  1  0.126618  0.868180  0.243306  1
  Bi  Bi12  1  0.246214  0.132000  0.876050  1
  Bi  Bi13  1  0.758439  0.375126  0.631820  1
