# generated using pymatgen
data_Er5Hf3(P3Pd4)4
_symmetry_space_group_name_H-M   'P 1'
_cell_length_a   13.13196800
_cell_length_b   13.13196773
_cell_length_c   3.98202600
_cell_angle_alpha   90.00000000
_cell_angle_beta   90.00000000
_cell_angle_gamma   120.00000572
_symmetry_Int_Tables_number   1
_chemical_formula_structural   Er5Hf3(P3Pd4)4
_chemical_formula_sum   'Er5 Hf3 P12 Pd16'
_cell_volume   594.69504588
_cell_formula_units_Z   1
loop_
 _symmetry_equiv_pos_site_id
 _symmetry_equiv_pos_as_xyz
  1  'x, y, z'
loop_
 _atom_site_type_symbol
 _atom_site_label
 _atom_site_symmetry_multiplicity
 _atom_site_fract_x
 _atom_site_fract_y
 _atom_site_fract_z
 _atom_site_occupancy
  Er  Er0  1  0.666667  0.333333  0.000000  1
  Er  Er1  1  0.333333  0.666667  0.000000  1
  Er  Er2  1  0.812171  0.812171  0.500000  1
  Er  Er3  1  0.187829  0.000000  0.500000  1
  Er  Er4  1  0.000000  0.187829  0.500000  1
  Hf  Hf5  1  0.447489  0.447489  0.000000  1
  Hf  Hf6  1  0.552511  0.000000  0.000000  1
  Hf  Hf7  1  0.000000  0.552511  0.000000  1
  P  P8  1  0.683067  0.164747  0.500000  1
  P  P9  1  0.835253  0.518320  0.500000  1
  P  P10  1  0.481680  0.316933  0.500000  1
  P  P11  1  0.164747  0.683067  0.500000  1
  P  P12  1  0.518320  0.835253  0.500000  1
  P  P13  1  0.316933  0.481680  0.500000  1
  P  P14  1  0.173309  0.173309  0.000000  1
  P  P15  1  0.826691  0.000000  0.000000  1
  P  P16  1  0.000000  0.826691  0.000000  1
  P  P17  1  0.643918  0.643918  0.000000  1
  P  P18  1  0.356082  0.000000  0.000000  1
  P  P19  1  0.000000  0.356082  0.000000  1
  Pd  Pd20  1  0.867941  0.357526  0.500000  1
  Pd  Pd21  1  0.642474  0.510415  0.500000  1
  Pd  Pd22  1  0.489585  0.132059  0.500000  1
  Pd  Pd23  1  0.357526  0.867941  0.500000  1
  Pd  Pd24  1  0.510415  0.642474  0.500000  1
  Pd  Pd25  1  0.132059  0.489585  0.500000  1
  Pd  Pd26  1  0.808484  0.182346  0.000000  1
  Pd  Pd27  1  0.817654  0.626137  0.000000  1
  Pd  Pd28  1  0.373863  0.191516  0.000000  1
  Pd  Pd29  1  0.182346  0.808484  0.000000  1
  Pd  Pd30  1  0.626137  0.817654  0.000000  1
  Pd  Pd31  1  0.191516  0.373863  0.000000  1
  Pd  Pd32  1  0.274210  0.274210  0.500000  1
  Pd  Pd33  1  0.725790  0.000000  0.500000  1
  Pd  Pd34  1  0.000000  0.725790  0.500000  1
  Pd  Pd35  1  0.000000  0.000000  0.000000  1
