# generated using pymatgen
data_Lu20Hg6PdPt
_symmetry_space_group_name_H-M   'P 1'
_cell_length_a   9.52708300
_cell_length_b   9.52708283
_cell_length_c   9.37409800
_cell_angle_alpha   90.00000000
_cell_angle_beta   90.00000000
_cell_angle_gamma   119.99999710
_symmetry_Int_Tables_number   1
_chemical_formula_structural   Lu20Hg6PdPt
_chemical_formula_sum   'Lu20 Hg6 Pd1 Pt1'
_cell_volume   736.85158823
_cell_formula_units_Z   1
loop_
 _symmetry_equiv_pos_site_id
 _symmetry_equiv_pos_as_xyz
  1  'x, y, z'
loop_
 _atom_site_type_symbol
 _atom_site_label
 _atom_site_symmetry_multiplicity
 _atom_site_fract_x
 _atom_site_fract_y
 _atom_site_fract_z
 _atom_site_occupancy
  Lu  Lu0  1  0.206868  0.793132  0.940155  1
  Lu  Lu1  1  0.206868  0.413735  0.940155  1
  Lu  Lu2  1  0.586265  0.793132  0.940155  1
  Lu  Lu3  1  0.793174  0.206826  0.059390  1
  Lu  Lu4  1  0.793174  0.586349  0.059390  1
  Lu  Lu5  1  0.413651  0.206826  0.059390  1
  Lu  Lu6  1  0.793174  0.206826  0.440610  1
  Lu  Lu7  1  0.793174  0.586349  0.440610  1
  Lu  Lu8  1  0.413651  0.206826  0.440610  1
  Lu  Lu9  1  0.206868  0.793132  0.559845  1
  Lu  Lu10  1  0.206868  0.413735  0.559845  1
  Lu  Lu11  1  0.586265  0.793132  0.559845  1
  Lu  Lu12  1  0.542251  0.457749  0.750000  1
  Lu  Lu13  1  0.542251  0.084501  0.750000  1
  Lu  Lu14  1  0.915499  0.457749  0.750000  1
  Lu  Lu15  1  0.457569  0.542431  0.250000  1
  Lu  Lu16  1  0.457569  0.915137  0.250000  1
  Lu  Lu17  1  0.084863  0.542431  0.250000  1
  Lu  Lu18  1  0.000000  0.000000  0.000064  1
  Lu  Lu19  1  0.000000  0.000000  0.499936  1
  Hg  Hg20  1  0.879591  0.120409  0.750000  1
  Hg  Hg21  1  0.879591  0.759183  0.750000  1
  Hg  Hg22  1  0.240817  0.120409  0.750000  1
  Hg  Hg23  1  0.120287  0.879713  0.250000  1
  Hg  Hg24  1  0.120287  0.240572  0.250000  1
  Hg  Hg25  1  0.759428  0.879713  0.250000  1
  Pd  Pd26  1  0.666667  0.333333  0.250000  1
  Pt  Pt27  1  0.333333  0.666667  0.750000  1
