# generated using pymatgen
data_TbGd5(AuO7)2
_symmetry_space_group_name_H-M   'P 1'
_cell_length_a   6.57898077
_cell_length_b   6.55711235
_cell_length_c   7.56240900
_cell_angle_alpha   89.99030960
_cell_angle_beta   90.05259314
_cell_angle_gamma   108.72549717
_symmetry_Int_Tables_number   1
_chemical_formula_structural   TbGd5(AuO7)2
_chemical_formula_sum   'Tb1 Gd5 Au2 O14'
_cell_volume   308.96704142
_cell_formula_units_Z   1
loop_
 _symmetry_equiv_pos_site_id
 _symmetry_equiv_pos_as_xyz
  1  'x, y, z'
loop_
 _atom_site_type_symbol
 _atom_site_label
 _atom_site_symmetry_multiplicity
 _atom_site_fract_x
 _atom_site_fract_y
 _atom_site_fract_z
 _atom_site_occupancy
  Tb  Tb0  1  0.001803  0.470583  0.747909  1
  Gd  Gd1  1  0.472466  0.001455  0.252006  1
  Gd  Gd2  1  0.997945  0.528161  0.247866  1
  Gd  Gd3  1  0.494342  0.494775  0.999603  1
  Gd  Gd4  1  0.505216  0.504270  0.500759  1
  Gd  Gd5  1  0.527093  0.998027  0.751976  1
  Au  Au6  1  0.998835  0.999156  0.500383  1
  Au  Au7  1  0.001250  0.001315  0.999553  1
  O  O8  1  0.923625  0.078772  0.750017  1
  O  O9  1  0.639702  0.362297  0.750544  1
  O  O10  1  0.325469  0.079431  0.525722  1
  O  O11  1  0.926898  0.675145  0.972455  1
  O  O12  1  0.631777  0.368532  0.249680  1
  O  O13  1  0.919958  0.670878  0.524117  1
  O  O14  1  0.329018  0.083480  0.977391  1
  O  O15  1  0.080448  0.329682  0.021240  1
  O  O16  1  0.671067  0.916736  0.477867  1
  O  O17  1  0.366132  0.630318  0.749528  1
  O  O18  1  0.674769  0.920905  0.025522  1
  O  O19  1  0.073697  0.325518  0.475397  1
  O  O20  1  0.361745  0.637143  0.250365  1
  O  O21  1  0.076744  0.923422  0.250102  1
