# generated using pymatgen
data_Pa2Cl5O2
_symmetry_space_group_name_H-M   'P 1'
_cell_length_a   8.20810639
_cell_length_b   8.19874209
_cell_length_c   4.18142500
_cell_angle_alpha   90.00000000
_cell_angle_beta   90.00000000
_cell_angle_gamma   117.00936922
_symmetry_Int_Tables_number   1
_chemical_formula_structural   Pa2Cl5O2
_chemical_formula_sum   'Pa2 Cl5 O2'
_cell_volume   250.70281164
_cell_formula_units_Z   1
loop_
 _symmetry_equiv_pos_site_id
 _symmetry_equiv_pos_as_xyz
  1  'x, y, z'
loop_
 _atom_site_type_symbol
 _atom_site_label
 _atom_site_symmetry_multiplicity
 _atom_site_fract_x
 _atom_site_fract_y
 _atom_site_fract_z
 _atom_site_occupancy
  Pa  Pa0  1  0.199082  0.799964  0.000000  1
  Pa  Pa1  1  0.800918  0.200036  0.000000  1
  Cl  Cl2  1  0.830215  0.550010  0.000000  1
  Cl  Cl3  1  0.169785  0.449990  0.000000  1
  Cl  Cl4  1  0.000000  0.000000  0.000000  1
  Cl  Cl5  1  0.550453  0.829591  0.000000  1
  Cl  Cl6  1  0.449547  0.170409  0.000000  1
  O  O7  1  0.200561  0.800005  0.500000  1
  O  O8  1  0.799439  0.199995  0.500000  1
