# generated using pymatgen
data_Ho12ZnCdCo4
_symmetry_space_group_name_H-M   'P 1'
_cell_length_a   8.26107037
_cell_length_b   8.26107137
_cell_length_c   8.26107113
_cell_angle_alpha   112.25533987
_cell_angle_beta   109.96241395
_cell_angle_gamma   106.25194054
_symmetry_Int_Tables_number   1
_chemical_formula_structural   Ho12ZnCdCo4
_chemical_formula_sum   'Ho12 Zn1 Cd1 Co4'
_cell_volume   432.79298732
_cell_formula_units_Z   1
loop_
 _symmetry_equiv_pos_site_id
 _symmetry_equiv_pos_as_xyz
  1  'x, y, z'
loop_
 _atom_site_type_symbol
 _atom_site_label
 _atom_site_symmetry_multiplicity
 _atom_site_fract_x
 _atom_site_fract_y
 _atom_site_fract_z
 _atom_site_occupancy
  Ho  Ho0  1  0.430568  0.234083  0.196486  1
  Ho  Ho1  1  0.569432  0.765917  0.803514  1
  Ho  Ho2  1  0.037597  0.234083  0.803514  1
  Ho  Ho3  1  0.962403  0.765917  0.196486  1
  Ho  Ho4  1  0.180232  0.281303  0.461533  1
  Ho  Ho5  1  0.819768  0.718697  0.538467  1
  Ho  Ho6  1  0.180232  0.718697  0.898929  1
  Ho  Ho7  1  0.819768  0.281303  0.101071  1
  Ho  Ho8  1  0.324914  0.639012  0.314099  1
  Ho  Ho9  1  0.675086  0.360988  0.685901  1
  Ho  Ho10  1  0.324914  0.010814  0.685901  1
  Ho  Ho11  1  0.675086  0.989186  0.314099  1
  Zn  Zn12  1  0.000000  0.000000  0.000000  1
  Cd  Cd13  1  0.500000  0.500000  0.000000  1
  Co  Co14  1  0.336694  0.000000  0.336694  1
  Co  Co15  1  0.663306  0.000000  0.663306  1
  Co  Co16  1  0.114851  0.614851  0.500000  1
  Co  Co17  1  0.885149  0.385149  0.500000  1
