# generated using pymatgen
data_Dy7(GeS3)2
_symmetry_space_group_name_H-M   'P 1'
_cell_length_a   7.87357316
_cell_length_b   7.87322089
_cell_length_c   7.87354900
_cell_angle_alpha   119.99447558
_cell_angle_beta   90.01151945
_cell_angle_gamma   119.99515273
_symmetry_Int_Tables_number   1
_chemical_formula_structural   Dy7(GeS3)2
_chemical_formula_sum   'Dy7 Ge2 S6'
_cell_volume   345.14712236
_cell_formula_units_Z   1
loop_
 _symmetry_equiv_pos_site_id
 _symmetry_equiv_pos_as_xyz
  1  'x, y, z'
loop_
 _atom_site_type_symbol
 _atom_site_label
 _atom_site_symmetry_multiplicity
 _atom_site_fract_x
 _atom_site_fract_y
 _atom_site_fract_z
 _atom_site_occupancy
  Dy  Dy0  1  0.250000  0.000000  0.250001  1
  Dy  Dy1  1  0.250000  0.499999  0.250000  1
  Dy  Dy2  1  0.750001  0.999999  0.250000  1
  Dy  Dy3  1  0.250000  0.500000  0.750000  1
  Dy  Dy4  1  0.250001  0.000001  0.750001  1
  Dy  Dy5  1  0.750001  0.000001  0.750003  1
  Dy  Dy6  1  0.750000  0.500000  0.750001  1
  Ge  Ge7  1  0.999986  0.000002  0.000015  1
  Ge  Ge8  1  0.500015  0.000001  0.499987  1
  S  S9  1  0.003194  0.006391  0.503195  1
  S  S10  1  0.003171  0.499998  0.503171  1
  S  S11  1  0.496802  0.500000  0.503196  1
  S  S12  1  0.003198  0.500000  0.996804  1
  S  S13  1  0.496828  0.500003  0.996829  1
  S  S14  1  0.496807  0.993610  0.996807  1
