# generated using pymatgen
data_Tb2YIn3Hg2Pd
_symmetry_space_group_name_H-M   'P 1'
_cell_length_a   7.78096618
_cell_length_b   7.78384294
_cell_length_c   4.14200900
_cell_angle_alpha   90.00000000
_cell_angle_beta   90.00000000
_cell_angle_gamma   120.01221954
_symmetry_Int_Tables_number   1
_chemical_formula_structural   Tb2YIn3Hg2Pd
_chemical_formula_sum   'Tb2 Y1 In3 Hg2 Pd1'
_cell_volume   217.22798468
_cell_formula_units_Z   1
loop_
 _symmetry_equiv_pos_site_id
 _symmetry_equiv_pos_as_xyz
  1  'x, y, z'
loop_
 _atom_site_type_symbol
 _atom_site_label
 _atom_site_symmetry_multiplicity
 _atom_site_fract_x
 _atom_site_fract_y
 _atom_site_fract_z
 _atom_site_occupancy
  Tb  Tb0  1  0.398853  0.398883  0.500000  1
  Tb  Tb1  1  0.601147  0.000030  0.500000  1
  Y  Y2  1  0.000000  0.601203  0.500000  1
  In  In3  1  0.753971  0.753913  0.000000  1
  In  In4  1  0.246029  0.999943  0.000000  1
  In  In5  1  0.000000  0.246070  0.000000  1
  Hg  Hg6  1  0.666732  0.333351  0.000000  1
  Hg  Hg7  1  0.333268  0.666619  0.000000  1
  Pd  Pd8  1  0.000000  0.999987  0.500000  1
