# generated using pymatgen
data_CaTh2Sc2(In2Rh)2
_symmetry_space_group_name_H-M   'P 1'
_cell_length_a   3.70608500
_cell_length_b   8.01658800
_cell_length_c   17.85465700
_cell_angle_alpha   90.00000000
_cell_angle_beta   90.00000000
_cell_angle_gamma   90.00000000
_symmetry_Int_Tables_number   1
_chemical_formula_structural   CaTh2Sc2(In2Rh)2
_chemical_formula_sum   'Ca2 Th4 Sc4 In8 Rh4'
_cell_volume   530.46465440
_cell_formula_units_Z   2
loop_
 _symmetry_equiv_pos_site_id
 _symmetry_equiv_pos_as_xyz
  1  'x, y, z'
loop_
 _atom_site_type_symbol
 _atom_site_label
 _atom_site_symmetry_multiplicity
 _atom_site_fract_x
 _atom_site_fract_y
 _atom_site_fract_z
 _atom_site_occupancy
  Ca  Ca0  1  0.000000  0.000000  0.000000  1
  Ca  Ca1  1  0.000000  0.500000  0.500000  1
  Th  Th2  1  0.000000  0.767534  0.785553  1
  Th  Th3  1  0.000000  0.232466  0.214447  1
  Th  Th4  1  0.000000  0.267534  0.714447  1
  Th  Th5  1  0.000000  0.732466  0.285553  1
  Sc  Sc6  1  0.000000  0.888869  0.588986  1
  Sc  Sc7  1  0.000000  0.111131  0.411014  1
  Sc  Sc8  1  0.000000  0.388869  0.911014  1
  Sc  Sc9  1  0.000000  0.611131  0.088986  1
  In  In10  1  0.500000  0.815759  0.445161  1
  In  In11  1  0.500000  0.184241  0.554839  1
  In  In12  1  0.500000  0.315759  0.054839  1
  In  In13  1  0.500000  0.684241  0.945161  1
  In  In14  1  0.500000  0.899270  0.147804  1
  In  In15  1  0.500000  0.100730  0.852196  1
  In  In16  1  0.500000  0.399270  0.352196  1
  In  In17  1  0.500000  0.600730  0.647804  1
  Rh  Rh18  1  0.500000  0.981625  0.695139  1
  Rh  Rh19  1  0.500000  0.018375  0.304861  1
  Rh  Rh20  1  0.500000  0.481625  0.804861  1
  Rh  Rh21  1  0.500000  0.518375  0.195139  1
