# generated using pymatgen
data_Pr9Sc11Pb16
_symmetry_space_group_name_H-M   'P 1'
_cell_length_a   8.07423553
_cell_length_b   8.22165399
_cell_length_c   15.48784900
_cell_angle_alpha   90.02952021
_cell_angle_beta   90.16013135
_cell_angle_gamma   90.24118711
_symmetry_Int_Tables_number   1
_chemical_formula_structural   Pr9Sc11Pb16
_chemical_formula_sum   'Pr9 Sc11 Pb16'
_cell_volume   1028.12545254
_cell_formula_units_Z   1
loop_
 _symmetry_equiv_pos_site_id
 _symmetry_equiv_pos_as_xyz
  1  'x, y, z'
loop_
 _atom_site_type_symbol
 _atom_site_label
 _atom_site_symmetry_multiplicity
 _atom_site_fract_x
 _atom_site_fract_y
 _atom_site_fract_z
 _atom_site_occupancy
  Pr  Pr0  1  0.139805  0.339376  0.620629  1
  Pr  Pr1  1  0.477938  0.677728  0.596471  1
  Pr  Pr2  1  0.978234  0.824057  0.907968  1
  Pr  Pr3  1  0.520495  0.324284  0.095123  1
  Pr  Pr4  1  0.021684  0.174854  0.400098  1
  Pr  Pr5  1  0.519320  0.324156  0.401906  1
  Pr  Pr6  1  0.020714  0.175921  0.096060  1
  Pr  Pr7  1  0.480566  0.678454  0.906413  1
  Pr  Pr8  1  0.978770  0.824003  0.596035  1
  Sc  Sc9  1  0.641169  0.160240  0.626716  1
  Sc  Sc10  1  0.141522  0.343640  0.876233  1
  Sc  Sc11  1  0.358047  0.843311  0.125134  1
  Sc  Sc12  1  0.859615  0.655838  0.374647  1
  Sc  Sc13  1  0.362568  0.842917  0.369554  1
  Sc  Sc14  1  0.858888  0.657414  0.125223  1
  Sc  Sc15  1  0.640766  0.154438  0.879120  1
  Sc  Sc16  1  0.805731  0.494086  0.751932  1
  Sc  Sc17  1  0.309171  0.005664  0.752307  1
  Sc  Sc18  1  0.193463  0.507747  0.247746  1
  Sc  Sc19  1  0.693493  0.992964  0.249842  1
  Pb  Pb20  1  0.695610  0.953689  0.454556  1
  Pb  Pb21  1  0.193333  0.546566  0.045263  1
  Pb  Pb22  1  0.304476  0.047608  0.956228  1
  Pb  Pb23  1  0.788976  0.457826  0.542824  1
  Pb  Pb24  1  0.315215  0.034109  0.540376  1
  Pb  Pb25  1  0.807215  0.453237  0.955839  1
  Pb  Pb26  1  0.693822  0.952587  0.047074  1
  Pb  Pb27  1  0.197410  0.553742  0.447375  1
  Pb  Pb28  1  0.452083  0.362448  0.756213  1
  Pb  Pb29  1  0.941371  0.130804  0.755985  1
  Pb  Pb30  1  0.555193  0.636961  0.247874  1
  Pb  Pb31  1  0.052594  0.861667  0.249131  1
  Pb  Pb32  1  0.666730  0.853625  0.751435  1
  Pb  Pb33  1  0.167513  0.652780  0.753763  1
  Pb  Pb34  1  0.333368  0.146392  0.248018  1
  Pb  Pb35  1  0.833130  0.354868  0.248891  1
