# generated using pymatgen
data_Ca2TmRuO6
_symmetry_space_group_name_H-M   'P 1'
_cell_length_a   5.57658076
_cell_length_b   5.78050500
_cell_length_c   8.00467301
_cell_angle_alpha   90.00000000
_cell_angle_beta   90.53803478
_cell_angle_gamma   90.00000000
_symmetry_Int_Tables_number   1
_chemical_formula_structural   Ca2TmRuO6
_chemical_formula_sum   'Ca4 Tm2 Ru2 O12'
_cell_volume   258.02288347
_cell_formula_units_Z   2
loop_
 _symmetry_equiv_pos_site_id
 _symmetry_equiv_pos_as_xyz
  1  'x, y, z'
loop_
 _atom_site_type_symbol
 _atom_site_label
 _atom_site_symmetry_multiplicity
 _atom_site_fract_x
 _atom_site_fract_y
 _atom_site_fract_z
 _atom_site_occupancy
  Ca  Ca0  1  0.515896  0.556068  0.250228  1
  Ca  Ca1  1  0.984104  0.056067  0.249772  1
  Ca  Ca2  1  0.015897  0.943933  0.750227  1
  Ca  Ca3  1  0.484103  0.443933  0.749772  1
  Tm  Tm4  1  0.000000  0.500000  0.000000  1
  Tm  Tm5  1  0.500000  0.000000  0.500000  1
  Ru  Ru6  1  0.500000  0.000000  0.000000  1
  Ru  Ru7  1  0.000000  0.500000  0.500000  1
  O  O8  1  0.786123  0.810266  0.053457  1
  O  O9  1  0.684178  0.284778  0.058077  1
  O  O10  1  0.394684  0.961218  0.235193  1
  O  O11  1  0.105317  0.461217  0.264807  1
  O  O12  1  0.815824  0.784777  0.441923  1
  O  O13  1  0.713877  0.310265  0.446543  1
  O  O14  1  0.286122  0.689733  0.553457  1
  O  O15  1  0.184177  0.215222  0.558078  1
  O  O16  1  0.894684  0.538783  0.735193  1
  O  O17  1  0.605317  0.038783  0.764806  1
  O  O18  1  0.315823  0.715222  0.941922  1
  O  O19  1  0.213878  0.189733  0.946543  1
