# generated using pymatgen
data_DyHo3Er4(B6Ru)4
_symmetry_space_group_name_H-M   'P 1'
_cell_length_a   3.64023000
_cell_length_b   9.10916100
_cell_length_c   11.48323600
_cell_angle_alpha   90.00001128
_cell_angle_beta   90.00000000
_cell_angle_gamma   90.00000000
_symmetry_Int_Tables_number   1
_chemical_formula_structural   DyHo3Er4(B6Ru)4
_chemical_formula_sum   'Dy1 Ho3 Er4 B24 Ru4'
_cell_volume   380.77768832
_cell_formula_units_Z   1
loop_
 _symmetry_equiv_pos_site_id
 _symmetry_equiv_pos_as_xyz
  1  'x, y, z'
loop_
 _atom_site_type_symbol
 _atom_site_label
 _atom_site_symmetry_multiplicity
 _atom_site_fract_x
 _atom_site_fract_y
 _atom_site_fract_z
 _atom_site_occupancy
  Dy  Dy0  1  0.000000  0.322504  0.414054  1
  Ho  Ho1  1  0.000000  0.677636  0.585926  1
  Ho  Ho2  1  0.000000  0.822402  0.085874  1
  Ho  Ho3  1  0.000000  0.177582  0.914111  1
  Er  Er4  1  0.000000  0.943951  0.372378  1
  Er  Er5  1  0.000000  0.055941  0.627669  1
  Er  Er6  1  0.000000  0.444035  0.127545  1
  Er  Er7  1  0.000000  0.555991  0.872426  1
  B  B8  1  0.500000  0.554471  0.433112  1
  B  B9  1  0.500000  0.445819  0.567048  1
  B  B10  1  0.500000  0.054223  0.066823  1
  B  B11  1  0.500000  0.945738  0.933145  1
  B  B12  1  0.500000  0.748596  0.419831  1
  B  B13  1  0.500000  0.251408  0.580414  1
  B  B14  1  0.500000  0.248516  0.080128  1
  B  B15  1  0.500000  0.751477  0.919822  1
  B  B16  1  0.500000  0.791784  0.266041  1
  B  B17  1  0.500000  0.208228  0.734013  1
  B  B18  1  0.500000  0.291634  0.233740  1
  B  B19  1  0.500000  0.708256  0.766079  1
  B  B20  1  0.500000  0.631915  0.184797  1
  B  B21  1  0.500000  0.368139  0.815187  1
  B  B22  1  0.500000  0.131683  0.315024  1
  B  B23  1  0.500000  0.868118  0.684864  1
  B  B24  1  0.500000  0.983337  0.212937  1
  B  B25  1  0.500000  0.016575  0.787037  1
  B  B26  1  0.500000  0.483651  0.286897  1
  B  B27  1  0.500000  0.516633  0.713045  1
  B  B28  1  0.500000  0.607401  0.029573  1
  B  B29  1  0.500000  0.392604  0.970412  1
  B  B30  1  0.500000  0.106996  0.470520  1
  B  B31  1  0.500000  0.892660  0.529571  1
  Ru  Ru32  1  0.000000  0.638388  0.320843  1
  Ru  Ru33  1  0.000000  0.361818  0.679214  1
  Ru  Ru34  1  0.000000  0.138071  0.178943  1
  Ru  Ru35  1  0.000000  0.861818  0.820956  1
