# generated using pymatgen
data_Nd4Mn2Al5RuO20
_symmetry_space_group_name_H-M   'P 1'
_cell_length_a   5.74628500
_cell_length_b   7.48190767
_cell_length_c   8.60259365
_cell_angle_alpha   89.95603939
_cell_angle_beta   90.00000000
_cell_angle_gamma   90.00000000
_symmetry_Int_Tables_number   1
_chemical_formula_structural   Nd4Mn2Al5RuO20
_chemical_formula_sum   'Nd4 Mn2 Al5 Ru1 O20'
_cell_volume   369.85269510
_cell_formula_units_Z   1
loop_
 _symmetry_equiv_pos_site_id
 _symmetry_equiv_pos_as_xyz
  1  'x, y, z'
loop_
 _atom_site_type_symbol
 _atom_site_label
 _atom_site_symmetry_multiplicity
 _atom_site_fract_x
 _atom_site_fract_y
 _atom_site_fract_z
 _atom_site_occupancy
  Nd  Nd0  1  0.000015  0.363771  0.670116  1
  Nd  Nd1  1  0.000015  0.636229  0.329884  1
  Nd  Nd2  1  0.006210  0.864583  0.829963  1
  Nd  Nd3  1  0.006210  0.135417  0.170037  1
  Mn  Mn4  1  0.743552  0.000000  0.500000  1
  Mn  Mn5  1  0.256701  0.000000  0.500000  1
  Al  Al6  1  0.502843  0.105530  0.859112  1
  Al  Al7  1  0.502843  0.894470  0.140888  1
  Al  Al8  1  0.490904  0.608914  0.638502  1
  Al  Al9  1  0.490904  0.391086  0.361498  1
  Al  Al10  1  0.257933  0.500000  0.000000  1
  Ru  Ru11  1  0.742401  0.500000  0.000000  1
  O  O12  1  0.258582  0.902094  0.289681  1
  O  O13  1  0.258582  0.097906  0.710319  1
  O  O14  1  0.740051  0.396735  0.213884  1
  O  O15  1  0.740051  0.603265  0.786116  1
  O  O16  1  0.743780  0.097481  0.710047  1
  O  O17  1  0.743780  0.902519  0.289953  1
  O  O18  1  0.260272  0.597475  0.791885  1
  O  O19  1  0.260272  0.402525  0.208115  1
  O  O20  1  0.495396  0.336931  0.931213  1
  O  O21  1  0.495396  0.663069  0.068787  1
  O  O22  1  0.499093  0.840314  0.565897  1
  O  O23  1  0.499093  0.159686  0.434103  1
  O  O24  1  0.289630  0.000000  0.000000  1
  O  O25  1  0.708196  0.500000  0.500000  1
  O  O26  1  0.717332  0.000000  0.000000  1
  O  O27  1  0.279971  0.500000  0.500000  1
  O  O28  1  0.000340  0.157374  0.448220  1
  O  O29  1  0.000340  0.842626  0.551780  1
  O  O30  1  0.004656  0.659133  0.052998  1
  O  O31  1  0.004656  0.340867  0.947002  1
