# generated using pymatgen
data_Rb4NiSbCl12
_symmetry_space_group_name_H-M   'P 1'
_cell_length_a   7.24640258
_cell_length_b   7.24640258
_cell_length_c   10.55684300
_cell_angle_alpha   90.00000000
_cell_angle_beta   90.00000000
_cell_angle_gamma   89.66169961
_symmetry_Int_Tables_number   1
_chemical_formula_structural   Rb4NiSbCl12
_chemical_formula_sum   'Rb4 Ni1 Sb1 Cl12'
_cell_volume   554.33386141
_cell_formula_units_Z   1
loop_
 _symmetry_equiv_pos_site_id
 _symmetry_equiv_pos_as_xyz
  1  'x, y, z'
loop_
 _atom_site_type_symbol
 _atom_site_label
 _atom_site_symmetry_multiplicity
 _atom_site_fract_x
 _atom_site_fract_y
 _atom_site_fract_z
 _atom_site_occupancy
  Rb  Rb0  1  0.500000  0.000000  0.785464  1
  Rb  Rb1  1  0.000000  0.500000  0.214536  1
  Rb  Rb2  1  0.500000  0.000000  0.214536  1
  Rb  Rb3  1  0.000000  0.500000  0.785464  1
  Ni  Ni4  1  0.000000  0.000000  0.000000  1
  Sb  Sb5  1  0.500000  0.500000  0.500000  1
  Cl  Cl6  1  0.000000  0.000000  0.787365  1
  Cl  Cl7  1  0.500000  0.500000  0.266862  1
  Cl  Cl8  1  0.738158  0.738158  0.500000  1
  Cl  Cl9  1  0.232712  0.232712  0.000000  1
  Cl  Cl10  1  0.739142  0.260858  0.500000  1
  Cl  Cl11  1  0.224322  0.775678  0.000000  1
  Cl  Cl12  1  0.000000  0.000000  0.212635  1
  Cl  Cl13  1  0.500000  0.500000  0.733138  1
  Cl  Cl14  1  0.261842  0.261842  0.500000  1
  Cl  Cl15  1  0.767288  0.767288  0.000000  1
  Cl  Cl16  1  0.260858  0.739142  0.500000  1
  Cl  Cl17  1  0.775678  0.224322  0.000000  1
