# generated using pymatgen
data_Tb4Ga20Os5Ru
_symmetry_space_group_name_H-M   'P 1'
_cell_length_a   8.92236653
_cell_length_b   8.92236643
_cell_length_c   6.44801400
_cell_angle_alpha   90.00000000
_cell_angle_beta   90.00000000
_cell_angle_gamma   89.96260708
_symmetry_Int_Tables_number   1
_chemical_formula_structural   Tb4Ga20Os5Ru
_chemical_formula_sum   'Tb4 Ga20 Os5 Ru1'
_cell_volume   513.31740978
_cell_formula_units_Z   1
loop_
 _symmetry_equiv_pos_site_id
 _symmetry_equiv_pos_as_xyz
  1  'x, y, z'
loop_
 _atom_site_type_symbol
 _atom_site_label
 _atom_site_symmetry_multiplicity
 _atom_site_fract_x
 _atom_site_fract_y
 _atom_site_fract_z
 _atom_site_occupancy
  Tb  Tb0  1  0.682944  0.182944  0.000000  1
  Tb  Tb1  1  0.317219  0.817219  0.000000  1
  Tb  Tb2  1  0.816860  0.682889  0.000000  1
  Tb  Tb3  1  0.182889  0.316860  0.000000  1
  Ga  Ga4  1  0.938165  0.206297  0.294642  1
  Ga  Ga5  1  0.706297  0.438165  0.294642  1
  Ga  Ga6  1  0.500680  0.000680  0.288719  1
  Ga  Ga7  1  0.561228  0.706453  0.705933  1
  Ga  Ga8  1  0.294084  0.560892  0.705967  1
  Ga  Ga9  1  0.792997  0.939300  0.294185  1
  Ga  Ga10  1  0.938165  0.206297  0.705358  1
  Ga  Ga11  1  0.294084  0.560892  0.294033  1
  Ga  Ga12  1  0.060892  0.794084  0.294033  1
  Ga  Ga13  1  0.706297  0.438165  0.705358  1
  Ga  Ga14  1  0.439300  0.292997  0.705815  1
  Ga  Ga15  1  0.060892  0.794084  0.705967  1
  Ga  Ga16  1  0.206453  0.061228  0.705933  1
  Ga  Ga17  1  0.792997  0.939300  0.705815  1
  Ga  Ga18  1  0.206453  0.061228  0.294067  1
  Ga  Ga19  1  0.999898  0.499898  0.711391  1
  Ga  Ga20  1  0.999898  0.499898  0.288609  1
  Ga  Ga21  1  0.561228  0.706453  0.294067  1
  Ga  Ga22  1  0.439300  0.292997  0.294185  1
  Ga  Ga23  1  0.500680  0.000680  0.711281  1
  Os  Os24  1  0.821598  0.678510  0.500000  1
  Os  Os25  1  0.178510  0.321598  0.500000  1
  Os  Os26  1  0.000208  0.999862  0.000000  1
  Os  Os27  1  0.321422  0.821422  0.500000  1
  Os  Os28  1  0.499862  0.500208  0.000000  1
  Ru  Ru29  1  0.678503  0.178503  0.500000  1
