# generated using pymatgen
data_Np(TaBr3)6
_symmetry_space_group_name_H-M   'P 1'
_cell_length_a   10.67297838
_cell_length_b   10.67299859
_cell_length_c   10.67355000
_cell_angle_alpha   56.03276579
_cell_angle_beta   56.03475751
_cell_angle_gamma   56.03764168
_symmetry_Int_Tables_number   1
_chemical_formula_structural   Np(TaBr3)6
_chemical_formula_sum   'Np1 Ta6 Br18'
_cell_volume   780.77803915
_cell_formula_units_Z   1
loop_
 _symmetry_equiv_pos_site_id
 _symmetry_equiv_pos_as_xyz
  1  'x, y, z'
loop_
 _atom_site_type_symbol
 _atom_site_label
 _atom_site_symmetry_multiplicity
 _atom_site_fract_x
 _atom_site_fract_y
 _atom_site_fract_z
 _atom_site_occupancy
  Np  Np0  1  0.000000  0.000000  0.000000  1
  Ta  Ta1  1  0.413534  0.309548  0.642316  1
  Ta  Ta2  1  0.357726  0.586459  0.690412  1
  Ta  Ta3  1  0.690424  0.357726  0.586454  1
  Ta  Ta4  1  0.309576  0.642274  0.413546  1
  Ta  Ta5  1  0.642274  0.413541  0.309588  1
  Ta  Ta6  1  0.586466  0.690452  0.357684  1
  Br  Br7  1  0.568711  0.161283  0.440624  1
  Br  Br8  1  0.222720  0.370137  0.908729  1
  Br  Br9  1  0.908707  0.222741  0.370163  1
  Br  Br10  1  0.370146  0.908726  0.222727  1
  Br  Br11  1  0.777280  0.629863  0.091271  1
  Br  Br12  1  0.091293  0.777259  0.629837  1
  Br  Br13  1  0.697393  0.959843  0.161663  1
  Br  Br14  1  0.959669  0.161720  0.697503  1
  Br  Br15  1  0.161799  0.697507  0.959650  1
  Br  Br16  1  0.302607  0.040157  0.838337  1
  Br  Br17  1  0.040331  0.838280  0.302497  1
  Br  Br18  1  0.838201  0.302493  0.040350  1
  Br  Br19  1  0.559428  0.431281  0.838675  1
  Br  Br20  1  0.161288  0.440549  0.568766  1
  Br  Br21  1  0.440572  0.568719  0.161325  1
  Br  Br22  1  0.431289  0.838717  0.559376  1
  Br  Br23  1  0.838712  0.559451  0.431234  1
  Br  Br24  1  0.629854  0.091274  0.777273  1
