# generated using pymatgen
data_Lu3In3Ni2Ir
_symmetry_space_group_name_H-M   'P 1'
_cell_length_a   7.53910200
_cell_length_b   7.53910199
_cell_length_c   3.62663600
_cell_angle_alpha   90.00000000
_cell_angle_beta   90.00000000
_cell_angle_gamma   119.99999008
_symmetry_Int_Tables_number   1
_chemical_formula_structural   Lu3In3Ni2Ir
_chemical_formula_sum   'Lu3 In3 Ni2 Ir1'
_cell_volume   178.51465758
_cell_formula_units_Z   1
loop_
 _symmetry_equiv_pos_site_id
 _symmetry_equiv_pos_as_xyz
  1  'x, y, z'
loop_
 _atom_site_type_symbol
 _atom_site_label
 _atom_site_symmetry_multiplicity
 _atom_site_fract_x
 _atom_site_fract_y
 _atom_site_fract_z
 _atom_site_occupancy
  Lu  Lu0  1  0.590038  0.992362  0.000000  1
  Lu  Lu1  1  0.007638  0.597677  0.000000  1
  Lu  Lu2  1  0.402323  0.409962  0.000000  1
  In  In3  1  0.262724  0.009886  0.500000  1
  In  In4  1  0.990114  0.252839  0.500000  1
  In  In5  1  0.747161  0.737276  0.500000  1
  Ni  Ni6  1  0.666667  0.333333  0.500000  1
  Ni  Ni7  1  0.000000  0.000000  0.000000  1
  Ir  Ir8  1  0.333333  0.666667  0.500000  1
