# generated using pymatgen
data_Cu4HgBiO8
_symmetry_space_group_name_H-M   'P 1'
_cell_length_a   6.35582133
_cell_length_b   6.35582275
_cell_length_c   6.35582249
_cell_angle_alpha   125.23387151
_cell_angle_beta   125.23388215
_cell_angle_gamma   81.15100703
_symmetry_Int_Tables_number   1
_chemical_formula_structural   Cu4HgBiO8
_chemical_formula_sum   'Cu4 Hg1 Bi1 O8'
_cell_volume   165.01694254
_cell_formula_units_Z   1
loop_
 _symmetry_equiv_pos_site_id
 _symmetry_equiv_pos_as_xyz
  1  'x, y, z'
loop_
 _atom_site_type_symbol
 _atom_site_label
 _atom_site_symmetry_multiplicity
 _atom_site_fract_x
 _atom_site_fract_y
 _atom_site_fract_z
 _atom_site_occupancy
  Cu  Cu0  1  0.379764  0.624219  0.254389  1
  Cu  Cu1  1  0.369830  0.125375  0.745611  1
  Cu  Cu2  1  0.375781  0.630170  0.755545  1
  Cu  Cu3  1  0.874625  0.620236  0.244455  1
  Hg  Hg4  1  0.750000  0.250000  0.500000  1
  Bi  Bi5  1  0.000000  0.000000  0.000000  1
  O  O6  1  0.724057  0.302093  0.124365  1
  O  O7  1  0.177727  0.599692  0.875635  1
  O  O8  1  0.022054  0.936298  0.358850  1
  O  O9  1  0.577448  0.663204  0.641150  1
  O  O10  1  0.063702  0.422552  0.085756  1
  O  O11  1  0.336796  0.977946  0.914244  1
  O  O12  1  0.400308  0.275943  0.578035  1
  O  O13  1  0.697907  0.822273  0.421965  1
