# generated using pymatgen
data_Dy(TaC)5
_symmetry_space_group_name_H-M   'P 1'
_cell_length_a   5.52862334
_cell_length_b   5.59821343
_cell_length_c   5.61902522
_cell_angle_alpha   99.11086245
_cell_angle_beta   101.20647126
_cell_angle_gamma   119.47588450
_symmetry_Int_Tables_number   1
_chemical_formula_structural   Dy(TaC)5
_chemical_formula_sum   'Dy1 Ta5 C5'
_cell_volume   141.79377375
_cell_formula_units_Z   1
loop_
 _symmetry_equiv_pos_site_id
 _symmetry_equiv_pos_as_xyz
  1  'x, y, z'
loop_
 _atom_site_type_symbol
 _atom_site_label
 _atom_site_symmetry_multiplicity
 _atom_site_fract_x
 _atom_site_fract_y
 _atom_site_fract_z
 _atom_site_occupancy
  Dy  Dy0  1  0.400912  0.077423  0.233304  1
  Ta  Ta1  1  0.081377  0.441951  0.254434  1
  Ta  Ta2  1  0.733740  0.740047  0.276379  1
  Ta  Ta3  1  0.280080  0.271125  0.733109  1
  Ta  Ta4  1  0.918027  0.546289  0.738482  1
  Ta  Ta5  1  0.567241  0.917376  0.750182  1
  C  C6  1  0.678278  0.345254  0.994324  1
  C  C7  1  0.333538  0.651304  0.992494  1
  C  C8  1  0.840323  0.166402  0.504892  1
  C  C9  1  0.506800  0.516333  0.512507  1
  C  C10  1  0.159690  0.826503  0.509892  1
