# generated using pymatgen
data_GdTm(B4Mo)2
_symmetry_space_group_name_H-M   'P 1'
_cell_length_a   6.02396841
_cell_length_b   11.64150419
_cell_length_c   3.62015700
_cell_angle_alpha   90.00000000
_cell_angle_beta   90.00000000
_cell_angle_gamma   90.14510838
_symmetry_Int_Tables_number   1
_chemical_formula_structural   GdTm(B4Mo)2
_chemical_formula_sum   'Gd2 Tm2 B16 Mo4'
_cell_volume   253.87374937
_cell_formula_units_Z   2
loop_
 _symmetry_equiv_pos_site_id
 _symmetry_equiv_pos_as_xyz
  1  'x, y, z'
loop_
 _atom_site_type_symbol
 _atom_site_label
 _atom_site_symmetry_multiplicity
 _atom_site_fract_x
 _atom_site_fract_y
 _atom_site_fract_z
 _atom_site_occupancy
  Gd  Gd0  1  0.127057  0.150475  0.000000  1
  Gd  Gd1  1  0.872943  0.849525  0.000000  1
  Tm  Tm2  1  0.626920  0.350829  0.000000  1
  Tm  Tm3  1  0.373080  0.649171  0.000000  1
  B  B4  1  0.785899  0.187302  0.500000  1
  B  B5  1  0.214101  0.812698  0.500000  1
  B  B6  1  0.288164  0.314742  0.500000  1
  B  B7  1  0.711836  0.685258  0.500000  1
  B  B8  1  0.866121  0.032267  0.500000  1
  B  B9  1  0.133879  0.967733  0.500000  1
  B  B10  1  0.367461  0.468388  0.500000  1
  B  B11  1  0.632539  0.531612  0.500000  1
  B  B12  1  0.885044  0.452310  0.500000  1
  B  B13  1  0.114956  0.547690  0.500000  1
  B  B14  1  0.386447  0.047501  0.500000  1
  B  B15  1  0.613553  0.952499  0.500000  1
  B  B16  1  0.975315  0.307270  0.500000  1
  B  B17  1  0.024685  0.692730  0.500000  1
  B  B18  1  0.477335  0.194558  0.500000  1
  B  B19  1  0.522665  0.805442  0.500000  1
  Mo  Mo20  1  0.629649  0.084322  0.000000  1
  Mo  Mo21  1  0.370351  0.915678  0.000000  1
  Mo  Mo22  1  0.130147  0.416687  0.000000  1
  Mo  Mo23  1  0.869853  0.583313  0.000000  1
