# generated using pymatgen
data_Nb8TlCrSe16
_symmetry_space_group_name_H-M   'P 1'
_cell_length_a   7.00369806
_cell_length_b   7.00396459
_cell_length_c   15.17055100
_cell_angle_alpha   89.99144322
_cell_angle_beta   90.00752633
_cell_angle_gamma   119.99619155
_symmetry_Int_Tables_number   1
_chemical_formula_structural   Nb8TlCrSe16
_chemical_formula_sum   'Nb8 Tl1 Cr1 Se16'
_cell_volume   644.49566840
_cell_formula_units_Z   1
loop_
 _symmetry_equiv_pos_site_id
 _symmetry_equiv_pos_as_xyz
  1  'x, y, z'
loop_
 _atom_site_type_symbol
 _atom_site_label
 _atom_site_symmetry_multiplicity
 _atom_site_fract_x
 _atom_site_fract_y
 _atom_site_fract_z
 _atom_site_occupancy
  Nb  Nb0  1  0.999985  0.000016  0.210813  1
  Nb  Nb1  1  0.000015  0.999984  0.789187  1
  Nb  Nb2  1  0.506393  0.012856  0.209626  1
  Nb  Nb3  1  0.987159  0.493641  0.209620  1
  Nb  Nb4  1  0.506419  0.493613  0.209589  1
  Nb  Nb5  1  0.493607  0.987144  0.790374  1
  Nb  Nb6  1  0.012841  0.506359  0.790380  1
  Nb  Nb7  1  0.493581  0.506387  0.790411  1
  Tl  Tl8  1  0.000000  0.000000  0.500000  1
  Cr  Cr9  1  0.000000  0.000000  0.000000  1
  Se  Se10  1  0.333338  0.666662  0.902984  1
  Se  Se11  1  0.666662  0.333338  0.097016  1
  Se  Se12  1  0.666653  0.333369  0.323560  1
  Se  Se13  1  0.333347  0.666631  0.676440  1
  Se  Se14  1  0.167681  0.832362  0.319294  1
  Se  Se15  1  0.167691  0.335418  0.319272  1
  Se  Se16  1  0.664600  0.832327  0.319281  1
  Se  Se17  1  0.832319  0.167638  0.680706  1
  Se  Se18  1  0.832309  0.664582  0.680728  1
  Se  Se19  1  0.335400  0.167673  0.680719  1
  Se  Se20  1  0.833100  0.166876  0.899277  1
  Se  Se21  1  0.833132  0.666199  0.899282  1
  Se  Se22  1  0.333811  0.166867  0.899284  1
  Se  Se23  1  0.166900  0.833124  0.100723  1
  Se  Se24  1  0.166868  0.333801  0.100718  1
  Se  Se25  1  0.666189  0.833133  0.100716  1
