# generated using pymatgen
data_HoIrF7
_symmetry_space_group_name_H-M   'P 1'
_cell_length_a   5.54666600
_cell_length_b   8.85969884
_cell_length_c   11.93751832
_cell_angle_alpha   62.62590204
_cell_angle_beta   90.00000000
_cell_angle_gamma   90.00000000
_symmetry_Int_Tables_number   1
_chemical_formula_structural   HoIrF7
_chemical_formula_sum   'Ho4 Ir4 F28'
_cell_volume   520.94203978
_cell_formula_units_Z   4
loop_
 _symmetry_equiv_pos_site_id
 _symmetry_equiv_pos_as_xyz
  1  'x, y, z'
loop_
 _atom_site_type_symbol
 _atom_site_label
 _atom_site_symmetry_multiplicity
 _atom_site_fract_x
 _atom_site_fract_y
 _atom_site_fract_z
 _atom_site_occupancy
  Ho  Ho0  1  0.759941  0.813874  0.765395  1
  Ho  Ho1  1  0.259941  0.186126  0.734605  1
  Ho  Ho2  1  0.240059  0.186126  0.234605  1
  Ho  Ho3  1  0.740059  0.813874  0.265395  1
  Ir  Ir4  1  0.758280  0.273098  0.956282  1
  Ir  Ir5  1  0.258280  0.726902  0.543718  1
  Ir  Ir6  1  0.241720  0.726902  0.043718  1
  Ir  Ir7  1  0.741720  0.273098  0.456282  1
  F  F8  1  0.439441  0.704764  0.915229  1
  F  F9  1  0.939441  0.295236  0.584771  1
  F  F10  1  0.560559  0.295236  0.084771  1
  F  F11  1  0.060559  0.704764  0.415229  1
  F  F12  1  0.440816  0.276856  0.544392  1
  F  F13  1  0.940816  0.723144  0.955608  1
  F  F14  1  0.559184  0.723144  0.455608  1
  F  F15  1  0.059184  0.276856  0.044392  1
  F  F16  1  0.773865  0.520238  0.859380  1
  F  F17  1  0.273865  0.479762  0.640620  1
  F  F18  1  0.226135  0.479762  0.140620  1
  F  F19  1  0.726135  0.520238  0.359380  1
  F  F20  1  0.755478  0.026251  0.050437  1
  F  F21  1  0.255478  0.973749  0.449563  1
  F  F22  1  0.244522  0.973749  0.949563  1
  F  F23  1  0.744522  0.026251  0.550437  1
  F  F24  1  0.965709  0.727201  0.637487  1
  F  F25  1  0.465709  0.272799  0.862513  1
  F  F26  1  0.034291  0.272799  0.362513  1
  F  F27  1  0.534291  0.727201  0.137487  1
  F  F28  1  0.048458  0.746933  0.174998  1
  F  F29  1  0.548458  0.253067  0.325002  1
  F  F30  1  0.951542  0.253067  0.825002  1
  F  F31  1  0.451542  0.746933  0.674998  1
  F  F32  1  0.416993  0.970430  0.232088  1
  F  F33  1  0.916993  0.029570  0.267912  1
  F  F34  1  0.583007  0.029570  0.767912  1
  F  F35  1  0.083007  0.970430  0.732088  1
