# generated using pymatgen
data_Lu5In3O
_symmetry_space_group_name_H-M   'P 1'
_cell_length_a   8.93658082
_cell_length_b   8.93658069
_cell_length_c   8.93658040
_cell_angle_alpha   127.02960660
_cell_angle_beta   127.02960897
_cell_angle_gamma   78.20238160
_symmetry_Int_Tables_number   1
_chemical_formula_structural   Lu5In3O
_chemical_formula_sum   'Lu10 In6 O2'
_cell_volume   440.61480900
_cell_formula_units_Z   2
loop_
 _symmetry_equiv_pos_site_id
 _symmetry_equiv_pos_as_xyz
  1  'x, y, z'
loop_
 _atom_site_type_symbol
 _atom_site_label
 _atom_site_symmetry_multiplicity
 _atom_site_fract_x
 _atom_site_fract_y
 _atom_site_fract_z
 _atom_site_occupancy
  Lu  Lu0  1  0.502921  0.307437  0.500000  1
  Lu  Lu1  1  0.807437  0.002921  0.500000  1
  Lu  Lu2  1  0.002921  0.502921  0.195484  1
  Lu  Lu3  1  0.307437  0.807437  0.804516  1
  Lu  Lu4  1  0.499642  0.695106  0.500000  1
  Lu  Lu5  1  0.195106  0.999642  0.500000  1
  Lu  Lu6  1  0.999642  0.499642  0.804535  1
  Lu  Lu7  1  0.695106  0.195106  0.195465  1
  Lu  Lu8  1  0.501371  0.501371  0.000000  1
  Lu  Lu9  1  0.001371  0.001371  0.000000  1
  In  In10  1  0.140185  0.362203  0.500000  1
  In  In11  1  0.862203  0.640185  0.500000  1
  In  In12  1  0.640185  0.140185  0.777982  1
  In  In13  1  0.362203  0.862203  0.222018  1
  In  In14  1  0.751297  0.751297  0.000000  1
  In  In15  1  0.251297  0.251297  0.000000  1
  O  O16  1  0.751257  0.251257  0.500000  1
  O  O17  1  0.251257  0.751257  0.500000  1
