# generated using pymatgen
data_HoV3O9
_symmetry_space_group_name_H-M   'P 1'
_cell_length_a   7.42242366
_cell_length_b   8.47060342
_cell_length_c   9.56136630
_cell_angle_alpha   105.93235110
_cell_angle_beta   112.83921896
_cell_angle_gamma   64.01546271
_symmetry_Int_Tables_number   1
_chemical_formula_structural   HoV3O9
_chemical_formula_sum   'Ho2 V6 O18'
_cell_volume   494.03708382
_cell_formula_units_Z   2
loop_
 _symmetry_equiv_pos_site_id
 _symmetry_equiv_pos_as_xyz
  1  'x, y, z'
loop_
 _atom_site_type_symbol
 _atom_site_label
 _atom_site_symmetry_multiplicity
 _atom_site_fract_x
 _atom_site_fract_y
 _atom_site_fract_z
 _atom_site_occupancy
  Ho  Ho0  1  0.682849  0.357829  0.242749  1
  Ho  Ho1  1  0.202070  0.857829  0.742747  1
  V  V2  1  0.747821  0.608022  0.006940  1
  V  V3  1  0.992759  0.907385  0.074152  1
  V  V4  1  0.417461  0.808124  0.417361  1
  V  V5  1  0.651098  0.108021  0.506941  1
  V  V6  1  0.174007  0.407386  0.574150  1
  V  V7  1  0.191778  0.308122  0.917361  1
  O  O8  1  0.368755  0.383330  0.060167  1
  O  O9  1  0.835129  0.123657  0.090312  1
  O  O10  1  0.863055  0.773608  0.079671  1
  O  O11  1  0.685274  0.568235  0.142116  1
  O  O12  1  0.222590  0.873917  0.238893  1
  O  O13  1  0.649716  0.176237  0.356063  1
  O  O14  1  0.001126  0.348844  0.413373  1
  O  O15  1  0.532070  0.585169  0.400969  1
  O  O16  1  0.606955  0.903946  0.452334  1
  O  O17  1  0.308079  0.883331  0.560167  1
  O  O18  1  0.131526  0.623658  0.590312  1
  O  O19  1  0.443009  0.273608  0.579671  1
  O  O20  1  0.888606  0.068237  0.642117  1
  O  O21  1  0.142387  0.373919  0.738895  1
  O  O22  1  0.530109  0.676238  0.856063  1
  O  O23  1  0.063402  0.848843  0.913373  1
  O  O24  1  0.283729  0.085169  0.900970  1
  O  O25  1  0.941433  0.403944  0.952333  1
