# generated using pymatgen
data_La3GeAuSe7
_symmetry_space_group_name_H-M   'P 1'
_cell_length_a   10.88306302
_cell_length_b   10.88484311
_cell_length_c   6.21448500
_cell_angle_alpha   90.00016777
_cell_angle_beta   89.99989203
_cell_angle_gamma   120.00848178
_symmetry_Int_Tables_number   1
_chemical_formula_structural   La3GeAuSe7
_chemical_formula_sum   'La6 Ge2 Au2 Se14'
_cell_volume   637.48793355
_cell_formula_units_Z   2
loop_
 _symmetry_equiv_pos_site_id
 _symmetry_equiv_pos_as_xyz
  1  'x, y, z'
loop_
 _atom_site_type_symbol
 _atom_site_label
 _atom_site_symmetry_multiplicity
 _atom_site_fract_x
 _atom_site_fract_y
 _atom_site_fract_z
 _atom_site_occupancy
  La  La0  1  0.355520  0.126186  0.248120  1
  La  La1  1  0.770686  0.644813  0.247913  1
  La  La2  1  0.873973  0.229431  0.247733  1
  La  La3  1  0.644489  0.873804  0.748113  1
  La  La4  1  0.229307  0.355201  0.747917  1
  La  La5  1  0.126015  0.770557  0.747764  1
  Ge  Ge6  1  0.333147  0.666380  0.332632  1
  Ge  Ge7  1  0.666853  0.333619  0.832631  1
  Au  Au8  1  0.999878  0.000011  0.221302  1
  Au  Au9  1  0.000124  0.999992  0.721302  1
  Se  Se10  1  0.173595  0.268380  0.234241  1
  Se  Se11  1  0.094898  0.826584  0.234221  1
  Se  Se12  1  0.731442  0.905161  0.234525  1
  Se  Se13  1  0.667036  0.333796  0.452510  1
  Se  Se14  1  0.102501  0.519215  0.490941  1
  Se  Se15  1  0.416721  0.897040  0.490872  1
  Se  Se16  1  0.480470  0.583116  0.490983  1
  Se  Se17  1  0.268560  0.094840  0.734526  1
  Se  Se18  1  0.826407  0.731618  0.734242  1
  Se  Se19  1  0.905102  0.173419  0.734222  1
  Se  Se20  1  0.332966  0.666205  0.952512  1
  Se  Se21  1  0.897501  0.480788  0.990931  1
  Se  Se22  1  0.583279  0.102956  0.990866  1
  Se  Se23  1  0.519531  0.416886  0.990984  1
