# generated using pymatgen
data_NbTc2P4WO20
_symmetry_space_group_name_H-M   'P 1'
_cell_length_a   5.33241100
_cell_length_b   6.68743105
_cell_length_c   11.37949967
_cell_angle_alpha   88.52282040
_cell_angle_beta   90.00000000
_cell_angle_gamma   90.00000000
_symmetry_Int_Tables_number   1
_chemical_formula_structural   NbTc2P4WO20
_chemical_formula_sum   'Nb1 Tc2 P4 W1 O20'
_cell_volume   405.65959088
_cell_formula_units_Z   1
loop_
 _symmetry_equiv_pos_site_id
 _symmetry_equiv_pos_as_xyz
  1  'x, y, z'
loop_
 _atom_site_type_symbol
 _atom_site_label
 _atom_site_symmetry_multiplicity
 _atom_site_fract_x
 _atom_site_fract_y
 _atom_site_fract_z
 _atom_site_occupancy
  Nb  Nb0  1  0.250000  0.329940  0.431445  1
  Tc  Tc1  1  0.250000  0.164109  0.945853  1
  Tc  Tc2  1  0.750000  0.835780  0.053340  1
  P  P3  1  0.250000  0.972087  0.660867  1
  P  P4  1  0.750000  0.025275  0.340049  1
  P  P5  1  0.750000  0.474549  0.851609  1
  P  P6  1  0.250000  0.527159  0.147257  1
  W  W7  1  0.750000  0.667140  0.566821  1
  O  O8  1  0.250000  0.014327  0.789323  1
  O  O9  1  0.750000  0.973963  0.213154  1
  O  O10  1  0.750000  0.519635  0.712415  1
  O  O11  1  0.250000  0.485634  0.285739  1
  O  O12  1  0.516258  0.149439  0.371970  1
  O  O13  1  0.013155  0.847982  0.628541  1
  O  O14  1  0.490117  0.642578  0.120508  1
  O  O15  1  0.990090  0.358135  0.875902  1
  O  O16  1  0.999898  0.001127  0.000017  1
  O  O17  1  0.500102  0.001127  0.000017  1
  O  O18  1  0.997565  0.506244  0.503199  1
  O  O19  1  0.502435  0.506244  0.503199  1
  O  O20  1  0.250000  0.317705  0.095891  1
  O  O21  1  0.750000  0.684209  0.902276  1
  O  O22  1  0.750000  0.834173  0.421540  1
  O  O23  1  0.250000  0.163307  0.582147  1
  O  O24  1  0.009883  0.642578  0.120508  1
  O  O25  1  0.509910  0.358135  0.875902  1
  O  O26  1  0.983742  0.149439  0.371970  1
  O  O27  1  0.486845  0.847982  0.628541  1
