# generated using pymatgen
data_HoEr9(IrRh)3
_symmetry_space_group_name_H-M   'P 1'
_cell_length_a   10.79298577
_cell_length_b   10.79159900
_cell_length_c   6.33586500
_cell_angle_alpha   90.00000000
_cell_angle_beta   89.97915258
_cell_angle_gamma   90.00000000
_symmetry_Int_Tables_number   1
_chemical_formula_structural   HoEr9(IrRh)3
_chemical_formula_sum   'Ho2 Er18 Ir6 Rh6'
_cell_volume   737.96079496
_cell_formula_units_Z   2
loop_
 _symmetry_equiv_pos_site_id
 _symmetry_equiv_pos_as_xyz
  1  'x, y, z'
loop_
 _atom_site_type_symbol
 _atom_site_label
 _atom_site_symmetry_multiplicity
 _atom_site_fract_x
 _atom_site_fract_y
 _atom_site_fract_z
 _atom_site_occupancy
  Ho  Ho0  1  0.290082  0.088621  0.379021  1
  Ho  Ho1  1  0.290082  0.911379  0.879021  1
  Er  Er2  1  0.708199  0.090093  0.878592  1
  Er  Er3  1  0.708199  0.909907  0.378592  1
  Er  Er4  1  0.587115  0.789945  0.879299  1
  Er  Er5  1  0.587115  0.210055  0.379299  1
  Er  Er6  1  0.410872  0.790381  0.379137  1
  Er  Er7  1  0.410872  0.209619  0.879137  1
  Er  Er8  1  0.209786  0.411059  0.620561  1
  Er  Er9  1  0.209786  0.588941  0.120561  1
  Er  Er10  1  0.790303  0.412857  0.121334  1
  Er  Er11  1  0.790303  0.587143  0.621334  1
  Er  Er12  1  0.912035  0.709201  0.121371  1
  Er  Er13  1  0.912035  0.290799  0.621371  1
  Er  Er14  1  0.090364  0.708667  0.620529  1
  Er  Er15  1  0.090364  0.291333  0.120529  1
  Er  Er16  1  0.999842  0.999601  0.499881  1
  Er  Er17  1  0.999842  0.000399  0.999881  1
  Er  Er18  1  0.500316  0.499442  0.000117  1
  Er  Er19  1  0.500316  0.500558  0.500117  1
  Ir  Ir20  1  0.152563  0.154491  0.750122  1
  Ir  Ir21  1  0.152563  0.845509  0.250122  1
  Ir  Ir22  1  0.655012  0.345733  0.749575  1
  Ir  Ir23  1  0.655012  0.654267  0.249575  1
  Ir  Ir24  1  0.346608  0.346151  0.250303  1
  Ir  Ir25  1  0.346608  0.653849  0.750303  1
  Rh  Rh26  1  0.845548  0.153303  0.250042  1
  Rh  Rh27  1  0.845548  0.846697  0.750042  1
  Rh  Rh28  1  0.501767  0.000030  0.125111  1
  Rh  Rh29  1  0.501767  0.999970  0.625111  1
  Rh  Rh30  1  0.999589  0.500001  0.875006  1
  Rh  Rh31  1  0.999589  0.499999  0.375006  1
