# generated using pymatgen
data_DyEr3Al16(GaIr3)2
_symmetry_space_group_name_H-M   'P 1'
_cell_length_a   7.53177754
_cell_length_b   7.53035104
_cell_length_c   9.50400400
_cell_angle_alpha   90.00000000
_cell_angle_beta   90.00000000
_cell_angle_gamma   119.40111208
_symmetry_Int_Tables_number   1
_chemical_formula_structural   DyEr3Al16(GaIr3)2
_chemical_formula_sum   'Dy1 Er3 Al16 Ga2 Ir6'
_cell_volume   469.61214314
_cell_formula_units_Z   1
loop_
 _symmetry_equiv_pos_site_id
 _symmetry_equiv_pos_as_xyz
  1  'x, y, z'
loop_
 _atom_site_type_symbol
 _atom_site_label
 _atom_site_symmetry_multiplicity
 _atom_site_fract_x
 _atom_site_fract_y
 _atom_site_fract_z
 _atom_site_occupancy
  Dy  Dy0  1  0.325472  0.005683  0.250000  1
  Er  Er1  1  0.994376  0.674881  0.750000  1
  Er  Er2  1  0.005467  0.325123  0.250000  1
  Er  Er3  1  0.674853  0.994495  0.750000  1
  Al  Al4  1  0.001320  0.336258  0.574399  1
  Al  Al5  1  0.998292  0.663457  0.426072  1
  Al  Al6  1  0.998292  0.663457  0.073928  1
  Al  Al7  1  0.336264  0.001349  0.924965  1
  Al  Al8  1  0.001320  0.336258  0.925601  1
  Al  Al9  1  0.664126  0.998493  0.073867  1
  Al  Al10  1  0.664126  0.998493  0.426133  1
  Al  Al11  1  0.336264  0.001349  0.575035  1
  Al  Al12  1  0.333479  0.333813  0.053009  1
  Al  Al13  1  0.666507  0.666464  0.945861  1
  Al  Al14  1  0.666507  0.666464  0.554139  1
  Al  Al15  1  0.333479  0.333813  0.446991  1
  Al  Al16  1  0.338201  0.549871  0.750000  1
  Al  Al17  1  0.662260  0.450777  0.250000  1
  Al  Al18  1  0.549929  0.338454  0.750000  1
  Al  Al19  1  0.450355  0.661364  0.250000  1
  Ga  Ga20  1  0.133938  0.134101  0.750000  1
  Ga  Ga21  1  0.865393  0.865809  0.250000  1
  Ir  Ir22  1  0.671643  0.328470  0.500157  1
  Ir  Ir23  1  0.328474  0.671568  0.500133  1
  Ir  Ir24  1  0.328474  0.671568  0.999867  1
  Ir  Ir25  1  0.671643  0.328470  0.999843  1
  Ir  Ir26  1  0.999773  0.999849  0.500238  1
  Ir  Ir27  1  0.999773  0.999849  0.999762  1
