# generated using pymatgen
data_Dy8Ti10ReSi16Ag
_symmetry_space_group_name_H-M   'P 1'
_cell_length_a   7.04236730
_cell_length_b   7.04236813
_cell_length_c   12.85914377
_cell_angle_alpha   89.89646129
_cell_angle_beta   90.10353815
_cell_angle_gamma   89.63878611
_symmetry_Int_Tables_number   1
_chemical_formula_structural   Dy8Ti10ReSi16Ag
_chemical_formula_sum   'Dy8 Ti10 Re1 Si16 Ag1'
_cell_volume   637.73373320
_cell_formula_units_Z   1
loop_
 _symmetry_equiv_pos_site_id
 _symmetry_equiv_pos_as_xyz
  1  'x, y, z'
loop_
 _atom_site_type_symbol
 _atom_site_label
 _atom_site_symmetry_multiplicity
 _atom_site_fract_x
 _atom_site_fract_y
 _atom_site_fract_z
 _atom_site_occupancy
  Dy  Dy0  1  0.999583  0.657585  0.032165  1
  Dy  Dy1  1  0.999392  0.344197  0.531516  1
  Dy  Dy2  1  0.657585  0.999583  0.967835  1
  Dy  Dy3  1  0.159893  0.500638  0.785078  1
  Dy  Dy4  1  0.841846  0.498292  0.284040  1
  Dy  Dy5  1  0.500638  0.159893  0.214922  1
  Dy  Dy6  1  0.498292  0.841846  0.715960  1
  Dy  Dy7  1  0.344197  0.999392  0.468484  1
  Ti  Ti8  1  0.350192  0.504656  0.374635  1
  Ti  Ti9  1  0.851103  0.992264  0.376938  1
  Ti  Ti10  1  0.007789  0.153288  0.124620  1
  Ti  Ti11  1  0.992264  0.851103  0.623062  1
  Ti  Ti12  1  0.504656  0.350192  0.625365  1
  Ti  Ti13  1  0.153288  0.007789  0.875380  1
  Ti  Ti14  1  0.826598  0.174900  0.751057  1
  Ti  Ti15  1  0.174900  0.826598  0.248943  1
  Ti  Ti16  1  0.491666  0.649374  0.124273  1
  Ti  Ti17  1  0.649374  0.491666  0.875727  1
  Re  Re18  1  0.326884  0.326884  0.000000  1
  Si  Si19  1  0.062451  0.713808  0.433328  1
  Si  Si20  1  0.954265  0.288831  0.935658  1
  Si  Si21  1  0.713808  0.062451  0.566672  1
  Si  Si22  1  0.209208  0.450953  0.183596  1
  Si  Si23  1  0.793611  0.544750  0.690553  1
  Si  Si24  1  0.450953  0.209208  0.816404  1
  Si  Si25  1  0.544750  0.793611  0.309447  1
  Si  Si26  1  0.288831  0.954265  0.064342  1
  Si  Si27  1  0.798183  0.867898  0.184798  1
  Si  Si28  1  0.281186  0.626784  0.570085  1
  Si  Si29  1  0.702689  0.370089  0.066750  1
  Si  Si30  1  0.626784  0.281186  0.429915  1
  Si  Si31  1  0.370089  0.702689  0.933250  1
  Si  Si32  1  0.132173  0.201079  0.316694  1
  Si  Si33  1  0.201079  0.132173  0.683306  1
  Si  Si34  1  0.867898  0.798183  0.815202  1
  Ag  Ag35  1  0.671901  0.671901  0.500000  1
