# generated using pymatgen
data_Tb7Y3(LuGa10)2
_symmetry_space_group_name_H-M   'P 1'
_cell_length_a   6.10985220
_cell_length_b   9.65189809
_cell_length_c   11.55869100
_cell_angle_alpha   89.99482924
_cell_angle_beta   90.01381521
_cell_angle_gamma   90.01161431
_symmetry_Int_Tables_number   1
_chemical_formula_structural   Tb7Y3(LuGa10)2
_chemical_formula_sum   'Tb7 Y3 Lu2 Ga20'
_cell_volume   681.63528421
_cell_formula_units_Z   1
loop_
 _symmetry_equiv_pos_site_id
 _symmetry_equiv_pos_as_xyz
  1  'x, y, z'
loop_
 _atom_site_type_symbol
 _atom_site_label
 _atom_site_symmetry_multiplicity
 _atom_site_fract_x
 _atom_site_fract_y
 _atom_site_fract_z
 _atom_site_occupancy
  Tb  Tb0  1  0.610350  0.990721  0.851447  1
  Tb  Tb1  1  0.109414  0.008608  0.648804  1
  Tb  Tb2  1  0.390527  0.491453  0.148993  1
  Tb  Tb3  1  0.109528  0.491398  0.648737  1
  Tb  Tb4  1  0.390515  0.008543  0.148897  1
  Tb  Tb5  1  0.889774  0.990474  0.351396  1
  Tb  Tb6  1  0.610340  0.509421  0.851467  1
  Y  Y7  1  0.150827  0.249997  0.924870  1
  Y  Y8  1  0.349057  0.249925  0.424794  1
  Y  Y9  1  0.889589  0.509497  0.351321  1
  Lu  Lu10  1  0.848822  0.750010  0.075554  1
  Lu  Lu11  1  0.651307  0.749934  0.575380  1
  Ga  Ga12  1  0.874970  0.052761  0.089709  1
  Ga  Ga13  1  0.625000  0.447216  0.589865  1
  Ga  Ga14  1  0.124902  0.554390  0.910332  1
  Ga  Ga15  1  0.375158  0.945502  0.410345  1
  Ga  Ga16  1  0.124904  0.945609  0.910294  1
  Ga  Ga17  1  0.374772  0.554385  0.410371  1
  Ga  Ga18  1  0.875025  0.447274  0.089769  1
  Ga  Ga19  1  0.625010  0.052790  0.589731  1
  Ga  Ga20  1  0.171512  0.750020  0.252597  1
  Ga  Ga21  1  0.328738  0.750026  0.752571  1
  Ga  Ga22  1  0.826675  0.250071  0.746512  1
  Ga  Ga23  1  0.673415  0.249993  0.246706  1
  Ga  Ga24  1  0.374335  0.750006  0.003895  1
  Ga  Ga25  1  0.125668  0.750007  0.504086  1
  Ga  Ga26  1  0.627484  0.250038  0.996577  1
  Ga  Ga27  1  0.872492  0.250054  0.496254  1
  Ga  Ga28  1  0.601698  0.749965  0.299671  1
  Ga  Ga29  1  0.898219  0.750026  0.799701  1
  Ga  Ga30  1  0.398902  0.249962  0.699725  1
  Ga  Ga31  1  0.101075  0.249924  0.199631  1
