# generated using pymatgen
data_Zr18CrCo2Re7
_symmetry_space_group_name_H-M   'P 1'
_cell_length_a   8.66672400
_cell_length_b   8.66672387
_cell_length_c   8.51047900
_cell_angle_alpha   90.00000000
_cell_angle_beta   90.00000000
_cell_angle_gamma   120.00000050
_symmetry_Int_Tables_number   1
_chemical_formula_structural   Zr18CrCo2Re7
_chemical_formula_sum   'Zr18 Cr1 Co2 Re7'
_cell_volume   553.59806043
_cell_formula_units_Z   1
loop_
 _symmetry_equiv_pos_site_id
 _symmetry_equiv_pos_as_xyz
  1  'x, y, z'
loop_
 _atom_site_type_symbol
 _atom_site_label
 _atom_site_symmetry_multiplicity
 _atom_site_fract_x
 _atom_site_fract_y
 _atom_site_fract_z
 _atom_site_occupancy
  Zr  Zr0  1  0.542212  0.084424  0.249729  1
  Zr  Zr1  1  0.457788  0.915576  0.750271  1
  Zr  Zr2  1  0.915576  0.457788  0.249729  1
  Zr  Zr3  1  0.542212  0.457788  0.249729  1
  Zr  Zr4  1  0.457788  0.542212  0.750271  1
  Zr  Zr5  1  0.084424  0.542212  0.750271  1
  Zr  Zr6  1  0.198949  0.397899  0.058872  1
  Zr  Zr7  1  0.801774  0.603549  0.557747  1
  Zr  Zr8  1  0.602101  0.801051  0.058872  1
  Zr  Zr9  1  0.198949  0.801051  0.058872  1
  Zr  Zr10  1  0.801774  0.198226  0.557747  1
  Zr  Zr11  1  0.396451  0.198226  0.557747  1
  Zr  Zr12  1  0.801051  0.602101  0.941128  1
  Zr  Zr13  1  0.801051  0.198949  0.941128  1
  Zr  Zr14  1  0.397899  0.198949  0.941128  1
  Zr  Zr15  1  0.603549  0.801774  0.442253  1
  Zr  Zr16  1  0.198226  0.801774  0.442253  1
  Zr  Zr17  1  0.198226  0.396451  0.442253  1
  Cr  Cr18  1  0.000000  0.000000  0.500000  1
  Co  Co19  1  0.333333  0.666667  0.249383  1
  Co  Co20  1  0.666667  0.333333  0.750617  1
  Re  Re21  1  0.000000  0.000000  0.000000  1
  Re  Re22  1  0.892675  0.785349  0.253795  1
  Re  Re23  1  0.107325  0.214651  0.746205  1
  Re  Re24  1  0.214651  0.107325  0.253795  1
  Re  Re25  1  0.892675  0.107325  0.253795  1
  Re  Re26  1  0.107325  0.892675  0.746205  1
  Re  Re27  1  0.785349  0.892675  0.746205  1
