# generated using pymatgen
data_Dy3Er2In4IrPt
_symmetry_space_group_name_H-M   'P 1'
_cell_length_a   3.62540200
_cell_length_b   8.11170253
_cell_length_c   18.19089905
_cell_angle_alpha   89.95440066
_cell_angle_beta   90.00000000
_cell_angle_gamma   90.00000000
_symmetry_Int_Tables_number   1
_chemical_formula_structural   Dy3Er2In4IrPt
_chemical_formula_sum   'Dy6 Er4 In8 Ir2 Pt2'
_cell_volume   534.96111111
_cell_formula_units_Z   2
loop_
 _symmetry_equiv_pos_site_id
 _symmetry_equiv_pos_as_xyz
  1  'x, y, z'
loop_
 _atom_site_type_symbol
 _atom_site_label
 _atom_site_symmetry_multiplicity
 _atom_site_fract_x
 _atom_site_fract_y
 _atom_site_fract_z
 _atom_site_occupancy
  Dy  Dy0  1  0.000000  0.236920  0.222031  1
  Dy  Dy1  1  0.000000  0.763080  0.777969  1
  Dy  Dy2  1  0.000000  0.248370  0.720352  1
  Dy  Dy3  1  0.000000  0.751630  0.279648  1
  Dy  Dy4  1  0.000000  0.000000  0.000000  1
  Dy  Dy5  1  0.000000  0.500000  0.500000  1
  Er  Er6  1  0.000000  0.114911  0.411789  1
  Er  Er7  1  0.000000  0.885089  0.588211  1
  Er  Er8  1  0.000000  0.383456  0.913253  1
  Er  Er9  1  0.000000  0.616544  0.086747  1
  In  In10  1  0.500000  0.423276  0.351234  1
  In  In11  1  0.500000  0.576724  0.648766  1
  In  In12  1  0.500000  0.073941  0.850921  1
  In  In13  1  0.500000  0.926059  0.149079  1
  In  In14  1  0.500000  0.293494  0.066411  1
  In  In15  1  0.500000  0.706506  0.933589  1
  In  In16  1  0.500000  0.205384  0.567424  1
  In  In17  1  0.500000  0.794616  0.432576  1
  Ir  Ir18  1  0.500000  0.021976  0.304286  1
  Ir  Ir19  1  0.500000  0.978024  0.695714  1
  Pt  Pt20  1  0.500000  0.476703  0.803672  1
  Pt  Pt21  1  0.500000  0.523297  0.196328  1
