# generated using pymatgen
data_YTm15In6CoOs
_symmetry_space_group_name_H-M   'P 1'
_cell_length_a   10.26274303
_cell_length_b   10.26264798
_cell_length_c   6.99563501
_cell_angle_alpha   90.00486310
_cell_angle_beta   89.99524644
_cell_angle_gamma   120.00707737
_symmetry_Int_Tables_number   1
_chemical_formula_structural   YTm15In6CoOs
_chemical_formula_sum   'Y1 Tm15 In6 Co1 Os1'
_cell_volume   638.04260930
_cell_formula_units_Z   1
loop_
 _symmetry_equiv_pos_site_id
 _symmetry_equiv_pos_as_xyz
  1  'x, y, z'
loop_
 _atom_site_type_symbol
 _atom_site_label
 _atom_site_symmetry_multiplicity
 _atom_site_fract_x
 _atom_site_fract_y
 _atom_site_fract_z
 _atom_site_occupancy
  Y  Y0  1  0.000008  0.999991  0.997726  1
  Tm  Tm1  1  0.466714  0.533289  0.481098  1
  Tm  Tm2  1  0.066593  0.533313  0.481079  1
  Tm  Tm3  1  0.466688  0.933405  0.481080  1
  Tm  Tm4  1  0.535314  0.464684  0.981676  1
  Tm  Tm5  1  0.929356  0.464673  0.981689  1
  Tm  Tm6  1  0.535328  0.070648  0.981690  1
  Tm  Tm7  1  0.821133  0.178867  0.276271  1
  Tm  Tm8  1  0.357745  0.178870  0.276272  1
  Tm  Tm9  1  0.821129  0.642253  0.276269  1
  Tm  Tm10  1  0.177357  0.822644  0.776024  1
  Tm  Tm11  1  0.645265  0.822634  0.776043  1
  Tm  Tm12  1  0.177366  0.354734  0.776042  1
  Tm  Tm13  1  0.333332  0.666668  0.102093  1
  Tm  Tm14  1  0.666668  0.333333  0.591798  1
  Tm  Tm15  1  0.000001  0.999997  0.495691  1
  In  In16  1  0.162593  0.837406  0.234727  1
  In  In17  1  0.674823  0.837414  0.234761  1
  In  In18  1  0.162585  0.325177  0.234762  1
  In  In19  1  0.836120  0.163880  0.732122  1
  In  In20  1  0.327757  0.163877  0.732128  1
  In  In21  1  0.836124  0.672243  0.732129  1
  Co  Co22  1  0.666661  0.333343  0.206689  1
  Os  Os23  1  0.333340  0.666658  0.704694  1
