# generated using pymatgen
data_DyVCo4As3
_symmetry_space_group_name_H-M   'P 1'
_cell_length_a   3.78679200
_cell_length_b   10.74260300
_cell_length_c   12.28103300
_cell_angle_alpha   90.00000000
_cell_angle_beta   90.00000000
_cell_angle_gamma   90.00000000
_symmetry_Int_Tables_number   1
_chemical_formula_structural   DyVCo4As3
_chemical_formula_sum   'Dy4 V4 Co16 As12'
_cell_volume   499.59246051
_cell_formula_units_Z   4
loop_
 _symmetry_equiv_pos_site_id
 _symmetry_equiv_pos_as_xyz
  1  'x, y, z'
loop_
 _atom_site_type_symbol
 _atom_site_label
 _atom_site_symmetry_multiplicity
 _atom_site_fract_x
 _atom_site_fract_y
 _atom_site_fract_z
 _atom_site_occupancy
  Dy  Dy0  1  0.250000  0.580265  0.704439  1
  Dy  Dy1  1  0.250000  0.919735  0.204439  1
  Dy  Dy2  1  0.750000  0.419735  0.295561  1
  Dy  Dy3  1  0.750000  0.080265  0.795561  1
  V  V4  1  0.250000  0.702041  0.990124  1
  V  V5  1  0.250000  0.797959  0.490124  1
  V  V6  1  0.750000  0.297959  0.009876  1
  V  V7  1  0.750000  0.202041  0.509876  1
  Co  Co8  1  0.250000  0.405215  0.489353  1
  Co  Co9  1  0.250000  0.094785  0.989353  1
  Co  Co10  1  0.750000  0.594785  0.510647  1
  Co  Co11  1  0.750000  0.905215  0.010647  1
  Co  Co12  1  0.250000  0.217011  0.176782  1
  Co  Co13  1  0.250000  0.282989  0.676782  1
  Co  Co14  1  0.750000  0.782989  0.823218  1
  Co  Co15  1  0.750000  0.717011  0.323218  1
  Co  Co16  1  0.250000  0.884939  0.697240  1
  Co  Co17  1  0.250000  0.615061  0.197240  1
  Co  Co18  1  0.750000  0.115061  0.302760  1
  Co  Co19  1  0.750000  0.384939  0.802760  1
  Co  Co20  1  0.250000  0.466820  0.933844  1
  Co  Co21  1  0.250000  0.033180  0.433844  1
  Co  Co22  1  0.750000  0.533180  0.066156  1
  Co  Co23  1  0.750000  0.966820  0.566156  1
  As  As24  1  0.250000  0.416985  0.116144  1
  As  As25  1  0.250000  0.083015  0.616144  1
  As  As26  1  0.750000  0.583015  0.883856  1
  As  As27  1  0.750000  0.916985  0.383856  1
  As  As28  1  0.250000  0.266799  0.866803  1
  As  As29  1  0.250000  0.233201  0.366803  1
  As  As30  1  0.750000  0.733201  0.133197  1
  As  As31  1  0.750000  0.766799  0.633197  1
  As  As32  1  0.250000  0.597344  0.390918  1
  As  As33  1  0.250000  0.902656  0.890918  1
  As  As34  1  0.750000  0.402656  0.609082  1
  As  As35  1  0.750000  0.097344  0.109082  1
