# generated using pymatgen
data_TbEr7(HgPt)2
_symmetry_space_group_name_H-M   'P 1'
_cell_length_a   9.57707360
_cell_length_b   9.57707467
_cell_length_c   9.56864800
_cell_angle_alpha   60.02909501
_cell_angle_beta   60.02909133
_cell_angle_gamma   59.94179310
_symmetry_Int_Tables_number   1
_chemical_formula_structural   TbEr7(HgPt)2
_chemical_formula_sum   'Tb2 Er14 Hg4 Pt4'
_cell_volume   620.58395139
_cell_formula_units_Z   2
loop_
 _symmetry_equiv_pos_site_id
 _symmetry_equiv_pos_as_xyz
  1  'x, y, z'
loop_
 _atom_site_type_symbol
 _atom_site_label
 _atom_site_symmetry_multiplicity
 _atom_site_fract_x
 _atom_site_fract_y
 _atom_site_fract_z
 _atom_site_occupancy
  Tb  Tb0  1  0.564740  0.564740  0.935260  1
  Tb  Tb1  1  0.935260  0.935260  0.564740  1
  Er  Er2  1  0.354466  0.354466  0.354738  1
  Er  Er3  1  0.354466  0.354466  0.936331  1
  Er  Er4  1  0.354738  0.936331  0.354466  1
  Er  Er5  1  0.936331  0.354738  0.354466  1
  Er  Er6  1  0.810095  0.189905  0.189905  1
  Er  Er7  1  0.189905  0.810095  0.810095  1
  Er  Er8  1  0.189905  0.810095  0.189905  1
  Er  Er9  1  0.810095  0.189905  0.810095  1
  Er  Er10  1  0.189774  0.189774  0.810226  1
  Er  Er11  1  0.810226  0.810226  0.189774  1
  Er  Er12  1  0.937021  0.562979  0.562979  1
  Er  Er13  1  0.562979  0.937021  0.937021  1
  Er  Er14  1  0.562979  0.937021  0.562979  1
  Er  Er15  1  0.937021  0.562979  0.937021  1
  Hg  Hg16  1  0.586817  0.586817  0.585107  1
  Hg  Hg17  1  0.586817  0.586817  0.241258  1
  Hg  Hg18  1  0.585107  0.241258  0.586817  1
  Hg  Hg19  1  0.241258  0.585107  0.586817  1
  Pt  Pt20  1  0.144161  0.144161  0.143156  1
  Pt  Pt21  1  0.144161  0.144161  0.568522  1
  Pt  Pt22  1  0.143156  0.568522  0.144161  1
  Pt  Pt23  1  0.568522  0.143156  0.144161  1
