# generated using pymatgen
data_CeHoMnC4
_symmetry_space_group_name_H-M   'P 1'
_cell_length_a   6.56044240
_cell_length_b   6.78347180
_cell_length_c   6.78347180
_cell_angle_alpha   136.27707957
_cell_angle_beta   111.27480699
_cell_angle_gamma   85.63530008
_symmetry_Int_Tables_number   1
_chemical_formula_structural   CeHoMnC4
_chemical_formula_sum   'Ce2 Ho2 Mn2 C8'
_cell_volume   186.13782041
_cell_formula_units_Z   2
loop_
 _symmetry_equiv_pos_site_id
 _symmetry_equiv_pos_as_xyz
  1  'x, y, z'
loop_
 _atom_site_type_symbol
 _atom_site_label
 _atom_site_symmetry_multiplicity
 _atom_site_fract_x
 _atom_site_fract_y
 _atom_site_fract_z
 _atom_site_occupancy
  Ce  Ce0  1  0.504176  0.351563  0.152613  1
  Ce  Ce1  1  0.495824  0.648437  0.847387  1
  Ho  Ho2  1  0.193368  0.858825  0.334542  1
  Ho  Ho3  1  0.806632  0.141175  0.665458  1
  Mn  Mn4  1  0.000000  0.251824  0.251824  1
  Mn  Mn5  1  0.000000  0.748176  0.748176  1
  C  C6  1  0.248710  0.075246  0.173465  1
  C  C7  1  0.751290  0.924754  0.826535  1
  C  C8  1  0.921213  0.581898  0.339316  1
  C  C9  1  0.078787  0.418102  0.660684  1
  C  C10  1  0.472886  0.123638  0.349247  1
  C  C11  1  0.527114  0.876362  0.650753  1
  C  C12  1  0.794467  0.628162  0.166306  1
  C  C13  1  0.205533  0.371838  0.833694  1
