# generated using pymatgen
data_AcP12Os3Rh
_symmetry_space_group_name_H-M   'P 1'
_cell_length_a   7.07005460
_cell_length_b   7.07005378
_cell_length_c   7.07720500
_cell_angle_alpha   109.49171734
_cell_angle_beta   109.49171499
_cell_angle_gamma   109.45072084
_symmetry_Int_Tables_number   1
_chemical_formula_structural   AcP12Os3Rh
_chemical_formula_sum   'Ac1 P12 Os3 Rh1'
_cell_volume   272.25473209
_cell_formula_units_Z   1
loop_
 _symmetry_equiv_pos_site_id
 _symmetry_equiv_pos_as_xyz
  1  'x, y, z'
loop_
 _atom_site_type_symbol
 _atom_site_label
 _atom_site_symmetry_multiplicity
 _atom_site_fract_x
 _atom_site_fract_y
 _atom_site_fract_z
 _atom_site_occupancy
  Ac  Ac0  1  0.000000  0.000000  0.000000  1
  P  P1  1  0.854613  0.640268  0.498924  1
  P  P2  1  0.145387  0.359732  0.501076  1
  P  P3  1  0.144305  0.643026  0.787698  1
  P  P4  1  0.855695  0.356974  0.212302  1
  P  P5  1  0.643026  0.498721  0.855329  1
  P  P6  1  0.356974  0.501279  0.144671  1
  P  P7  1  0.640268  0.785657  0.141344  1
  P  P8  1  0.359732  0.214343  0.858656  1
  P  P9  1  0.498721  0.855695  0.643391  1
  P  P10  1  0.501279  0.144305  0.356609  1
  P  P11  1  0.785657  0.145387  0.644312  1
  P  P12  1  0.214343  0.854613  0.355688  1
  Os  Os13  1  0.500000  0.500000  0.500000  1
  Os  Os14  1  0.500000  0.000000  0.000000  1
  Os  Os15  1  0.000000  0.500000  0.000000  1
  Rh  Rh16  1  0.000000  0.000000  0.500000  1
