# generated using pymatgen
data_Ca2MgIn7Rh2
_symmetry_space_group_name_H-M   'P 1'
_cell_length_a   4.05555300
_cell_length_b   7.72959966
_cell_length_c   8.91972546
_cell_angle_alpha   89.70261917
_cell_angle_beta   90.00000000
_cell_angle_gamma   90.00000000
_symmetry_Int_Tables_number   1
_chemical_formula_structural   Ca2MgIn7Rh2
_chemical_formula_sum   'Ca2 Mg1 In7 Rh2'
_cell_volume   279.61001338
_cell_formula_units_Z   1
loop_
 _symmetry_equiv_pos_site_id
 _symmetry_equiv_pos_as_xyz
  1  'x, y, z'
loop_
 _atom_site_type_symbol
 _atom_site_label
 _atom_site_symmetry_multiplicity
 _atom_site_fract_x
 _atom_site_fract_y
 _atom_site_fract_z
 _atom_site_occupancy
  Ca  Ca0  1  0.000000  0.402342  0.247927  1
  Ca  Ca1  1  0.000000  0.597658  0.752073  1
  Mg  Mg2  1  0.000000  0.000000  0.000000  1
  In  In3  1  0.000000  0.000000  0.500000  1
  In  In4  1  0.500000  0.063823  0.242629  1
  In  In5  1  0.500000  0.936177  0.757371  1
  In  In6  1  0.500000  0.688846  0.060520  1
  In  In7  1  0.500000  0.311154  0.939480  1
  In  In8  1  0.500000  0.683680  0.438433  1
  In  In9  1  0.500000  0.316320  0.561567  1
  Rh  Rh10  1  0.000000  0.811357  0.250639  1
  Rh  Rh11  1  0.000000  0.188643  0.749361  1
