# generated using pymatgen
data_La8TbDy(USe10)2
_symmetry_space_group_name_H-M   'P 1'
_cell_length_a   7.95203701
_cell_length_b   8.53889100
_cell_length_c   12.52833601
_cell_angle_alpha   90.00000000
_cell_angle_beta   90.00533214
_cell_angle_gamma   90.00000000
_symmetry_Int_Tables_number   1
_chemical_formula_structural   La8TbDy(USe10)2
_chemical_formula_sum   'La8 Tb1 Dy1 U2 Se20'
_cell_volume   850.69377189
_cell_formula_units_Z   1
loop_
 _symmetry_equiv_pos_site_id
 _symmetry_equiv_pos_as_xyz
  1  'x, y, z'
loop_
 _atom_site_type_symbol
 _atom_site_label
 _atom_site_symmetry_multiplicity
 _atom_site_fract_x
 _atom_site_fract_y
 _atom_site_fract_z
 _atom_site_occupancy
  La  La0  1  0.531195  0.502328  0.323034  1
  La  La1  1  0.968935  0.997778  0.823449  1
  La  La2  1  0.472825  0.998075  0.677235  1
  La  La3  1  0.027082  0.501924  0.176908  1
  La  La4  1  0.472825  0.501925  0.677235  1
  La  La5  1  0.027082  0.998076  0.176908  1
  La  La6  1  0.531195  0.997672  0.323034  1
  La  La7  1  0.968935  0.502222  0.823449  1
  Tb  Tb8  1  0.425909  0.750000  0.992596  1
  Dy  Dy9  1  0.073836  0.750000  0.492697  1
  U  U10  1  0.939090  0.250000  0.506663  1
  U  U11  1  0.560973  0.250000  0.006723  1
  Se  Se12  1  0.833528  0.966133  0.592065  1
  Se  Se13  1  0.666835  0.533549  0.092179  1
  Se  Se14  1  0.164684  0.453488  0.408662  1
  Se  Se15  1  0.335133  0.047287  0.908541  1
  Se  Se16  1  0.164684  0.046512  0.408662  1
  Se  Se17  1  0.335133  0.452713  0.908541  1
  Se  Se18  1  0.833528  0.533867  0.592065  1
  Se  Se19  1  0.666835  0.966451  0.092179  1
  Se  Se20  1  0.834394  0.750000  0.311733  1
  Se  Se21  1  0.666058  0.750000  0.811467  1
  Se  Se22  1  0.162342  0.250000  0.684652  1
  Se  Se23  1  0.337642  0.250000  0.184597  1
  Se  Se24  1  0.455450  0.750000  0.497401  1
  Se  Se25  1  0.044081  0.750000  0.997417  1
  Se  Se26  1  0.548634  0.250000  0.500763  1
  Se  Se27  1  0.951389  0.250000  0.000812  1
  Se  Se28  1  0.189957  0.750000  0.714307  1
  Se  Se29  1  0.309780  0.750000  0.214625  1
  Se  Se30  1  0.811582  0.250000  0.289685  1
  Se  Se31  1  0.688447  0.250000  0.789714  1
