# generated using pymatgen
data_UCu2(AsO5)2
_symmetry_space_group_name_H-M   'P 1'
_cell_length_a   5.31068051
_cell_length_b   5.93775521
_cell_length_c   8.00002515
_cell_angle_alpha   111.78399809
_cell_angle_beta   107.02576690
_cell_angle_gamma   90.00000424
_symmetry_Int_Tables_number   1
_chemical_formula_structural   UCu2(AsO5)2
_chemical_formula_sum   'U1 Cu2 As2 O10'
_cell_volume   222.30401074
_cell_formula_units_Z   1
loop_
 _symmetry_equiv_pos_site_id
 _symmetry_equiv_pos_as_xyz
  1  'x, y, z'
loop_
 _atom_site_type_symbol
 _atom_site_label
 _atom_site_symmetry_multiplicity
 _atom_site_fract_x
 _atom_site_fract_y
 _atom_site_fract_z
 _atom_site_occupancy
  U  U0  1  0.000000  0.000000  0.000000  1
  Cu  Cu1  1  0.499999  0.000000  0.500000  1
  Cu  Cu2  1  0.499999  0.500000  0.500000  1
  As  As3  1  0.913021  0.647705  0.295411  1
  As  As4  1  0.086977  0.352295  0.704589  1
  O  O5  1  0.851221  0.345433  0.159747  1
  O  O6  1  0.851221  0.814314  0.159747  1
  O  O7  1  0.321936  0.093591  0.187182  1
  O  O8  1  0.713370  0.721049  0.442100  1
  O  O9  1  0.240450  0.725173  0.450347  1
  O  O10  1  0.759551  0.274826  0.549652  1
  O  O11  1  0.286629  0.278950  0.557900  1
  O  O12  1  0.678063  0.906408  0.812818  1
  O  O13  1  0.148778  0.185687  0.840254  1
  O  O14  1  0.148778  0.654566  0.840254  1
