# generated using pymatgen
data_LaPr2SiBr3
_symmetry_space_group_name_H-M   'P 1'
_cell_length_a   10.56896542
_cell_length_b   10.60854364
_cell_length_c   10.52927850
_cell_angle_alpha   109.52035444
_cell_angle_beta   109.27369660
_cell_angle_gamma   109.61140902
_symmetry_Int_Tables_number   1
_chemical_formula_structural   LaPr2SiBr3
_chemical_formula_sum   'La4 Pr8 Si4 Br12'
_cell_volume   908.87862804
_cell_formula_units_Z   4
loop_
 _symmetry_equiv_pos_site_id
 _symmetry_equiv_pos_as_xyz
  1  'x, y, z'
loop_
 _atom_site_type_symbol
 _atom_site_label
 _atom_site_symmetry_multiplicity
 _atom_site_fract_x
 _atom_site_fract_y
 _atom_site_fract_z
 _atom_site_occupancy
  La  La0  1  0.490544  0.241629  0.481066  1
  La  La1  1  0.752122  0.010231  0.489884  1
  La  La2  1  0.019165  0.259471  0.009341  1
  La  La3  1  0.258961  0.749107  0.238988  1
  Pr  Pr4  1  0.487716  0.748932  0.009992  1
  Pr  Pr5  1  0.752635  0.239001  0.262951  1
  Pr  Pr6  1  0.238084  0.262118  0.748453  1
  Pr  Pr7  1  0.474742  0.486832  0.236168  1
  Pr  Pr8  1  0.262104  0.012943  0.023906  1
  Pr  Pr9  1  0.237987  0.476116  0.488705  1
  Pr  Pr10  1  0.012034  0.025251  0.262600  1
  Pr  Pr11  1  0.013508  0.488119  0.748374  1
  Si  Si12  1  0.250092  0.249890  0.249876  1
  Si  Si13  1  0.000007  0.249926  0.499840  1
  Si  Si14  1  0.250116  0.500296  0.000009  1
  Si  Si15  1  0.499838  0.999853  0.249688  1
  Br  Br16  1  0.998070  0.991396  0.745978  1
  Br  Br17  1  0.753642  0.744876  0.247988  1
  Br  Br18  1  0.991629  0.746413  0.994648  1
  Br  Br19  1  0.248786  0.995958  0.504429  1
  Br  Br20  1  0.745172  0.995021  0.992131  1
  Br  Br21  1  0.503930  0.249949  0.996147  1
  Br  Br22  1  0.746418  0.251718  0.754860  1
  Br  Br23  1  0.504261  0.752815  0.508491  1
  Br  Br24  1  0.754783  0.508579  0.503090  1
  Br  Br25  1  0.250257  0.754042  0.746139  1
  Br  Br26  1  0.507941  0.505238  0.754895  1
  Br  Br27  1  0.995458  0.504283  0.251363  1
