# generated using pymatgen
data_Tb2Nd2MnOs7
_symmetry_space_group_name_H-M   'P 1'
_cell_length_a   5.38286400
_cell_length_b   5.38286489
_cell_length_c   8.89203200
_cell_angle_alpha   90.00000000
_cell_angle_beta   90.00000000
_cell_angle_gamma   119.99999451
_symmetry_Int_Tables_number   1
_chemical_formula_structural   Tb2Nd2MnOs7
_chemical_formula_sum   'Tb2 Nd2 Mn1 Os7'
_cell_volume   223.13030515
_cell_formula_units_Z   1
loop_
 _symmetry_equiv_pos_site_id
 _symmetry_equiv_pos_as_xyz
  1  'x, y, z'
loop_
 _atom_site_type_symbol
 _atom_site_label
 _atom_site_symmetry_multiplicity
 _atom_site_fract_x
 _atom_site_fract_y
 _atom_site_fract_z
 _atom_site_occupancy
  Tb  Tb0  1  0.666667  0.333333  0.935937  1
  Tb  Tb1  1  0.333333  0.666667  0.064063  1
  Nd  Nd2  1  0.333333  0.666667  0.429808  1
  Nd  Nd3  1  0.666667  0.333333  0.570192  1
  Mn  Mn4  1  0.000000  0.000000  0.500000  1
  Os  Os5  1  0.000000  0.000000  0.000000  1
  Os  Os6  1  0.829673  0.170327  0.247160  1
  Os  Os7  1  0.829673  0.659347  0.247160  1
  Os  Os8  1  0.340653  0.170327  0.247160  1
  Os  Os9  1  0.170327  0.829673  0.752840  1
  Os  Os10  1  0.170327  0.340653  0.752840  1
  Os  Os11  1  0.659347  0.829673  0.752840  1
