# generated using pymatgen
data_HoEr2(Si3Pd10)2
_symmetry_space_group_name_H-M   'P 1'
_cell_length_a   8.70536677
_cell_length_b   8.70536643
_cell_length_c   8.70536700
_cell_angle_alpha   60.00000165
_cell_angle_beta   60.00000294
_cell_angle_gamma   60.00000067
_symmetry_Int_Tables_number   1
_chemical_formula_structural   HoEr2(Si3Pd10)2
_chemical_formula_sum   'Ho1 Er2 Si6 Pd20'
_cell_volume   466.49418476
_cell_formula_units_Z   1
loop_
 _symmetry_equiv_pos_site_id
 _symmetry_equiv_pos_as_xyz
  1  'x, y, z'
loop_
 _atom_site_type_symbol
 _atom_site_label
 _atom_site_symmetry_multiplicity
 _atom_site_fract_x
 _atom_site_fract_y
 _atom_site_fract_z
 _atom_site_occupancy
  Ho  Ho0  1  0.250000  0.250000  0.250000  1
  Er  Er1  1  0.000000  0.000000  0.000000  1
  Er  Er2  1  0.750000  0.750000  0.750000  1
  Si  Si3  1  0.732843  0.267157  0.267157  1
  Si  Si4  1  0.267157  0.732843  0.732843  1
  Si  Si5  1  0.267157  0.732843  0.267157  1
  Si  Si6  1  0.732843  0.267157  0.732843  1
  Si  Si7  1  0.267157  0.267157  0.732843  1
  Si  Si8  1  0.732843  0.732843  0.267157  1
  Pd  Pd9  1  0.345365  0.999969  0.999969  1
  Pd  Pd10  1  0.654696  0.999969  0.999969  1
  Pd  Pd11  1  0.999969  0.345365  0.654696  1
  Pd  Pd12  1  0.999969  0.654696  0.345365  1
  Pd  Pd13  1  0.999969  0.345365  0.999969  1
  Pd  Pd14  1  0.654696  0.999969  0.345365  1
  Pd  Pd15  1  0.999969  0.654696  0.999969  1
  Pd  Pd16  1  0.345365  0.999969  0.654696  1
  Pd  Pd17  1  0.999969  0.999969  0.345365  1
  Pd  Pd18  1  0.999969  0.999969  0.654696  1
  Pd  Pd19  1  0.654696  0.345365  0.999969  1
  Pd  Pd20  1  0.345365  0.654696  0.999969  1
  Pd  Pd21  1  0.383522  0.383522  0.383522  1
  Pd  Pd22  1  0.616581  0.616581  0.616581  1
  Pd  Pd23  1  0.383522  0.383522  0.849435  1
  Pd  Pd24  1  0.383522  0.849435  0.383522  1
  Pd  Pd25  1  0.616581  0.616581  0.150255  1
  Pd  Pd26  1  0.616581  0.150255  0.616581  1
  Pd  Pd27  1  0.849435  0.383522  0.383522  1
  Pd  Pd28  1  0.150255  0.616581  0.616581  1
