# generated using pymatgen
data_Nd2CrSbO7
_symmetry_space_group_name_H-M   'P 1'
_cell_length_a   7.44077614
_cell_length_b   7.43378220
_cell_length_c   7.48795401
_cell_angle_alpha   89.99994726
_cell_angle_beta   59.79569199
_cell_angle_gamma   119.96893393
_symmetry_Int_Tables_number   1
_chemical_formula_structural   Nd2CrSbO7
_chemical_formula_sum   'Nd4 Cr2 Sb2 O14'
_cell_volume   292.10097126
_cell_formula_units_Z   2
loop_
 _symmetry_equiv_pos_site_id
 _symmetry_equiv_pos_as_xyz
  1  'x, y, z'
loop_
 _atom_site_type_symbol
 _atom_site_label
 _atom_site_symmetry_multiplicity
 _atom_site_fract_x
 _atom_site_fract_y
 _atom_site_fract_z
 _atom_site_occupancy
  Nd  Nd0  1  0.500006  0.500002  0.999994  1
  Nd  Nd1  1  0.500007  0.000001  0.999988  1
  Nd  Nd2  1  0.000002  0.000000  0.499995  1
  Nd  Nd3  1  0.000009  0.999998  0.999992  1
  Cr  Cr4  1  0.499880  0.999999  0.500197  1
  Cr  Cr5  1  0.499959  0.500086  0.499974  1
  Sb  Sb6  1  0.000004  0.499999  0.999993  1
  Sb  Sb7  1  0.999999  0.499992  0.499999  1
  O  O8  1  0.253490  0.126742  0.123263  1
  O  O9  1  0.746521  0.873257  0.876727  1
  O  O10  1  0.670205  0.835084  0.414898  1
  O  O11  1  0.845740  0.422865  0.827125  1
  O  O12  1  0.250524  0.825165  0.833533  1
  O  O13  1  0.250539  0.425352  0.415925  1
  O  O14  1  0.250522  0.425336  0.833538  1
  O  O15  1  0.250529  0.825158  0.415920  1
  O  O16  1  0.329815  0.164888  0.585083  1
  O  O17  1  0.154272  0.577130  0.172866  1
  O  O18  1  0.749506  0.174834  0.166433  1
  O  O19  1  0.749489  0.574636  0.584061  1
  O  O20  1  0.749503  0.574649  0.166438  1
  O  O21  1  0.749480  0.174825  0.584061  1
