# generated using pymatgen
data_NdNpZnO6
_symmetry_space_group_name_H-M   'P 1'
_cell_length_a   5.50681000
_cell_length_b   7.73821650
_cell_length_c   11.54801400
_cell_angle_alpha   74.70642337
_cell_angle_beta   90.00000000
_cell_angle_gamma   90.00000000
_symmetry_Int_Tables_number   1
_chemical_formula_structural   NdNpZnO6
_chemical_formula_sum   'Nd4 Np4 Zn4 O24'
_cell_volume   474.66769190
_cell_formula_units_Z   4
loop_
 _symmetry_equiv_pos_site_id
 _symmetry_equiv_pos_as_xyz
  1  'x, y, z'
loop_
 _atom_site_type_symbol
 _atom_site_label
 _atom_site_symmetry_multiplicity
 _atom_site_fract_x
 _atom_site_fract_y
 _atom_site_fract_z
 _atom_site_occupancy
  Nd  Nd0  1  0.690055  0.500000  0.250000  1
  Nd  Nd1  1  0.309945  0.500000  0.750000  1
  Nd  Nd2  1  0.763925  0.000000  0.250000  1
  Nd  Nd3  1  0.236075  0.000000  0.750000  1
  Np  Np4  1  0.262725  0.262550  0.102589  1
  Np  Np5  1  0.262725  0.737450  0.397411  1
  Np  Np6  1  0.737275  0.737450  0.897411  1
  Np  Np7  1  0.737275  0.262550  0.602589  1
  Zn  Zn8  1  0.220505  0.223305  0.409259  1
  Zn  Zn9  1  0.220505  0.776695  0.090741  1
  Zn  Zn10  1  0.779495  0.776695  0.590741  1
  Zn  Zn11  1  0.779495  0.223305  0.909259  1
  O  O12  1  0.455239  0.213533  0.270263  1
  O  O13  1  0.455239  0.786467  0.229737  1
  O  O14  1  0.544761  0.786467  0.729737  1
  O  O15  1  0.544761  0.213533  0.770263  1
  O  O16  1  0.110837  0.022295  0.117738  1
  O  O17  1  0.110837  0.977705  0.382262  1
  O  O18  1  0.889163  0.977705  0.882262  1
  O  O19  1  0.889163  0.022295  0.617738  1
  O  O20  1  0.961636  0.297128  0.190390  1
  O  O21  1  0.961636  0.702872  0.309610  1
  O  O22  1  0.038364  0.702872  0.809610  1
  O  O23  1  0.038364  0.297128  0.690390  1
  O  O24  1  0.889572  0.322140  0.432161  1
  O  O25  1  0.889572  0.677860  0.067839  1
  O  O26  1  0.110428  0.677860  0.567839  1
  O  O27  1  0.110428  0.322140  0.932161  1
  O  O28  1  0.627381  0.508088  0.600645  1
  O  O29  1  0.627381  0.491912  0.899355  1
  O  O30  1  0.372619  0.491912  0.399355  1
  O  O31  1  0.372619  0.508088  0.100645  1
  O  O32  1  0.427271  0.159445  0.557126  1
  O  O33  1  0.427271  0.840555  0.942874  1
  O  O34  1  0.572729  0.840555  0.442874  1
  O  O35  1  0.572729  0.159445  0.057126  1
