# generated using pymatgen
data_Ho20IrPt7Rh4
_symmetry_space_group_name_H-M   'P 1'
_cell_length_a   10.99713385
_cell_length_b   10.99713357
_cell_length_c   6.33180803
_cell_angle_alpha   89.99534417
_cell_angle_beta   89.99533884
_cell_angle_gamma   90.12493219
_symmetry_Int_Tables_number   1
_chemical_formula_structural   Ho20IrPt7Rh4
_chemical_formula_sum   'Ho20 Ir1 Pt7 Rh4'
_cell_volume   765.74772470
_cell_formula_units_Z   1
loop_
 _symmetry_equiv_pos_site_id
 _symmetry_equiv_pos_as_xyz
  1  'x, y, z'
loop_
 _atom_site_type_symbol
 _atom_site_label
 _atom_site_symmetry_multiplicity
 _atom_site_fract_x
 _atom_site_fract_y
 _atom_site_fract_z
 _atom_site_occupancy
  Ho  Ho0  1  0.293565  0.087778  0.376162  1
  Ho  Ho1  1  0.293750  0.908398  0.875783  1
  Ho  Ho2  1  0.706487  0.088034  0.876184  1
  Ho  Ho3  1  0.706352  0.911547  0.375515  1
  Ho  Ho4  1  0.585335  0.791957  0.875176  1
  Ho  Ho5  1  0.588442  0.206856  0.376684  1
  Ho  Ho6  1  0.410138  0.791057  0.379866  1
  Ho  Ho7  1  0.411651  0.205822  0.876479  1
  Ho  Ho8  1  0.208043  0.414665  0.624824  1
  Ho  Ho9  1  0.208943  0.589862  0.120134  1
  Ho  Ho10  1  0.793144  0.411558  0.123316  1
  Ho  Ho11  1  0.794178  0.588349  0.623521  1
  Ho  Ho12  1  0.912222  0.706435  0.123838  1
  Ho  Ho13  1  0.911966  0.293513  0.623816  1
  Ho  Ho14  1  0.091602  0.706250  0.624217  1
  Ho  Ho15  1  0.088453  0.293648  0.124485  1
  Ho  Ho16  1  0.999726  0.999934  0.500239  1
  Ho  Ho17  1  0.000066  0.000274  0.999761  1
  Ho  Ho18  1  0.498533  0.501035  0.999675  1
  Ho  Ho19  1  0.498965  0.501467  0.500325  1
  Ir  Ir20  1  0.345892  0.654108  0.750000  1
  Pt  Pt21  1  0.845548  0.154452  0.250000  1
  Pt  Pt22  1  0.844997  0.845767  0.750475  1
  Pt  Pt23  1  0.154233  0.155003  0.749525  1
  Pt  Pt24  1  0.153733  0.846267  0.250000  1
  Pt  Pt25  1  0.654169  0.345831  0.750000  1
  Pt  Pt26  1  0.655418  0.654867  0.250060  1
  Pt  Pt27  1  0.345133  0.344582  0.249940  1
  Rh  Rh28  1  0.500276  0.000529  0.123384  1
  Rh  Rh29  1  0.500096  0.000527  0.622429  1
  Rh  Rh30  1  0.999473  0.499904  0.877571  1
  Rh  Rh31  1  0.999471  0.499724  0.376616  1
