# generated using pymatgen
data_Hf10CrSb5
_symmetry_space_group_name_H-M   'P 1'
_cell_length_a   5.57255938
_cell_length_b   8.29428416
_cell_length_c   8.29428352
_cell_angle_alpha   96.47948643
_cell_angle_beta   109.62896134
_cell_angle_gamma   70.37104227
_symmetry_Int_Tables_number   1
_chemical_formula_structural   Hf10CrSb5
_chemical_formula_sum   'Hf10 Cr1 Sb5'
_cell_volume   340.10327840
_cell_formula_units_Z   1
loop_
 _symmetry_equiv_pos_site_id
 _symmetry_equiv_pos_as_xyz
  1  'x, y, z'
loop_
 _atom_site_type_symbol
 _atom_site_label
 _atom_site_symmetry_multiplicity
 _atom_site_fract_x
 _atom_site_fract_y
 _atom_site_fract_z
 _atom_site_occupancy
  Hf  Hf0  1  0.937064  0.860796  0.710633  1
  Hf  Hf1  1  0.087226  0.139204  0.289367  1
  Hf  Hf2  1  0.412774  0.289367  0.139204  1
  Hf  Hf3  1  0.562936  0.710633  0.860796  1
  Hf  Hf4  1  0.226431  0.710633  0.139204  1
  Hf  Hf5  1  0.797859  0.289367  0.860796  1
  Hf  Hf6  1  0.273569  0.139204  0.710633  1
  Hf  Hf7  1  0.702141  0.860796  0.289367  1
  Hf  Hf8  1  0.250000  0.500000  0.500000  1
  Hf  Hf9  1  0.750000  0.500000  0.500000  1
  Cr  Cr10  1  0.250000  0.000000  0.000000  1
  Sb  Sb11  1  0.335768  0.828464  0.500000  1
  Sb  Sb12  1  0.664232  0.171536  0.500000  1
  Sb  Sb13  1  0.835768  0.500000  0.171536  1
  Sb  Sb14  1  0.164232  0.500000  0.828464  1
  Sb  Sb15  1  0.750000  0.000000  0.000000  1
