# generated using pymatgen
data_Nd3DyIn2Ir2Au
_symmetry_space_group_name_H-M   'P 1'
_cell_length_a   7.78877554
_cell_length_b   7.66516767
_cell_length_c   4.20822900
_cell_angle_alpha   90.00000000
_cell_angle_beta   90.00000000
_cell_angle_gamma   119.04378069
_symmetry_Int_Tables_number   1
_chemical_formula_structural   Nd3DyIn2Ir2Au
_chemical_formula_sum   'Nd3 Dy1 In2 Ir2 Au1'
_cell_volume   219.64704095
_cell_formula_units_Z   1
loop_
 _symmetry_equiv_pos_site_id
 _symmetry_equiv_pos_as_xyz
  1  'x, y, z'
loop_
 _atom_site_type_symbol
 _atom_site_label
 _atom_site_symmetry_multiplicity
 _atom_site_fract_x
 _atom_site_fract_y
 _atom_site_fract_z
 _atom_site_occupancy
  Nd  Nd0  1  0.983891  0.608681  0.500000  1
  Nd  Nd1  1  0.583023  0.001547  0.500000  1
  Nd  Nd2  1  0.435837  0.400425  0.500000  1
  Dy  Dy3  1  0.994478  0.236078  0.000000  1
  In  In4  1  0.253017  0.006009  0.000000  1
  In  In5  1  0.749252  0.755184  0.000000  1
  Ir  Ir6  1  0.000707  0.999532  0.500000  1
  Ir  Ir7  1  0.673157  0.332445  0.000000  1
  Au  Au8  1  0.326639  0.660098  0.000000  1
