# generated using pymatgen
data_YbPrGaIr3
_symmetry_space_group_name_H-M   'P 1'
_cell_length_a   5.22412712
_cell_length_b   5.22412581
_cell_length_c   5.22412579
_cell_angle_alpha   64.71870944
_cell_angle_beta   64.71871058
_cell_angle_gamma   64.71869248
_symmetry_Int_Tables_number   1
_chemical_formula_structural   YbPrGaIr3
_chemical_formula_sum   'Yb1 Pr1 Ga1 Ir3'
_cell_volume   111.22889841
_cell_formula_units_Z   1
loop_
 _symmetry_equiv_pos_site_id
 _symmetry_equiv_pos_as_xyz
  1  'x, y, z'
loop_
 _atom_site_type_symbol
 _atom_site_label
 _atom_site_symmetry_multiplicity
 _atom_site_fract_x
 _atom_site_fract_y
 _atom_site_fract_z
 _atom_site_occupancy
  Yb  Yb0  1  0.998287  0.998287  0.998287  1
  Pr  Pr1  1  0.249439  0.249439  0.249439  1
  Ga  Ga2  1  0.624921  0.624921  0.624921  1
  Ir  Ir3  1  0.627369  0.627369  0.122616  1
  Ir  Ir4  1  0.627369  0.122616  0.627369  1
  Ir  Ir5  1  0.122616  0.627369  0.627369  1
