# generated using pymatgen
data_ScNb2(MoP)3
_symmetry_space_group_name_H-M   'P 1'
_cell_length_a   6.80800600
_cell_length_b   6.89124453
_cell_length_c   3.36797400
_cell_angle_alpha   90.00000000
_cell_angle_beta   90.00000000
_cell_angle_gamma   119.60123174
_symmetry_Int_Tables_number   1
_chemical_formula_structural   ScNb2(MoP)3
_chemical_formula_sum   'Sc1 Nb2 Mo3 P3'
_cell_volume   137.38776881
_cell_formula_units_Z   1
loop_
 _symmetry_equiv_pos_site_id
 _symmetry_equiv_pos_as_xyz
  1  'x, y, z'
loop_
 _atom_site_type_symbol
 _atom_site_label
 _atom_site_symmetry_multiplicity
 _atom_site_fract_x
 _atom_site_fract_y
 _atom_site_fract_z
 _atom_site_occupancy
  Sc  Sc0  1  0.597709  0.000000  0.500000  1
  Nb  Nb1  1  0.995809  0.594895  0.500000  1
  Nb  Nb2  1  0.400914  0.405105  0.500000  1
  Mo  Mo3  1  0.252662  0.000000  0.000000  1
  Mo  Mo4  1  0.747281  0.741107  0.000000  1
  Mo  Mo5  1  0.006174  0.258893  0.000000  1
  P  P6  1  0.665981  0.332582  0.000000  1
  P  P7  1  0.333397  0.667418  0.000000  1
  P  P8  1  0.000075  0.000000  0.500000  1
