# generated using pymatgen
data_Ta2Fe3Ge2
_symmetry_space_group_name_H-M   'P 1'
_cell_length_a   7.10022038
_cell_length_b   7.10021994
_cell_length_c   7.10022062
_cell_angle_alpha   33.78211570
_cell_angle_beta   33.78211559
_cell_angle_gamma   33.78211597
_symmetry_Int_Tables_number   1
_chemical_formula_structural   Ta2Fe3Ge2
_chemical_formula_sum   'Ta2 Fe3 Ge2'
_cell_volume   98.61105231
_cell_formula_units_Z   1
loop_
 _symmetry_equiv_pos_site_id
 _symmetry_equiv_pos_as_xyz
  1  'x, y, z'
loop_
 _atom_site_type_symbol
 _atom_site_label
 _atom_site_symmetry_multiplicity
 _atom_site_fract_x
 _atom_site_fract_y
 _atom_site_fract_z
 _atom_site_occupancy
  Ta  Ta0  1  0.244647  0.244647  0.244647  1
  Ta  Ta1  1  0.753752  0.753752  0.753752  1
  Fe  Fe2  1  0.372150  0.372150  0.372150  1
  Fe  Fe3  1  0.625807  0.625807  0.625807  1
  Fe  Fe4  1  0.877327  0.877327  0.877327  1
  Ge  Ge5  1  0.005036  0.005036  0.005036  1
  Ge  Ge6  1  0.496281  0.496281  0.496281  1
