# generated using pymatgen
data_Dy6Ho2Sc12Si15Rh
_symmetry_space_group_name_H-M   'P 1'
_cell_length_a   7.06872722
_cell_length_b   7.42750293
_cell_length_c   13.94078126
_cell_angle_alpha   89.97870741
_cell_angle_beta   89.99439101
_cell_angle_gamma   90.21305261
_symmetry_Int_Tables_number   1
_chemical_formula_structural   Dy6Ho2Sc12Si15Rh
_chemical_formula_sum   'Dy6 Ho2 Sc12 Si15 Rh1'
_cell_volume   731.92761456
_cell_formula_units_Z   1
loop_
 _symmetry_equiv_pos_site_id
 _symmetry_equiv_pos_as_xyz
  1  'x, y, z'
loop_
 _atom_site_type_symbol
 _atom_site_label
 _atom_site_symmetry_multiplicity
 _atom_site_fract_x
 _atom_site_fract_y
 _atom_site_fract_z
 _atom_site_occupancy
  Dy  Dy0  1  0.489100  0.676861  0.904361  1
  Dy  Dy1  1  0.991068  0.824646  0.595410  1
  Dy  Dy2  1  0.511245  0.322942  0.096398  1
  Dy  Dy3  1  0.011337  0.178201  0.403926  1
  Dy  Dy4  1  0.511168  0.322964  0.403572  1
  Dy  Dy5  1  0.489163  0.676825  0.595697  1
  Ho  Ho6  1  0.011364  0.178302  0.096132  1
  Ho  Ho7  1  0.991090  0.824548  0.904494  1
  Sc  Sc8  1  0.158822  0.503652  0.750029  1
  Sc  Sc9  1  0.837963  0.496028  0.249976  1
  Sc  Sc10  1  0.338708  0.004726  0.249979  1
  Sc  Sc11  1  0.668801  0.999006  0.750029  1
  Sc  Sc12  1  0.320291  0.172676  0.626912  1
  Sc  Sc13  1  0.671140  0.825218  0.374004  1
  Sc  Sc14  1  0.170691  0.677341  0.374300  1
  Sc  Sc15  1  0.671186  0.825289  0.125967  1
  Sc  Sc16  1  0.833996  0.322119  0.626571  1
  Sc  Sc17  1  0.320057  0.172560  0.873108  1
  Sc  Sc18  1  0.834085  0.322007  0.873430  1
  Sc  Sc19  1  0.170633  0.677418  0.125658  1
  Si  Si20  1  0.968456  0.884574  0.249921  1
  Si  Si21  1  0.468027  0.615062  0.249991  1
  Si  Si22  1  0.530654  0.387369  0.750022  1
  Si  Si23  1  0.287517  0.868629  0.750108  1
  Si  Si24  1  0.713542  0.129012  0.249882  1
  Si  Si25  1  0.213106  0.371749  0.249876  1
  Si  Si26  1  0.780959  0.626646  0.750102  1
  Si  Si27  1  0.159343  0.467211  0.537963  1
  Si  Si28  1  0.842869  0.535732  0.461215  1
  Si  Si29  1  0.344610  0.965751  0.460534  1
  Si  Si30  1  0.843013  0.535707  0.038786  1
  Si  Si31  1  0.657595  0.034701  0.538658  1
  Si  Si32  1  0.159219  0.467244  0.962053  1
  Si  Si33  1  0.658000  0.034537  0.961302  1
  Si  Si34  1  0.344175  0.965888  0.039502  1
  Rh  Rh35  1  0.027003  0.106855  0.750134  1
