# generated using pymatgen
data_Y3V(Ni4As3)2
_symmetry_space_group_name_H-M   'P 1'
_cell_length_a   3.89256900
_cell_length_b   11.01243600
_cell_length_c   12.73579000
_cell_angle_alpha   90.00000000
_cell_angle_beta   90.00000000
_cell_angle_gamma   90.00000000
_symmetry_Int_Tables_number   1
_chemical_formula_structural   Y3V(Ni4As3)2
_chemical_formula_sum   'Y6 V2 Ni16 As12'
_cell_volume   545.94086876
_cell_formula_units_Z   2
loop_
 _symmetry_equiv_pos_site_id
 _symmetry_equiv_pos_as_xyz
  1  'x, y, z'
loop_
 _atom_site_type_symbol
 _atom_site_label
 _atom_site_symmetry_multiplicity
 _atom_site_fract_x
 _atom_site_fract_y
 _atom_site_fract_z
 _atom_site_occupancy
  Y  Y0  1  0.000000  0.500000  0.522995  1
  Y  Y1  1  0.500000  0.000000  0.477005  1
  Y  Y2  1  0.500000  0.818409  0.206006  1
  Y  Y3  1  0.500000  0.181591  0.206006  1
  Y  Y4  1  0.000000  0.681591  0.793994  1
  Y  Y5  1  0.000000  0.318409  0.793994  1
  V  V6  1  0.500000  0.500000  0.148375  1
  V  V7  1  0.000000  0.000000  0.851625  1
  Ni  Ni8  1  0.500000  0.500000  0.698934  1
  Ni  Ni9  1  0.000000  0.000000  0.301066  1
  Ni  Ni10  1  0.000000  0.500000  0.983975  1
  Ni  Ni11  1  0.500000  0.000000  0.016025  1
  Ni  Ni12  1  0.500000  0.334573  0.992372  1
  Ni  Ni13  1  0.500000  0.665427  0.992372  1
  Ni  Ni14  1  0.000000  0.165427  0.007628  1
  Ni  Ni15  1  0.000000  0.834573  0.007628  1
  Ni  Ni16  1  0.500000  0.303526  0.426539  1
  Ni  Ni17  1  0.500000  0.696474  0.426539  1
  Ni  Ni18  1  0.000000  0.196474  0.573461  1
  Ni  Ni19  1  0.000000  0.803526  0.573461  1
  Ni  Ni20  1  0.500000  0.880230  0.708544  1
  Ni  Ni21  1  0.500000  0.119770  0.708544  1
  Ni  Ni22  1  0.000000  0.619770  0.291456  1
  Ni  Ni23  1  0.000000  0.380230  0.291456  1
  As  As24  1  0.500000  0.500000  0.877366  1
  As  As25  1  0.000000  0.000000  0.122634  1
  As  As26  1  0.500000  0.500000  0.344796  1
  As  As27  1  0.000000  0.000000  0.655204  1
  As  As28  1  0.500000  0.314204  0.614002  1
  As  As29  1  0.500000  0.685796  0.614002  1
  As  As30  1  0.000000  0.185796  0.385998  1
  As  As31  1  0.000000  0.814204  0.385998  1
  As  As32  1  0.500000  0.844961  0.890713  1
  As  As33  1  0.500000  0.155039  0.890713  1
  As  As34  1  0.000000  0.655039  0.109287  1
  As  As35  1  0.000000  0.344961  0.109287  1
