# generated using pymatgen
data_CeZnAgPt3
_symmetry_space_group_name_H-M   'P 1'
_cell_length_a   5.50698226
_cell_length_b   5.50698344
_cell_length_c   5.22183803
_cell_angle_alpha   58.17657939
_cell_angle_beta   58.17658784
_cell_angle_gamma   60.00000143
_symmetry_Int_Tables_number   1
_chemical_formula_structural   CeZnAgPt3
_chemical_formula_sum   'Ce1 Zn1 Ag1 Pt3'
_cell_volume   108.79263840
_cell_formula_units_Z   1
loop_
 _symmetry_equiv_pos_site_id
 _symmetry_equiv_pos_as_xyz
  1  'x, y, z'
loop_
 _atom_site_type_symbol
 _atom_site_label
 _atom_site_symmetry_multiplicity
 _atom_site_fract_x
 _atom_site_fract_y
 _atom_site_fract_z
 _atom_site_occupancy
  Ce  Ce0  1  0.002512  0.002512  0.992463  1
  Zn  Zn1  1  0.623367  0.623367  0.129898  1
  Ag  Ag2  1  0.252532  0.252532  0.242403  1
  Pt  Pt3  1  0.622825  0.125937  0.628412  1
  Pt  Pt4  1  0.125937  0.622825  0.628412  1
  Pt  Pt5  1  0.622825  0.622825  0.628412  1
