# generated using pymatgen
data_Sm6CoP12Ru10Rh7
_symmetry_space_group_name_H-M   'P 1'
_cell_length_a   3.95375600
_cell_length_b   11.26343208
_cell_length_c   12.72681699
_cell_angle_alpha   89.87155783
_cell_angle_beta   90.00000000
_cell_angle_gamma   90.00000000
_symmetry_Int_Tables_number   1
_chemical_formula_structural   Sm6CoP12Ru10Rh7
_chemical_formula_sum   'Sm6 Co1 P12 Ru10 Rh7'
_cell_volume   566.76016272
_cell_formula_units_Z   1
loop_
 _symmetry_equiv_pos_site_id
 _symmetry_equiv_pos_as_xyz
  1  'x, y, z'
loop_
 _atom_site_type_symbol
 _atom_site_label
 _atom_site_symmetry_multiplicity
 _atom_site_fract_x
 _atom_site_fract_y
 _atom_site_fract_z
 _atom_site_occupancy
  Sm  Sm0  1  0.000000  0.500023  0.520831  1
  Sm  Sm1  1  0.500000  0.000195  0.478109  1
  Sm  Sm2  1  0.500000  0.818961  0.203191  1
  Sm  Sm3  1  0.500000  0.180631  0.203559  1
  Sm  Sm4  1  0.000000  0.680887  0.796713  1
  Sm  Sm5  1  0.000000  0.317985  0.797510  1
  Co  Co6  1  0.500000  0.998614  0.010575  1
  P  P7  1  0.500000  0.497341  0.884681  1
  P  P8  1  0.000000  0.999002  0.113014  1
  P  P9  1  0.500000  0.499612  0.336297  1
  P  P10  1  0.000000  0.000401  0.656412  1
  P  P11  1  0.500000  0.305611  0.616977  1
  P  P12  1  0.500000  0.694176  0.616852  1
  P  P13  1  0.000000  0.194003  0.382347  1
  P  P14  1  0.000000  0.806863  0.382785  1
  P  P15  1  0.500000  0.852481  0.899022  1
  P  P16  1  0.500000  0.151135  0.901529  1
  P  P17  1  0.000000  0.654452  0.107653  1
  P  P18  1  0.000000  0.343247  0.102848  1
  Ru  Ru19  1  0.500000  0.504442  0.155950  1
  Ru  Ru20  1  0.000000  0.998090  0.841095  1
  Ru  Ru21  1  0.000000  0.502319  0.989023  1
  Ru  Ru22  1  0.500000  0.330992  0.993205  1
  Ru  Ru23  1  0.000000  0.161036  0.007384  1
  Ru  Ru24  1  0.000000  0.835328  0.008848  1
  Ru  Ru25  1  0.000000  0.202475  0.571487  1
  Ru  Ru26  1  0.000000  0.798000  0.571607  1
  Ru  Ru27  1  0.000000  0.622650  0.288119  1
  Ru  Ru28  1  0.000000  0.377595  0.284929  1
  Rh  Rh29  1  0.500000  0.499935  0.697135  1
  Rh  Rh30  1  0.000000  0.000032  0.300085  1
  Rh  Rh31  1  0.500000  0.670848  0.988006  1
  Rh  Rh32  1  0.500000  0.297479  0.429653  1
  Rh  Rh33  1  0.500000  0.703642  0.430499  1
  Rh  Rh34  1  0.500000  0.876246  0.715450  1
  Rh  Rh35  1  0.500000  0.123271  0.716618  1
