# generated using pymatgen
data_Li3Th3OsPt2
_symmetry_space_group_name_H-M   'P 1'
_cell_length_a   7.33625900
_cell_length_b   7.33625881
_cell_length_c   4.03663500
_cell_angle_alpha   90.00000000
_cell_angle_beta   90.00000000
_cell_angle_gamma   120.00002340
_symmetry_Int_Tables_number   1
_chemical_formula_structural   Li3Th3OsPt2
_chemical_formula_sum   'Li3 Th3 Os1 Pt2'
_cell_volume   188.14787175
_cell_formula_units_Z   1
loop_
 _symmetry_equiv_pos_site_id
 _symmetry_equiv_pos_as_xyz
  1  'x, y, z'
loop_
 _atom_site_type_symbol
 _atom_site_label
 _atom_site_symmetry_multiplicity
 _atom_site_fract_x
 _atom_site_fract_y
 _atom_site_fract_z
 _atom_site_occupancy
  Li  Li0  1  0.767018  0.766375  0.000000  1
  Li  Li1  1  0.233625  0.000643  0.000000  1
  Li  Li2  1  0.999357  0.232982  0.000000  1
  Th  Th3  1  0.411944  0.400512  0.500000  1
  Th  Th4  1  0.599488  0.011432  0.500000  1
  Th  Th5  1  0.988568  0.588056  0.500000  1
  Os  Os6  1  0.666667  0.333333  0.000000  1
  Pt  Pt7  1  0.333333  0.666667  0.000000  1
  Pt  Pt8  1  0.000000  0.000000  0.500000  1
