# generated using pymatgen
data_AgPtRhSe4
_symmetry_space_group_name_H-M   'P 1'
_cell_length_a   7.61627189
_cell_length_b   7.61627260
_cell_length_c   7.49169100
_cell_angle_alpha   60.53963135
_cell_angle_beta   60.53962833
_cell_angle_gamma   60.93590041
_symmetry_Int_Tables_number   1
_chemical_formula_structural   AgPtRhSe4
_chemical_formula_sum   'Ag2 Pt2 Rh2 Se8'
_cell_volume   311.94084091
_cell_formula_units_Z   2
loop_
 _symmetry_equiv_pos_site_id
 _symmetry_equiv_pos_as_xyz
  1  'x, y, z'
loop_
 _atom_site_type_symbol
 _atom_site_label
 _atom_site_symmetry_multiplicity
 _atom_site_fract_x
 _atom_site_fract_y
 _atom_site_fract_z
 _atom_site_occupancy
  Ag  Ag0  1  0.507231  0.507231  0.492769  1
  Ag  Ag1  1  0.742769  0.742769  0.757231  1
  Pt  Pt2  1  0.625000  0.125000  0.125000  1
  Pt  Pt3  1  0.125000  0.625000  0.125000  1
  Rh  Rh4  1  0.125000  0.125000  0.125000  1
  Rh  Rh5  1  0.125000  0.125000  0.625000  1
  Se  Se6  1  0.356966  0.356966  0.362801  1
  Se  Se7  1  0.325097  0.894757  0.890073  1
  Se  Se8  1  0.893034  0.893034  0.326733  1
  Se  Se9  1  0.894757  0.325097  0.890073  1
  Se  Se10  1  0.356966  0.356966  0.923267  1
  Se  Se11  1  0.355243  0.924903  0.359927  1
  Se  Se12  1  0.893034  0.893034  0.887199  1
  Se  Se13  1  0.924903  0.355243  0.359927  1
