# generated using pymatgen
data_DyEr3Lu4(WO6)4
_symmetry_space_group_name_H-M   'P 1'
_cell_length_a   5.34360900
_cell_length_b   7.62691456
_cell_length_c   11.32610702
_cell_angle_alpha   75.39721141
_cell_angle_beta   90.00000000
_cell_angle_gamma   90.00000000
_symmetry_Int_Tables_number   1
_chemical_formula_structural   DyEr3Lu4(WO6)4
_chemical_formula_sum   'Dy1 Er3 Lu4 W4 O24'
_cell_volume   446.68725872
_cell_formula_units_Z   1
loop_
 _symmetry_equiv_pos_site_id
 _symmetry_equiv_pos_as_xyz
  1  'x, y, z'
loop_
 _atom_site_type_symbol
 _atom_site_label
 _atom_site_symmetry_multiplicity
 _atom_site_fract_x
 _atom_site_fract_y
 _atom_site_fract_z
 _atom_site_occupancy
  Dy  Dy0  1  0.315204  0.500000  0.750000  1
  Er  Er1  1  0.257780  0.000000  0.750000  1
  Er  Er2  1  0.742152  0.000000  0.250000  1
  Er  Er3  1  0.684663  0.500000  0.250000  1
  Lu  Lu4  1  0.182608  0.793673  0.079270  1
  Lu  Lu5  1  0.182608  0.206327  0.420730  1
  Lu  Lu6  1  0.817318  0.205927  0.920979  1
  Lu  Lu7  1  0.817318  0.794073  0.579021  1
  W  W8  1  0.743378  0.724006  0.886192  1
  W  W9  1  0.256657  0.723776  0.385615  1
  W  W10  1  0.743378  0.275994  0.613808  1
  W  W11  1  0.256657  0.276224  0.114385  1
  O  O12  1  0.540887  0.155762  0.067743  1
  O  O13  1  0.046141  0.057753  0.103458  1
  O  O14  1  0.019567  0.713100  0.770032  1
  O  O15  1  0.458885  0.155828  0.567661  1
  O  O16  1  0.359751  0.487340  0.385662  1
  O  O17  1  0.953963  0.057886  0.603163  1
  O  O18  1  0.543240  0.793495  0.724968  1
  O  O19  1  0.457153  0.792855  0.224976  1
  O  O20  1  0.146550  0.634550  0.549926  1
  O  O21  1  0.046141  0.942247  0.396542  1
  O  O22  1  0.458885  0.844172  0.932339  1
  O  O23  1  0.457153  0.207145  0.275024  1
  O  O24  1  0.852706  0.365527  0.449437  1
  O  O25  1  0.641950  0.487113  0.886375  1
  O  O26  1  0.359751  0.512660  0.114338  1
  O  O27  1  0.953963  0.942114  0.896837  1
  O  O28  1  0.540887  0.844238  0.432257  1
  O  O29  1  0.979347  0.288112  0.229870  1
  O  O30  1  0.543240  0.206505  0.775032  1
  O  O31  1  0.852706  0.634473  0.050563  1
  O  O32  1  0.019567  0.286900  0.729968  1
  O  O33  1  0.146550  0.365450  0.950074  1
  O  O34  1  0.979347  0.711888  0.270130  1
  O  O35  1  0.641950  0.512887  0.613625  1
