# generated using pymatgen
data_TbDy7Hg4
_symmetry_space_group_name_H-M   'P 1'
_cell_length_a   5.10855100
_cell_length_b   7.03287170
_cell_length_c   9.31663174
_cell_angle_alpha   89.96543738
_cell_angle_beta   90.00000000
_cell_angle_gamma   90.00000000
_symmetry_Int_Tables_number   1
_chemical_formula_structural   TbDy7Hg4
_chemical_formula_sum   'Tb1 Dy7 Hg4'
_cell_volume   334.72586951
_cell_formula_units_Z   1
loop_
 _symmetry_equiv_pos_site_id
 _symmetry_equiv_pos_as_xyz
  1  'x, y, z'
loop_
 _atom_site_type_symbol
 _atom_site_label
 _atom_site_symmetry_multiplicity
 _atom_site_fract_x
 _atom_site_fract_y
 _atom_site_fract_z
 _atom_site_occupancy
  Tb  Tb0  1  0.750000  0.332281  0.925234  1
  Dy  Dy1  1  0.250000  0.018510  0.806692  1
  Dy  Dy2  1  0.250000  0.518635  0.690687  1
  Dy  Dy3  1  0.750000  0.980472  0.194964  1
  Dy  Dy4  1  0.750000  0.482438  0.307770  1
  Dy  Dy5  1  0.250000  0.165983  0.425586  1
  Dy  Dy6  1  0.250000  0.665552  0.073195  1
  Dy  Dy7  1  0.750000  0.834208  0.576084  1
  Hg  Hg8  1  0.250000  0.733535  0.395327  1
  Hg  Hg9  1  0.250000  0.231215  0.104500  1
  Hg  Hg10  1  0.750000  0.267748  0.602116  1
  Hg  Hg11  1  0.750000  0.769422  0.897843  1
