# generated using pymatgen
data_DyHo4Sc3(P3Ir4)4
_symmetry_space_group_name_H-M   'P 1'
_cell_length_a   12.85590700
_cell_length_b   12.85590807
_cell_length_c   3.96311800
_cell_angle_alpha   90.00000000
_cell_angle_beta   90.00000000
_cell_angle_gamma   119.99999981
_symmetry_Int_Tables_number   1
_chemical_formula_structural   DyHo4Sc3(P3Ir4)4
_chemical_formula_sum   'Dy1 Ho4 Sc3 P12 Ir16'
_cell_volume   567.24818675
_cell_formula_units_Z   1
loop_
 _symmetry_equiv_pos_site_id
 _symmetry_equiv_pos_as_xyz
  1  'x, y, z'
loop_
 _atom_site_type_symbol
 _atom_site_label
 _atom_site_symmetry_multiplicity
 _atom_site_fract_x
 _atom_site_fract_y
 _atom_site_fract_z
 _atom_site_occupancy
  Dy  Dy0  1  0.666667  0.333333  0.500000  1
  Ho  Ho1  1  0.333333  0.666667  0.500000  1
  Ho  Ho2  1  0.999995  0.811865  0.000000  1
  Ho  Ho3  1  0.188135  0.188130  0.000000  1
  Ho  Ho4  1  0.811870  0.000005  0.000000  1
  Sc  Sc5  1  0.000007  0.444900  0.500000  1
  Sc  Sc6  1  0.555100  0.555107  0.500000  1
  Sc  Sc7  1  0.444893  0.999993  0.500000  1
  P  P8  1  0.999980  0.645852  0.500000  1
  P  P9  1  0.354148  0.354127  0.500000  1
  P  P10  1  0.645873  0.000020  0.500000  1
  P  P11  1  0.516771  0.686548  0.000000  1
  P  P12  1  0.313452  0.830223  0.000000  1
  P  P13  1  0.169777  0.483229  0.000000  1
  P  P14  1  0.483103  0.169662  0.000000  1
  P  P15  1  0.686559  0.516897  0.000000  1
  P  P16  1  0.830338  0.313441  0.000000  1
  P  P17  1  0.999999  0.176649  0.500000  1
  P  P18  1  0.823351  0.823350  0.500000  1
  P  P19  1  0.176650  0.000001  0.500000  1
  Ir  Ir20  1  0.509858  0.867566  0.000000  1
  Ir  Ir21  1  0.132434  0.642293  0.000000  1
  Ir  Ir22  1  0.357707  0.490142  0.000000  1
  Ir  Ir23  1  0.489941  0.357747  0.000000  1
  Ir  Ir24  1  0.867807  0.510059  0.000000  1
  Ir  Ir25  1  0.642253  0.132193  0.000000  1
  Ir  Ir26  1  0.000016  0.277932  0.000000  1
  Ir  Ir27  1  0.722068  0.722083  0.000000  1
  Ir  Ir28  1  0.277917  0.999984  0.000000  1
  Ir  Ir29  1  0.628014  0.806921  0.500000  1
  Ir  Ir30  1  0.193079  0.821092  0.500000  1
  Ir  Ir31  1  0.178908  0.371986  0.500000  1
  Ir  Ir32  1  0.371950  0.178883  0.500000  1
  Ir  Ir33  1  0.806932  0.628050  0.500000  1
  Ir  Ir34  1  0.821117  0.193068  0.500000  1
  Ir  Ir35  1  0.000000  0.000000  0.500000  1
