# generated using pymatgen
data_Tm3Mn2Fe6CoP6
_symmetry_space_group_name_H-M   'P 1'
_cell_length_a   3.69150600
_cell_length_b   10.57189000
_cell_length_c   12.11347900
_cell_angle_alpha   90.00000000
_cell_angle_beta   90.00000000
_cell_angle_gamma   90.00000000
_symmetry_Int_Tables_number   1
_chemical_formula_structural   Tm3Mn2Fe6CoP6
_chemical_formula_sum   'Tm6 Mn4 Fe12 Co2 P12'
_cell_volume   472.74299802
_cell_formula_units_Z   2
loop_
 _symmetry_equiv_pos_site_id
 _symmetry_equiv_pos_as_xyz
  1  'x, y, z'
loop_
 _atom_site_type_symbol
 _atom_site_label
 _atom_site_symmetry_multiplicity
 _atom_site_fract_x
 _atom_site_fract_y
 _atom_site_fract_z
 _atom_site_occupancy
  Tm  Tm0  1  0.000000  0.500000  0.532703  1
  Tm  Tm1  1  0.500000  0.000000  0.472931  1
  Tm  Tm2  1  0.500000  0.824146  0.203653  1
  Tm  Tm3  1  0.500000  0.175854  0.203653  1
  Tm  Tm4  1  0.000000  0.678273  0.794086  1
  Tm  Tm5  1  0.000000  0.321727  0.794086  1
  Mn  Mn6  1  0.500000  0.500000  0.156686  1
  Mn  Mn7  1  0.000000  0.000000  0.847722  1
  Mn  Mn8  1  0.000000  0.615353  0.293780  1
  Mn  Mn9  1  0.000000  0.384647  0.293780  1
  Fe  Fe10  1  0.000000  0.500000  0.989472  1
  Fe  Fe11  1  0.500000  0.000000  0.008623  1
  Fe  Fe12  1  0.500000  0.329371  0.997089  1
  Fe  Fe13  1  0.500000  0.670629  0.997089  1
  Fe  Fe14  1  0.000000  0.170733  0.001010  1
  Fe  Fe15  1  0.000000  0.829267  0.001010  1
  Fe  Fe16  1  0.500000  0.297329  0.428613  1
  Fe  Fe17  1  0.500000  0.702671  0.428613  1
  Fe  Fe18  1  0.000000  0.201162  0.569063  1
  Fe  Fe19  1  0.000000  0.798838  0.569063  1
  Fe  Fe20  1  0.500000  0.881726  0.708007  1
  Fe  Fe21  1  0.500000  0.118274  0.708007  1
  Co  Co22  1  0.500000  0.500000  0.702169  1
  Co  Co23  1  0.000000  0.000000  0.296585  1
  P  P24  1  0.500000  0.500000  0.885647  1
  P  P25  1  0.000000  0.000000  0.112149  1
  P  P26  1  0.500000  0.500000  0.355922  1
  P  P27  1  0.000000  0.000000  0.653188  1
  P  P28  1  0.500000  0.307097  0.616050  1
  P  P29  1  0.500000  0.692903  0.616050  1
  P  P30  1  0.000000  0.187406  0.384675  1
  P  P31  1  0.000000  0.812594  0.384675  1
  P  P32  1  0.500000  0.845681  0.889522  1
  P  P33  1  0.500000  0.154319  0.889522  1
  P  P34  1  0.000000  0.654892  0.107554  1
  P  P35  1  0.000000  0.345108  0.107554  1
