# generated using pymatgen
data_Ba8Sb5Br
_symmetry_space_group_name_H-M   'P 1'
_cell_length_a   9.16547040
_cell_length_b   9.16547110
_cell_length_c   9.16547082
_cell_angle_alpha   109.55982701
_cell_angle_beta   109.55982937
_cell_angle_gamma   109.29415410
_symmetry_Int_Tables_number   1
_chemical_formula_structural   Ba8Sb5Br
_chemical_formula_sum   'Ba8 Sb5 Br1'
_cell_volume   592.70598188
_cell_formula_units_Z   1
loop_
 _symmetry_equiv_pos_site_id
 _symmetry_equiv_pos_as_xyz
  1  'x, y, z'
loop_
 _atom_site_type_symbol
 _atom_site_label
 _atom_site_symmetry_multiplicity
 _atom_site_fract_x
 _atom_site_fract_y
 _atom_site_fract_z
 _atom_site_occupancy
  Ba  Ba0  1  0.746356  0.365241  0.244740  1
  Ba  Ba1  1  0.981651  0.731743  0.100659  1
  Ba  Ba2  1  0.631085  0.880992  0.899341  1
  Ba  Ba3  1  0.120500  0.501616  0.755260  1
  Ba  Ba4  1  0.634759  0.879500  0.381116  1
  Ba  Ba5  1  0.498384  0.253644  0.618884  1
  Ba  Ba6  1  0.268257  0.368915  0.249907  1
  Ba  Ba7  1  0.119008  0.018349  0.750093  1
  Sb  Sb8  1  0.747723  0.631393  0.623712  1
  Sb  Sb9  1  0.368607  0.992319  0.116330  1
  Sb  Sb10  1  0.007681  0.124011  0.376288  1
  Sb  Sb11  1  0.500000  0.500000  0.000000  1
  Sb  Sb12  1  0.875989  0.252277  0.883670  1
  Br  Br13  1  0.250000  0.750000  0.500000  1
