# generated using pymatgen
data_TaBe(BMo)3
_symmetry_space_group_name_H-M   'P 1'
_cell_length_a   4.60994809
_cell_length_b   4.60994646
_cell_length_c   6.30809600
_cell_angle_alpha   90.00000000
_cell_angle_beta   90.00000000
_cell_angle_gamma   139.18783902
_symmetry_Int_Tables_number   1
_chemical_formula_structural   TaBe(BMo)3
_chemical_formula_sum   'Ta1 Be1 B3 Mo3'
_cell_volume   87.61728708
_cell_formula_units_Z   1
loop_
 _symmetry_equiv_pos_site_id
 _symmetry_equiv_pos_as_xyz
  1  'x, y, z'
loop_
 _atom_site_type_symbol
 _atom_site_label
 _atom_site_symmetry_multiplicity
 _atom_site_fract_x
 _atom_site_fract_y
 _atom_site_fract_z
 _atom_site_occupancy
  Ta  Ta0  1  0.850757  0.149243  0.000000  1
  Be  Be1  1  0.566593  0.433407  0.500000  1
  B  B2  1  0.558739  0.441261  0.000000  1
  B  B3  1  0.438058  0.561942  0.248208  1
  B  B4  1  0.438058  0.561942  0.751792  1
  Mo  Mo5  1  0.855549  0.144451  0.500000  1
  Mo  Mo6  1  0.146122  0.853878  0.244447  1
  Mo  Mo7  1  0.146122  0.853878  0.755553  1
