# generated using pymatgen
data_Ca(TaS2)5
_symmetry_space_group_name_H-M   'P 1'
_cell_length_a   5.81013877
_cell_length_b   8.06642671
_cell_length_c   8.76517800
_cell_angle_alpha   116.42807492
_cell_angle_beta   96.51117205
_cell_angle_gamma   103.87079750
_symmetry_Int_Tables_number   1
_chemical_formula_structural   Ca(TaS2)5
_chemical_formula_sum   'Ca1 Ta5 S10'
_cell_volume   345.50527183
_cell_formula_units_Z   1
loop_
 _symmetry_equiv_pos_site_id
 _symmetry_equiv_pos_as_xyz
  1  'x, y, z'
loop_
 _atom_site_type_symbol
 _atom_site_label
 _atom_site_symmetry_multiplicity
 _atom_site_fract_x
 _atom_site_fract_y
 _atom_site_fract_z
 _atom_site_occupancy
  Ca  Ca0  1  0.667094  0.504131  0.997503  1
  Ta  Ta1  1  0.000818  0.998655  0.999632  1
  Ta  Ta2  1  0.599596  0.200626  0.202742  1
  Ta  Ta3  1  0.198431  0.399176  0.399624  1
  Ta  Ta4  1  0.801575  0.601027  0.601114  1
  Ta  Ta5  1  0.400576  0.797051  0.796641  1
  S  S6  1  0.235971  0.068287  0.287161  1
  S  S7  1  0.043302  0.666091  0.888422  1
  S  S8  1  0.836538  0.268360  0.487244  1
  S  S9  1  0.636576  0.870966  0.091064  1
  S  S10  1  0.433860  0.462366  0.684019  1
  S  S11  1  0.896533  0.535075  0.314015  1
  S  S12  1  0.695942  0.130912  0.912782  1
  S  S13  1  0.495709  0.730941  0.513331  1
  S  S14  1  0.293007  0.332537  0.111846  1
  S  S15  1  0.097271  0.931396  0.714460  1
