# generated using pymatgen
data_Sc3Pa2Sb3C
_symmetry_space_group_name_H-M   'P 1'
_cell_length_a   8.71365300
_cell_length_b   8.71365367
_cell_length_c   6.05740600
_cell_angle_alpha   90.00000000
_cell_angle_beta   90.00000000
_cell_angle_gamma   120.48486361
_symmetry_Int_Tables_number   1
_chemical_formula_structural   Sc3Pa2Sb3C
_chemical_formula_sum   'Sc6 Pa4 Sb6 C2'
_cell_volume   396.34664819
_cell_formula_units_Z   2
loop_
 _symmetry_equiv_pos_site_id
 _symmetry_equiv_pos_as_xyz
  1  'x, y, z'
loop_
 _atom_site_type_symbol
 _atom_site_label
 _atom_site_symmetry_multiplicity
 _atom_site_fract_x
 _atom_site_fract_y
 _atom_site_fract_z
 _atom_site_occupancy
  Sc  Sc0  1  0.660106  0.331313  0.499219  1
  Sc  Sc1  1  0.331313  0.660106  0.499219  1
  Sc  Sc2  1  0.331313  0.660106  0.000781  1
  Sc  Sc3  1  0.660106  0.331313  0.000781  1
  Sc  Sc4  1  0.784640  0.001257  0.750000  1
  Sc  Sc5  1  0.001257  0.784640  0.750000  1
  Pa  Pa6  1  0.780831  0.780831  0.250000  1
  Pa  Pa7  1  0.222578  0.999173  0.250000  1
  Pa  Pa8  1  0.999173  0.222578  0.250000  1
  Pa  Pa9  1  0.226681  0.226681  0.750000  1
  Sb  Sb10  1  0.408041  0.408041  0.250000  1
  Sb  Sb11  1  0.591378  0.998116  0.250000  1
  Sb  Sb12  1  0.998116  0.591378  0.250000  1
  Sb  Sb13  1  0.607977  0.607977  0.750000  1
  Sb  Sb14  1  0.401523  0.990555  0.750000  1
  Sb  Sb15  1  0.990555  0.401523  0.750000  1
  C  C16  1  0.002205  0.002205  0.503081  1
  C  C17  1  0.002205  0.002205  0.996919  1
