# generated using pymatgen
data_Y4Hf3RuF28
_symmetry_space_group_name_H-M   'P 1'
_cell_length_a   5.66000592
_cell_length_b   9.03262200
_cell_length_c   12.13452094
_cell_angle_alpha   62.64270547
_cell_angle_beta   90.00484157
_cell_angle_gamma   90.13563961
_symmetry_Int_Tables_number   1
_chemical_formula_structural   Y4Hf3RuF28
_chemical_formula_sum   'Y4 Hf3 Ru1 F28'
_cell_volume   550.98803442
_cell_formula_units_Z   1
loop_
 _symmetry_equiv_pos_site_id
 _symmetry_equiv_pos_as_xyz
  1  'x, y, z'
loop_
 _atom_site_type_symbol
 _atom_site_label
 _atom_site_symmetry_multiplicity
 _atom_site_fract_x
 _atom_site_fract_y
 _atom_site_fract_z
 _atom_site_occupancy
  Y  Y0  1  0.256970  0.812741  0.261871  1
  Y  Y1  1  0.743175  0.187240  0.732497  1
  Y  Y2  1  0.756949  0.182984  0.235062  1
  Y  Y3  1  0.242785  0.813922  0.768621  1
  Hf  Hf4  1  0.245197  0.273980  0.957074  1
  Hf  Hf5  1  0.256052  0.274204  0.455171  1
  Hf  Hf6  1  0.743169  0.726658  0.543503  1
  Ru  Ru7  1  0.756671  0.726549  0.044031  1
  F  F8  1  0.955183  0.709022  0.418342  1
  F  F9  1  0.046039  0.292981  0.580907  1
  F  F10  1  0.458052  0.289956  0.082536  1
  F  F11  1  0.555285  0.709481  0.917799  1
  F  F12  1  0.475308  0.728992  0.138594  1
  F  F13  1  0.524687  0.263959  0.858889  1
  F  F14  1  0.977513  0.271128  0.353713  1
  F  F15  1  0.020625  0.732077  0.644772  1
  F  F16  1  0.953305  0.743549  0.172865  1
  F  F17  1  0.038729  0.250259  0.829897  1
  F  F18  1  0.459247  0.253522  0.326277  1
  F  F19  1  0.539150  0.748048  0.672132  1
  F  F20  1  0.768184  0.488673  0.137628  1
  F  F21  1  0.230846  0.522623  0.859768  1
  F  F22  1  0.276245  0.523047  0.358813  1
  F  F23  1  0.723672  0.477177  0.640941  1
  F  F24  1  0.950591  0.280485  0.048891  1
  F  F25  1  0.045993  0.721647  0.953348  1
  F  F26  1  0.448132  0.723742  0.451059  1
  F  F27  1  0.553772  0.277920  0.546072  1
  F  F28  1  0.741179  0.975545  0.443329  1
  F  F29  1  0.258130  0.026511  0.556947  1
  F  F30  1  0.238776  0.025641  0.056343  1
  F  F31  1  0.756266  0.963985  0.952157  1
  F  F32  1  0.578869  0.970137  0.232138  1
  F  F33  1  0.422762  0.030608  0.767748  1
  F  F34  1  0.079098  0.027381  0.266977  1
  F  F35  1  0.923397  0.973626  0.733287  1
