# generated using pymatgen
data_Sc3Ti2(ReTc)12
_symmetry_space_group_name_H-M   'P 1'
_cell_length_a   8.39557505
_cell_length_b   8.39557506
_cell_length_c   8.40086857
_cell_angle_alpha   109.48587696
_cell_angle_beta   109.48587535
_cell_angle_gamma   109.41635823
_symmetry_Int_Tables_number   1
_chemical_formula_structural   Sc3Ti2(ReTc)12
_chemical_formula_sum   'Sc3 Ti2 Re12 Tc12'
_cell_volume   455.97382260
_cell_formula_units_Z   1
loop_
 _symmetry_equiv_pos_site_id
 _symmetry_equiv_pos_as_xyz
  1  'x, y, z'
loop_
 _atom_site_type_symbol
 _atom_site_label
 _atom_site_symmetry_multiplicity
 _atom_site_fract_x
 _atom_site_fract_y
 _atom_site_fract_z
 _atom_site_occupancy
  Sc  Sc0  1  0.000452  0.000452  0.000000  1
  Sc  Sc1  1  0.629896  0.000072  0.000000  1
  Sc  Sc2  1  0.000072  0.629896  0.000000  1
  Ti  Ti3  1  0.000798  0.000798  0.629735  1
  Ti  Ti4  1  0.371064  0.371064  0.370265  1
  Re  Re5  1  0.376230  0.193513  0.000000  1
  Re  Re6  1  0.185050  0.808224  0.806673  1
  Re  Re7  1  0.378377  0.001552  0.193327  1
  Re  Re8  1  0.193513  0.376230  0.000000  1
  Re  Re9  1  0.001552  0.378377  0.193327  1
  Re  Re10  1  0.808224  0.185050  0.806673  1
  Re  Re11  1  0.808797  0.808797  0.187270  1
  Re  Re12  1  0.002212  0.194921  0.378325  1
  Re  Re13  1  0.194921  0.002212  0.378325  1
  Re  Re14  1  0.621527  0.621527  0.812730  1
  Re  Re15  1  0.816596  0.623888  0.621675  1
  Re  Re16  1  0.623888  0.816596  0.621675  1
  Tc  Tc17  1  0.398149  0.676250  0.000000  1
  Tc  Tc18  1  0.721966  0.322625  0.324330  1
  Tc  Tc19  1  0.397635  0.998295  0.675670  1
  Tc  Tc20  1  0.676250  0.398149  0.000000  1
  Tc  Tc21  1  0.998295  0.397635  0.675670  1
  Tc  Tc22  1  0.322625  0.721966  0.324330  1
  Tc  Tc23  1  0.318277  0.318277  0.721977  1
  Tc  Tc24  1  0.998390  0.681466  0.401192  1
  Tc  Tc25  1  0.681466  0.998390  0.401192  1
  Tc  Tc26  1  0.596301  0.596301  0.278023  1
  Tc  Tc27  1  0.280274  0.597198  0.598808  1
  Tc  Tc28  1  0.597198  0.280274  0.598808  1
