# generated using pymatgen
data_NaLuSiO4
_symmetry_space_group_name_H-M   'P 1'
_cell_length_a   5.14290500
_cell_length_b   6.34308600
_cell_length_c   11.04704500
_cell_angle_alpha   90.00000000
_cell_angle_beta   90.00000000
_cell_angle_gamma   90.00000000
_symmetry_Int_Tables_number   1
_chemical_formula_structural   NaLuSiO4
_chemical_formula_sum   'Na4 Lu4 Si4 O16'
_cell_volume   360.37547251
_cell_formula_units_Z   4
loop_
 _symmetry_equiv_pos_site_id
 _symmetry_equiv_pos_as_xyz
  1  'x, y, z'
loop_
 _atom_site_type_symbol
 _atom_site_label
 _atom_site_symmetry_multiplicity
 _atom_site_fract_x
 _atom_site_fract_y
 _atom_site_fract_z
 _atom_site_occupancy
  Na  Na0  1  0.500000  0.500000  0.000000  1
  Na  Na1  1  0.500000  0.000000  0.000000  1
  Na  Na2  1  0.000000  0.000000  0.500000  1
  Na  Na3  1  0.000000  0.500000  0.500000  1
  Lu  Lu4  1  0.497960  0.250000  0.278902  1
  Lu  Lu5  1  0.502040  0.750000  0.721098  1
  Lu  Lu6  1  0.002040  0.250000  0.778902  1
  Lu  Lu7  1  0.997960  0.750000  0.221098  1
  Si  Si8  1  0.558894  0.750000  0.399083  1
  Si  Si9  1  0.941106  0.750000  0.899083  1
  Si  Si10  1  0.441106  0.250000  0.600917  1
  Si  Si11  1  0.058894  0.250000  0.100917  1
  O  O12  1  0.744500  0.250000  0.115170  1
  O  O13  1  0.255500  0.750000  0.884830  1
  O  O14  1  0.755500  0.250000  0.615170  1
  O  O15  1  0.244500  0.750000  0.384830  1
  O  O16  1  0.838563  0.750000  0.039600  1
  O  O17  1  0.161437  0.250000  0.960400  1
  O  O18  1  0.661437  0.750000  0.539600  1
  O  O19  1  0.338563  0.250000  0.460400  1
  O  O20  1  0.702376  0.549188  0.326227  1
  O  O21  1  0.297624  0.049188  0.673773  1
  O  O22  1  0.797624  0.549188  0.826227  1
  O  O23  1  0.202376  0.049188  0.173773  1
  O  O24  1  0.202376  0.450812  0.173773  1
  O  O25  1  0.797624  0.950812  0.826227  1
  O  O26  1  0.297624  0.450812  0.673773  1
  O  O27  1  0.702376  0.950812  0.326227  1
