# generated using pymatgen
data_YErCuSi3
_symmetry_space_group_name_H-M   'P 1'
_cell_length_a   7.99527723
_cell_length_b   7.98202846
_cell_length_c   5.67328195
_cell_angle_alpha   69.32656445
_cell_angle_beta   69.11623517
_cell_angle_gamma   41.59705993
_symmetry_Int_Tables_number   1
_chemical_formula_structural   YErCuSi3
_chemical_formula_sum   'Y2 Er2 Cu2 Si6'
_cell_volume   222.38438980
_cell_formula_units_Z   2
loop_
 _symmetry_equiv_pos_site_id
 _symmetry_equiv_pos_as_xyz
  1  'x, y, z'
loop_
 _atom_site_type_symbol
 _atom_site_label
 _atom_site_symmetry_multiplicity
 _atom_site_fract_x
 _atom_site_fract_y
 _atom_site_fract_z
 _atom_site_occupancy
  Y  Y0  1  0.750439  0.749561  0.750439  1
  Y  Y1  1  0.756158  0.243842  0.756159  1
  Er  Er2  1  0.244048  0.755951  0.244050  1
  Er  Er3  1  0.250099  0.249901  0.250098  1
  Cu  Cu4  1  0.664760  0.668116  0.331345  1
  Cu  Cu5  1  0.331344  0.335778  0.664762  1
  Si  Si6  1  0.832238  0.829892  0.170147  1
  Si  Si7  1  0.830425  0.338706  0.171399  1
  Si  Si8  1  0.659570  0.171164  0.339369  1
  Si  Si9  1  0.339367  0.829897  0.659571  1
  Si  Si10  1  0.171397  0.659472  0.830426  1
  Si  Si11  1  0.170146  0.167723  0.832240  1
