# generated using pymatgen
data_NaPrSm5CoBr12
_symmetry_space_group_name_H-M   'P 1'
_cell_length_a   9.46906343
_cell_length_b   9.37393650
_cell_length_c   9.35994012
_cell_angle_alpha   106.80558714
_cell_angle_beta   106.95001332
_cell_angle_gamma   107.40931394
_symmetry_Int_Tables_number   1
_chemical_formula_structural   NaPrSm5CoBr12
_chemical_formula_sum   'Na1 Pr1 Sm5 Co1 Br12'
_cell_volume   690.85076447
_cell_formula_units_Z   1
loop_
 _symmetry_equiv_pos_site_id
 _symmetry_equiv_pos_as_xyz
  1  'x, y, z'
loop_
 _atom_site_type_symbol
 _atom_site_label
 _atom_site_symmetry_multiplicity
 _atom_site_fract_x
 _atom_site_fract_y
 _atom_site_fract_z
 _atom_site_occupancy
  Na  Na0  1  0.499900  0.500197  0.499636  1
  Pr  Pr1  1  0.892815  0.687171  0.971010  1
  Sm  Sm2  1  0.106192  0.308252  0.029071  1
  Sm  Sm3  1  0.322868  0.030911  0.111827  1
  Sm  Sm4  1  0.028982  0.106875  0.308197  1
  Sm  Sm5  1  0.971700  0.895426  0.692612  1
  Sm  Sm6  1  0.677080  0.968525  0.888281  1
  Co  Co7  1  0.000198  0.999912  0.000622  1
  Br  Br8  1  0.224556  0.683836  0.074839  1
  Br  Br9  1  0.450195  0.370852  0.149823  1
  Br  Br10  1  0.684511  0.073587  0.219546  1
  Br  Br11  1  0.928173  0.784336  0.322990  1
  Br  Br12  1  0.150944  0.452021  0.370590  1
  Br  Br13  1  0.369393  0.150688  0.451677  1
  Br  Br14  1  0.630827  0.850092  0.548780  1
  Br  Br15  1  0.848375  0.547969  0.622563  1
  Br  Br16  1  0.073751  0.220390  0.684097  1
  Br  Br17  1  0.315744  0.927132  0.780879  1
  Br  Br18  1  0.542892  0.628684  0.846526  1
  Br  Br19  1  0.780911  0.313146  0.926437  1
