# generated using pymatgen
data_AcSm11(SiI3)4
_symmetry_space_group_name_H-M   'P 1'
_cell_length_a   10.73152889
_cell_length_b   10.73152906
_cell_length_c   10.79354954
_cell_angle_alpha   109.37896145
_cell_angle_beta   109.37896751
_cell_angle_gamma   109.57504701
_symmetry_Int_Tables_number   1
_chemical_formula_structural   AcSm11(SiI3)4
_chemical_formula_sum   'Ac1 Sm11 Si4 I12'
_cell_volume   957.84676450
_cell_formula_units_Z   1
loop_
 _symmetry_equiv_pos_site_id
 _symmetry_equiv_pos_as_xyz
  1  'x, y, z'
loop_
 _atom_site_type_symbol
 _atom_site_label
 _atom_site_symmetry_multiplicity
 _atom_site_fract_x
 _atom_site_fract_y
 _atom_site_fract_z
 _atom_site_occupancy
  Ac  Ac0  1  0.238735  0.261265  0.750000  1
  Sm  Sm1  1  0.462769  0.482778  0.233795  1
  Sm  Sm2  1  0.747487  0.231069  0.267217  1
  Sm  Sm3  1  0.747010  0.017805  0.478930  1
  Sm  Sm4  1  0.230573  0.462623  0.478423  1
  Sm  Sm5  1  0.268931  0.752513  0.232783  1
  Sm  Sm6  1  0.037377  0.269427  0.021577  1
  Sm  Sm7  1  0.017222  0.037231  0.266205  1
  Sm  Sm8  1  0.482195  0.752990  0.021070  1
  Sm  Sm9  1  0.480692  0.231674  0.461021  1
  Sm  Sm10  1  0.018905  0.481095  0.750000  1
  Sm  Sm11  1  0.268326  0.019308  0.038979  1
  Si  Si12  1  0.249862  0.250138  0.250000  1
  Si  Si13  1  0.499310  0.000690  0.250000  1
  Si  Si14  1  0.995807  0.249872  0.495088  1
  Si  Si15  1  0.250128  0.504193  0.004912  1
  I  I16  1  0.250518  0.756911  0.745135  1
  I  I17  1  0.523166  0.519359  0.754264  1
  I  I18  1  0.987881  0.743560  0.994278  1
  I  I19  1  0.743089  0.249482  0.754865  1
  I  I20  1  0.980641  0.976834  0.745736  1
  I  I21  1  0.248292  0.983232  0.495856  1
  I  I22  1  0.756440  0.512119  0.505722  1
  I  I23  1  0.516768  0.251708  0.004144  1
  I  I24  1  0.755510  0.744490  0.250000  1
  I  I25  1  0.743494  0.994912  0.988641  1
  I  I26  1  0.993780  0.506220  0.250000  1
  I  I27  1  0.505088  0.756506  0.511359  1
