# generated using pymatgen
data_CeMgBe26
_symmetry_space_group_name_H-M   'P 1'
_cell_length_a   7.18976186
_cell_length_b   7.18976907
_cell_length_c   7.18974500
_cell_angle_alpha   60.00010614
_cell_angle_beta   60.00007299
_cell_angle_gamma   59.99998891
_symmetry_Int_Tables_number   1
_chemical_formula_structural   CeMgBe26
_chemical_formula_sum   'Ce1 Mg1 Be26'
_cell_volume   262.80189261
_cell_formula_units_Z   1
loop_
 _symmetry_equiv_pos_site_id
 _symmetry_equiv_pos_as_xyz
  1  'x, y, z'
loop_
 _atom_site_type_symbol
 _atom_site_label
 _atom_site_symmetry_multiplicity
 _atom_site_fract_x
 _atom_site_fract_y
 _atom_site_fract_z
 _atom_site_occupancy
  Ce  Ce0  1  0.000000  0.000000  0.999999  1
  Mg  Mg1  1  0.500000  0.500000  0.500000  1
  Be  Be2  1  0.540996  0.312932  0.959596  1
  Be  Be3  1  0.959596  0.186476  0.540997  1
  Be  Be4  1  0.312932  0.540996  0.186477  1
  Be  Be5  1  0.186477  0.959596  0.312932  1
  Be  Be6  1  0.040404  0.687067  0.459005  1
  Be  Be7  1  0.459005  0.813523  0.040404  1
  Be  Be8  1  0.687069  0.040404  0.813523  1
  Be  Be9  1  0.813523  0.459005  0.687067  1
  Be  Be10  1  0.959596  0.540995  0.312932  1
  Be  Be11  1  0.540996  0.959596  0.186477  1
  Be  Be12  1  0.186477  0.312932  0.540995  1
  Be  Be13  1  0.312932  0.186477  0.959595  1
  Be  Be14  1  0.459004  0.040404  0.687069  1
  Be  Be15  1  0.040404  0.459005  0.813523  1
  Be  Be16  1  0.813523  0.687068  0.040404  1
  Be  Be17  1  0.687068  0.813523  0.459004  1
  Be  Be18  1  0.312931  0.959596  0.540996  1
  Be  Be19  1  0.186477  0.540995  0.959595  1
  Be  Be20  1  0.540995  0.186477  0.312932  1
  Be  Be21  1  0.959596  0.312933  0.186477  1
  Be  Be22  1  0.687068  0.459004  0.040404  1
  Be  Be23  1  0.813523  0.040404  0.459004  1
  Be  Be24  1  0.040404  0.813524  0.687069  1
  Be  Be25  1  0.459004  0.687068  0.813524  1
  Be  Be26  1  0.250000  0.250000  0.250000  1
  Be  Be27  1  0.750000  0.750000  0.750000  1
