# generated using pymatgen
data_Pr3Th5(Si3Pd)4
_symmetry_space_group_name_H-M   'P 1'
_cell_length_a   8.26578000
_cell_length_b   8.27065370
_cell_length_c   8.54141700
_cell_angle_alpha   90.00000000
_cell_angle_beta   90.00000000
_cell_angle_gamma   119.98051680
_symmetry_Int_Tables_number   1
_chemical_formula_structural   Pr3Th5(Si3Pd)4
_chemical_formula_sum   'Pr3 Th5 Si12 Pd4'
_cell_volume   505.78909958
_cell_formula_units_Z   1
loop_
 _symmetry_equiv_pos_site_id
 _symmetry_equiv_pos_as_xyz
  1  'x, y, z'
loop_
 _atom_site_type_symbol
 _atom_site_label
 _atom_site_symmetry_multiplicity
 _atom_site_fract_x
 _atom_site_fract_y
 _atom_site_fract_z
 _atom_site_occupancy
  Pr  Pr0  1  0.500526  0.001052  0.250000  1
  Pr  Pr1  1  0.000190  0.000381  0.750000  1
  Pr  Pr2  1  0.000229  0.000458  0.250000  1
  Th  Th3  1  0.499213  0.499897  0.750000  1
  Th  Th4  1  0.499804  0.499256  0.250000  1
  Th  Th5  1  0.000684  0.499897  0.750000  1
  Th  Th6  1  0.999452  0.499256  0.250000  1
  Th  Th7  1  0.499645  0.999289  0.750000  1
  Si  Si8  1  0.834381  0.166629  0.998770  1
  Si  Si9  1  0.165707  0.833448  0.999313  1
  Si  Si10  1  0.332248  0.166629  0.998770  1
  Si  Si11  1  0.165707  0.833448  0.500687  1
  Si  Si12  1  0.667741  0.833448  0.999313  1
  Si  Si13  1  0.834381  0.166629  0.501230  1
  Si  Si14  1  0.834261  0.668522  0.999650  1
  Si  Si15  1  0.667741  0.833448  0.500687  1
  Si  Si16  1  0.165756  0.331512  0.999904  1
  Si  Si17  1  0.332248  0.166629  0.501230  1
  Si  Si18  1  0.165756  0.331512  0.500096  1
  Si  Si19  1  0.834261  0.668522  0.500350  1
  Pd  Pd20  1  0.667132  0.334262  0.996322  1
  Pd  Pd21  1  0.332903  0.665808  0.000075  1
  Pd  Pd22  1  0.332903  0.665808  0.499925  1
  Pd  Pd23  1  0.667132  0.334262  0.503678  1
