# generated using pymatgen
data_Y7Er13Si15As
_symmetry_space_group_name_H-M   'P 1'
_cell_length_a   7.45416807
_cell_length_b   7.61245863
_cell_length_c   14.52815075
_cell_angle_alpha   90.10804628
_cell_angle_beta   93.65410373
_cell_angle_gamma   90.04502095
_symmetry_Int_Tables_number   1
_chemical_formula_structural   Y7Er13Si15As
_chemical_formula_sum   'Y7 Er13 Si15 As1'
_cell_volume   822.71551883
_cell_formula_units_Z   1
loop_
 _symmetry_equiv_pos_site_id
 _symmetry_equiv_pos_as_xyz
  1  'x, y, z'
loop_
 _atom_site_type_symbol
 _atom_site_label
 _atom_site_symmetry_multiplicity
 _atom_site_fract_x
 _atom_site_fract_y
 _atom_site_fract_z
 _atom_site_occupancy
  Y  Y0  1  0.002922  0.817153  0.599196  1
  Y  Y1  1  0.499157  0.677138  0.598623  1
  Y  Y2  1  0.322058  0.823811  0.122220  1
  Y  Y3  1  0.822083  0.676187  0.122876  1
  Y  Y4  1  0.834519  0.505626  0.745780  1
  Y  Y5  1  0.472610  0.316077  0.101099  1
  Y  Y6  1  0.027686  0.816327  0.898985  1
  Er  Er7  1  0.496653  0.320897  0.401370  1
  Er  Er8  1  0.664830  0.005952  0.252250  1
  Er  Er9  1  0.529045  0.686420  0.897860  1
  Er  Er10  1  0.676804  0.176708  0.877413  1
  Er  Er11  1  0.150110  0.333155  0.621129  1
  Er  Er12  1  0.178075  0.323566  0.877954  1
  Er  Er13  1  0.850636  0.664603  0.378581  1
  Er  Er14  1  0.348586  0.833389  0.380634  1
  Er  Er15  1  0.334896  0.995021  0.745248  1
  Er  Er16  1  0.648344  0.166309  0.619138  1
  Er  Er17  1  0.166247  0.493744  0.254128  1
  Er  Er18  1  0.971508  0.185166  0.102120  1
  Er  Er19  1  0.003356  0.182120  0.400991  1
  Si  Si20  1  0.220574  0.629350  0.752076  1
  Si  Si21  1  0.295480  0.036971  0.542179  1
  Si  Si22  1  0.038336  0.892956  0.250261  1
  Si  Si23  1  0.717153  0.872673  0.751171  1
  Si  Si24  1  0.282570  0.130447  0.250240  1
  Si  Si25  1  0.802496  0.462018  0.540465  1
  Si  Si26  1  0.460909  0.390438  0.752400  1
  Si  Si27  1  0.196135  0.534749  0.457370  1
  Si  Si28  1  0.142135  0.525686  0.042970  1
  Si  Si29  1  0.960333  0.109696  0.751666  1
  Si  Si30  1  0.783113  0.367745  0.249812  1
  Si  Si31  1  0.357398  0.028695  0.956679  1
  Si  Si32  1  0.854855  0.470614  0.957425  1
  Si  Si33  1  0.645875  0.973134  0.041692  1
  Si  Si34  1  0.538042  0.608989  0.250027  1
  As  As35  1  0.704473  0.966468  0.455977  1
