# generated using pymatgen
data_Ti4B2MoS
_symmetry_space_group_name_H-M   'P 1'
_cell_length_a   7.07109374
_cell_length_b   7.07117253
_cell_length_c   7.07045412
_cell_angle_alpha   129.85865696
_cell_angle_beta   129.85826382
_cell_angle_gamma   73.63645072
_symmetry_Int_Tables_number   1
_chemical_formula_structural   Ti4B2MoS
_chemical_formula_sum   'Ti8 B4 Mo2 S2'
_cell_volume   203.26487741
_cell_formula_units_Z   2
loop_
 _symmetry_equiv_pos_site_id
 _symmetry_equiv_pos_as_xyz
  1  'x, y, z'
loop_
 _atom_site_type_symbol
 _atom_site_label
 _atom_site_symmetry_multiplicity
 _atom_site_fract_x
 _atom_site_fract_y
 _atom_site_fract_z
 _atom_site_occupancy
  Ti  Ti0  1  0.809783  0.961805  0.499996  1
  Ti  Ti1  1  0.309787  0.809786  0.847965  1
  Ti  Ti2  1  0.190217  0.038195  0.500004  1
  Ti  Ti3  1  0.538193  0.690218  0.500002  1
  Ti  Ti4  1  0.038202  0.538201  0.848011  1
  Ti  Ti5  1  0.690213  0.190214  0.152035  1
  Ti  Ti6  1  0.961798  0.461799  0.151989  1
  Ti  Ti7  1  0.461807  0.309782  0.499998  1
  B  B8  1  0.390355  0.890355  0.280711  1
  B  B9  1  0.890344  0.609657  0.500000  1
  B  B10  1  0.609645  0.109645  0.719289  1
  B  B11  1  0.109656  0.390343  0.500000  1
  Mo  Mo12  1  0.000000  0.000000  0.000000  1
  Mo  Mo13  1  0.500000  0.500000  0.000000  1
  S  S14  1  0.750019  0.749984  0.000002  1
  S  S15  1  0.249981  0.250016  0.999998  1
