# generated using pymatgen
data_OsCl3O
_symmetry_space_group_name_H-M   'P 1'
_cell_length_a   11.87202300
_cell_length_b   11.87202300
_cell_length_c   3.69903900
_cell_angle_alpha   90.00000000
_cell_angle_beta   90.00000000
_cell_angle_gamma   90.00000000
_symmetry_Int_Tables_number   1
_chemical_formula_structural   OsCl3O
_chemical_formula_sum   'Os4 Cl12 O4'
_cell_volume   521.36079334
_cell_formula_units_Z   4
loop_
 _symmetry_equiv_pos_site_id
 _symmetry_equiv_pos_as_xyz
  1  'x, y, z'
loop_
 _atom_site_type_symbol
 _atom_site_label
 _atom_site_symmetry_multiplicity
 _atom_site_fract_x
 _atom_site_fract_y
 _atom_site_fract_z
 _atom_site_occupancy
  Os  Os0  1  0.109939  0.109939  0.000000  1
  Os  Os1  1  0.609939  0.390061  0.500000  1
  Os  Os2  1  0.890061  0.890061  0.000000  1
  Os  Os3  1  0.390061  0.609939  0.500000  1
  Cl  Cl4  1  0.897533  0.697204  0.000000  1
  Cl  Cl5  1  0.596660  0.596660  0.500000  1
  Cl  Cl6  1  0.802796  0.397533  0.500000  1
  Cl  Cl7  1  0.096660  0.903340  0.000000  1
  Cl  Cl8  1  0.403340  0.403340  0.500000  1
  Cl  Cl9  1  0.302796  0.102467  0.000000  1
  Cl  Cl10  1  0.102467  0.302796  0.000000  1
  Cl  Cl11  1  0.397533  0.802796  0.500000  1
  Cl  Cl12  1  0.197204  0.602467  0.500000  1
  Cl  Cl13  1  0.602467  0.197204  0.500000  1
  Cl  Cl14  1  0.697204  0.897533  0.000000  1
  Cl  Cl15  1  0.903340  0.096660  0.000000  1
  O  O16  1  0.606645  0.393355  0.000000  1
  O  O17  1  0.106645  0.106645  0.500000  1
  O  O18  1  0.893355  0.893355  0.500000  1
  O  O19  1  0.393355  0.606645  0.000000  1
