# generated using pymatgen
data_Hf5(Re3Tc5)3
_symmetry_space_group_name_H-M   'P 1'
_cell_length_a   8.41561697
_cell_length_b   8.45320996
_cell_length_c   8.45321044
_cell_angle_alpha   109.56113485
_cell_angle_beta   109.38114992
_cell_angle_gamma   109.38116336
_symmetry_Int_Tables_number   1
_chemical_formula_structural   Hf5(Re3Tc5)3
_chemical_formula_sum   'Hf5 Re9 Tc15'
_cell_volume   463.43509600
_cell_formula_units_Z   1
loop_
 _symmetry_equiv_pos_site_id
 _symmetry_equiv_pos_as_xyz
  1  'x, y, z'
loop_
 _atom_site_type_symbol
 _atom_site_label
 _atom_site_symmetry_multiplicity
 _atom_site_fract_x
 _atom_site_fract_y
 _atom_site_fract_z
 _atom_site_occupancy
  Hf  Hf0  1  0.999477  0.000000  0.000000  1
  Hf  Hf1  1  0.623386  0.000000  0.000000  1
  Hf  Hf2  1  0.000881  0.625864  0.000000  1
  Hf  Hf3  1  0.000881  0.000000  0.625864  1
  Hf  Hf4  1  0.375017  0.374136  0.374136  1
  Re  Re5  1  0.196234  0.374090  0.000000  1
  Re  Re6  1  0.999064  0.374955  0.192821  1
  Re  Re7  1  0.806243  0.182133  0.807179  1
  Re  Re8  1  0.806243  0.807179  0.182133  1
  Re  Re9  1  0.999064  0.192821  0.374955  1
  Re  Re10  1  0.196234  0.000000  0.374090  1
  Re  Re11  1  0.624110  0.625045  0.817867  1
  Re  Re12  1  0.822145  0.625910  0.625910  1
  Re  Re13  1  0.624110  0.817867  0.625045  1
  Tc  Tc14  1  0.397066  0.674775  0.000000  1
  Tc  Tc15  1  0.722293  0.325225  0.325225  1
  Tc  Tc16  1  0.397066  0.000000  0.674775  1
  Tc  Tc17  1  0.674567  0.396771  0.000000  1
  Tc  Tc18  1  0.998846  0.394230  0.676724  1
  Tc  Tc19  1  0.322122  0.717507  0.323276  1
  Tc  Tc20  1  0.322122  0.323276  0.717507  1
  Tc  Tc21  1  0.998846  0.676724  0.394230  1
  Tc  Tc22  1  0.674567  0.000000  0.396771  1
  Tc  Tc23  1  0.604616  0.605770  0.282493  1
  Tc  Tc24  1  0.277795  0.603229  0.603229  1
  Tc  Tc25  1  0.604616  0.282493  0.605770  1
  Tc  Tc26  1  0.375180  0.193152  0.000000  1
  Tc  Tc27  1  0.182028  0.806848  0.806848  1
  Tc  Tc28  1  0.375180  0.000000  0.193152  1
