# generated using pymatgen
data_Eu4HoLuTa2O12
_symmetry_space_group_name_H-M   'P 1'
_cell_length_a   5.75035790
_cell_length_b   5.91100971
_cell_length_c   8.21067529
_cell_angle_alpha   90.04267752
_cell_angle_beta   89.81959084
_cell_angle_gamma   89.96357834
_symmetry_Int_Tables_number   1
_chemical_formula_structural   Eu4HoLuTa2O12
_chemical_formula_sum   'Eu4 Ho1 Lu1 Ta2 O12'
_cell_volume   279.08279530
_cell_formula_units_Z   1
loop_
 _symmetry_equiv_pos_site_id
 _symmetry_equiv_pos_as_xyz
  1  'x, y, z'
loop_
 _atom_site_type_symbol
 _atom_site_label
 _atom_site_symmetry_multiplicity
 _atom_site_fract_x
 _atom_site_fract_y
 _atom_site_fract_z
 _atom_site_occupancy
  Eu  Eu0  1  0.513644  0.450159  0.247928  1
  Eu  Eu1  1  0.986140  0.950916  0.249570  1
  Eu  Eu2  1  0.013856  0.049098  0.750461  1
  Eu  Eu3  1  0.486367  0.549826  0.752066  1
  Ho  Ho4  1  0.000002  0.500002  0.500001  1
  Lu  Lu5  1  0.500010  0.000025  0.000007  1
  Ta  Ta6  1  0.999993  0.500010  0.999997  1
  Ta  Ta7  1  0.499998  0.999993  0.500008  1
  O  O8  1  0.717919  0.698277  0.046730  1
  O  O9  1  0.805408  0.219676  0.052335  1
  O  O10  1  0.095270  0.531200  0.235022  1
  O  O11  1  0.406598  0.030541  0.261324  1
  O  O12  1  0.689793  0.721003  0.446476  1
  O  O13  1  0.780719  0.193641  0.452059  1
  O  O14  1  0.219281  0.806353  0.547935  1
  O  O15  1  0.310225  0.278987  0.553533  1
  O  O16  1  0.593396  0.969432  0.738672  1
  O  O17  1  0.904717  0.468808  0.764972  1
  O  O18  1  0.194595  0.780331  0.947655  1
  O  O19  1  0.282074  0.301727  0.953251  1
