# generated using pymatgen
data_Ho5Er5(SnSb)3
_symmetry_space_group_name_H-M   'P 1'
_cell_length_a   8.92151700
_cell_length_b   8.91223252
_cell_length_c   6.38963900
_cell_angle_alpha   90.00000000
_cell_angle_beta   90.00000000
_cell_angle_gamma   120.03446367
_symmetry_Int_Tables_number   1
_chemical_formula_structural   Ho5Er5(SnSb)3
_chemical_formula_sum   'Ho5 Er5 Sn3 Sb3'
_cell_volume   439.82634974
_cell_formula_units_Z   1
loop_
 _symmetry_equiv_pos_site_id
 _symmetry_equiv_pos_as_xyz
  1  'x, y, z'
loop_
 _atom_site_type_symbol
 _atom_site_label
 _atom_site_symmetry_multiplicity
 _atom_site_fract_x
 _atom_site_fract_y
 _atom_site_fract_z
 _atom_site_occupancy
  Ho  Ho0  1  0.001340  0.758676  0.750000  1
  Ho  Ho1  1  0.001494  0.243328  0.250000  1
  Ho  Ho2  1  0.758166  0.756672  0.250000  1
  Ho  Ho3  1  0.756883  0.000000  0.750000  1
  Ho  Ho4  1  0.242664  0.241324  0.750000  1
  Er  Er5  1  0.240040  0.000000  0.250000  1
  Er  Er6  1  0.332440  0.666399  0.500210  1
  Er  Er7  1  0.666042  0.333601  0.999790  1
  Er  Er8  1  0.666042  0.333601  0.500210  1
  Er  Er9  1  0.332440  0.666399  0.999790  1
  Sn  Sn10  1  0.393424  0.000000  0.750000  1
  Sn  Sn11  1  0.392104  0.391678  0.250000  1
  Sn  Sn12  1  0.000427  0.608322  0.250000  1
  Sb  Sb13  1  0.999105  0.390365  0.750000  1
  Sb  Sb14  1  0.608741  0.609635  0.750000  1
  Sb  Sb15  1  0.608648  0.000000  0.250000  1
