# generated using pymatgen
data_Tb6Th2MgHgRh2
_symmetry_space_group_name_H-M   'P 1'
_cell_length_a   9.76304387
_cell_length_b   9.76304410
_cell_length_c   9.79947900
_cell_angle_alpha   59.87647549
_cell_angle_beta   59.87647469
_cell_angle_gamma   59.93665142
_symmetry_Int_Tables_number   1
_chemical_formula_structural   Tb6Th2MgHgRh2
_chemical_formula_sum   'Tb12 Th4 Mg2 Hg2 Rh4'
_cell_volume   658.92732342
_cell_formula_units_Z   2
loop_
 _symmetry_equiv_pos_site_id
 _symmetry_equiv_pos_as_xyz
  1  'x, y, z'
loop_
 _atom_site_type_symbol
 _atom_site_label
 _atom_site_symmetry_multiplicity
 _atom_site_fract_x
 _atom_site_fract_y
 _atom_site_fract_z
 _atom_site_occupancy
  Tb  Tb0  1  0.812586  0.186143  0.188732  1
  Tb  Tb1  1  0.186143  0.812586  0.812539  1
  Tb  Tb2  1  0.186143  0.812586  0.188732  1
  Tb  Tb3  1  0.812586  0.186143  0.812539  1
  Tb  Tb4  1  0.187799  0.187799  0.812201  1
  Tb  Tb5  1  0.810649  0.810649  0.189351  1
  Tb  Tb6  1  0.933338  0.564312  0.565782  1
  Tb  Tb7  1  0.564312  0.933338  0.936568  1
  Tb  Tb8  1  0.564312  0.933338  0.565782  1
  Tb  Tb9  1  0.933338  0.564312  0.936568  1
  Tb  Tb10  1  0.564297  0.564297  0.935703  1
  Tb  Tb11  1  0.933558  0.933558  0.566442  1
  Th  Th12  1  0.349185  0.349185  0.348385  1
  Th  Th13  1  0.349185  0.349185  0.953246  1
  Th  Th14  1  0.351043  0.950310  0.349324  1
  Th  Th15  1  0.950310  0.351043  0.349324  1
  Mg  Mg16  1  0.580175  0.266460  0.576683  1
  Mg  Mg17  1  0.266460  0.580175  0.576683  1
  Hg  Hg18  1  0.583141  0.583141  0.588501  1
  Hg  Hg19  1  0.583141  0.583141  0.245218  1
  Rh  Rh20  1  0.144367  0.144367  0.145098  1
  Rh  Rh21  1  0.144367  0.144367  0.566165  1
  Rh  Rh22  1  0.144052  0.565511  0.145217  1
  Rh  Rh23  1  0.565511  0.144052  0.145217  1
