# generated using pymatgen
data_CaEr(Si2Ni9)2
_symmetry_space_group_name_H-M   'P 1'
_cell_length_a   7.54922049
_cell_length_b   7.54922023
_cell_length_c   7.54922002
_cell_angle_alpha   99.57494142
_cell_angle_beta   99.57494073
_cell_angle_gamma   131.86095174
_symmetry_Int_Tables_number   1
_chemical_formula_structural   CaEr(Si2Ni9)2
_chemical_formula_sum   'Ca1 Er1 Si4 Ni18'
_cell_volume   292.56444677
_cell_formula_units_Z   1
loop_
 _symmetry_equiv_pos_site_id
 _symmetry_equiv_pos_as_xyz
  1  'x, y, z'
loop_
 _atom_site_type_symbol
 _atom_site_label
 _atom_site_symmetry_multiplicity
 _atom_site_fract_x
 _atom_site_fract_y
 _atom_site_fract_z
 _atom_site_occupancy
  Ca  Ca0  1  0.500000  0.500000  0.000000  1
  Er  Er1  1  0.750000  0.250000  0.500000  1
  Si  Si2  1  0.624190  0.874074  0.750116  1
  Si  Si3  1  0.125926  0.375810  0.249884  1
  Si  Si4  1  0.125926  0.876042  0.750116  1
  Si  Si5  1  0.123958  0.874074  0.249884  1
  Ni  Ni6  1  0.250000  0.750000  0.500000  1
  Ni  Ni7  1  0.000000  0.000000  0.000000  1
  Ni  Ni8  1  0.687232  0.014378  0.079517  1
  Ni  Ni9  1  0.687232  0.607717  0.672853  1
  Ni  Ni10  1  0.261807  0.436026  0.578182  1
  Ni  Ni11  1  0.261807  0.683625  0.825781  1
  Ni  Ni12  1  0.934861  0.014378  0.327147  1
  Ni  Ni13  1  0.934861  0.607717  0.920483  1
  Ni  Ni14  1  0.857846  0.436026  0.174219  1
  Ni  Ni15  1  0.857846  0.683625  0.421818  1
  Ni  Ni16  1  0.563974  0.738193  0.421818  1
  Ni  Ni17  1  0.563974  0.142154  0.825781  1
  Ni  Ni18  1  0.985622  0.312768  0.920483  1
  Ni  Ni19  1  0.985622  0.065139  0.672853  1
  Ni  Ni20  1  0.316375  0.738193  0.174219  1
  Ni  Ni21  1  0.316375  0.142154  0.578182  1
  Ni  Ni22  1  0.392283  0.312768  0.327147  1
  Ni  Ni23  1  0.392283  0.065139  0.079517  1
