# generated using pymatgen
data_Ho5IrPt2
_symmetry_space_group_name_H-M   'P 1'
_cell_length_a   11.03264800
_cell_length_b   11.03264800
_cell_length_c   6.31887000
_cell_angle_alpha   90.00000000
_cell_angle_beta   90.00000000
_cell_angle_gamma   90.00000000
_symmetry_Int_Tables_number   1
_chemical_formula_structural   Ho5IrPt2
_chemical_formula_sum   'Ho20 Ir4 Pt8'
_cell_volume   769.12857152
_cell_formula_units_Z   4
loop_
 _symmetry_equiv_pos_site_id
 _symmetry_equiv_pos_as_xyz
  1  'x, y, z'
loop_
 _atom_site_type_symbol
 _atom_site_label
 _atom_site_symmetry_multiplicity
 _atom_site_fract_x
 _atom_site_fract_y
 _atom_site_fract_z
 _atom_site_occupancy
  Ho  Ho0  1  0.294397  0.087423  0.375128  1
  Ho  Ho1  1  0.294397  0.912577  0.875128  1
  Ho  Ho2  1  0.705603  0.087423  0.875128  1
  Ho  Ho3  1  0.705603  0.912577  0.375128  1
  Ho  Ho4  1  0.587423  0.794397  0.875128  1
  Ho  Ho5  1  0.587423  0.205603  0.375128  1
  Ho  Ho6  1  0.412577  0.794397  0.375128  1
  Ho  Ho7  1  0.412577  0.205603  0.875128  1
  Ho  Ho8  1  0.205603  0.412577  0.624872  1
  Ho  Ho9  1  0.205603  0.587423  0.124872  1
  Ho  Ho10  1  0.794397  0.412577  0.124872  1
  Ho  Ho11  1  0.794397  0.587423  0.624872  1
  Ho  Ho12  1  0.912577  0.705603  0.124872  1
  Ho  Ho13  1  0.912577  0.294397  0.624872  1
  Ho  Ho14  1  0.087423  0.705603  0.624872  1
  Ho  Ho15  1  0.087423  0.294397  0.124872  1
  Ho  Ho16  1  0.000000  0.000000  0.500000  1
  Ho  Ho17  1  0.000000  0.000000  0.000000  1
  Ho  Ho18  1  0.500000  0.500000  0.000000  1
  Ho  Ho19  1  0.500000  0.500000  0.500000  1
  Ir  Ir20  1  0.500000  0.000000  0.120639  1
  Ir  Ir21  1  0.500000  0.000000  0.620639  1
  Ir  Ir22  1  0.000000  0.500000  0.879361  1
  Ir  Ir23  1  0.000000  0.500000  0.379361  1
  Pt  Pt24  1  0.846223  0.153777  0.250000  1
  Pt  Pt25  1  0.846223  0.846223  0.750000  1
  Pt  Pt26  1  0.153777  0.153777  0.750000  1
  Pt  Pt27  1  0.153777  0.846223  0.250000  1
  Pt  Pt28  1  0.653777  0.346223  0.750000  1
  Pt  Pt29  1  0.653777  0.653777  0.250000  1
  Pt  Pt30  1  0.346223  0.346223  0.250000  1
  Pt  Pt31  1  0.346223  0.653777  0.750000  1
