# generated using pymatgen
data_Ta2Nb5(B4Ru3)2
_symmetry_space_group_name_H-M   'P 1'
_cell_length_a   9.61066921
_cell_length_b   9.61933019
_cell_length_c   3.12269500
_cell_angle_alpha   90.00000000
_cell_angle_beta   90.00000000
_cell_angle_gamma   119.94610934
_symmetry_Int_Tables_number   1
_chemical_formula_structural   Ta2Nb5(B4Ru3)2
_chemical_formula_sum   'Ta2 Nb5 B8 Ru6'
_cell_volume   250.14639236
_cell_formula_units_Z   1
loop_
 _symmetry_equiv_pos_site_id
 _symmetry_equiv_pos_as_xyz
  1  'x, y, z'
loop_
 _atom_site_type_symbol
 _atom_site_label
 _atom_site_symmetry_multiplicity
 _atom_site_fract_x
 _atom_site_fract_y
 _atom_site_fract_z
 _atom_site_occupancy
  Ta  Ta0  1  0.637039  0.913601  0.000000  1
  Ta  Ta1  1  0.086083  0.723267  0.000000  1
  Nb  Nb2  1  0.999477  0.999628  0.000000  1
  Nb  Nb3  1  0.725006  0.639124  0.000000  1
  Nb  Nb4  1  0.361208  0.086516  0.000000  1
  Nb  Nb5  1  0.914850  0.275794  0.000000  1
  Nb  Nb6  1  0.275583  0.360919  0.000000  1
  B  B7  1  0.666493  0.333577  0.000000  1
  B  B8  1  0.333248  0.666644  0.000000  1
  B  B9  1  0.152625  0.933806  0.500000  1
  B  B10  1  0.065368  0.217289  0.500000  1
  B  B11  1  0.781573  0.847030  0.500000  1
  B  B12  1  0.845473  0.064805  0.500000  1
  B  B13  1  0.935457  0.782190  0.500000  1
  B  B14  1  0.217092  0.152689  0.500000  1
  Ru  Ru15  1  0.360347  0.846551  0.500000  1
  Ru  Ru16  1  0.154119  0.515577  0.500000  1
  Ru  Ru17  1  0.486030  0.640442  0.500000  1
  Ru  Ru18  1  0.639791  0.152749  0.500000  1
  Ru  Ru19  1  0.847410  0.486300  0.500000  1
  Ru  Ru20  1  0.515731  0.361503  0.500000  1
