# generated using pymatgen
data_Ca2YbTeO6
_symmetry_space_group_name_H-M   'P 1'
_cell_length_a   5.82428100
_cell_length_b   5.61113988
_cell_length_c   9.84478434
_cell_angle_alpha   55.21174641
_cell_angle_beta   90.00000000
_cell_angle_gamma   90.00000000
_symmetry_Int_Tables_number   1
_chemical_formula_structural   Ca2YbTeO6
_chemical_formula_sum   'Ca4 Yb2 Te2 O12'
_cell_volume   264.23087880
_cell_formula_units_Z   2
loop_
 _symmetry_equiv_pos_site_id
 _symmetry_equiv_pos_as_xyz
  1  'x, y, z'
loop_
 _atom_site_type_symbol
 _atom_site_label
 _atom_site_symmetry_multiplicity
 _atom_site_fract_x
 _atom_site_fract_y
 _atom_site_fract_z
 _atom_site_occupancy
  Ca  Ca0  1  0.053810  0.733492  0.752741  1
  Ca  Ca1  1  0.946190  0.266508  0.247259  1
  Ca  Ca2  1  0.553810  0.266508  0.747259  1
  Ca  Ca3  1  0.446190  0.733492  0.252741  1
  Yb  Yb4  1  0.500000  0.500000  0.000000  1
  Yb  Yb5  1  0.000000  0.500000  0.500000  1
  Te  Te6  1  0.500000  0.000000  0.500000  1
  Te  Te7  1  0.000000  0.000000  0.000000  1
  O  O8  1  0.320420  0.665408  0.551281  1
  O  O9  1  0.679580  0.334592  0.448719  1
  O  O10  1  0.820420  0.334592  0.948719  1
  O  O11  1  0.179580  0.665408  0.051281  1
  O  O12  1  0.452113  0.881248  0.727666  1
  O  O13  1  0.547887  0.118752  0.272334  1
  O  O14  1  0.952113  0.118752  0.772334  1
  O  O15  1  0.047887  0.881248  0.227666  1
  O  O16  1  0.779495  0.764266  0.563938  1
  O  O17  1  0.220505  0.235734  0.436062  1
  O  O18  1  0.279495  0.235734  0.936062  1
  O  O19  1  0.720505  0.764266  0.063938  1
