# generated using pymatgen
data_Pr19Er(GaBi2)4
_symmetry_space_group_name_H-M   'P 1'
_cell_length_a   8.35754204
_cell_length_b   9.67158200
_cell_length_c   12.55285097
_cell_angle_alpha   90.00000000
_cell_angle_beta   89.38781942
_cell_angle_gamma   90.00000000
_symmetry_Int_Tables_number   1
_chemical_formula_structural   Pr19Er(GaBi2)4
_chemical_formula_sum   'Pr19 Er1 Ga4 Bi8'
_cell_volume   1014.59722644
_cell_formula_units_Z   1
loop_
 _symmetry_equiv_pos_site_id
 _symmetry_equiv_pos_as_xyz
  1  'x, y, z'
loop_
 _atom_site_type_symbol
 _atom_site_label
 _atom_site_symmetry_multiplicity
 _atom_site_fract_x
 _atom_site_fract_y
 _atom_site_fract_z
 _atom_site_occupancy
  Pr  Pr0  1  0.667853  0.750000  0.713882  1
  Pr  Pr1  1  0.328358  0.250000  0.285031  1
  Pr  Pr2  1  0.166878  0.250000  0.783534  1
  Pr  Pr3  1  0.830529  0.750000  0.215672  1
  Pr  Pr4  1  0.143121  0.750000  0.787330  1
  Pr  Pr5  1  0.858029  0.250000  0.211740  1
  Pr  Pr6  1  0.644663  0.250000  0.708679  1
  Pr  Pr7  1  0.358111  0.750000  0.293325  1
  Pr  Pr8  1  0.525167  0.750000  0.003623  1
  Pr  Pr9  1  0.472750  0.250000  0.997069  1
  Pr  Pr10  1  0.029634  0.250000  0.497846  1
  Pr  Pr11  1  0.811302  0.458111  0.939284  1
  Pr  Pr12  1  0.187550  0.543311  0.060573  1
  Pr  Pr13  1  0.315948  0.547534  0.561891  1
  Pr  Pr14  1  0.187550  0.956689  0.060573  1
  Pr  Pr15  1  0.686479  0.454413  0.439412  1
  Pr  Pr16  1  0.811302  0.041889  0.939284  1
  Pr  Pr17  1  0.686479  0.045587  0.439412  1
  Pr  Pr18  1  0.315948  0.952466  0.561891  1
  Er  Er19  1  0.966683  0.750000  0.500951  1
  Ga  Ga20  1  0.916310  0.750000  0.975269  1
  Ga  Ga21  1  0.083737  0.250000  0.024493  1
  Ga  Ga22  1  0.409802  0.250000  0.525599  1
  Ga  Ga23  1  0.598362  0.750000  0.472582  1
  Bi  Bi24  1  0.931940  0.004479  0.671669  1
  Bi  Bi25  1  0.067084  0.986738  0.328110  1
  Bi  Bi26  1  0.430464  0.992043  0.824794  1
  Bi  Bi27  1  0.067084  0.513262  0.328110  1
  Bi  Bi28  1  0.569240  0.008779  0.175955  1
  Bi  Bi29  1  0.931940  0.495521  0.671669  1
  Bi  Bi30  1  0.569240  0.491221  0.175955  1
  Bi  Bi31  1  0.430464  0.507957  0.824794  1
