# generated using pymatgen
data_SrZnP3N5O2
_symmetry_space_group_name_H-M   'P 1'
_cell_length_a   6.30953900
_cell_length_b   7.31122207
_cell_length_c   15.25548525
_cell_angle_alpha   58.09413099
_cell_angle_beta   90.00000000
_cell_angle_gamma   90.00000000
_symmetry_Int_Tables_number   1
_chemical_formula_structural   SrZnP3N5O2
_chemical_formula_sum   'Sr4 Zn4 P12 N20 O8'
_cell_volume   597.41915687
_cell_formula_units_Z   4
loop_
 _symmetry_equiv_pos_site_id
 _symmetry_equiv_pos_as_xyz
  1  'x, y, z'
loop_
 _atom_site_type_symbol
 _atom_site_label
 _atom_site_symmetry_multiplicity
 _atom_site_fract_x
 _atom_site_fract_y
 _atom_site_fract_z
 _atom_site_occupancy
  Sr  Sr0  1  0.738212  0.496941  0.641654  1
  Sr  Sr1  1  0.238212  0.503059  0.858346  1
  Sr  Sr2  1  0.261788  0.503059  0.358346  1
  Sr  Sr3  1  0.761788  0.496941  0.141654  1
  Zn  Zn4  1  0.499535  0.958566  0.888797  1
  Zn  Zn5  1  0.999535  0.041434  0.611203  1
  Zn  Zn6  1  0.500465  0.041434  0.111203  1
  Zn  Zn7  1  0.000465  0.958566  0.388797  1
  P  P8  1  0.000487  0.945669  0.884569  1
  P  P9  1  0.500487  0.054331  0.615431  1
  P  P10  1  0.999513  0.054331  0.115431  1
  P  P11  1  0.499513  0.945669  0.384569  1
  P  P12  1  0.274083  0.736675  0.588062  1
  P  P13  1  0.774083  0.263325  0.911938  1
  P  P14  1  0.725917  0.263325  0.411938  1
  P  P15  1  0.225917  0.736675  0.088062  1
  P  P16  1  0.750653  0.735581  0.795145  1
  P  P17  1  0.250653  0.264419  0.704855  1
  P  P18  1  0.249347  0.264419  0.204855  1
  P  P19  1  0.749347  0.735581  0.295145  1
  N  N20  1  0.286751  0.904481  0.631292  1
  N  N21  1  0.786751  0.095519  0.868708  1
  N  N22  1  0.713249  0.095519  0.368708  1
  N  N23  1  0.213249  0.904481  0.131292  1
  N  N24  1  0.715179  0.901585  0.667586  1
  N  N25  1  0.215179  0.098415  0.832414  1
  N  N26  1  0.284821  0.098415  0.332414  1
  N  N27  1  0.784821  0.901585  0.167586  1
  N  N28  1  0.958402  0.808379  0.830681  1
  N  N29  1  0.458402  0.191621  0.669319  1
  N  N30  1  0.041598  0.191621  0.169319  1
  N  N31  1  0.541598  0.808379  0.330681  1
  N  N32  1  0.804261  0.503026  0.807988  1
  N  N33  1  0.304261  0.496974  0.692012  1
  N  N34  1  0.195739  0.496974  0.192012  1
  N  N35  1  0.695739  0.503026  0.307988  1
  N  N36  1  0.542468  0.225266  0.493253  1
  N  N37  1  0.042468  0.774734  0.006747  1
  N  N38  1  0.457532  0.774734  0.506747  1
  N  N39  1  0.957532  0.225266  0.993253  1
  O  O40  1  0.045543  0.760018  0.543939  1
  O  O41  1  0.545543  0.239982  0.956061  1
  O  O42  1  0.954457  0.239982  0.456061  1
  O  O43  1  0.454457  0.760018  0.043939  1
  O  O44  1  0.546500  0.725702  0.854823  1
  O  O45  1  0.046500  0.274298  0.645177  1
  O  O46  1  0.453500  0.274298  0.145177  1
  O  O47  1  0.953500  0.725702  0.354823  1
