# generated using pymatgen
data_Tm6Si12Ni17Mo
_symmetry_space_group_name_H-M   'P 1'
_cell_length_a   3.80504400
_cell_length_b   10.65111200
_cell_length_c   12.56692600
_cell_angle_alpha   90.00000000
_cell_angle_beta   90.00000000
_cell_angle_gamma   90.00000000
_symmetry_Int_Tables_number   1
_chemical_formula_structural   Tm6Si12Ni17Mo
_chemical_formula_sum   'Tm6 Si12 Ni17 Mo1'
_cell_volume   509.31174618
_cell_formula_units_Z   1
loop_
 _symmetry_equiv_pos_site_id
 _symmetry_equiv_pos_as_xyz
  1  'x, y, z'
loop_
 _atom_site_type_symbol
 _atom_site_label
 _atom_site_symmetry_multiplicity
 _atom_site_fract_x
 _atom_site_fract_y
 _atom_site_fract_z
 _atom_site_occupancy
  Tm  Tm0  1  0.000000  0.500000  0.522593  1
  Tm  Tm1  1  0.500000  0.000000  0.479467  1
  Tm  Tm2  1  0.500000  0.815072  0.209212  1
  Tm  Tm3  1  0.500000  0.184928  0.209212  1
  Tm  Tm4  1  0.000000  0.686684  0.795703  1
  Tm  Tm5  1  0.000000  0.313316  0.795703  1
  Si  Si6  1  0.500000  0.500000  0.879247  1
  Si  Si7  1  0.000000  0.000000  0.125390  1
  Si  Si8  1  0.500000  0.500000  0.345599  1
  Si  Si9  1  0.000000  0.000000  0.658637  1
  Si  Si10  1  0.500000  0.309162  0.615583  1
  Si  Si11  1  0.500000  0.690838  0.615583  1
  Si  Si12  1  0.000000  0.191028  0.387455  1
  Si  Si13  1  0.000000  0.808972  0.387455  1
  Si  Si14  1  0.500000  0.859612  0.889585  1
  Si  Si15  1  0.500000  0.140388  0.889585  1
  Si  Si16  1  0.000000  0.655971  0.103427  1
  Si  Si17  1  0.000000  0.344029  0.103427  1
  Ni  Ni18  1  0.000000  0.000000  0.844364  1
  Ni  Ni19  1  0.500000  0.500000  0.699887  1
  Ni  Ni20  1  0.000000  0.000000  0.303054  1
  Ni  Ni21  1  0.000000  0.500000  0.978849  1
  Ni  Ni22  1  0.500000  0.000000  0.026040  1
  Ni  Ni23  1  0.500000  0.326100  0.989046  1
  Ni  Ni24  1  0.500000  0.673900  0.989046  1
  Ni  Ni25  1  0.000000  0.161738  0.004464  1
  Ni  Ni26  1  0.000000  0.838262  0.004464  1
  Ni  Ni27  1  0.500000  0.301789  0.430437  1
  Ni  Ni28  1  0.500000  0.698211  0.430437  1
  Ni  Ni29  1  0.000000  0.198400  0.570745  1
  Ni  Ni30  1  0.000000  0.801600  0.570745  1
  Ni  Ni31  1  0.500000  0.880391  0.707295  1
  Ni  Ni32  1  0.500000  0.119609  0.707295  1
  Ni  Ni33  1  0.000000  0.620911  0.290957  1
  Ni  Ni34  1  0.000000  0.379089  0.290957  1
  Mo  Mo35  1  0.500000  0.500000  0.149054  1
