# generated using pymatgen
data_Mg2ScAl3Pt10
_symmetry_space_group_name_H-M   'P 1'
_cell_length_a   4.07587900
_cell_length_b   5.54013970
_cell_length_c   10.93118974
_cell_angle_alpha   89.87993911
_cell_angle_beta   90.00000000
_cell_angle_gamma   90.00000000
_symmetry_Int_Tables_number   1
_chemical_formula_structural   Mg2ScAl3Pt10
_chemical_formula_sum   'Mg2 Sc1 Al3 Pt10'
_cell_volume   246.83598743
_cell_formula_units_Z   1
loop_
 _symmetry_equiv_pos_site_id
 _symmetry_equiv_pos_as_xyz
  1  'x, y, z'
loop_
 _atom_site_type_symbol
 _atom_site_label
 _atom_site_symmetry_multiplicity
 _atom_site_fract_x
 _atom_site_fract_y
 _atom_site_fract_z
 _atom_site_occupancy
  Mg  Mg0  1  0.500000  0.186311  0.636846  1
  Mg  Mg1  1  0.500000  0.817162  0.361855  1
  Sc  Sc2  1  0.500000  0.686334  0.859011  1
  Al  Al3  1  0.500000  0.320071  0.145007  1
  Al  Al4  1  0.000000  0.498402  0.498894  1
  Al  Al5  1  0.000000  0.993955  0.000225  1
  Pt  Pt6  1  0.500000  0.306121  0.387692  1
  Pt  Pt7  1  0.500000  0.693682  0.606041  1
  Pt  Pt8  1  0.500000  0.796756  0.108713  1
  Pt  Pt9  1  0.500000  0.193321  0.899238  1
  Pt  Pt10  1  0.000000  0.442160  0.743290  1
  Pt  Pt11  1  0.000000  0.565402  0.259829  1
  Pt  Pt12  1  0.000000  0.943244  0.756917  1
  Pt  Pt13  1  0.000000  0.068422  0.233368  1
  Pt  Pt14  1  0.000000  0.487029  0.006043  1
  Pt  Pt15  1  0.000000  0.001627  0.497029  1
