# generated using pymatgen
data_Dy3YHo2(Al3Os)8
_symmetry_space_group_name_H-M   'P 1'
_cell_length_a   8.82683750
_cell_length_b   8.82880606
_cell_length_c   9.55971300
_cell_angle_alpha   90.00000000
_cell_angle_beta   90.00000000
_cell_angle_gamma   119.95414652
_symmetry_Int_Tables_number   1
_chemical_formula_structural   Dy3YHo2(Al3Os)8
_chemical_formula_sum   'Dy3 Y1 Ho2 Al24 Os8'
_cell_volume   645.48042240
_cell_formula_units_Z   1
loop_
 _symmetry_equiv_pos_site_id
 _symmetry_equiv_pos_as_xyz
  1  'x, y, z'
loop_
 _atom_site_type_symbol
 _atom_site_label
 _atom_site_symmetry_multiplicity
 _atom_site_fract_x
 _atom_site_fract_y
 _atom_site_fract_z
 _atom_site_occupancy
  Dy  Dy0  1  0.386774  0.193436  0.750000  1
  Dy  Dy1  1  0.193487  0.806832  0.250000  1
  Dy  Dy2  1  0.806693  0.193430  0.750000  1
  Y  Y3  1  0.193284  0.386532  0.250000  1
  Ho  Ho4  1  0.806383  0.612737  0.750000  1
  Ho  Ho5  1  0.612952  0.806601  0.250000  1
  Al  Al6  1  0.333507  0.666824  0.015387  1
  Al  Al7  1  0.666793  0.333501  0.984578  1
  Al  Al8  1  0.666793  0.333501  0.515422  1
  Al  Al9  1  0.333507  0.666824  0.484613  1
  Al  Al10  1  0.162682  0.325362  0.576056  1
  Al  Al11  1  0.837240  0.674720  0.424166  1
  Al  Al12  1  0.674674  0.837121  0.575819  1
  Al  Al13  1  0.837240  0.674720  0.075834  1
  Al  Al14  1  0.325440  0.162716  0.424167  1
  Al  Al15  1  0.162682  0.325362  0.923944  1
  Al  Al16  1  0.162466  0.837104  0.575954  1
  Al  Al17  1  0.325440  0.162716  0.075833  1
  Al  Al18  1  0.837150  0.162601  0.424173  1
  Al  Al19  1  0.674674  0.837121  0.924181  1
  Al  Al20  1  0.837150  0.162601  0.075827  1
  Al  Al21  1  0.162466  0.837104  0.924046  1
  Al  Al22  1  0.560378  0.120438  0.250000  1
  Al  Al23  1  0.439661  0.879291  0.750000  1
  Al  Al24  1  0.879282  0.439804  0.250000  1
  Al  Al25  1  0.120439  0.560354  0.750000  1
  Al  Al26  1  0.560551  0.440084  0.250000  1
  Al  Al27  1  0.439901  0.560395  0.750000  1
  Al  Al28  1  0.999469  0.999338  0.250000  1
  Al  Al29  1  0.999826  0.999659  0.750000  1
  Os  Os30  1  0.500150  0.000015  0.000061  1
  Os  Os31  1  0.999923  0.500153  0.999781  1
  Os  Os32  1  0.500150  0.000015  0.499939  1
  Os  Os33  1  0.500376  0.500300  0.999867  1
  Os  Os34  1  0.999923  0.500153  0.500219  1
  Os  Os35  1  0.500376  0.500300  0.500133  1
  Os  Os36  1  0.000061  0.000117  0.000022  1
  Os  Os37  1  0.000061  0.000117  0.499978  1
