# generated using pymatgen
data_Dy7Y13(Hg3Ru)2
_symmetry_space_group_name_H-M   'P 1'
_cell_length_a   9.64350501
_cell_length_b   9.64363333
_cell_length_c   9.68684831
_cell_angle_alpha   89.94837698
_cell_angle_beta   90.05179848
_cell_angle_gamma   119.99092325
_symmetry_Int_Tables_number   1
_chemical_formula_structural   Dy7Y13(Hg3Ru)2
_chemical_formula_sum   'Dy7 Y13 Hg6 Ru2'
_cell_volume   780.23999704
_cell_formula_units_Z   1
loop_
 _symmetry_equiv_pos_site_id
 _symmetry_equiv_pos_as_xyz
  1  'x, y, z'
loop_
 _atom_site_type_symbol
 _atom_site_label
 _atom_site_symmetry_multiplicity
 _atom_site_fract_x
 _atom_site_fract_y
 _atom_site_fract_z
 _atom_site_occupancy
  Dy  Dy0  1  0.209766  0.790235  0.439412  1
  Dy  Dy1  1  0.209756  0.419545  0.439444  1
  Dy  Dy2  1  0.580452  0.790244  0.439446  1
  Dy  Dy3  1  0.790260  0.209740  0.560742  1
  Dy  Dy4  1  0.790168  0.580426  0.560589  1
  Dy  Dy5  1  0.419576  0.209834  0.560588  1
  Dy  Dy6  1  0.790191  0.209813  0.939036  1
  Y  Y7  1  0.999990  0.000009  0.499992  1
  Y  Y8  1  0.999879  0.000118  0.999891  1
  Y  Y9  1  0.790642  0.581189  0.939738  1
  Y  Y10  1  0.418811  0.209364  0.939736  1
  Y  Y11  1  0.209417  0.790586  0.060334  1
  Y  Y12  1  0.209314  0.418836  0.060293  1
  Y  Y13  1  0.581159  0.790684  0.060294  1
  Y  Y14  1  0.541076  0.458926  0.250416  1
  Y  Y15  1  0.541150  0.082232  0.250295  1
  Y  Y16  1  0.917765  0.458848  0.250294  1
  Y  Y17  1  0.458914  0.541090  0.749570  1
  Y  Y18  1  0.459034  0.917959  0.749652  1
  Y  Y19  1  0.082043  0.540964  0.749652  1
  Hg  Hg20  1  0.881346  0.118656  0.249958  1
  Hg  Hg21  1  0.881342  0.762617  0.249936  1
  Hg  Hg22  1  0.237384  0.118657  0.249937  1
  Hg  Hg23  1  0.118680  0.881321  0.750091  1
  Hg  Hg24  1  0.118654  0.237335  0.750028  1
  Hg  Hg25  1  0.762665  0.881348  0.750029  1
  Ru  Ru26  1  0.333342  0.666642  0.252177  1
  Ru  Ru27  1  0.667223  0.332782  0.748430  1
