# generated using pymatgen
data_Na3Pr5(CrN3)4
_symmetry_space_group_name_H-M   'P 1'
_cell_length_a   6.08775526
_cell_length_b   6.08775426
_cell_length_c   12.04432839
_cell_angle_alpha   89.82201132
_cell_angle_beta   90.17798954
_cell_angle_gamma   125.92053307
_symmetry_Int_Tables_number   1
_chemical_formula_structural   Na3Pr5(CrN3)4
_chemical_formula_sum   'Na3 Pr5 Cr4 N12'
_cell_volume   361.48383699
_cell_formula_units_Z   1
loop_
 _symmetry_equiv_pos_site_id
 _symmetry_equiv_pos_as_xyz
  1  'x, y, z'
loop_
 _atom_site_type_symbol
 _atom_site_label
 _atom_site_symmetry_multiplicity
 _atom_site_fract_x
 _atom_site_fract_y
 _atom_site_fract_z
 _atom_site_occupancy
  Na  Na0  1  0.547224  0.452776  0.631917  1
  Na  Na1  1  0.450578  0.549422  0.362158  1
  Na  Na2  1  0.950078  0.049922  0.144974  1
  Pr  Pr3  1  0.055425  0.944575  0.866083  1
  Pr  Pr4  1  0.853414  0.146586  0.583606  1
  Pr  Pr5  1  0.144800  0.855200  0.412837  1
  Pr  Pr6  1  0.644441  0.355559  0.084588  1
  Pr  Pr7  1  0.357310  0.642690  0.919621  1
  Cr  Cr8  1  0.735265  0.264735  0.839472  1
  Cr  Cr9  1  0.268034  0.731966  0.162704  1
  Cr  Cr10  1  0.766824  0.233176  0.338177  1
  Cr  Cr11  1  0.233009  0.766991  0.660180  1
  N  N12  1  0.846315  0.153685  0.952316  1
  N  N13  1  0.164870  0.835130  0.039562  1
  N  N14  1  0.671064  0.328936  0.453446  1
  N  N15  1  0.327239  0.672761  0.541705  1
  N  N16  1  0.574126  0.425874  0.882576  1
  N  N17  1  0.422065  0.577935  0.124173  1
  N  N18  1  0.921094  0.078906  0.380176  1
  N  N19  1  0.074441  0.925559  0.624730  1
  N  N20  1  0.517283  0.979862  0.749364  1
  N  N21  1  0.977842  0.522879  0.248137  1
  N  N22  1  0.477121  0.022158  0.248137  1
  N  N23  1  0.020138  0.482717  0.749364  1
