# generated using pymatgen
data_ReP2O7
_symmetry_space_group_name_H-M   'P 1'
_cell_length_a   5.18198830
_cell_length_b   6.79387565
_cell_length_c   8.39480378
_cell_angle_alpha   69.40205335
_cell_angle_beta   88.55370995
_cell_angle_gamma   88.47740748
_symmetry_Int_Tables_number   1
_chemical_formula_structural   ReP2O7
_chemical_formula_sum   'Re2 P4 O14'
_cell_volume   276.51448530
_cell_formula_units_Z   2
loop_
 _symmetry_equiv_pos_site_id
 _symmetry_equiv_pos_as_xyz
  1  'x, y, z'
loop_
 _atom_site_type_symbol
 _atom_site_label
 _atom_site_symmetry_multiplicity
 _atom_site_fract_x
 _atom_site_fract_y
 _atom_site_fract_z
 _atom_site_occupancy
  Re  Re0  1  0.757052  0.790660  0.267647  1
  Re  Re1  1  0.242948  0.209340  0.732353  1
  P  P2  1  0.274886  0.453065  0.310950  1
  P  P3  1  0.725114  0.546935  0.689050  1
  P  P4  1  0.243067  0.109569  0.166658  1
  P  P5  1  0.756933  0.890431  0.833342  1
  O  O6  1  0.561729  0.040753  0.713299  1
  O  O7  1  0.914644  0.362537  0.760010  1
  O  O8  1  0.085356  0.637463  0.239990  1
  O  O9  1  0.036337  0.946516  0.773330  1
  O  O10  1  0.186965  0.288393  0.479613  1
  O  O11  1  0.282446  0.340241  0.171747  1
  O  O12  1  0.296127  0.133390  0.982413  1
  O  O13  1  0.438271  0.959247  0.286701  1
  O  O14  1  0.813035  0.711607  0.520387  1
  O  O15  1  0.551082  0.525706  0.314466  1
  O  O16  1  0.963663  0.053484  0.226670  1
  O  O17  1  0.703873  0.866610  0.017587  1
  O  O18  1  0.717554  0.659759  0.828253  1
  O  O19  1  0.448918  0.474294  0.685534  1
