# generated using pymatgen
data_Y3Ho2PPb3
_symmetry_space_group_name_H-M   'P 1'
_cell_length_a   9.15231134
_cell_length_b   9.14796121
_cell_length_c   6.80455600
_cell_angle_alpha   90.00000000
_cell_angle_beta   90.00000000
_cell_angle_gamma   119.98428432
_symmetry_Int_Tables_number   1
_chemical_formula_structural   Y3Ho2PPb3
_chemical_formula_sum   'Y6 Ho4 P2 Pb6'
_cell_volume   493.46264045
_cell_formula_units_Z   2
loop_
 _symmetry_equiv_pos_site_id
 _symmetry_equiv_pos_as_xyz
  1  'x, y, z'
loop_
 _atom_site_type_symbol
 _atom_site_label
 _atom_site_symmetry_multiplicity
 _atom_site_fract_x
 _atom_site_fract_y
 _atom_site_fract_z
 _atom_site_occupancy
  Y  Y0  1  0.762218  0.762167  0.750000  1
  Y  Y1  1  0.237782  0.999950  0.750000  1
  Y  Y2  1  0.666767  0.333259  0.000201  1
  Y  Y3  1  0.333233  0.666494  0.000201  1
  Y  Y4  1  0.333233  0.666494  0.499799  1
  Y  Y5  1  0.666767  0.333259  0.499799  1
  Ho  Ho6  1  0.000000  0.236653  0.750000  1
  Ho  Ho7  1  0.236953  0.237018  0.250000  1
  Ho  Ho8  1  0.763047  0.000065  0.250000  1
  Ho  Ho9  1  0.000000  0.763300  0.250000  1
  P  P10  1  0.000000  0.000802  0.001291  1
  P  P11  1  0.000000  0.000802  0.498709  1
  Pb  Pb12  1  0.399491  0.399708  0.750000  1
  Pb  Pb13  1  0.600509  0.000218  0.750000  1
  Pb  Pb14  1  0.000000  0.600021  0.750000  1
  Pb  Pb15  1  0.600416  0.600366  0.250000  1
  Pb  Pb16  1  0.399584  0.999950  0.250000  1
  Pb  Pb17  1  0.000000  0.399473  0.250000  1
