# generated using pymatgen
data_Lu3Hf(Ta3Si4)2
_symmetry_space_group_name_H-M   'P 1'
_cell_length_a   6.76345900
_cell_length_b   6.95268832
_cell_length_c   13.19671631
_cell_angle_alpha   89.80416385
_cell_angle_beta   90.00000000
_cell_angle_gamma   90.00000000
_symmetry_Int_Tables_number   1
_chemical_formula_structural   Lu3Hf(Ta3Si4)2
_chemical_formula_sum   'Lu6 Hf2 Ta12 Si16'
_cell_volume   620.56169781
_cell_formula_units_Z   2
loop_
 _symmetry_equiv_pos_site_id
 _symmetry_equiv_pos_as_xyz
  1  'x, y, z'
loop_
 _atom_site_type_symbol
 _atom_site_label
 _atom_site_symmetry_multiplicity
 _atom_site_fract_x
 _atom_site_fract_y
 _atom_site_fract_z
 _atom_site_occupancy
  Lu  Lu0  1  0.500195  0.327279  0.094470  1
  Lu  Lu1  1  0.000195  0.172721  0.405530  1
  Lu  Lu2  1  0.500213  0.328908  0.405806  1
  Lu  Lu3  1  0.000213  0.171092  0.094194  1
  Lu  Lu4  1  0.498155  0.673475  0.905561  1
  Lu  Lu5  1  0.998155  0.826525  0.594439  1
  Hf  Hf6  1  0.498510  0.675276  0.598388  1
  Hf  Hf7  1  0.998510  0.824724  0.901612  1
  Ta  Ta8  1  0.662216  0.172887  0.625140  1
  Ta  Ta9  1  0.162216  0.327113  0.874860  1
  Ta  Ta10  1  0.337949  0.826294  0.124670  1
  Ta  Ta11  1  0.837949  0.673706  0.375330  1
  Ta  Ta12  1  0.339993  0.824440  0.376102  1
  Ta  Ta13  1  0.839993  0.675560  0.123898  1
  Ta  Ta14  1  0.663857  0.171802  0.874457  1
  Ta  Ta15  1  0.163857  0.328198  0.625543  1
  Ta  Ta16  1  0.836960  0.494795  0.750579  1
  Ta  Ta17  1  0.336960  0.005205  0.749421  1
  Ta  Ta18  1  0.163645  0.507831  0.250080  1
  Ta  Ta19  1  0.663645  0.992169  0.249920  1
  Si  Si20  1  0.666597  0.962652  0.460864  1
  Si  Si21  1  0.166597  0.537348  0.039136  1
  Si  Si22  1  0.327090  0.033628  0.958859  1
  Si  Si23  1  0.827090  0.466372  0.541141  1
  Si  Si24  1  0.334077  0.033288  0.541297  1
  Si  Si25  1  0.834077  0.466712  0.958703  1
  Si  Si26  1  0.668958  0.964225  0.039375  1
  Si  Si27  1  0.168958  0.535775  0.460625  1
  Si  Si28  1  0.460008  0.384611  0.749757  1
  Si  Si29  1  0.960008  0.115389  0.750243  1
  Si  Si30  1  0.541690  0.617573  0.249481  1
  Si  Si31  1  0.041690  0.882427  0.250519  1
  Si  Si32  1  0.703078  0.864845  0.749631  1
  Si  Si33  1  0.203078  0.635155  0.750369  1
  Si  Si34  1  0.296810  0.133406  0.250224  1
  Si  Si35  1  0.796810  0.366594  0.249776  1
