# generated using pymatgen
data_Li3Sm8Si12Ag
_symmetry_space_group_name_H-M   'P 1'
_cell_length_a   10.88519752
_cell_length_b   9.17268490
_cell_length_c   8.27962817
_cell_angle_alpha   76.98956203
_cell_angle_beta   55.16556929
_cell_angle_gamma   47.83766582
_symmetry_Int_Tables_number   1
_chemical_formula_structural   Li3Sm8Si12Ag
_chemical_formula_sum   'Li3 Sm8 Si12 Ag1'
_cell_volume   485.65589703
_cell_formula_units_Z   1
loop_
 _symmetry_equiv_pos_site_id
 _symmetry_equiv_pos_as_xyz
  1  'x, y, z'
loop_
 _atom_site_type_symbol
 _atom_site_label
 _atom_site_symmetry_multiplicity
 _atom_site_fract_x
 _atom_site_fract_y
 _atom_site_fract_z
 _atom_site_occupancy
  Li  Li0  1  0.832724  0.167459  0.832724  1
  Li  Li1  1  0.166821  0.833035  0.167329  1
  Li  Li2  1  0.417084  0.082847  0.417316  1
  Sm  Sm3  1  0.378716  0.378349  0.619537  1
  Sm  Sm4  1  0.619785  0.623073  0.379391  1
  Sm  Sm5  1  0.872914  0.873307  0.627183  1
  Sm  Sm6  1  0.627050  0.626771  0.872669  1
  Sm  Sm7  1  0.876213  0.878088  0.125123  1
  Sm  Sm8  1  0.124533  0.121392  0.875248  1
  Sm  Sm9  1  0.374554  0.375609  0.126518  1
  Sm  Sm10  1  0.126742  0.123071  0.375039  1
  Si  Si11  1  0.666913  0.333018  0.667280  1
  Si  Si12  1  0.332964  0.667612  0.332589  1
  Si  Si13  1  0.581798  0.918486  0.581022  1
  Si  Si14  1  0.912945  0.586410  0.912779  1
  Si  Si15  1  0.330634  0.663254  0.836022  1
  Si  Si16  1  0.170171  0.835619  0.663269  1
  Si  Si17  1  0.835841  0.169815  0.330787  1
  Si  Si18  1  0.663112  0.331180  0.170659  1
  Si  Si19  1  0.916868  0.593220  0.420619  1
  Si  Si20  1  0.081134  0.409896  0.586889  1
  Si  Si21  1  0.420373  0.069522  0.916991  1
  Si  Si22  1  0.587497  0.921547  0.080154  1
  Ag  Ag23  1  0.082614  0.417420  0.082862  1
