# generated using pymatgen
data_Sm7Th(Ta3Si4)4
_symmetry_space_group_name_H-M   'P 1'
_cell_length_a   6.93961114
_cell_length_b   7.14765771
_cell_length_c   13.49463818
_cell_angle_alpha   90.04771971
_cell_angle_beta   90.08825837
_cell_angle_gamma   90.01790994
_symmetry_Int_Tables_number   1
_chemical_formula_structural   Sm7Th(Ta3Si4)4
_chemical_formula_sum   'Sm7 Th1 Ta12 Si16'
_cell_volume   669.35951212
_cell_formula_units_Z   1
loop_
 _symmetry_equiv_pos_site_id
 _symmetry_equiv_pos_as_xyz
  1  'x, y, z'
loop_
 _atom_site_type_symbol
 _atom_site_label
 _atom_site_symmetry_multiplicity
 _atom_site_fract_x
 _atom_site_fract_y
 _atom_site_fract_z
 _atom_site_occupancy
  Sm  Sm0  1  0.994800  0.830081  0.903109  1
  Sm  Sm1  1  0.495205  0.669901  0.903176  1
  Sm  Sm2  1  0.994351  0.830214  0.596094  1
  Sm  Sm3  1  0.504166  0.330317  0.096143  1
  Sm  Sm4  1  0.005628  0.170001  0.404030  1
  Sm  Sm5  1  0.505229  0.329997  0.404669  1
  Sm  Sm6  1  0.494553  0.670141  0.596104  1
  Th  Th7  1  0.005239  0.169183  0.095127  1
  Ta  Ta8  1  0.159117  0.488624  0.750170  1
  Ta  Ta9  1  0.841275  0.509763  0.249301  1
  Ta  Ta10  1  0.339611  0.988466  0.249850  1
  Ta  Ta11  1  0.659123  0.011482  0.749721  1
  Ta  Ta12  1  0.335594  0.174597  0.626085  1
  Ta  Ta13  1  0.663692  0.824336  0.374159  1
  Ta  Ta14  1  0.165025  0.674166  0.374472  1
  Ta  Ta15  1  0.665686  0.826424  0.125974  1
  Ta  Ta16  1  0.836052  0.325181  0.626032  1
  Ta  Ta17  1  0.335604  0.174651  0.874337  1
  Ta  Ta18  1  0.835957  0.324830  0.874374  1
  Ta  Ta19  1  0.164133  0.674619  0.125936  1
  Si  Si20  1  0.038642  0.126316  0.749889  1
  Si  Si21  1  0.961180  0.872032  0.251349  1
  Si  Si22  1  0.461562  0.627124  0.250010  1
  Si  Si23  1  0.538725  0.373527  0.749926  1
  Si  Si24  1  0.294336  0.878993  0.749774  1
  Si  Si25  1  0.703007  0.120762  0.251508  1
  Si  Si26  1  0.206440  0.380291  0.251413  1
  Si  Si27  1  0.794390  0.621233  0.749804  1
  Si  Si28  1  0.159713  0.461546  0.542439  1
  Si  Si29  1  0.840230  0.538443  0.457948  1
  Si  Si30  1  0.339981  0.961700  0.457903  1
  Si  Si31  1  0.837607  0.541990  0.041755  1
  Si  Si32  1  0.659807  0.038278  0.542536  1
  Si  Si33  1  0.160891  0.463572  0.956304  1
  Si  Si34  1  0.659987  0.038411  0.956651  1
  Si  Si35  1  0.343463  0.958811  0.041923  1
