# generated using pymatgen
data_Co5Re12Si4Ni3
_symmetry_space_group_name_H-M   'P 1'
_cell_length_a   7.55670600
_cell_length_b   7.55670596
_cell_length_c   7.56177985
_cell_angle_alpha   119.97780755
_cell_angle_beta   90.00000000
_cell_angle_gamma   120.00000017
_symmetry_Int_Tables_number   1
_chemical_formula_structural   Co5Re12Si4Ni3
_chemical_formula_sum   'Co5 Re12 Si4 Ni3'
_cell_volume   305.43561622
_cell_formula_units_Z   1
loop_
 _symmetry_equiv_pos_site_id
 _symmetry_equiv_pos_as_xyz
  1  'x, y, z'
loop_
 _atom_site_type_symbol
 _atom_site_label
 _atom_site_symmetry_multiplicity
 _atom_site_fract_x
 _atom_site_fract_y
 _atom_site_fract_z
 _atom_site_occupancy
  Co  Co0  1  0.581240  0.162481  0.420090  1
  Co  Co1  1  0.257610  0.838850  0.420090  1
  Co  Co2  1  0.581240  0.838850  0.420090  1
  Co  Co3  1  0.169462  0.338924  0.508386  1
  Co  Co4  1  0.581075  0.162149  0.743223  1
  Re  Re5  1  0.569683  0.500348  0.070029  1
  Re  Re6  1  0.569683  0.139364  0.070029  1
  Re  Re7  1  0.930666  0.500348  0.070030  1
  Re  Re8  1  0.180520  0.000765  0.181285  1
  Re  Re9  1  0.820245  0.000765  0.181285  1
  Re  Re10  1  0.180520  0.361041  0.181285  1
  Re  Re11  1  0.930609  0.498356  0.428963  1
  Re  Re12  1  0.930609  0.861214  0.428963  1
  Re  Re13  1  0.567749  0.498356  0.428964  1
  Re  Re14  1  0.180898  0.999689  0.818479  1
  Re  Re15  1  0.818791  0.637581  0.818479  1
  Re  Re16  1  0.818791  0.999689  0.818479  1
  Si  Si17  1  0.376307  0.752613  0.128921  1
  Si  Si18  1  0.374565  0.247712  0.622276  1
  Si  Si19  1  0.873148  0.247712  0.622276  1
  Si  Si20  1  0.374565  0.749129  0.622276  1
  Ni  Ni21  1  0.169243  0.338486  0.832033  1
  Ni  Ni22  1  0.169243  0.662790  0.832033  1
  Ni  Ni23  1  0.493548  0.662790  0.832033  1
