# generated using pymatgen
data_TbHo(InNi2)2
_symmetry_space_group_name_H-M   'P 1'
_cell_length_a   5.11092400
_cell_length_b   4.01305300
_cell_length_c   7.02164300
_cell_angle_alpha   90.00000000
_cell_angle_beta   90.00000000
_cell_angle_gamma   90.00000000
_symmetry_Int_Tables_number   1
_chemical_formula_structural   TbHo(InNi2)2
_chemical_formula_sum   'Tb1 Ho1 In2 Ni4'
_cell_volume   144.01676902
_cell_formula_units_Z   1
loop_
 _symmetry_equiv_pos_site_id
 _symmetry_equiv_pos_as_xyz
  1  'x, y, z'
loop_
 _atom_site_type_symbol
 _atom_site_label
 _atom_site_symmetry_multiplicity
 _atom_site_fract_x
 _atom_site_fract_y
 _atom_site_fract_z
 _atom_site_occupancy
  Tb  Tb0  1  0.749999  0.000000  0.266801  1
  Ho  Ho1  1  0.249999  0.000000  0.735031  1
  In  In2  1  0.249999  0.499999  0.356070  1
  In  In3  1  0.749999  0.499999  0.645406  1
  Ni  Ni4  1  0.001413  0.499999  0.998527  1
  Ni  Ni5  1  0.498587  0.499999  0.998527  1
  Ni  Ni6  1  0.249999  0.000000  0.112896  1
  Ni  Ni7  1  0.749999  0.000000  0.886745  1
