# generated using pymatgen
data_Sc8In4Pt3Au5
_symmetry_space_group_name_H-M   'P 1'
_cell_length_a   7.70697576
_cell_length_b   7.70697576
_cell_length_c   6.82997439
_cell_angle_alpha   90.07996290
_cell_angle_beta   90.07996290
_cell_angle_gamma   90.50855273
_symmetry_Int_Tables_number   1
_chemical_formula_structural   Sc8In4Pt3Au5
_chemical_formula_sum   'Sc8 In4 Pt3 Au5'
_cell_volume   405.66645839
_cell_formula_units_Z   1
loop_
 _symmetry_equiv_pos_site_id
 _symmetry_equiv_pos_as_xyz
  1  'x, y, z'
loop_
 _atom_site_type_symbol
 _atom_site_label
 _atom_site_symmetry_multiplicity
 _atom_site_fract_x
 _atom_site_fract_y
 _atom_site_fract_z
 _atom_site_occupancy
  Sc  Sc0  1  0.160031  0.160031  0.005486  1
  Sc  Sc1  1  0.833418  0.833418  0.999006  1
  Sc  Sc2  1  0.655565  0.354740  0.494898  1
  Sc  Sc3  1  0.354740  0.655565  0.494898  1
  Sc  Sc4  1  0.674946  0.333867  0.003607  1
  Sc  Sc5  1  0.333867  0.674946  0.003607  1
  Sc  Sc6  1  0.810767  0.810767  0.500596  1
  Sc  Sc7  1  0.184185  0.184185  0.494949  1
  In  In8  1  0.500242  0.002119  0.249596  1
  In  In9  1  0.501020  0.996644  0.749547  1
  In  In10  1  0.002119  0.500242  0.249596  1
  In  In11  1  0.996644  0.501020  0.749547  1
  Pt  Pt12  1  0.368570  0.368570  0.231278  1
  Pt  Pt13  1  0.628871  0.628871  0.769635  1
  Pt  Pt14  1  0.630822  0.630822  0.229269  1
  Au  Au15  1  0.868597  0.130549  0.728026  1
  Au  Au16  1  0.868127  0.128822  0.272575  1
  Au  Au17  1  0.368098  0.368098  0.773281  1
  Au  Au18  1  0.128822  0.868127  0.272575  1
  Au  Au19  1  0.130549  0.868597  0.728026  1
