# generated using pymatgen
data_Pr3Nd5(TmRu2)2
_symmetry_space_group_name_H-M   'P 1'
_cell_length_a   6.56860573
_cell_length_b   7.32621665
_cell_length_c   8.82306258
_cell_angle_alpha   96.10578032
_cell_angle_beta   111.90652992
_cell_angle_gamma   89.98131857
_symmetry_Int_Tables_number   1
_chemical_formula_structural   Pr3Nd5(TmRu2)2
_chemical_formula_sum   'Pr3 Nd5 Tm2 Ru4'
_cell_volume   391.34292145
_cell_formula_units_Z   1
loop_
 _symmetry_equiv_pos_site_id
 _symmetry_equiv_pos_as_xyz
  1  'x, y, z'
loop_
 _atom_site_type_symbol
 _atom_site_label
 _atom_site_symmetry_multiplicity
 _atom_site_fract_x
 _atom_site_fract_y
 _atom_site_fract_z
 _atom_site_occupancy
  Pr  Pr0  1  0.792985  0.083654  0.816487  1
  Pr  Pr1  1  0.976813  0.417205  0.182598  1
  Pr  Pr2  1  0.207139  0.916283  0.183300  1
  Nd  Nd3  1  0.023126  0.583373  0.817411  1
  Nd  Nd4  1  0.208428  0.186044  0.570560  1
  Nd  Nd5  1  0.637709  0.313257  0.429826  1
  Nd  Nd6  1  0.791448  0.813731  0.429719  1
  Nd  Nd7  1  0.362422  0.686874  0.570667  1
  Tm  Tm8  1  0.429168  0.249983  0.999778  1
  Tm  Tm9  1  0.570505  0.750004  0.000003  1
  Ru  Ru10  1  0.600222  0.428379  0.786845  1
  Ru  Ru11  1  0.812232  0.072403  0.213793  1
  Ru  Ru12  1  0.400370  0.571879  0.212728  1
  Ru  Ru13  1  0.187434  0.926930  0.786286  1
