# generated using pymatgen
data_Sc10Bi5Pt
_symmetry_space_group_name_H-M   'P 1'
_cell_length_a   7.68307300
_cell_length_b   8.94575600
_cell_length_c   11.37345500
_cell_angle_alpha   90.00000000
_cell_angle_beta   90.00000000
_cell_angle_gamma   90.00000000
_symmetry_Int_Tables_number   1
_chemical_formula_structural   Sc10Bi5Pt
_chemical_formula_sum   'Sc20 Bi10 Pt2'
_cell_volume   781.70775718
_cell_formula_units_Z   2
loop_
 _symmetry_equiv_pos_site_id
 _symmetry_equiv_pos_as_xyz
  1  'x, y, z'
loop_
 _atom_site_type_symbol
 _atom_site_label
 _atom_site_symmetry_multiplicity
 _atom_site_fract_x
 _atom_site_fract_y
 _atom_site_fract_z
 _atom_site_occupancy
  Sc  Sc0  1  0.188791  0.034499  0.936915  1
  Sc  Sc1  1  0.311209  0.034499  0.436915  1
  Sc  Sc2  1  0.311209  0.465501  0.436915  1
  Sc  Sc3  1  0.331112  0.750000  0.711383  1
  Sc  Sc4  1  0.455397  0.750000  0.002315  1
  Sc  Sc5  1  0.162123  0.250000  0.218979  1
  Sc  Sc6  1  0.820775  0.925031  0.061651  1
  Sc  Sc7  1  0.637157  0.750000  0.299825  1
  Sc  Sc8  1  0.044603  0.750000  0.502315  1
  Sc  Sc9  1  0.679225  0.925031  0.561651  1
  Sc  Sc10  1  0.188791  0.465501  0.936915  1
  Sc  Sc11  1  0.337877  0.250000  0.718979  1
  Sc  Sc12  1  0.168888  0.750000  0.211383  1
  Sc  Sc13  1  0.985685  0.250000  0.492944  1
  Sc  Sc14  1  0.679225  0.574969  0.561651  1
  Sc  Sc15  1  0.683730  0.250000  0.269166  1
  Sc  Sc16  1  0.820775  0.574969  0.061651  1
  Sc  Sc17  1  0.514315  0.250000  0.992944  1
  Sc  Sc18  1  0.816270  0.250000  0.769166  1
  Sc  Sc19  1  0.862843  0.750000  0.799825  1
  Bi  Bi20  1  0.061770  0.490243  0.675039  1
  Bi  Bi21  1  0.566707  0.510054  0.825046  1
  Bi  Bi22  1  0.933293  0.989946  0.325046  1
  Bi  Bi23  1  0.438230  0.009757  0.175039  1
  Bi  Bi24  1  0.566707  0.989946  0.825046  1
  Bi  Bi25  1  0.438230  0.490243  0.175039  1
  Bi  Bi26  1  0.061770  0.009757  0.675039  1
  Bi  Bi27  1  0.933293  0.510054  0.325046  1
  Bi  Bi28  1  0.594987  0.250000  0.525996  1
  Bi  Bi29  1  0.905013  0.250000  0.025996  1
  Pt  Pt30  1  0.408750  0.750000  0.482089  1
  Pt  Pt31  1  0.091250  0.750000  0.982089  1
