# generated using pymatgen
data_Ac10SnPb5Cl2
_symmetry_space_group_name_H-M   'P 1'
_cell_length_a   10.09125691
_cell_length_b   10.09125609
_cell_length_c   7.29637300
_cell_angle_alpha   89.99994825
_cell_angle_beta   89.99995371
_cell_angle_gamma   119.95120915
_symmetry_Int_Tables_number   1
_chemical_formula_structural   Ac10SnPb5Cl2
_chemical_formula_sum   'Ac10 Sn1 Pb5 Cl2'
_cell_volume   643.78589988
_cell_formula_units_Z   1
loop_
 _symmetry_equiv_pos_site_id
 _symmetry_equiv_pos_as_xyz
  1  'x, y, z'
loop_
 _atom_site_type_symbol
 _atom_site_label
 _atom_site_symmetry_multiplicity
 _atom_site_fract_x
 _atom_site_fract_y
 _atom_site_fract_z
 _atom_site_occupancy
  Ac  Ac0  1  0.665664  0.333610  0.000988  1
  Ac  Ac1  1  0.333609  0.665667  0.499012  1
  Ac  Ac2  1  0.665667  0.333609  0.499012  1
  Ac  Ac3  1  0.333610  0.665664  0.000988  1
  Ac  Ac4  1  0.736940  0.000065  0.750002  1
  Ac  Ac5  1  0.735449  0.735449  0.249998  1
  Ac  Ac6  1  0.001734  0.263576  0.249998  1
  Ac  Ac7  1  0.000065  0.736940  0.750002  1
  Ac  Ac8  1  0.263748  0.263748  0.750002  1
  Ac  Ac9  1  0.263576  0.001734  0.249998  1
  Sn  Sn10  1  0.385922  0.385922  0.249999  1
  Pb  Pb11  1  0.614043  0.614043  0.750000  1
  Pb  Pb12  1  0.000054  0.613990  0.250001  1
  Pb  Pb13  1  0.613990  0.000054  0.250001  1
  Pb  Pb14  1  0.386076  0.999865  0.750000  1
  Pb  Pb15  1  0.999865  0.386076  0.750000  1
  Cl  Cl16  1  0.999993  0.999993  0.500021  1
  Cl  Cl17  1  0.999995  0.999995  0.999978  1
