# generated using pymatgen
data_SrCa2Y(ReN3)4
_symmetry_space_group_name_H-M   'P 1'
_cell_length_a   7.41768622
_cell_length_b   7.41768733
_cell_length_c   6.24415024
_cell_angle_alpha   75.64101447
_cell_angle_beta   75.64100889
_cell_angle_gamma   85.08481135
_symmetry_Int_Tables_number   1
_chemical_formula_structural   SrCa2Y(ReN3)4
_chemical_formula_sum   'Sr1 Ca2 Y1 Re4 N12'
_cell_volume   322.32899260
_cell_formula_units_Z   1
loop_
 _symmetry_equiv_pos_site_id
 _symmetry_equiv_pos_as_xyz
  1  'x, y, z'
loop_
 _atom_site_type_symbol
 _atom_site_label
 _atom_site_symmetry_multiplicity
 _atom_site_fract_x
 _atom_site_fract_y
 _atom_site_fract_z
 _atom_site_occupancy
  Sr  Sr0  1  0.694117  0.305883  0.750000  1
  Ca  Ca1  1  0.300347  0.699653  0.250000  1
  Ca  Ca2  1  0.914005  0.085995  0.250000  1
  Y  Y3  1  0.092185  0.907815  0.750000  1
  Re  Re4  1  0.799112  0.625153  0.251321  1
  Re  Re5  1  0.374847  0.200888  0.248679  1
  Re  Re6  1  0.622042  0.798016  0.757752  1
  Re  Re7  1  0.201984  0.377958  0.742248  1
  N  N8  1  0.787752  0.980753  0.660369  1
  N  N9  1  0.114604  0.612108  0.678157  1
  N  N10  1  0.337263  0.350042  0.969412  1
  N  N11  1  0.607648  0.123617  0.182038  1
  N  N12  1  0.876383  0.392352  0.317962  1
  N  N13  1  0.222874  0.004002  0.355105  1
  N  N14  1  0.995998  0.777126  0.144895  1
  N  N15  1  0.354033  0.352287  0.461364  1
  N  N16  1  0.649958  0.662737  0.530588  1
  N  N17  1  0.019247  0.212248  0.839631  1
  N  N18  1  0.387892  0.885396  0.821843  1
  N  N19  1  0.647713  0.645967  0.038636  1
