# generated using pymatgen
data_Dy7Y11Sc2(Cd3Ru)2
_symmetry_space_group_name_H-M   'P 1'
_cell_length_a   9.55610411
_cell_length_b   9.55610413
_cell_length_c   9.79368900
_cell_angle_alpha   89.95524392
_cell_angle_beta   90.04475656
_cell_angle_gamma   120.03235167
_symmetry_Int_Tables_number   1
_chemical_formula_structural   Dy7Y11Sc2(Cd3Ru)2
_chemical_formula_sum   'Dy7 Y11 Sc2 Cd6 Ru2'
_cell_volume   774.27785562
_cell_formula_units_Z   1
loop_
 _symmetry_equiv_pos_site_id
 _symmetry_equiv_pos_as_xyz
  1  'x, y, z'
loop_
 _atom_site_type_symbol
 _atom_site_label
 _atom_site_symmetry_multiplicity
 _atom_site_fract_x
 _atom_site_fract_y
 _atom_site_fract_z
 _atom_site_occupancy
  Dy  Dy0  1  0.208436  0.791564  0.440595  1
  Dy  Dy1  1  0.208487  0.416990  0.440682  1
  Dy  Dy2  1  0.583010  0.791513  0.440682  1
  Dy  Dy3  1  0.791622  0.208378  0.559451  1
  Dy  Dy4  1  0.791440  0.582994  0.559327  1
  Dy  Dy5  1  0.417006  0.208560  0.559327  1
  Dy  Dy6  1  0.791523  0.208477  0.940322  1
  Y  Y7  1  0.791810  0.583594  0.940925  1
  Y  Y8  1  0.416406  0.208190  0.940925  1
  Y  Y9  1  0.208145  0.791855  0.059165  1
  Y  Y10  1  0.208109  0.416420  0.059102  1
  Y  Y11  1  0.583580  0.791891  0.059102  1
  Y  Y12  1  0.540933  0.459067  0.250368  1
  Y  Y13  1  0.540982  0.082016  0.250250  1
  Y  Y14  1  0.917984  0.459018  0.250250  1
  Y  Y15  1  0.459056  0.540944  0.749660  1
  Y  Y16  1  0.459165  0.918136  0.749715  1
  Y  Y17  1  0.081864  0.540835  0.749715  1
  Sc  Sc18  1  0.000008  0.999992  0.500072  1
  Sc  Sc19  1  0.999942  0.000058  0.999949  1
  Cd  Cd20  1  0.889139  0.110861  0.249952  1
  Cd  Cd21  1  0.889268  0.778315  0.249883  1
  Cd  Cd22  1  0.221685  0.110732  0.249883  1
  Cd  Cd23  1  0.110863  0.889137  0.750121  1
  Cd  Cd24  1  0.110749  0.221640  0.750081  1
  Cd  Cd25  1  0.778360  0.889251  0.750081  1
  Ru  Ru26  1  0.333450  0.666550  0.251538  1
  Ru  Ru27  1  0.666978  0.333022  0.748877  1
