# generated using pymatgen
data_Er5InSi2
_symmetry_space_group_name_H-M   'P 1'
_cell_length_a   8.77345307
_cell_length_b   8.77345290
_cell_length_c   8.77345304
_cell_angle_alpha   128.53835634
_cell_angle_beta   128.53835944
_cell_angle_gamma   75.75451746
_symmetry_Int_Tables_number   1
_chemical_formula_structural   Er5InSi2
_chemical_formula_sum   'Er10 In2 Si4'
_cell_volume   401.87977823
_cell_formula_units_Z   2
loop_
 _symmetry_equiv_pos_site_id
 _symmetry_equiv_pos_as_xyz
  1  'x, y, z'
loop_
 _atom_site_type_symbol
 _atom_site_label
 _atom_site_symmetry_multiplicity
 _atom_site_fract_x
 _atom_site_fract_y
 _atom_site_fract_z
 _atom_site_occupancy
  Er  Er0  1  0.000000  0.000000  0.000000  1
  Er  Er1  1  0.500000  0.500000  0.000000  1
  Er  Er2  1  0.805509  0.305509  0.831900  1
  Er  Er3  1  0.194491  0.694491  0.168100  1
  Er  Er4  1  0.473608  0.973608  0.168100  1
  Er  Er5  1  0.305509  0.473608  0.500000  1
  Er  Er6  1  0.026392  0.194491  0.500000  1
  Er  Er7  1  0.526392  0.026392  0.831900  1
  Er  Er8  1  0.694491  0.526392  0.500000  1
  Er  Er9  1  0.973608  0.805509  0.500000  1
  In  In10  1  0.250000  0.250000  0.000000  1
  In  In11  1  0.750000  0.750000  0.000000  1
  Si  Si12  1  0.130799  0.630799  0.761598  1
  Si  Si13  1  0.869201  0.369201  0.238402  1
  Si  Si14  1  0.630799  0.869201  0.500000  1
  Si  Si15  1  0.369201  0.130799  0.500000  1
