# generated using pymatgen
data_NdEu3(PIr)4
_symmetry_space_group_name_H-M   'P 1'
_cell_length_a   6.26872970
_cell_length_b   6.26872970
_cell_length_c   6.26872970
_cell_angle_alpha   90.26202962
_cell_angle_beta   90.26202962
_cell_angle_gamma   89.73797038
_symmetry_Int_Tables_number   1
_chemical_formula_structural   NdEu3(PIr)4
_chemical_formula_sum   'Nd1 Eu3 P4 Ir4'
_cell_volume   246.33439133
_cell_formula_units_Z   1
loop_
 _symmetry_equiv_pos_site_id
 _symmetry_equiv_pos_as_xyz
  1  'x, y, z'
loop_
 _atom_site_type_symbol
 _atom_site_label
 _atom_site_symmetry_multiplicity
 _atom_site_fract_x
 _atom_site_fract_y
 _atom_site_fract_z
 _atom_site_occupancy
  Nd  Nd0  1  0.401321  0.901321  0.598679  1
  Eu  Eu1  1  0.898089  0.601918  0.395916  1
  Eu  Eu2  1  0.604084  0.398089  0.898082  1
  Eu  Eu3  1  0.101918  0.104084  0.101911  1
  P  P4  1  0.673637  0.173637  0.326363  1
  P  P5  1  0.171489  0.326037  0.673146  1
  P  P6  1  0.326854  0.671489  0.173963  1
  P  P7  1  0.826037  0.826854  0.828511  1
  Ir  Ir8  1  0.081429  0.581429  0.918571  1
  Ir  Ir9  1  0.577799  0.918172  0.080829  1
  Ir  Ir10  1  0.919171  0.077799  0.581828  1
  Ir  Ir11  1  0.418172  0.419171  0.422201  1
