# generated using pymatgen
data_KTe8IrRh3
_symmetry_space_group_name_H-M   'P 1'
_cell_length_a   4.00425706
_cell_length_b   9.03418965
_cell_length_c   10.14256142
_cell_angle_alpha   81.46379421
_cell_angle_beta   78.61510507
_cell_angle_gamma   77.19598413
_symmetry_Int_Tables_number   1
_chemical_formula_structural   KTe8IrRh3
_chemical_formula_sum   'K1 Te8 Ir1 Rh3'
_cell_volume   348.63611157
_cell_formula_units_Z   1
loop_
 _symmetry_equiv_pos_site_id
 _symmetry_equiv_pos_as_xyz
  1  'x, y, z'
loop_
 _atom_site_type_symbol
 _atom_site_label
 _atom_site_symmetry_multiplicity
 _atom_site_fract_x
 _atom_site_fract_y
 _atom_site_fract_z
 _atom_site_occupancy
  K  K0  1  0.499534  0.999857  0.001074  1
  Te  Te1  1  0.458621  0.315078  0.767680  1
  Te  Te2  1  0.541623  0.684437  0.232315  1
  Te  Te3  1  0.893055  0.638435  0.575456  1
  Te  Te4  1  0.106985  0.361319  0.424711  1
  Te  Te5  1  0.208878  0.654583  0.927661  1
  Te  Te6  1  0.791459  0.344441  0.072643  1
  Te  Te7  1  0.829206  0.986068  0.355521  1
  Te  Te8  1  0.170297  0.015245  0.644160  1
  Ir  Ir9  1  0.635085  0.196331  0.533498  1
  Rh  Rh10  1  0.837259  0.502037  0.823443  1
  Rh  Rh11  1  0.163169  0.497478  0.176184  1
  Rh  Rh12  1  0.364828  0.804690  0.465653  1
