# generated using pymatgen
data_La4ScGaSn2
_symmetry_space_group_name_H-M   'P 1'
_cell_length_a   9.26547177
_cell_length_b   9.26547299
_cell_length_c   9.26547297
_cell_angle_alpha   96.42796386
_cell_angle_beta   96.42796461
_cell_angle_gamma   140.90414993
_symmetry_Int_Tables_number   1
_chemical_formula_structural   La4ScGaSn2
_chemical_formula_sum   'La8 Sc2 Ga2 Sn4'
_cell_volume   472.70253924
_cell_formula_units_Z   2
loop_
 _symmetry_equiv_pos_site_id
 _symmetry_equiv_pos_as_xyz
  1  'x, y, z'
loop_
 _atom_site_type_symbol
 _atom_site_label
 _atom_site_symmetry_multiplicity
 _atom_site_fract_x
 _atom_site_fract_y
 _atom_site_fract_z
 _atom_site_occupancy
  La  La0  1  0.910547  0.218886  0.129432  1
  La  La1  1  0.218886  0.089453  0.308339  1
  La  La2  1  0.781114  0.910547  0.691661  1
  La  La3  1  0.089453  0.781114  0.870568  1
  La  La4  1  0.718886  0.410547  0.129432  1
  La  La5  1  0.281114  0.589453  0.870568  1
  La  La6  1  0.589453  0.718886  0.308339  1
  La  La7  1  0.410547  0.281114  0.691661  1
  Sc  Sc8  1  0.750000  0.250000  0.500000  1
  Sc  Sc9  1  0.250000  0.750000  0.500000  1
  Ga  Ga10  1  0.750000  0.750000  0.000000  1
  Ga  Ga11  1  0.250000  0.250000  0.000000  1
  Sn  Sn12  1  0.851633  0.648367  0.500000  1
  Sn  Sn13  1  0.648367  0.148367  0.796735  1
  Sn  Sn14  1  0.351633  0.851633  0.203265  1
  Sn  Sn15  1  0.148367  0.351633  0.500000  1
