# generated using pymatgen
data_Nd8Gd9Y3Si16
_symmetry_space_group_name_H-M   'P 1'
_cell_length_a   7.69752700
_cell_length_b   7.69752723
_cell_length_c   14.87796600
_cell_angle_alpha   89.97073999
_cell_angle_beta   90.02926001
_cell_angle_gamma   89.96762127
_symmetry_Int_Tables_number   1
_chemical_formula_structural   Nd8Gd9Y3Si16
_chemical_formula_sum   'Nd8 Gd9 Y3 Si16'
_cell_volume   881.54773613
_cell_formula_units_Z   1
loop_
 _symmetry_equiv_pos_site_id
 _symmetry_equiv_pos_as_xyz
  1  'x, y, z'
loop_
 _atom_site_type_symbol
 _atom_site_label
 _atom_site_symmetry_multiplicity
 _atom_site_fract_x
 _atom_site_fract_y
 _atom_site_fract_z
 _atom_site_occupancy
  Nd  Nd0  1  0.986538  0.626761  0.049558  1
  Nd  Nd1  1  0.014307  0.373227  0.550282  1
  Nd  Nd2  1  0.626761  0.986538  0.950442  1
  Nd  Nd3  1  0.126414  0.513965  0.800119  1
  Nd  Nd4  1  0.872930  0.485783  0.299753  1
  Nd  Nd5  1  0.513965  0.126414  0.199881  1
  Nd  Nd6  1  0.485783  0.872930  0.700247  1
  Nd  Nd7  1  0.373227  0.014307  0.449718  1
  Gd  Gd8  1  0.370356  0.479925  0.373475  1
  Gd  Gd9  1  0.869198  0.019846  0.376294  1
  Gd  Gd10  1  0.981121  0.130880  0.123422  1
  Gd  Gd11  1  0.019846  0.869198  0.623706  1
  Gd  Gd12  1  0.628546  0.519140  0.873315  1
  Gd  Gd13  1  0.479925  0.370356  0.626525  1
  Gd  Gd14  1  0.519140  0.628546  0.126685  1
  Gd  Gd15  1  0.130880  0.981121  0.876578  1
  Gd  Gd16  1  0.308868  0.308868  0.000000  1
  Y  Y17  1  0.690206  0.690206  0.500000  1
  Y  Y18  1  0.810550  0.189466  0.749781  1
  Y  Y19  1  0.189466  0.810550  0.250219  1
  Si  Si20  1  0.074836  0.714804  0.437245  1
  Si  Si21  1  0.923627  0.285307  0.937039  1
  Si  Si22  1  0.714804  0.074836  0.562755  1
  Si  Si23  1  0.214513  0.425921  0.188331  1
  Si  Si24  1  0.785174  0.575367  0.687524  1
  Si  Si25  1  0.425921  0.214513  0.811669  1
  Si  Si26  1  0.575367  0.785174  0.312476  1
  Si  Si27  1  0.285307  0.923627  0.062961  1
  Si  Si28  1  0.833596  0.807863  0.798235  1
  Si  Si29  1  0.166504  0.192055  0.297767  1
  Si  Si30  1  0.807863  0.833596  0.201765  1
  Si  Si31  1  0.308006  0.667113  0.547547  1
  Si  Si32  1  0.693373  0.333914  0.048059  1
  Si  Si33  1  0.667113  0.308006  0.452453  1
  Si  Si34  1  0.333914  0.693373  0.951941  1
  Si  Si35  1  0.192055  0.166504  0.702233  1
