# generated using pymatgen
data_YHf4Pt15
_symmetry_space_group_name_H-M   'P 1'
_cell_length_a   4.04619700
_cell_length_b   4.04619700
_cell_length_c   20.33326000
_cell_angle_alpha   90.00000000
_cell_angle_beta   90.00000000
_cell_angle_gamma   90.00000000
_symmetry_Int_Tables_number   1
_chemical_formula_structural   YHf4Pt15
_chemical_formula_sum   'Y1 Hf4 Pt15'
_cell_volume   332.89023939
_cell_formula_units_Z   1
loop_
 _symmetry_equiv_pos_site_id
 _symmetry_equiv_pos_as_xyz
  1  'x, y, z'
loop_
 _atom_site_type_symbol
 _atom_site_label
 _atom_site_symmetry_multiplicity
 _atom_site_fract_x
 _atom_site_fract_y
 _atom_site_fract_z
 _atom_site_occupancy
  Y  Y0  1  0.000000  0.000000  0.000000  1
  Hf  Hf1  1  0.000000  0.000000  0.201132  1
  Hf  Hf2  1  0.000000  0.000000  0.400521  1
  Hf  Hf3  1  0.000000  0.000000  0.599479  1
  Hf  Hf4  1  0.000000  0.000000  0.798868  1
  Pt  Pt5  1  0.500000  0.500000  0.000000  1
  Pt  Pt6  1  0.500000  0.500000  0.204298  1
  Pt  Pt7  1  0.500000  0.500000  0.401211  1
  Pt  Pt8  1  0.500000  0.500000  0.598789  1
  Pt  Pt9  1  0.500000  0.500000  0.795702  1
  Pt  Pt10  1  0.500000  0.000000  0.106020  1
  Pt  Pt11  1  0.500000  0.000000  0.302527  1
  Pt  Pt12  1  0.500000  0.000000  0.500000  1
  Pt  Pt13  1  0.500000  0.000000  0.697473  1
  Pt  Pt14  1  0.500000  0.000000  0.893980  1
  Pt  Pt15  1  0.000000  0.500000  0.106020  1
  Pt  Pt16  1  0.000000  0.500000  0.302527  1
  Pt  Pt17  1  0.000000  0.500000  0.500000  1
  Pt  Pt18  1  0.000000  0.500000  0.697473  1
  Pt  Pt19  1  0.000000  0.500000  0.893980  1
