# generated using pymatgen
data_Y12Co4BiPd
_symmetry_space_group_name_H-M   'P 1'
_cell_length_a   8.39859355
_cell_length_b   8.39859335
_cell_length_c   8.39859300
_cell_angle_alpha   110.48444087
_cell_angle_beta   110.90733588
_cell_angle_gamma   107.04899239
_symmetry_Int_Tables_number   1
_chemical_formula_structural   Y12Co4BiPd
_chemical_formula_sum   'Y12 Co4 Bi1 Pd1'
_cell_volume   455.42005316
_cell_formula_units_Z   1
loop_
 _symmetry_equiv_pos_site_id
 _symmetry_equiv_pos_as_xyz
  1  'x, y, z'
loop_
 _atom_site_type_symbol
 _atom_site_label
 _atom_site_symmetry_multiplicity
 _atom_site_fract_x
 _atom_site_fract_y
 _atom_site_fract_z
 _atom_site_occupancy
  Y  Y0  1  0.292670  0.184959  0.477629  1
  Y  Y1  1  0.707330  0.815041  0.522371  1
  Y  Y2  1  0.292670  0.815041  0.107713  1
  Y  Y3  1  0.707330  0.184959  0.892287  1
  Y  Y4  1  0.618882  0.311397  0.307485  1
  Y  Y5  1  0.381118  0.688603  0.692515  1
  Y  Y6  1  0.003912  0.311397  0.692515  1
  Y  Y7  1  0.996088  0.688603  0.307485  1
  Y  Y8  1  0.209296  0.410965  0.201668  1
  Y  Y9  1  0.790704  0.589035  0.798332  1
  Y  Y10  1  0.209296  0.007628  0.798332  1
  Y  Y11  1  0.790704  0.992372  0.201668  1
  Co  Co12  1  0.000000  0.381276  0.381276  1
  Co  Co13  1  0.000000  0.618724  0.618724  1
  Co  Co14  1  0.389187  0.889187  0.500000  1
  Co  Co15  1  0.610813  0.110813  0.500000  1
  Bi  Bi16  1  0.500000  0.500000  0.000000  1
  Pd  Pd17  1  0.000000  0.000000  0.000000  1
