# generated using pymatgen
data_Ho6Ga3CuNi12
_symmetry_space_group_name_H-M   'P 1'
_cell_length_a   7.61238661
_cell_length_b   7.69718009
_cell_length_c   7.69718030
_cell_angle_alpha   109.69329237
_cell_angle_beta   109.24821899
_cell_angle_gamma   109.24822296
_symmetry_Int_Tables_number   1
_chemical_formula_structural   Ho6Ga3CuNi12
_chemical_formula_sum   'Ho6 Ga3 Cu1 Ni12'
_cell_volume   348.13694239
_cell_formula_units_Z   1
loop_
 _symmetry_equiv_pos_site_id
 _symmetry_equiv_pos_as_xyz
  1  'x, y, z'
loop_
 _atom_site_type_symbol
 _atom_site_label
 _atom_site_symmetry_multiplicity
 _atom_site_fract_x
 _atom_site_fract_y
 _atom_site_fract_z
 _atom_site_occupancy
  Ho  Ho0  1  0.706463  0.709260  0.000000  1
  Ho  Ho1  1  0.293537  0.000000  0.290740  1
  Ho  Ho2  1  0.997203  0.290740  0.290740  1
  Ho  Ho3  1  0.293537  0.290740  0.000000  1
  Ho  Ho4  1  0.706463  0.000000  0.709260  1
  Ho  Ho5  1  0.002797  0.709260  0.709260  1
  Ga  Ga6  1  0.000000  0.000000  0.500000  1
  Ga  Ga7  1  0.000000  0.500000  0.000000  1
  Ga  Ga8  1  0.500000  0.500000  0.500000  1
  Cu  Cu9  1  0.500000  0.000000  0.000000  1
  Ni  Ni10  1  0.338625  0.338625  0.677252  1
  Ni  Ni11  1  0.660838  0.000000  0.338280  1
  Ni  Ni12  1  0.000000  0.661375  0.338625  1
  Ni  Ni13  1  0.660838  0.338280  0.000000  1
  Ni  Ni14  1  0.338625  0.677252  0.338625  1
  Ni  Ni15  1  0.000000  0.338625  0.661375  1
  Ni  Ni16  1  0.339162  0.661720  0.000000  1
  Ni  Ni17  1  0.339162  0.000000  0.661720  1
  Ni  Ni18  1  0.677443  0.338280  0.338280  1
  Ni  Ni19  1  0.661375  0.661375  0.322748  1
  Ni  Ni20  1  0.661375  0.322748  0.661375  1
  Ni  Ni21  1  0.322557  0.661720  0.661720  1
