# generated using pymatgen
data_Pr8Y12Si15P
_symmetry_space_group_name_H-M   'P 1'
_cell_length_a   7.55047512
_cell_length_b   7.83124025
_cell_length_c   14.86291800
_cell_angle_alpha   90.00000000
_cell_angle_beta   90.00000000
_cell_angle_gamma   90.38614815
_symmetry_Int_Tables_number   1
_chemical_formula_structural   Pr8Y12Si15P
_chemical_formula_sum   'Pr8 Y12 Si15 P1'
_cell_volume   878.81820882
_cell_formula_units_Z   1
loop_
 _symmetry_equiv_pos_site_id
 _symmetry_equiv_pos_as_xyz
  1  'x, y, z'
loop_
 _atom_site_type_symbol
 _atom_site_label
 _atom_site_symmetry_multiplicity
 _atom_site_fract_x
 _atom_site_fract_y
 _atom_site_fract_z
 _atom_site_occupancy
  Pr  Pr0  1  0.023595  0.179499  0.402691  1
  Pr  Pr1  1  0.522193  0.322163  0.403338  1
  Pr  Pr2  1  0.478230  0.677304  0.901494  1
  Pr  Pr3  1  0.478230  0.677304  0.598506  1
  Pr  Pr4  1  0.980079  0.822481  0.601391  1
  Pr  Pr5  1  0.980079  0.822481  0.898609  1
  Pr  Pr6  1  0.522193  0.322163  0.096662  1
  Pr  Pr7  1  0.023595  0.179499  0.097309  1
  Y  Y8  1  0.315655  0.171898  0.625378  1
  Y  Y9  1  0.680406  0.822222  0.377427  1
  Y  Y10  1  0.649905  0.988720  0.750000  1
  Y  Y11  1  0.179294  0.680054  0.377085  1
  Y  Y12  1  0.816718  0.324026  0.877689  1
  Y  Y13  1  0.816718  0.324026  0.622311  1
  Y  Y14  1  0.847768  0.487872  0.250000  1
  Y  Y15  1  0.350263  0.013516  0.250000  1
  Y  Y16  1  0.315655  0.171898  0.874622  1
  Y  Y17  1  0.179294  0.680054  0.122915  1
  Y  Y18  1  0.680406  0.822222  0.122573  1
  Y  Y19  1  0.151412  0.509018  0.750000  1
  Si  Si20  1  0.473023  0.611600  0.250000  1
  Si  Si21  1  0.013280  0.125819  0.750000  1
  Si  Si22  1  0.523140  0.384483  0.750000  1
  Si  Si23  1  0.145865  0.469083  0.540228  1
  Si  Si24  1  0.973674  0.890515  0.250000  1
  Si  Si25  1  0.731330  0.120482  0.250000  1
  Si  Si26  1  0.857380  0.532565  0.039779  1
  Si  Si27  1  0.356386  0.969445  0.039164  1
  Si  Si28  1  0.145865  0.469083  0.959772  1
  Si  Si29  1  0.642917  0.029179  0.540744  1
  Si  Si30  1  0.356386  0.969445  0.460836  1
  Si  Si31  1  0.857380  0.532565  0.460221  1
  Si  Si32  1  0.771952  0.623605  0.750000  1
  Si  Si33  1  0.231294  0.380906  0.250000  1
  Si  Si34  1  0.642917  0.029179  0.959256  1
  P  P35  1  0.285519  0.863626  0.750000  1
