# generated using pymatgen
data_Mo2Ir4RuRh
_symmetry_space_group_name_H-M   'P 1'
_cell_length_a   5.51893600
_cell_length_b   5.52921390
_cell_length_c   4.41329100
_cell_angle_alpha   90.00000000
_cell_angle_beta   90.00000000
_cell_angle_gamma   119.93852924
_symmetry_Int_Tables_number   1
_chemical_formula_structural   Mo2Ir4RuRh
_chemical_formula_sum   'Mo2 Ir4 Ru1 Rh1'
_cell_volume   116.70262448
_cell_formula_units_Z   1
loop_
 _symmetry_equiv_pos_site_id
 _symmetry_equiv_pos_as_xyz
  1  'x, y, z'
loop_
 _atom_site_type_symbol
 _atom_site_label
 _atom_site_symmetry_multiplicity
 _atom_site_fract_x
 _atom_site_fract_y
 _atom_site_fract_z
 _atom_site_occupancy
  Mo  Mo0  1  0.666878  0.333754  0.250000  1
  Mo  Mo1  1  0.332878  0.665757  0.750000  1
  Ir  Ir2  1  0.834443  0.168086  0.750000  1
  Ir  Ir3  1  0.333643  0.168086  0.750000  1
  Ir  Ir4  1  0.165274  0.832996  0.250000  1
  Ir  Ir5  1  0.667721  0.832996  0.250000  1
  Ru  Ru6  1  0.166000  0.332002  0.250000  1
  Rh  Rh7  1  0.833163  0.666324  0.750000  1
