# generated using pymatgen
data_Gd7Ho3Si6N
_symmetry_space_group_name_H-M   'P 1'
_cell_length_a   8.42310900
_cell_length_b   8.42310793
_cell_length_c   6.34128900
_cell_angle_alpha   90.00000000
_cell_angle_beta   90.00000000
_cell_angle_gamma   119.99999243
_symmetry_Int_Tables_number   1
_chemical_formula_structural   Gd7Ho3Si6N
_chemical_formula_sum   'Gd7 Ho3 Si6 N1'
_cell_volume   389.63054622
_cell_formula_units_Z   1
loop_
 _symmetry_equiv_pos_site_id
 _symmetry_equiv_pos_as_xyz
  1  'x, y, z'
loop_
 _atom_site_type_symbol
 _atom_site_label
 _atom_site_symmetry_multiplicity
 _atom_site_fract_x
 _atom_site_fract_y
 _atom_site_fract_z
 _atom_site_occupancy
  Gd  Gd0  1  0.333333  0.666667  0.000000  1
  Gd  Gd1  1  0.999897  0.765721  0.265495  1
  Gd  Gd2  1  0.234279  0.234176  0.265495  1
  Gd  Gd3  1  0.765824  0.000103  0.265495  1
  Gd  Gd4  1  0.999897  0.234176  0.734505  1
  Gd  Gd5  1  0.765824  0.765721  0.734505  1
  Gd  Gd6  1  0.234279  0.000103  0.734505  1
  Ho  Ho7  1  0.333333  0.666667  0.500000  1
  Ho  Ho8  1  0.666667  0.333333  0.500000  1
  Ho  Ho9  1  0.666667  0.333333  0.000000  1
  Si  Si10  1  0.998858  0.399912  0.252348  1
  Si  Si11  1  0.600088  0.598946  0.252348  1
  Si  Si12  1  0.401054  0.001142  0.252348  1
  Si  Si13  1  0.998858  0.598946  0.747652  1
  Si  Si14  1  0.401054  0.399912  0.747652  1
  Si  Si15  1  0.600088  0.001142  0.747652  1
  N  N16  1  0.000000  0.000000  0.500000  1
