# generated using pymatgen
data_TbDyTcB6
_symmetry_space_group_name_H-M   'P 1'
_cell_length_a   3.69807200
_cell_length_b   9.18239700
_cell_length_c   11.57491600
_cell_angle_alpha   90.00000000
_cell_angle_beta   90.00000000
_cell_angle_gamma   90.00000000
_symmetry_Int_Tables_number   1
_chemical_formula_structural   TbDyTcB6
_chemical_formula_sum   'Tb4 Dy4 Tc4 B24'
_cell_volume   393.05133523
_cell_formula_units_Z   4
loop_
 _symmetry_equiv_pos_site_id
 _symmetry_equiv_pos_as_xyz
  1  'x, y, z'
loop_
 _atom_site_type_symbol
 _atom_site_label
 _atom_site_symmetry_multiplicity
 _atom_site_fract_x
 _atom_site_fract_y
 _atom_site_fract_z
 _atom_site_occupancy
  Tb  Tb0  1  0.000000  0.323973  0.414338  1
  Tb  Tb1  1  0.000000  0.676027  0.585662  1
  Tb  Tb2  1  0.000000  0.823973  0.085662  1
  Tb  Tb3  1  0.000000  0.176027  0.914338  1
  Dy  Dy4  1  0.000000  0.942945  0.369419  1
  Dy  Dy5  1  0.000000  0.057055  0.630581  1
  Dy  Dy6  1  0.000000  0.442945  0.130581  1
  Dy  Dy7  1  0.000000  0.557055  0.869419  1
  Tc  Tc8  1  0.000000  0.639163  0.320336  1
  Tc  Tc9  1  0.000000  0.360837  0.679664  1
  Tc  Tc10  1  0.000000  0.139163  0.179664  1
  Tc  Tc11  1  0.000000  0.860837  0.820336  1
  B  B12  1  0.500000  0.553814  0.432504  1
  B  B13  1  0.500000  0.446186  0.567496  1
  B  B14  1  0.500000  0.053814  0.067496  1
  B  B15  1  0.500000  0.946186  0.932504  1
  B  B16  1  0.500000  0.748694  0.418087  1
  B  B17  1  0.500000  0.251306  0.581913  1
  B  B18  1  0.500000  0.248694  0.081913  1
  B  B19  1  0.500000  0.751306  0.918087  1
  B  B20  1  0.500000  0.791796  0.265468  1
  B  B21  1  0.500000  0.208204  0.734532  1
  B  B22  1  0.500000  0.291796  0.234532  1
  B  B23  1  0.500000  0.708204  0.765468  1
  B  B24  1  0.500000  0.630973  0.185783  1
  B  B25  1  0.500000  0.369027  0.814217  1
  B  B26  1  0.500000  0.130973  0.314217  1
  B  B27  1  0.500000  0.869027  0.685783  1
  B  B28  1  0.500000  0.982844  0.211774  1
  B  B29  1  0.500000  0.017156  0.788226  1
  B  B30  1  0.500000  0.482844  0.288226  1
  B  B31  1  0.500000  0.517156  0.711774  1
  B  B32  1  0.500000  0.600155  0.027945  1
  B  B33  1  0.500000  0.399845  0.972055  1
  B  B34  1  0.500000  0.100155  0.472055  1
  B  B35  1  0.500000  0.899845  0.527945  1
