# generated using pymatgen
data_TbBiRh2O7
_symmetry_space_group_name_H-M   'P 1'
_cell_length_a   7.28586974
_cell_length_b   7.28587015
_cell_length_c   7.25559900
_cell_angle_alpha   60.13734846
_cell_angle_beta   60.13734663
_cell_angle_gamma   60.29432036
_symmetry_Int_Tables_number   1
_chemical_formula_structural   TbBiRh2O7
_chemical_formula_sum   'Tb2 Bi2 Rh4 O14'
_cell_volume   273.51447283
_cell_formula_units_Z   2
loop_
 _symmetry_equiv_pos_site_id
 _symmetry_equiv_pos_as_xyz
  1  'x, y, z'
loop_
 _atom_site_type_symbol
 _atom_site_label
 _atom_site_symmetry_multiplicity
 _atom_site_fract_x
 _atom_site_fract_y
 _atom_site_fract_z
 _atom_site_occupancy
  Tb  Tb0  1  0.125000  0.125000  0.125000  1
  Tb  Tb1  1  0.125000  0.125000  0.625000  1
  Bi  Bi2  1  0.125000  0.625000  0.125000  1
  Bi  Bi3  1  0.625000  0.125000  0.125000  1
  Rh  Rh4  1  0.625000  0.625000  0.625000  1
  Rh  Rh5  1  0.625000  0.625000  0.125000  1
  Rh  Rh6  1  0.125000  0.625000  0.625000  1
  Rh  Rh7  1  0.625000  0.125000  0.625000  1
  O  O8  1  0.247422  0.247422  0.252578  1
  O  O9  1  0.289194  0.714852  0.289140  1
  O  O10  1  0.961637  0.961637  0.538363  1
  O  O11  1  0.535148  0.960806  0.543186  1
  O  O12  1  0.706805  0.706805  0.293195  1
  O  O13  1  0.960806  0.535148  0.543186  1
  O  O14  1  0.714852  0.289194  0.706814  1
  O  O15  1  0.288363  0.288363  0.711637  1
  O  O16  1  0.714852  0.289194  0.289140  1
  O  O17  1  0.289194  0.714852  0.706814  1
  O  O18  1  0.960806  0.535148  0.960860  1
  O  O19  1  0.543195  0.543195  0.956805  1
  O  O20  1  0.002578  0.002578  0.997422  1
  O  O21  1  0.535148  0.960806  0.960860  1
