# generated using pymatgen
data_Tb2Co9As7Ru3
_symmetry_space_group_name_H-M   'P 1'
_cell_length_a   3.82414300
_cell_length_b   9.39615481
_cell_length_c   9.39615400
_cell_angle_alpha   119.99999714
_cell_angle_beta   90.00000000
_cell_angle_gamma   90.00000000
_symmetry_Int_Tables_number   1
_chemical_formula_structural   Tb2Co9As7Ru3
_chemical_formula_sum   'Tb2 Co9 As7 Ru3'
_cell_volume   292.39171184
_cell_formula_units_Z   1
loop_
 _symmetry_equiv_pos_site_id
 _symmetry_equiv_pos_as_xyz
  1  'x, y, z'
loop_
 _atom_site_type_symbol
 _atom_site_label
 _atom_site_symmetry_multiplicity
 _atom_site_fract_x
 _atom_site_fract_y
 _atom_site_fract_z
 _atom_site_occupancy
  Tb  Tb0  1  0.000000  0.666667  0.333333  1
  Tb  Tb1  1  0.500000  0.333333  0.666667  1
  Co  Co2  1  0.000000  0.569373  0.940935  1
  Co  Co3  1  0.000000  0.371563  0.430627  1
  Co  Co4  1  0.000000  0.059065  0.628437  1
  Co  Co5  1  0.000000  0.875992  0.157970  1
  Co  Co6  1  0.000000  0.281977  0.124008  1
  Co  Co7  1  0.000000  0.842030  0.718023  1
  Co  Co8  1  0.500000  0.947053  0.383050  1
  Co  Co9  1  0.500000  0.435996  0.052947  1
  Co  Co10  1  0.500000  0.616950  0.564004  1
  As  As11  1  0.000000  0.000000  0.000000  1
  As  As12  1  0.500000  0.708203  0.116832  1
  As  As13  1  0.500000  0.408629  0.291797  1
  As  As14  1  0.500000  0.883168  0.591371  1
  As  As15  1  0.000000  0.588144  0.701195  1
  As  As16  1  0.000000  0.113052  0.411856  1
  As  As17  1  0.000000  0.298805  0.886948  1
  Ru  Ru18  1  0.500000  0.781087  0.900296  1
  Ru  Ru19  1  0.500000  0.119210  0.218913  1
  Ru  Ru20  1  0.500000  0.099704  0.880790  1
