# generated using pymatgen
data_Sc5Mo2P12Ir4Rh13
_symmetry_space_group_name_H-M   'P 1'
_cell_length_a   12.63841468
_cell_length_b   12.63841515
_cell_length_c   3.88205300
_cell_angle_alpha   90.00000000
_cell_angle_beta   90.00000000
_cell_angle_gamma   120.65670933
_symmetry_Int_Tables_number   1
_chemical_formula_structural   Sc5Mo2P12Ir4Rh13
_chemical_formula_sum   'Sc5 Mo2 P12 Ir4 Rh13'
_cell_volume   533.41495509
_cell_formula_units_Z   1
loop_
 _symmetry_equiv_pos_site_id
 _symmetry_equiv_pos_as_xyz
  1  'x, y, z'
loop_
 _atom_site_type_symbol
 _atom_site_label
 _atom_site_symmetry_multiplicity
 _atom_site_fract_x
 _atom_site_fract_y
 _atom_site_fract_z
 _atom_site_occupancy
  Sc  Sc0  1  0.329944  0.670342  0.000000  1
  Sc  Sc1  1  0.670342  0.329944  0.000000  1
  Sc  Sc2  1  0.817683  0.003301  0.500000  1
  Sc  Sc3  1  0.003301  0.817683  0.500000  1
  Sc  Sc4  1  0.185879  0.185879  0.500000  1
  Mo  Mo5  1  0.452517  0.003495  0.000000  1
  Mo  Mo6  1  0.003495  0.452517  0.000000  1
  P  P7  1  0.173930  0.999803  0.000000  1
  P  P8  1  0.999803  0.173930  0.000000  1
  P  P9  1  0.819242  0.819242  0.000000  1
  P  P10  1  0.166786  0.486312  0.500000  1
  P  P11  1  0.513468  0.685618  0.500000  1
  P  P12  1  0.319734  0.836062  0.500000  1
  P  P13  1  0.685618  0.513468  0.500000  1
  P  P14  1  0.836062  0.319734  0.500000  1
  P  P15  1  0.486312  0.166786  0.500000  1
  P  P16  1  0.638571  0.998628  0.000000  1
  P  P17  1  0.998628  0.638571  0.000000  1
  P  P18  1  0.358407  0.358407  0.000000  1
  Ir  Ir19  1  0.281972  0.000581  0.500000  1
  Ir  Ir20  1  0.000581  0.281972  0.500000  1
  Ir  Ir21  1  0.715960  0.715960  0.500000  1
  Ir  Ir22  1  0.996108  0.996108  0.000000  1
  Rh  Rh23  1  0.542287  0.542287  0.000000  1
  Rh  Rh24  1  0.353513  0.492966  0.500000  1
  Rh  Rh25  1  0.514996  0.872662  0.500000  1
  Rh  Rh26  1  0.135288  0.646761  0.500000  1
  Rh  Rh27  1  0.872662  0.514996  0.500000  1
  Rh  Rh28  1  0.646761  0.135288  0.500000  1
  Rh  Rh29  1  0.492966  0.353513  0.500000  1
  Rh  Rh30  1  0.179508  0.369496  0.000000  1
  Rh  Rh31  1  0.622627  0.802052  0.000000  1
  Rh  Rh32  1  0.191754  0.821751  0.000000  1
  Rh  Rh33  1  0.802052  0.622627  0.000000  1
  Rh  Rh34  1  0.821751  0.191754  0.000000  1
  Rh  Rh35  1  0.369496  0.179508  0.000000  1
