# generated using pymatgen
data_Tb3Nd6Ho(In2Pd)4
_symmetry_space_group_name_H-M   'P 1'
_cell_length_a   3.73883100
_cell_length_b   8.30842610
_cell_length_c   18.51588723
_cell_angle_alpha   89.98191663
_cell_angle_beta   90.00000000
_cell_angle_gamma   90.00000000
_symmetry_Int_Tables_number   1
_chemical_formula_structural   Tb3Nd6Ho(In2Pd)4
_chemical_formula_sum   'Tb3 Nd6 Ho1 In8 Pd4'
_cell_volume   575.17380904
_cell_formula_units_Z   1
loop_
 _symmetry_equiv_pos_site_id
 _symmetry_equiv_pos_as_xyz
  1  'x, y, z'
loop_
 _atom_site_type_symbol
 _atom_site_label
 _atom_site_symmetry_multiplicity
 _atom_site_fract_x
 _atom_site_fract_y
 _atom_site_fract_z
 _atom_site_occupancy
  Tb  Tb0  1  0.000000  0.618290  0.084841  1
  Tb  Tb1  1  0.000000  0.381672  0.915191  1
  Tb  Tb2  1  0.000000  0.881692  0.584731  1
  Nd  Nd3  1  0.000000  0.499944  0.499961  1
  Nd  Nd4  1  0.000000  0.999996  0.000010  1
  Nd  Nd5  1  0.000000  0.736735  0.284950  1
  Nd  Nd6  1  0.000000  0.263420  0.715185  1
  Nd  Nd7  1  0.000000  0.763468  0.784796  1
  Nd  Nd8  1  0.000000  0.236457  0.215294  1
  Ho  Ho9  1  0.000000  0.117842  0.414699  1
  In  In10  1  0.500000  0.697741  0.936215  1
  In  In11  1  0.500000  0.302192  0.063770  1
  In  In12  1  0.500000  0.803083  0.436240  1
  In  In13  1  0.500000  0.197561  0.563376  1
  In  In14  1  0.500000  0.588694  0.652170  1
  In  In15  1  0.500000  0.410688  0.348029  1
  In  In16  1  0.500000  0.911445  0.152202  1
  In  In17  1  0.500000  0.088590  0.847827  1
  Pd  Pd18  1  0.500000  0.524233  0.193849  1
  Pd  Pd19  1  0.500000  0.475761  0.806155  1
  Pd  Pd20  1  0.500000  0.975760  0.693899  1
  Pd  Pd21  1  0.500000  0.024735  0.306610  1
