# generated using pymatgen
data_Pr2Nd2SiBr5
_symmetry_space_group_name_H-M   'P 1'
_cell_length_a   9.69094985
_cell_length_b   9.69095050
_cell_length_c   8.72427787
_cell_angle_alpha   77.71567322
_cell_angle_beta   77.71567172
_cell_angle_gamma   25.09822477
_symmetry_Int_Tables_number   1
_chemical_formula_structural   Pr2Nd2SiBr5
_chemical_formula_sum   'Pr2 Nd2 Si1 Br5'
_cell_volume   339.18256452
_cell_formula_units_Z   1
loop_
 _symmetry_equiv_pos_site_id
 _symmetry_equiv_pos_as_xyz
  1  'x, y, z'
loop_
 _atom_site_type_symbol
 _atom_site_label
 _atom_site_symmetry_multiplicity
 _atom_site_fract_x
 _atom_site_fract_y
 _atom_site_fract_z
 _atom_site_occupancy
  Pr  Pr0  1  0.501087  0.501087  0.226015  1
  Pr  Pr1  1  0.498913  0.498913  0.773985  1
  Nd  Nd2  1  0.849836  0.849836  0.079639  1
  Nd  Nd3  1  0.150164  0.150164  0.920361  1
  Si  Si4  1  0.000000  0.000000  0.000000  1
  Br  Br5  1  0.672313  0.672313  0.158231  1
  Br  Br6  1  0.327687  0.327687  0.841769  1
  Br  Br7  1  0.665207  0.665207  0.673289  1
  Br  Br8  1  0.334793  0.334793  0.326711  1
  Br  Br9  1  0.000000  0.000000  0.500000  1
