# generated using pymatgen
data_SmSi2Tc3Mo
_symmetry_space_group_name_H-M   'P 1'
_cell_length_a   7.86696224
_cell_length_b   7.00632985
_cell_length_c   4.20453100
_cell_angle_alpha   90.00000000
_cell_angle_beta   90.00000000
_cell_angle_gamma   89.96312638
_symmetry_Int_Tables_number   1
_chemical_formula_structural   SmSi2Tc3Mo
_chemical_formula_sum   'Sm2 Si4 Tc6 Mo2'
_cell_volume   231.74753006
_cell_formula_units_Z   2
loop_
 _symmetry_equiv_pos_site_id
 _symmetry_equiv_pos_as_xyz
  1  'x, y, z'
loop_
 _atom_site_type_symbol
 _atom_site_label
 _atom_site_symmetry_multiplicity
 _atom_site_fract_x
 _atom_site_fract_y
 _atom_site_fract_z
 _atom_site_occupancy
  Sm  Sm0  1  0.500000  0.500000  0.000000  1
  Sm  Sm1  1  0.000000  0.000000  0.500000  1
  Si  Si2  1  0.690437  0.730616  0.500000  1
  Si  Si3  1  0.309563  0.269384  0.500000  1
  Si  Si4  1  0.186489  0.764814  0.000000  1
  Si  Si5  1  0.813511  0.235186  0.000000  1
  Tc  Tc6  1  0.111388  0.346492  0.000000  1
  Tc  Tc7  1  0.888612  0.653508  0.000000  1
  Tc  Tc8  1  0.157473  0.575263  0.500000  1
  Tc  Tc9  1  0.842527  0.424737  0.500000  1
  Tc  Tc10  1  0.334872  0.074732  0.000000  1
  Tc  Tc11  1  0.665128  0.925268  0.000000  1
  Mo  Mo12  1  0.614334  0.149942  0.500000  1
  Mo  Mo13  1  0.385666  0.850058  0.500000  1
