# generated using pymatgen
data_HoTm3(Lu2Co)4
_symmetry_space_group_name_H-M   'P 1'
_cell_length_a   6.12493751
_cell_length_b   6.87330558
_cell_length_c   9.11681200
_cell_angle_alpha   90.00000000
_cell_angle_beta   90.00000000
_cell_angle_gamma   89.86062340
_symmetry_Int_Tables_number   1
_chemical_formula_structural   HoTm3(Lu2Co)4
_chemical_formula_sum   'Ho1 Tm3 Lu8 Co4'
_cell_volume   383.80358677
_cell_formula_units_Z   1
loop_
 _symmetry_equiv_pos_site_id
 _symmetry_equiv_pos_as_xyz
  1  'x, y, z'
loop_
 _atom_site_type_symbol
 _atom_site_label
 _atom_site_symmetry_multiplicity
 _atom_site_fract_x
 _atom_site_fract_y
 _atom_site_fract_z
 _atom_site_occupancy
  Ho  Ho0  1  0.366292  0.959360  0.750000  1
  Tm  Tm1  1  0.866066  0.540603  0.250000  1
  Tm  Tm2  1  0.633979  0.040811  0.250000  1
  Tm  Tm3  1  0.133767  0.459375  0.750000  1
  Lu  Lu4  1  0.324523  0.675954  0.065975  1
  Lu  Lu5  1  0.175338  0.176448  0.433802  1
  Lu  Lu6  1  0.675456  0.324081  0.565673  1
  Lu  Lu7  1  0.824762  0.823500  0.934555  1
  Lu  Lu8  1  0.675456  0.324081  0.934327  1
  Lu  Lu9  1  0.824762  0.823500  0.565445  1
  Lu  Lu10  1  0.324523  0.675954  0.434025  1
  Lu  Lu11  1  0.175338  0.176448  0.066198  1
  Co  Co12  1  0.046031  0.887905  0.250000  1
  Co  Co13  1  0.453847  0.387765  0.250000  1
  Co  Co14  1  0.953677  0.112566  0.750000  1
  Co  Co15  1  0.546181  0.611648  0.750000  1
