# generated using pymatgen
data_Hf2NbB2Os5
_symmetry_space_group_name_H-M   'P 1'
_cell_length_a   9.53864000
_cell_length_b   9.53864000
_cell_length_c   3.11760800
_cell_angle_alpha   90.00000000
_cell_angle_beta   90.00000000
_cell_angle_gamma   90.00000000
_symmetry_Int_Tables_number   1
_chemical_formula_structural   Hf2NbB2Os5
_chemical_formula_sum   'Hf4 Nb2 B4 Os10'
_cell_volume   283.65759983
_cell_formula_units_Z   2
loop_
 _symmetry_equiv_pos_site_id
 _symmetry_equiv_pos_as_xyz
  1  'x, y, z'
loop_
 _atom_site_type_symbol
 _atom_site_label
 _atom_site_symmetry_multiplicity
 _atom_site_fract_x
 _atom_site_fract_y
 _atom_site_fract_z
 _atom_site_occupancy
  Hf  Hf0  1  0.823930  0.676070  0.000000  1
  Hf  Hf1  1  0.176070  0.323930  0.000000  1
  Hf  Hf2  1  0.323930  0.823930  0.000000  1
  Hf  Hf3  1  0.676070  0.176070  0.000000  1
  Nb  Nb4  1  0.500000  0.500000  0.000000  1
  Nb  Nb5  1  0.000000  0.000000  0.000000  1
  B  B6  1  0.621251  0.878749  0.000000  1
  B  B7  1  0.378749  0.121251  0.000000  1
  B  B8  1  0.121251  0.621251  0.000000  1
  B  B9  1  0.878749  0.378749  0.000000  1
  Os  Os10  1  0.570685  0.718486  0.500000  1
  Os  Os11  1  0.429315  0.281514  0.500000  1
  Os  Os12  1  0.070685  0.781514  0.500000  1
  Os  Os13  1  0.929315  0.218486  0.500000  1
  Os  Os14  1  0.281514  0.570685  0.500000  1
  Os  Os15  1  0.718486  0.429315  0.500000  1
  Os  Os16  1  0.218486  0.070685  0.500000  1
  Os  Os17  1  0.781514  0.929315  0.500000  1
  Os  Os18  1  0.500000  0.000000  0.500000  1
  Os  Os19  1  0.000000  0.500000  0.500000  1
