# generated using pymatgen
data_Ho4LuIr2Rh
_symmetry_space_group_name_H-M   'P 1'
_cell_length_a   10.79364700
_cell_length_b   10.79364700
_cell_length_c   6.32756300
_cell_angle_alpha   90.00000000
_cell_angle_beta   90.00000000
_cell_angle_gamma   90.00000000
_symmetry_Int_Tables_number   1
_chemical_formula_structural   Ho4LuIr2Rh
_chemical_formula_sum   'Ho16 Lu4 Ir8 Rh4'
_cell_volume   737.17890514
_cell_formula_units_Z   4
loop_
 _symmetry_equiv_pos_site_id
 _symmetry_equiv_pos_as_xyz
  1  'x, y, z'
loop_
 _atom_site_type_symbol
 _atom_site_label
 _atom_site_symmetry_multiplicity
 _atom_site_fract_x
 _atom_site_fract_y
 _atom_site_fract_z
 _atom_site_occupancy
  Ho  Ho0  1  0.289847  0.087992  0.378157  1
  Ho  Ho1  1  0.289847  0.912008  0.878157  1
  Ho  Ho2  1  0.710153  0.087992  0.878157  1
  Ho  Ho3  1  0.710153  0.912008  0.378157  1
  Ho  Ho4  1  0.587992  0.789847  0.878157  1
  Ho  Ho5  1  0.587992  0.210153  0.378157  1
  Ho  Ho6  1  0.412008  0.789847  0.378157  1
  Ho  Ho7  1  0.412008  0.210153  0.878157  1
  Ho  Ho8  1  0.210153  0.412008  0.621843  1
  Ho  Ho9  1  0.210153  0.587992  0.121843  1
  Ho  Ho10  1  0.789847  0.412008  0.121843  1
  Ho  Ho11  1  0.789847  0.587992  0.621843  1
  Ho  Ho12  1  0.912008  0.710153  0.121843  1
  Ho  Ho13  1  0.912008  0.289847  0.621843  1
  Ho  Ho14  1  0.087992  0.710153  0.621843  1
  Ho  Ho15  1  0.087992  0.289847  0.121843  1
  Lu  Lu16  1  0.000000  0.000000  0.500000  1
  Lu  Lu17  1  0.000000  0.000000  0.000000  1
  Lu  Lu18  1  0.500000  0.500000  0.000000  1
  Lu  Lu19  1  0.500000  0.500000  0.500000  1
  Ir  Ir20  1  0.847973  0.152027  0.250000  1
  Ir  Ir21  1  0.847973  0.847973  0.750000  1
  Ir  Ir22  1  0.152027  0.152027  0.750000  1
  Ir  Ir23  1  0.152027  0.847973  0.250000  1
  Ir  Ir24  1  0.652027  0.347973  0.750000  1
  Ir  Ir25  1  0.652027  0.652027  0.250000  1
  Ir  Ir26  1  0.347973  0.347973  0.250000  1
  Ir  Ir27  1  0.347973  0.652027  0.750000  1
  Rh  Rh28  1  0.500000  0.000000  0.122123  1
  Rh  Rh29  1  0.500000  0.000000  0.622123  1
  Rh  Rh30  1  0.000000  0.500000  0.877877  1
  Rh  Rh31  1  0.000000  0.500000  0.377877  1
