# generated using pymatgen
data_Sm4Ga18(CoPt)3
_symmetry_space_group_name_H-M   'P 1'
_cell_length_a   7.57344551
_cell_length_b   7.57344618
_cell_length_c   9.53763801
_cell_angle_alpha   89.84872783
_cell_angle_beta   89.84872841
_cell_angle_gamma   119.74715121
_symmetry_Int_Tables_number   1
_chemical_formula_structural   Sm4Ga18(CoPt)3
_chemical_formula_sum   'Sm4 Ga18 Co3 Pt3'
_cell_volume   474.95602823
_cell_formula_units_Z   1
loop_
 _symmetry_equiv_pos_site_id
 _symmetry_equiv_pos_as_xyz
  1  'x, y, z'
loop_
 _atom_site_type_symbol
 _atom_site_label
 _atom_site_symmetry_multiplicity
 _atom_site_fract_x
 _atom_site_fract_y
 _atom_site_fract_z
 _atom_site_occupancy
  Sm  Sm0  1  0.502798  0.831002  0.250346  1
  Sm  Sm1  1  0.496677  0.168752  0.751073  1
  Sm  Sm2  1  0.168998  0.497202  0.749654  1
  Sm  Sm3  1  0.831248  0.503323  0.248927  1
  Ga  Ga4  1  0.161021  0.953268  0.240778  1
  Ga  Ga5  1  0.838198  0.046274  0.744400  1
  Ga  Ga6  1  0.046732  0.838979  0.759222  1
  Ga  Ga7  1  0.953726  0.161802  0.255600  1
  Ga  Ga8  1  0.626086  0.626735  0.758587  1
  Ga  Ga9  1  0.373265  0.373914  0.241413  1
  Ga  Ga10  1  0.157550  0.165108  0.563143  1
  Ga  Ga11  1  0.830899  0.824948  0.058947  1
  Ga  Ga12  1  0.834892  0.842450  0.436857  1
  Ga  Ga13  1  0.175052  0.169101  0.941053  1
  Ga  Ga14  1  0.510676  0.843932  0.577625  1
  Ga  Ga15  1  0.491644  0.165311  0.073010  1
  Ga  Ga16  1  0.156068  0.489324  0.422375  1
  Ga  Ga17  1  0.834689  0.508356  0.926990  1
  Ga  Ga18  1  0.511940  0.166398  0.422283  1
  Ga  Ga19  1  0.489424  0.825732  0.927099  1
  Ga  Ga20  1  0.833602  0.488060  0.577717  1
  Ga  Ga21  1  0.174268  0.510576  0.072901  1
  Co  Co22  1  0.499913  0.500087  0.000000  1
  Co  Co23  1  0.830497  0.169503  0.500000  1
  Co  Co24  1  0.170248  0.829752  0.000000  1
  Pt  Pt25  1  0.500223  0.499777  0.500000  1
  Pt  Pt26  1  0.170521  0.829479  0.500000  1
  Pt  Pt27  1  0.829143  0.170857  0.000000  1
