# generated using pymatgen
data_Tb3YSn2Sb4Rh7
_symmetry_space_group_name_H-M   'P 1'
_cell_length_a   7.63050236
_cell_length_b   7.63321912
_cell_length_c   7.63107315
_cell_angle_alpha   109.53610289
_cell_angle_beta   109.52170346
_cell_angle_gamma   109.36010501
_symmetry_Int_Tables_number   1
_chemical_formula_structural   Tb3YSn2Sb4Rh7
_chemical_formula_sum   'Tb3 Y1 Sn2 Sb4 Rh7'
_cell_volume   342.13764458
_cell_formula_units_Z   1
loop_
 _symmetry_equiv_pos_site_id
 _symmetry_equiv_pos_as_xyz
  1  'x, y, z'
loop_
 _atom_site_type_symbol
 _atom_site_label
 _atom_site_symmetry_multiplicity
 _atom_site_fract_x
 _atom_site_fract_y
 _atom_site_fract_z
 _atom_site_occupancy
  Tb  Tb0  1  0.999766  0.502816  0.000000  1
  Tb  Tb1  1  0.999287  0.000709  0.500002  1
  Tb  Tb2  1  0.499285  0.500707  0.499998  1
  Y  Y3  1  0.497196  0.000208  0.000000  1
  Sn  Sn4  1  0.998148  0.314576  0.312896  1
  Sn  Sn5  1  0.685251  0.001679  0.687104  1
  Sb  Sb6  1  0.681645  0.684407  0.000000  1
  Sb  Sb7  1  0.998749  0.678163  0.676741  1
  Sb  Sb8  1  0.322007  0.001421  0.323259  1
  Sb  Sb9  1  0.315785  0.318143  0.000000  1
  Rh  Rh10  1  0.004597  0.995414  0.000000  1
  Rh  Rh11  1  0.500148  0.750083  0.250169  1
  Rh  Rh12  1  0.747704  0.499731  0.247425  1
  Rh  Rh13  1  0.250084  0.749859  0.499993  1
  Rh  Rh14  1  0.249979  0.499914  0.749831  1
  Rh  Rh15  1  0.500279  0.252306  0.752575  1
  Rh  Rh16  1  0.750090  0.249865  0.500007  1
