# generated using pymatgen
data_Tm10RuAu3
_symmetry_space_group_name_H-M   'P 1'
_cell_length_a   9.34129900
_cell_length_b   9.34129991
_cell_length_c   9.37104600
_cell_angle_alpha   90.00000000
_cell_angle_beta   90.00000000
_cell_angle_gamma   120.00000032
_symmetry_Int_Tables_number   1
_chemical_formula_structural   Tm10RuAu3
_chemical_formula_sum   'Tm20 Ru2 Au6'
_cell_volume   708.16309293
_cell_formula_units_Z   2
loop_
 _symmetry_equiv_pos_site_id
 _symmetry_equiv_pos_as_xyz
  1  'x, y, z'
loop_
 _atom_site_type_symbol
 _atom_site_label
 _atom_site_symmetry_multiplicity
 _atom_site_fract_x
 _atom_site_fract_y
 _atom_site_fract_z
 _atom_site_occupancy
  Tm  Tm0  1  0.000000  0.000000  0.500000  1
  Tm  Tm1  1  0.000000  0.000000  0.000000  1
  Tm  Tm2  1  0.207691  0.792309  0.441583  1
  Tm  Tm3  1  0.207691  0.415384  0.441583  1
  Tm  Tm4  1  0.584616  0.792309  0.441583  1
  Tm  Tm5  1  0.792309  0.207691  0.558417  1
  Tm  Tm6  1  0.792309  0.584616  0.558417  1
  Tm  Tm7  1  0.415384  0.207691  0.558417  1
  Tm  Tm8  1  0.792309  0.207691  0.941583  1
  Tm  Tm9  1  0.792309  0.584616  0.941583  1
  Tm  Tm10  1  0.415384  0.207691  0.941583  1
  Tm  Tm11  1  0.207691  0.792309  0.058417  1
  Tm  Tm12  1  0.207691  0.415384  0.058417  1
  Tm  Tm13  1  0.584616  0.792309  0.058417  1
  Tm  Tm14  1  0.541598  0.458402  0.250000  1
  Tm  Tm15  1  0.541598  0.083194  0.250000  1
  Tm  Tm16  1  0.916806  0.458402  0.250000  1
  Tm  Tm17  1  0.458402  0.541598  0.750000  1
  Tm  Tm18  1  0.458402  0.916806  0.750000  1
  Tm  Tm19  1  0.083194  0.541598  0.750000  1
  Ru  Ru20  1  0.333333  0.666667  0.250000  1
  Ru  Ru21  1  0.666667  0.333333  0.750000  1
  Au  Au22  1  0.878888  0.121112  0.250000  1
  Au  Au23  1  0.878888  0.757778  0.250000  1
  Au  Au24  1  0.242222  0.121112  0.250000  1
  Au  Au25  1  0.121112  0.878888  0.750000  1
  Au  Au26  1  0.121112  0.242222  0.750000  1
  Au  Au27  1  0.757778  0.878888  0.750000  1
