# generated using pymatgen
data_Tm20Si12C
_symmetry_space_group_name_H-M   'P 1'
_cell_length_a   14.45664300
_cell_length_b   6.23741616
_cell_length_c   8.30595706
_cell_angle_alpha   89.92017258
_cell_angle_beta   90.00000000
_cell_angle_gamma   90.00000000
_symmetry_Int_Tables_number   1
_chemical_formula_structural   Tm20Si12C
_chemical_formula_sum   'Tm20 Si12 C1'
_cell_volume   748.96485220
_cell_formula_units_Z   1
loop_
 _symmetry_equiv_pos_site_id
 _symmetry_equiv_pos_as_xyz
  1  'x, y, z'
loop_
 _atom_site_type_symbol
 _atom_site_label
 _atom_site_symmetry_multiplicity
 _atom_site_fract_x
 _atom_site_fract_y
 _atom_site_fract_z
 _atom_site_occupancy
  Tm  Tm0  1  0.663693  0.500000  0.500000  1
  Tm  Tm1  1  0.170857  0.500000  0.000000  1
  Tm  Tm2  1  0.829143  0.500000  0.000000  1
  Tm  Tm3  1  0.336307  0.500000  0.500000  1
  Tm  Tm4  1  0.837879  0.000000  0.000000  1
  Tm  Tm5  1  0.329131  0.000000  0.500000  1
  Tm  Tm6  1  0.670869  0.000000  0.500000  1
  Tm  Tm7  1  0.162121  0.000000  0.000000  1
  Tm  Tm8  1  0.500000  0.247557  0.756353  1
  Tm  Tm9  1  0.000000  0.275257  0.264984  1
  Tm  Tm10  1  0.620441  0.248054  0.121274  1
  Tm  Tm11  1  0.117769  0.272080  0.619171  1
  Tm  Tm12  1  0.882231  0.272080  0.619171  1
  Tm  Tm13  1  0.379559  0.248054  0.121274  1
  Tm  Tm14  1  0.000000  0.724743  0.735016  1
  Tm  Tm15  1  0.500000  0.752443  0.243647  1
  Tm  Tm16  1  0.882231  0.727920  0.380829  1
  Tm  Tm17  1  0.379559  0.751946  0.878726  1
  Tm  Tm18  1  0.620441  0.751946  0.878726  1
  Tm  Tm19  1  0.117769  0.727920  0.380829  1
  Si  Si20  1  0.000000  0.263953  0.899719  1
  Si  Si21  1  0.500000  0.243108  0.395908  1
  Si  Si22  1  0.800215  0.256413  0.300687  1
  Si  Si23  1  0.302578  0.246753  0.802742  1
  Si  Si24  1  0.697422  0.246753  0.802742  1
  Si  Si25  1  0.199785  0.256413  0.300687  1
  Si  Si26  1  0.500000  0.756892  0.604092  1
  Si  Si27  1  0.000000  0.736047  0.100281  1
  Si  Si28  1  0.697422  0.753247  0.197258  1
  Si  Si29  1  0.199785  0.743587  0.699313  1
  Si  Si30  1  0.800215  0.743587  0.699313  1
  Si  Si31  1  0.302578  0.753247  0.197258  1
  C  C32  1  0.000000  0.500000  0.500000  1
