# generated using pymatgen
data_TbNd6Dy(MoO6)4
_symmetry_space_group_name_H-M   'P 1'
_cell_length_a   5.52613334
_cell_length_b   10.19373745
_cell_length_c   10.19373363
_cell_angle_alpha   68.60057316
_cell_angle_beta   75.08939241
_cell_angle_gamma   75.08959297
_symmetry_Int_Tables_number   1
_chemical_formula_structural   TbNd6Dy(MoO6)4
_chemical_formula_sum   'Tb1 Nd6 Dy1 Mo4 O24'
_cell_volume   508.04832090
_cell_formula_units_Z   1
loop_
 _symmetry_equiv_pos_site_id
 _symmetry_equiv_pos_as_xyz
  1  'x, y, z'
loop_
 _atom_site_type_symbol
 _atom_site_label
 _atom_site_symmetry_multiplicity
 _atom_site_fract_x
 _atom_site_fract_y
 _atom_site_fract_z
 _atom_site_occupancy
  Tb  Tb0  1  0.250000  0.603211  0.396789  1
  Nd  Nd1  1  0.620288  0.786465  0.553068  1
  Nd  Nd2  1  0.120348  0.552977  0.786484  1
  Nd  Nd3  1  0.379654  0.213517  0.447023  1
  Nd  Nd4  1  0.879715  0.446933  0.213535  1
  Nd  Nd5  1  0.750002  0.864175  0.135825  1
  Nd  Nd6  1  0.250001  0.135895  0.864104  1
  Dy  Dy7  1  0.749998  0.397196  0.602805  1
  Mo  Mo8  1  0.064286  0.007354  0.297553  1
  Mo  Mo9  1  0.435715  0.702447  0.992646  1
  Mo  Mo10  1  0.935563  0.992733  0.702434  1
  Mo  Mo11  1  0.564437  0.297566  0.007267  1
  O  O12  1  0.923424  0.570693  0.606392  1
  O  O13  1  0.576575  0.393612  0.429306  1
  O  O14  1  0.075419  0.428593  0.394114  1
  O  O15  1  0.424585  0.605889  0.571405  1
  O  O16  1  0.934309  0.807287  0.337657  1
  O  O17  1  0.565687  0.662344  0.192711  1
  O  O18  1  0.064661  0.193342  0.662191  1
  O  O19  1  0.435341  0.337809  0.806660  1
  O  O20  1  0.373307  0.887780  0.328615  1
  O  O21  1  0.126692  0.671384  0.112220  1
  O  O22  1  0.626703  0.112178  0.671409  1
  O  O23  1  0.873298  0.328590  0.887822  1
  O  O24  1  0.633891  0.289619  0.176916  1
  O  O25  1  0.866108  0.823086  0.710381  1
  O  O26  1  0.366100  0.710405  0.823125  1
  O  O27  1  0.133901  0.176875  0.289595  1
  O  O28  1  0.520295  0.115934  0.044606  1
  O  O29  1  0.979706  0.955394  0.884066  1
  O  O30  1  0.763383  0.023954  0.427381  1
  O  O31  1  0.020321  0.044617  0.115909  1
  O  O32  1  0.263368  0.427358  0.023922  1
  O  O33  1  0.236632  0.976080  0.572642  1
  O  O34  1  0.736617  0.572619  0.976046  1
  O  O35  1  0.479677  0.884091  0.955383  1
