# generated using pymatgen
data_Ta3V2Ge3H
_symmetry_space_group_name_H-M   'P 1'
_cell_length_a   5.08130406
_cell_length_b   7.53130899
_cell_length_c   7.53140517
_cell_angle_alpha   60.00043006
_cell_angle_beta   90.00137754
_cell_angle_gamma   90.00274098
_symmetry_Int_Tables_number   1
_chemical_formula_structural   Ta3V2Ge3H
_chemical_formula_sum   'Ta6 V4 Ge6 H2'
_cell_volume   249.60551402
_cell_formula_units_Z   2
loop_
 _symmetry_equiv_pos_site_id
 _symmetry_equiv_pos_as_xyz
  1  'x, y, z'
loop_
 _atom_site_type_symbol
 _atom_site_label
 _atom_site_symmetry_multiplicity
 _atom_site_fract_x
 _atom_site_fract_y
 _atom_site_fract_z
 _atom_site_occupancy
  Ta  Ta0  1  0.250019  0.237037  0.000000  1
  Ta  Ta1  1  0.749985  0.762969  0.000000  1
  Ta  Ta2  1  0.749958  0.000016  0.237022  1
  Ta  Ta3  1  0.250046  0.762966  0.237022  1
  Ta  Ta4  1  0.250046  0.999989  0.762977  1
  Ta  Ta5  1  0.749957  0.237038  0.762979  1
  V  V6  1  0.500007  0.333355  0.333333  1
  V  V7  1  0.000004  0.333331  0.333379  1
  V  V8  1  0.000004  0.666707  0.666621  1
  V  V9  1  0.500006  0.666687  0.666668  1
  Ge  Ge10  1  0.750040  0.403847  0.000000  1
  Ge  Ge11  1  0.249963  0.596188  0.000000  1
  Ge  Ge12  1  0.249952  0.999998  0.403814  1
  Ge  Ge13  1  0.750054  0.596209  0.403803  1
  Ge  Ge14  1  0.249952  0.403814  0.596184  1
  Ge  Ge15  1  0.750054  0.000011  0.596198  1
  H  H16  1  0.999998  0.000006  0.000000  1
  H  H17  1  0.499973  0.000004  0.000000  1
