# generated using pymatgen
data_Th2Si5Ir2Ru
_symmetry_space_group_name_H-M   'P 1'
_cell_length_a   8.25131936
_cell_length_b   8.25131972
_cell_length_c   5.97593954
_cell_angle_alpha   68.78450980
_cell_angle_beta   68.78451249
_cell_angle_gamma   90.33583137
_symmetry_Int_Tables_number   1
_chemical_formula_structural   Th2Si5Ir2Ru
_chemical_formula_sum   'Th4 Si10 Ir4 Ru2'
_cell_volume   349.17699576
_cell_formula_units_Z   2
loop_
 _symmetry_equiv_pos_site_id
 _symmetry_equiv_pos_as_xyz
  1  'x, y, z'
loop_
 _atom_site_type_symbol
 _atom_site_label
 _atom_site_symmetry_multiplicity
 _atom_site_fract_x
 _atom_site_fract_y
 _atom_site_fract_z
 _atom_site_occupancy
  Th  Th0  1  0.861331  0.601693  0.768645  1
  Th  Th1  1  0.398307  0.138669  0.731355  1
  Th  Th2  1  0.138669  0.398307  0.231355  1
  Th  Th3  1  0.601693  0.861331  0.268645  1
  Si  Si4  1  0.044912  0.254257  0.849831  1
  Si  Si5  1  0.745743  0.955088  0.650169  1
  Si  Si6  1  0.955088  0.745743  0.150169  1
  Si  Si7  1  0.254257  0.044912  0.349831  1
  Si  Si8  1  0.224166  0.775834  0.750000  1
  Si  Si9  1  0.775834  0.224166  0.250000  1
  Si  Si10  1  0.500234  0.499766  0.750000  1
  Si  Si11  1  0.499766  0.500234  0.250000  1
  Si  Si12  1  0.775640  0.224360  0.750000  1
  Si  Si13  1  0.224360  0.775640  0.250000  1
  Ir  Ir14  1  0.246863  0.527588  0.613139  1
  Ir  Ir15  1  0.472412  0.753137  0.886861  1
  Ir  Ir16  1  0.753137  0.472412  0.386861  1
  Ir  Ir17  1  0.527588  0.246863  0.113139  1
  Ru  Ru18  1  0.000149  0.999851  0.750000  1
  Ru  Ru19  1  0.999851  0.000149  0.250000  1
