# generated using pymatgen
data_Li17Si4
_symmetry_space_group_name_H-M   'P 1'
_cell_length_a   13.04752019
_cell_length_b   13.04751973
_cell_length_c   13.04752000
_cell_angle_alpha   59.99999933
_cell_angle_beta   60.00000049
_cell_angle_gamma   59.99999770
_symmetry_Int_Tables_number   1
_chemical_formula_structural   Li17Si4
_chemical_formula_sum   'Li85 Si20'
_cell_volume   1570.61197850
_cell_formula_units_Z   5
loop_
 _symmetry_equiv_pos_site_id
 _symmetry_equiv_pos_as_xyz
  1  'x, y, z'
loop_
 _atom_site_type_symbol
 _atom_site_label
 _atom_site_symmetry_multiplicity
 _atom_site_fract_x
 _atom_site_fract_y
 _atom_site_fract_z
 _atom_site_occupancy
  Li  Li0  1  0.434564  0.434564  0.696308  1
  Li  Li1  1  0.260776  0.579741  0.579741  1
  Li  Li2  1  0.807644  0.168103  0.512126  1
  Li  Li3  1  0.538794  0.270180  0.920845  1
  Li  Li4  1  0.014112  0.014112  0.669546  1
  Li  Li5  1  0.270180  0.920845  0.538794  1
  Li  Li6  1  0.579741  0.579741  0.260776  1
  Li  Li7  1  0.418138  0.071650  0.755106  1
  Li  Li8  1  0.842829  0.052391  0.052391  1
  Li  Li9  1  0.755106  0.418138  0.071650  1
  Li  Li10  1  0.052391  0.052391  0.842829  1
  Li  Li11  1  0.512126  0.807644  0.512126  1
  Li  Li12  1  0.434564  0.434564  0.434564  1
  Li  Li13  1  0.824430  0.824430  0.824430  1
  Li  Li14  1  0.755106  0.071650  0.755106  1
  Li  Li15  1  0.579655  0.579655  0.920345  1
  Li  Li16  1  0.755106  0.071650  0.418138  1
  Li  Li17  1  0.512126  0.168103  0.807644  1
  Li  Li18  1  0.920845  0.270180  0.538794  1
  Li  Li19  1  0.014112  0.669546  0.302228  1
  Li  Li20  1  0.920345  0.579655  0.920345  1
  Li  Li21  1  0.174712  0.825288  0.825288  1
  Li  Li22  1  0.824430  0.526710  0.824430  1
  Li  Li23  1  0.174712  0.825288  0.174712  1
  Li  Li24  1  0.669546  0.302228  0.014112  1
  Li  Li25  1  0.579741  0.579741  0.579741  1
  Li  Li26  1  0.052391  0.842829  0.052391  1
  Li  Li27  1  0.512126  0.512126  0.807644  1
  Li  Li28  1  0.052391  0.052391  0.052391  1
  Li  Li29  1  0.755106  0.418138  0.755106  1
  Li  Li30  1  0.168029  0.168029  0.168029  1
  Li  Li31  1  0.174712  0.174712  0.825288  1
  Li  Li32  1  0.014112  0.302228  0.014112  1
  Li  Li33  1  0.526710  0.824430  0.824430  1
  Li  Li34  1  0.755106  0.755106  0.071650  1
  Li  Li35  1  0.302228  0.014112  0.014112  1
  Li  Li36  1  0.168029  0.168029  0.495913  1
  Li  Li37  1  0.807644  0.512126  0.512126  1
  Li  Li38  1  0.434564  0.696308  0.434564  1
  Li  Li39  1  0.270180  0.920845  0.270180  1
  Li  Li40  1  0.824430  0.824430  0.526710  1
  Li  Li41  1  0.270180  0.270180  0.920845  1
  Li  Li42  1  0.495913  0.168029  0.168029  1
  Li  Li43  1  0.669546  0.014112  0.302228  1
  Li  Li44  1  0.512126  0.168103  0.512126  1
  Li  Li45  1  0.071650  0.755106  0.418138  1
  Li  Li46  1  0.014112  0.014112  0.302228  1
  Li  Li47  1  0.270180  0.270180  0.538794  1
  Li  Li48  1  0.418138  0.755106  0.071650  1
  Li  Li49  1  0.014112  0.669546  0.014112  1
  Li  Li50  1  0.306513  0.306513  0.306513  1
  Li  Li51  1  0.168103  0.512126  0.807644  1
  Li  Li52  1  0.920845  0.538794  0.270180  1
  Li  Li53  1  0.669546  0.014112  0.014112  1
  Li  Li54  1  0.579655  0.920345  0.579655  1
  Li  Li55  1  0.168103  0.512126  0.512126  1
  Li  Li56  1  0.071650  0.755106  0.755106  1
  Li  Li57  1  0.579741  0.260776  0.579741  1
  Li  Li58  1  0.168029  0.495913  0.168029  1
  Li  Li59  1  0.696308  0.434564  0.434564  1
  Li  Li60  1  0.168103  0.807644  0.512126  1
  Li  Li61  1  0.920345  0.920345  0.579655  1
  Li  Li62  1  0.014112  0.302228  0.669546  1
  Li  Li63  1  0.080461  0.306513  0.306513  1
  Li  Li64  1  0.755106  0.755106  0.418138  1
  Li  Li65  1  0.807644  0.512126  0.168103  1
  Li  Li66  1  0.302228  0.669546  0.014112  1
  Li  Li67  1  0.920345  0.579655  0.579655  1
  Li  Li68  1  0.306513  0.080461  0.306513  1
  Li  Li69  1  0.270180  0.538794  0.270180  1
  Li  Li70  1  0.302228  0.014112  0.669546  1
  Li  Li71  1  0.512126  0.807644  0.168103  1
  Li  Li72  1  0.750000  0.750000  0.750000  1
  Li  Li73  1  0.825288  0.174712  0.825288  1
  Li  Li74  1  0.825288  0.174712  0.174712  1
  Li  Li75  1  0.071650  0.418138  0.755106  1
  Li  Li76  1  0.825288  0.825288  0.174712  1
  Li  Li77  1  0.579655  0.920345  0.920345  1
  Li  Li78  1  0.418138  0.755106  0.755106  1
  Li  Li79  1  0.538794  0.920845  0.270180  1
  Li  Li80  1  0.270180  0.538794  0.920845  1
  Li  Li81  1  0.306513  0.306513  0.080461  1
  Li  Li82  1  0.538794  0.270180  0.270180  1
  Li  Li83  1  0.512126  0.512126  0.168103  1
  Li  Li84  1  0.920845  0.270180  0.270180  1
  Si  Si85  1  0.666416  0.000752  0.666416  1
  Si  Si86  1  0.320467  0.679533  0.320467  1
  Si  Si87  1  0.666416  0.666416  0.666416  1
  Si  Si88  1  0.679533  0.320467  0.320467  1
  Si  Si89  1  0.000752  0.666416  0.666416  1
  Si  Si90  1  0.269227  0.910258  0.910258  1
  Si  Si91  1  0.320467  0.320467  0.679533  1
  Si  Si92  1  0.666416  0.666416  0.000752  1
  Si  Si93  1  0.679533  0.679533  0.320467  1
  Si  Si94  1  0.428762  0.071238  0.428762  1
  Si  Si95  1  0.071238  0.071238  0.428762  1
  Si  Si96  1  0.679533  0.320467  0.679533  1
  Si  Si97  1  0.428762  0.428762  0.071238  1
  Si  Si98  1  0.320467  0.679533  0.679533  1
  Si  Si99  1  0.910258  0.910258  0.910258  1
  Si  Si100  1  0.910258  0.269227  0.910258  1
  Si  Si101  1  0.428762  0.071238  0.071238  1
  Si  Si102  1  0.910258  0.910258  0.269227  1
  Si  Si103  1  0.071238  0.428762  0.071238  1
  Si  Si104  1  0.071238  0.428762  0.428762  1
