# generated using pymatgen
data_CrInNi2Ag4F14
_symmetry_space_group_name_H-M   'P 1'
_cell_length_a   7.54209648
_cell_length_b   7.70722777
_cell_length_c   7.70722734
_cell_angle_alpha   121.78698690
_cell_angle_beta   117.42199709
_cell_angle_gamma   91.32123756
_symmetry_Int_Tables_number   1
_chemical_formula_structural   CrInNi2Ag4F14
_chemical_formula_sum   'Cr1 In1 Ni2 Ag4 F14'
_cell_volume   316.38068211
_cell_formula_units_Z   1
loop_
 _symmetry_equiv_pos_site_id
 _symmetry_equiv_pos_as_xyz
  1  'x, y, z'
loop_
 _atom_site_type_symbol
 _atom_site_label
 _atom_site_symmetry_multiplicity
 _atom_site_fract_x
 _atom_site_fract_y
 _atom_site_fract_z
 _atom_site_occupancy
  Cr  Cr0  1  0.000000  0.500000  0.500000  1
  In  In1  1  0.500000  0.000000  0.500000  1
  Ni  Ni2  1  0.500000  0.500000  0.500000  1
  Ni  Ni3  1  0.500000  0.000000  0.000000  1
  Ag  Ag4  1  0.500000  0.500000  0.000000  1
  Ag  Ag5  1  0.000000  0.000000  0.000000  1
  Ag  Ag6  1  0.000000  0.500000  0.000000  1
  Ag  Ag7  1  0.000000  0.000000  0.500000  1
  F  F8  1  0.873923  0.589043  0.284881  1
  F  F9  1  0.163848  0.897321  0.266527  1
  F  F10  1  0.187529  0.803491  0.764661  1
  F  F11  1  0.446359  0.670495  0.358710  1
  F  F12  1  0.446359  0.087650  0.775864  1
  F  F13  1  0.187529  0.422868  0.384039  1
  F  F14  1  0.812471  0.577132  0.615961  1
  F  F15  1  0.553641  0.912350  0.224136  1
  F  F16  1  0.553641  0.329505  0.641290  1
  F  F17  1  0.812471  0.196509  0.235339  1
  F  F18  1  0.401918  0.235578  0.166340  1
  F  F19  1  0.126077  0.410957  0.715119  1
  F  F20  1  0.836152  0.102679  0.733473  1
  F  F21  1  0.598082  0.764422  0.833660  1
