# generated using pymatgen
data_Li4La4Si5Hg
_symmetry_space_group_name_H-M   'P 1'
_cell_length_a   9.73958717
_cell_length_b   9.73958687
_cell_length_c   6.97240200
_cell_angle_alpha   90.00000000
_cell_angle_beta   90.00000000
_cell_angle_gamma   152.91543876
_symmetry_Int_Tables_number   1
_chemical_formula_structural   Li4La4Si5Hg
_chemical_formula_sum   'Li4 La4 Si5 Hg1'
_cell_volume   301.13826139
_cell_formula_units_Z   1
loop_
 _symmetry_equiv_pos_site_id
 _symmetry_equiv_pos_as_xyz
  1  'x, y, z'
loop_
 _atom_site_type_symbol
 _atom_site_label
 _atom_site_symmetry_multiplicity
 _atom_site_fract_x
 _atom_site_fract_y
 _atom_site_fract_z
 _atom_site_occupancy
  Li  Li0  1  0.814504  0.185496  0.431226  1
  Li  Li1  1  0.186924  0.813076  0.549577  1
  Li  Li2  1  0.814504  0.185496  0.068774  1
  Li  Li3  1  0.186924  0.813076  0.950423  1
  La  La4  1  0.548157  0.451843  0.750000  1
  La  La5  1  0.448734  0.551266  0.250000  1
  La  La6  1  0.345760  0.654240  0.750000  1
  La  La7  1  0.656267  0.343733  0.250000  1
  Si  Si8  1  0.942644  0.057356  0.922287  1
  Si  Si9  1  0.056931  0.943069  0.077153  1
  Si  Si10  1  0.942644  0.057356  0.577713  1
  Si  Si11  1  0.056931  0.943069  0.422847  1
  Si  Si12  1  0.279630  0.720370  0.250000  1
  Hg  Hg13  1  0.719446  0.280554  0.750000  1
