# generated using pymatgen
data_Ho3Hf2(In2Rh)2
_symmetry_space_group_name_H-M   'P 1'
_cell_length_a   3.52384000
_cell_length_b   7.94855800
_cell_length_c   17.78065400
_cell_angle_alpha   90.00000000
_cell_angle_beta   90.00000000
_cell_angle_gamma   90.00000000
_symmetry_Int_Tables_number   1
_chemical_formula_structural   Ho3Hf2(In2Rh)2
_chemical_formula_sum   'Ho6 Hf4 In8 Rh4'
_cell_volume   498.02627913
_cell_formula_units_Z   2
loop_
 _symmetry_equiv_pos_site_id
 _symmetry_equiv_pos_as_xyz
  1  'x, y, z'
loop_
 _atom_site_type_symbol
 _atom_site_label
 _atom_site_symmetry_multiplicity
 _atom_site_fract_x
 _atom_site_fract_y
 _atom_site_fract_z
 _atom_site_occupancy
  Ho  Ho0  1  0.000000  0.000000  0.000000  1
  Ho  Ho1  1  0.000000  0.500000  0.500000  1
  Ho  Ho2  1  0.000000  0.749889  0.782656  1
  Ho  Ho3  1  0.000000  0.250111  0.217344  1
  Ho  Ho4  1  0.000000  0.249889  0.717344  1
  Ho  Ho5  1  0.000000  0.750111  0.282656  1
  Hf  Hf6  1  0.000000  0.876639  0.587182  1
  Hf  Hf7  1  0.000000  0.123361  0.412818  1
  Hf  Hf8  1  0.000000  0.376639  0.912818  1
  Hf  Hf9  1  0.000000  0.623361  0.087182  1
  In  In10  1  0.500000  0.808968  0.439248  1
  In  In11  1  0.500000  0.191032  0.560752  1
  In  In12  1  0.500000  0.308968  0.060752  1
  In  In13  1  0.500000  0.691032  0.939248  1
  In  In14  1  0.500000  0.923658  0.150515  1
  In  In15  1  0.500000  0.076342  0.849485  1
  In  In16  1  0.500000  0.423658  0.349485  1
  In  In17  1  0.500000  0.576342  0.650515  1
  Rh  Rh18  1  0.500000  0.961112  0.688769  1
  Rh  Rh19  1  0.500000  0.038888  0.311231  1
  Rh  Rh20  1  0.500000  0.461112  0.811231  1
  Rh  Rh21  1  0.500000  0.538888  0.188769  1
