# generated using pymatgen
data_Nd3Sm2Bi3O14
_symmetry_space_group_name_H-M   'P 1'
_cell_length_a   6.73312732
_cell_length_b   6.78568495
_cell_length_c   7.92865330
_cell_angle_alpha   106.70501267
_cell_angle_beta   89.69313723
_cell_angle_gamma   98.16205960
_symmetry_Int_Tables_number   1
_chemical_formula_structural   Nd3Sm2Bi3O14
_chemical_formula_sum   'Nd3 Sm2 Bi3 O14'
_cell_volume   343.20853483
_cell_formula_units_Z   1
loop_
 _symmetry_equiv_pos_site_id
 _symmetry_equiv_pos_as_xyz
  1  'x, y, z'
loop_
 _atom_site_type_symbol
 _atom_site_label
 _atom_site_symmetry_multiplicity
 _atom_site_fract_x
 _atom_site_fract_y
 _atom_site_fract_z
 _atom_site_occupancy
  Nd  Nd0  1  0.268740  0.533764  0.882027  1
  Nd  Nd1  1  0.742751  0.460438  0.114929  1
  Nd  Nd2  1  0.750658  0.482801  0.618601  1
  Sm  Sm3  1  0.457043  0.008736  0.255091  1
  Sm  Sm4  1  0.538501  0.001053  0.749826  1
  Bi  Bi5  1  0.993520  0.998659  0.499983  1
  Bi  Bi6  1  0.998428  0.995285  0.997293  1
  Bi  Bi7  1  0.288299  0.539093  0.390168  1
  O  O8  1  0.446104  0.651934  0.173422  1
  O  O9  1  0.559693  0.356084  0.835181  1
  O  O10  1  0.298690  0.924942  0.953177  1
  O  O11  1  0.700316  0.070457  0.048832  1
  O  O12  1  0.293163  0.929976  0.514570  1
  O  O13  1  0.701206  0.082797  0.491763  1
  O  O14  1  0.546033  0.363192  0.344762  1
  O  O15  1  0.457229  0.642724  0.652473  1
  O  O16  1  0.926678  0.666659  0.947110  1
  O  O17  1  0.068739  0.316526  0.027049  1
  O  O18  1  0.069760  0.329002  0.625102  1
  O  O19  1  0.907231  0.671265  0.384972  1
  O  O20  1  0.877638  0.906945  0.727130  1
  O  O21  1  0.109580  0.067669  0.266533  1
