# generated using pymatgen
data_Li4Pr2DyPb4
_symmetry_space_group_name_H-M   'P 1'
_cell_length_a   4.81928445
_cell_length_b   7.14210755
_cell_length_c   8.91810948
_cell_angle_alpha   113.60488760
_cell_angle_beta   105.67598215
_cell_angle_gamma   89.99999669
_symmetry_Int_Tables_number   1
_chemical_formula_structural   Li4Pr2DyPb4
_chemical_formula_sum   'Li4 Pr2 Dy1 Pb4'
_cell_volume   268.77000742
_cell_formula_units_Z   1
loop_
 _symmetry_equiv_pos_site_id
 _symmetry_equiv_pos_as_xyz
  1  'x, y, z'
loop_
 _atom_site_type_symbol
 _atom_site_label
 _atom_site_symmetry_multiplicity
 _atom_site_fract_x
 _atom_site_fract_y
 _atom_site_fract_z
 _atom_site_occupancy
  Li  Li0  1  0.672890  0.982437  0.345782  1
  Li  Li1  1  0.327110  0.017563  0.654218  1
  Li  Li2  1  0.327110  0.636656  0.654218  1
  Li  Li3  1  0.672890  0.363344  0.345782  1
  Pr  Pr4  1  0.129309  0.629309  0.258617  1
  Pr  Pr5  1  0.870691  0.370691  0.741383  1
  Dy  Dy6  1  0.000000  0.000000  0.000000  1
  Pb  Pb7  1  0.500000  0.712067  0.000000  1
  Pb  Pb8  1  0.500000  0.287933  0.000000  1
  Pb  Pb9  1  0.789700  0.789700  0.579401  1
  Pb  Pb10  1  0.210300  0.210300  0.420599  1
