# generated using pymatgen
data_Tb13Th3(ZrIr3)4
_symmetry_space_group_name_H-M   'P 1'
_cell_length_a   10.98286073
_cell_length_b   10.94221384
_cell_length_c   6.30272440
_cell_angle_alpha   90.00287425
_cell_angle_beta   89.79046726
_cell_angle_gamma   89.76540694
_symmetry_Int_Tables_number   1
_chemical_formula_structural   Tb13Th3(ZrIr3)4
_chemical_formula_sum   'Tb13 Th3 Zr4 Ir12'
_cell_volume   757.42990051
_cell_formula_units_Z   1
loop_
 _symmetry_equiv_pos_site_id
 _symmetry_equiv_pos_as_xyz
  1  'x, y, z'
loop_
 _atom_site_type_symbol
 _atom_site_label
 _atom_site_symmetry_multiplicity
 _atom_site_fract_x
 _atom_site_fract_y
 _atom_site_fract_z
 _atom_site_occupancy
  Tb  Tb0  1  0.709049  0.909537  0.372025  1
  Tb  Tb1  1  0.589925  0.783611  0.874535  1
  Tb  Tb2  1  0.589420  0.214033  0.373899  1
  Tb  Tb3  1  0.417668  0.783778  0.373277  1
  Tb  Tb4  1  0.412046  0.217809  0.873969  1
  Tb  Tb5  1  0.209326  0.414979  0.624135  1
  Tb  Tb6  1  0.209547  0.586677  0.125542  1
  Tb  Tb7  1  0.790607  0.414106  0.123820  1
  Tb  Tb8  1  0.790182  0.584997  0.624577  1
  Tb  Tb9  1  0.912762  0.710065  0.124842  1
  Tb  Tb10  1  0.915324  0.290242  0.621843  1
  Tb  Tb11  1  0.083349  0.709882  0.622539  1
  Tb  Tb12  1  0.085020  0.291530  0.120065  1
  Th  Th13  1  0.290989  0.091065  0.375876  1
  Th  Th14  1  0.290155  0.907959  0.873359  1
  Th  Th15  1  0.708913  0.087744  0.875104  1
  Zr  Zr16  1  0.995363  0.999063  0.500290  1
  Zr  Zr17  1  0.999929  0.000211  0.001705  1
  Zr  Zr18  1  0.500248  0.499763  0.007553  1
  Zr  Zr19  1  0.501283  0.498961  0.508080  1
  Ir  Ir20  1  0.854936  0.144604  0.242872  1
  Ir  Ir21  1  0.852435  0.859037  0.754009  1
  Ir  Ir22  1  0.146335  0.141160  0.744308  1
  Ir  Ir23  1  0.147493  0.859173  0.248116  1
  Ir  Ir24  1  0.644750  0.353956  0.755341  1
  Ir  Ir25  1  0.644922  0.641771  0.253374  1
  Ir  Ir26  1  0.355972  0.355433  0.257171  1
  Ir  Ir27  1  0.356344  0.645638  0.755838  1
  Ir  Ir28  1  0.497194  0.001171  0.111302  1
  Ir  Ir29  1  0.499147  0.000058  0.615682  1
  Ir  Ir30  1  0.999739  0.500943  0.882313  1
  Ir  Ir31  1  0.999628  0.501045  0.382637  1
