# generated using pymatgen
data_Hf7(ZrSn2)3
_symmetry_space_group_name_H-M   'P 1'
_cell_length_a   8.47970800
_cell_length_b   8.47970876
_cell_length_c   5.74275800
_cell_angle_alpha   90.00000000
_cell_angle_beta   90.00000000
_cell_angle_gamma   119.99998923
_symmetry_Int_Tables_number   1
_chemical_formula_structural   Hf7(ZrSn2)3
_chemical_formula_sum   'Hf7 Zr3 Sn6'
_cell_volume   357.61277795
_cell_formula_units_Z   1
loop_
 _symmetry_equiv_pos_site_id
 _symmetry_equiv_pos_as_xyz
  1  'x, y, z'
loop_
 _atom_site_type_symbol
 _atom_site_label
 _atom_site_symmetry_multiplicity
 _atom_site_fract_x
 _atom_site_fract_y
 _atom_site_fract_z
 _atom_site_occupancy
  Hf  Hf0  1  0.243182  0.243182  0.250000  1
  Hf  Hf1  1  0.756818  0.000000  0.250000  1
  Hf  Hf2  1  0.000000  0.756818  0.250000  1
  Hf  Hf3  1  0.666667  0.333333  0.000254  1
  Hf  Hf4  1  0.333333  0.666667  0.000254  1
  Hf  Hf5  1  0.333333  0.666667  0.499746  1
  Hf  Hf6  1  0.666667  0.333333  0.499746  1
  Zr  Zr7  1  0.755962  0.755962  0.750000  1
  Zr  Zr8  1  0.244038  0.000000  0.750000  1
  Zr  Zr9  1  0.000000  0.244038  0.750000  1
  Sn  Sn10  1  0.394032  0.394032  0.750000  1
  Sn  Sn11  1  0.605968  0.000000  0.750000  1
  Sn  Sn12  1  0.000000  0.605968  0.750000  1
  Sn  Sn13  1  0.606433  0.606433  0.250000  1
  Sn  Sn14  1  0.393567  0.000000  0.250000  1
  Sn  Sn15  1  0.000000  0.393567  0.250000  1
