# generated using pymatgen
data_La9Nd11Ir12
_symmetry_space_group_name_H-M   'P 1'
_cell_length_a   11.35781225
_cell_length_b   11.34712018
_cell_length_c   6.62610285
_cell_angle_alpha   90.15191135
_cell_angle_beta   90.00781523
_cell_angle_gamma   89.89008665
_symmetry_Int_Tables_number   1
_chemical_formula_structural   La9Nd11Ir12
_chemical_formula_sum   'La9 Nd11 Ir12'
_cell_volume   853.95735385
_cell_formula_units_Z   1
loop_
 _symmetry_equiv_pos_site_id
 _symmetry_equiv_pos_as_xyz
  1  'x, y, z'
loop_
 _atom_site_type_symbol
 _atom_site_label
 _atom_site_symmetry_multiplicity
 _atom_site_fract_x
 _atom_site_fract_y
 _atom_site_fract_z
 _atom_site_occupancy
  La  La0  1  0.090784  0.291064  0.114602  1
  La  La1  1  0.790754  0.408529  0.114259  1
  La  La2  1  0.209208  0.591904  0.113204  1
  La  La3  1  0.908581  0.709018  0.113387  1
  La  La4  1  0.408550  0.791164  0.386652  1
  La  La5  1  0.592739  0.209088  0.386381  1
  La  La6  1  0.290062  0.090359  0.386229  1
  La  La7  1  0.708895  0.908492  0.386267  1
  La  La8  1  0.410221  0.208029  0.885626  1
  Nd  Nd9  1  0.709321  0.088896  0.884298  1
  Nd  Nd10  1  0.291400  0.909335  0.884354  1
  Nd  Nd11  1  0.589361  0.792005  0.884375  1
  Nd  Nd12  1  0.089148  0.708125  0.615191  1
  Nd  Nd13  1  0.910677  0.292121  0.615651  1
  Nd  Nd14  1  0.207328  0.411380  0.614551  1
  Nd  Nd15  1  0.791950  0.589408  0.615486  1
  Nd  Nd16  1  0.000096  0.999491  0.998456  1
  Nd  Nd17  1  0.500809  0.501150  0.998459  1
  Nd  Nd18  1  0.499787  0.500179  0.501083  1
  Nd  Nd19  1  0.999992  0.999996  0.502020  1
  Ir  Ir20  1  0.152953  0.846577  0.249930  1
  Ir  Ir21  1  0.346952  0.346233  0.249527  1
  Ir  Ir22  1  0.653176  0.653525  0.250276  1
  Ir  Ir23  1  0.846875  0.153259  0.250009  1
  Ir  Ir24  1  0.345992  0.653863  0.749848  1
  Ir  Ir25  1  0.153622  0.154097  0.750437  1
  Ir  Ir26  1  0.845870  0.846096  0.749574  1
  Ir  Ir27  1  0.654796  0.346431  0.749335  1
  Ir  Ir28  1  0.000339  0.499942  0.377145  1
  Ir  Ir29  1  0.500478  0.999563  0.122604  1
  Ir  Ir30  1  0.499616  0.000567  0.619540  1
  Ir  Ir31  1  0.999672  0.500112  0.881244  1
