# generated using pymatgen
data_Ca2(Al3Ni)3
_symmetry_space_group_name_H-M   'P 1'
_cell_length_a   7.46346758
_cell_length_b   7.46346742
_cell_length_c   9.34228800
_cell_angle_alpha   90.00000000
_cell_angle_beta   90.00000000
_cell_angle_gamma   119.22313436
_symmetry_Int_Tables_number   1
_chemical_formula_structural   Ca2(Al3Ni)3
_chemical_formula_sum   'Ca4 Al18 Ni6'
_cell_volume   454.16323175
_cell_formula_units_Z   2
loop_
 _symmetry_equiv_pos_site_id
 _symmetry_equiv_pos_as_xyz
  1  'x, y, z'
loop_
 _atom_site_type_symbol
 _atom_site_label
 _atom_site_symmetry_multiplicity
 _atom_site_fract_x
 _atom_site_fract_y
 _atom_site_fract_z
 _atom_site_occupancy
  Ca  Ca0  1  0.006634  0.327907  0.750000  1
  Ca  Ca1  1  0.327907  0.006634  0.750000  1
  Ca  Ca2  1  0.993366  0.672093  0.250000  1
  Ca  Ca3  1  0.672093  0.993366  0.250000  1
  Al  Al4  1  0.664840  0.002666  0.927616  1
  Al  Al5  1  0.002666  0.664840  0.572384  1
  Al  Al6  1  0.126882  0.126882  0.250000  1
  Al  Al7  1  0.668522  0.668522  0.043497  1
  Al  Al8  1  0.331478  0.331478  0.543497  1
  Al  Al9  1  0.331478  0.331478  0.956503  1
  Al  Al10  1  0.668522  0.668522  0.456503  1
  Al  Al11  1  0.335160  0.997334  0.072384  1
  Al  Al12  1  0.997334  0.335160  0.427616  1
  Al  Al13  1  0.339593  0.551013  0.250000  1
  Al  Al14  1  0.997334  0.335160  0.072384  1
  Al  Al15  1  0.551013  0.339593  0.250000  1
  Al  Al16  1  0.660407  0.448987  0.750000  1
  Al  Al17  1  0.873118  0.873118  0.750000  1
  Al  Al18  1  0.002666  0.664840  0.927616  1
  Al  Al19  1  0.664840  0.002666  0.572384  1
  Al  Al20  1  0.335160  0.997334  0.427616  1
  Al  Al21  1  0.448987  0.660407  0.750000  1
  Ni  Ni22  1  0.669439  0.330561  0.500000  1
  Ni  Ni23  1  0.669439  0.330561  0.000000  1
  Ni  Ni24  1  0.330561  0.669439  0.500000  1
  Ni  Ni25  1  0.000000  0.000000  0.000000  1
  Ni  Ni26  1  0.000000  0.000000  0.500000  1
  Ni  Ni27  1  0.330561  0.669439  0.000000  1
