# generated using pymatgen
data_Dy2CoNiO6
_symmetry_space_group_name_H-M   'P 1'
_cell_length_a   5.23665321
_cell_length_b   5.57452971
_cell_length_c   7.50077464
_cell_angle_alpha   89.94965643
_cell_angle_beta   89.74426229
_cell_angle_gamma   90.25861535
_symmetry_Int_Tables_number   1
_chemical_formula_structural   Dy2CoNiO6
_chemical_formula_sum   'Dy4 Co2 Ni2 O12'
_cell_volume   218.95720496
_cell_formula_units_Z   2
loop_
 _symmetry_equiv_pos_site_id
 _symmetry_equiv_pos_as_xyz
  1  'x, y, z'
loop_
 _atom_site_type_symbol
 _atom_site_label
 _atom_site_symmetry_multiplicity
 _atom_site_fract_x
 _atom_site_fract_y
 _atom_site_fract_z
 _atom_site_occupancy
  Dy  Dy0  1  0.478765  0.426622  0.748319  1
  Dy  Dy1  1  0.020084  0.927962  0.750464  1
  Dy  Dy2  1  0.521235  0.573379  0.251681  1
  Dy  Dy3  1  0.979916  0.072038  0.249536  1
  Co  Co4  1  0.500000  0.000000  0.000000  1
  Co  Co5  1  0.000000  0.500000  0.500000  1
  Ni  Ni6  1  0.500000  0.000000  0.500000  1
  Ni  Ni7  1  0.000000  0.500000  0.000000  1
  O  O8  1  0.202765  0.188507  0.948751  1
  O  O9  1  0.296728  0.687545  0.551272  1
  O  O10  1  0.797235  0.811493  0.051248  1
  O  O11  1  0.703272  0.312455  0.448727  1
  O  O12  1  0.183641  0.208323  0.555928  1
  O  O13  1  0.316747  0.709549  0.944057  1
  O  O14  1  0.816359  0.791677  0.444071  1
  O  O15  1  0.683253  0.290451  0.055943  1
  O  O16  1  0.105772  0.465891  0.259662  1
  O  O17  1  0.393897  0.965494  0.241298  1
  O  O18  1  0.894228  0.534109  0.740338  1
  O  O19  1  0.606103  0.034506  0.758702  1
