# generated using pymatgen
data_Ba4Yb(ReO6)2
_symmetry_space_group_name_H-M   'P 1'
_cell_length_a   10.10324712
_cell_length_b   10.10324689
_cell_length_c   10.10324761
_cell_angle_alpha   33.88968557
_cell_angle_beta   33.88968929
_cell_angle_gamma   33.88968597
_symmetry_Int_Tables_number   1
_chemical_formula_structural   Ba4Yb(ReO6)2
_chemical_formula_sum   'Ba4 Yb1 Re2 O12'
_cell_volume   285.76113161
_cell_formula_units_Z   1
loop_
 _symmetry_equiv_pos_site_id
 _symmetry_equiv_pos_as_xyz
  1  'x, y, z'
loop_
 _atom_site_type_symbol
 _atom_site_label
 _atom_site_symmetry_multiplicity
 _atom_site_fract_x
 _atom_site_fract_y
 _atom_site_fract_z
 _atom_site_occupancy
  Ba  Ba0  1  0.709280  0.709280  0.709280  1
  Ba  Ba1  1  0.290720  0.290720  0.290720  1
  Ba  Ba2  1  0.868291  0.868291  0.868291  1
  Ba  Ba3  1  0.131709  0.131709  0.131709  1
  Yb  Yb4  1  0.000000  0.000000  0.000000  1
  Re  Re5  1  0.578678  0.578678  0.578678  1
  Re  Re6  1  0.421322  0.421322  0.421322  1
  O  O7  1  0.227426  0.682771  0.227426  1
  O  O8  1  0.227426  0.227426  0.682771  1
  O  O9  1  0.682771  0.227426  0.227426  1
  O  O10  1  0.772574  0.317229  0.772574  1
  O  O11  1  0.772574  0.772574  0.317229  1
  O  O12  1  0.317229  0.772574  0.772574  1
  O  O13  1  0.389027  0.856812  0.389027  1
  O  O14  1  0.389027  0.389027  0.856812  1
  O  O15  1  0.856812  0.389027  0.389027  1
  O  O16  1  0.610973  0.143188  0.610973  1
  O  O17  1  0.610973  0.610973  0.143188  1
  O  O18  1  0.143188  0.610973  0.610973  1
