# generated using pymatgen
data_NdNi6(BRh)6
_symmetry_space_group_name_H-M   'P 1'
_cell_length_a   6.31870101
_cell_length_b   6.31870025
_cell_length_c   6.31870100
_cell_angle_alpha   103.53606110
_cell_angle_beta   103.53606876
_cell_angle_gamma   103.53604346
_symmetry_Int_Tables_number   1
_chemical_formula_structural   NdNi6(BRh)6
_chemical_formula_sum   'Nd1 Ni6 B6 Rh6'
_cell_volume   227.05326193
_cell_formula_units_Z   1
loop_
 _symmetry_equiv_pos_site_id
 _symmetry_equiv_pos_as_xyz
  1  'x, y, z'
loop_
 _atom_site_type_symbol
 _atom_site_label
 _atom_site_symmetry_multiplicity
 _atom_site_fract_x
 _atom_site_fract_y
 _atom_site_fract_z
 _atom_site_occupancy
  Nd  Nd0  1  0.000000  0.000000  0.000000  1
  Ni  Ni1  1  0.543065  0.797747  0.543065  1
  Ni  Ni2  1  0.543065  0.543065  0.797747  1
  Ni  Ni3  1  0.797747  0.543065  0.543065  1
  Ni  Ni4  1  0.456935  0.202253  0.456935  1
  Ni  Ni5  1  0.456935  0.456935  0.202253  1
  Ni  Ni6  1  0.202253  0.456935  0.456935  1
  B  B7  1  0.768078  0.350224  0.768078  1
  B  B8  1  0.768078  0.768078  0.350224  1
  B  B9  1  0.350224  0.768078  0.768078  1
  B  B10  1  0.231922  0.649776  0.231922  1
  B  B11  1  0.231922  0.231922  0.649776  1
  B  B12  1  0.649776  0.231922  0.231922  1
  Rh  Rh13  1  0.137947  0.862053  0.500000  1
  Rh  Rh14  1  0.500000  0.137947  0.862053  1
  Rh  Rh15  1  0.862053  0.500000  0.137947  1
  Rh  Rh16  1  0.500000  0.862053  0.137947  1
  Rh  Rh17  1  0.137947  0.500000  0.862053  1
  Rh  Rh18  1  0.862053  0.137947  0.500000  1
