# generated using pymatgen
data_Cs2K10Al(FeSe4)3
_symmetry_space_group_name_H-M   'P 1'
_cell_length_a   13.71073855
_cell_length_b   8.25291327
_cell_length_c   10.46502348
_cell_angle_alpha   53.22264702
_cell_angle_beta   89.11967491
_cell_angle_gamma   89.98638048
_symmetry_Int_Tables_number   1
_chemical_formula_structural   Cs2K10Al(FeSe4)3
_chemical_formula_sum   'Cs2 K10 Al1 Fe3 Se12'
_cell_volume   948.29857341
_cell_formula_units_Z   1
loop_
 _symmetry_equiv_pos_site_id
 _symmetry_equiv_pos_as_xyz
  1  'x, y, z'
loop_
 _atom_site_type_symbol
 _atom_site_label
 _atom_site_symmetry_multiplicity
 _atom_site_fract_x
 _atom_site_fract_y
 _atom_site_fract_z
 _atom_site_occupancy
  Cs  Cs0  1  0.311813  0.182338  0.057195  1
  Cs  Cs1  1  0.686225  0.816087  0.943254  1
  K  K2  1  0.814508  0.828420  0.448111  1
  K  K3  1  0.900429  0.319232  0.403155  1
  K  K4  1  0.615627  0.365132  0.470290  1
  K  K5  1  0.110429  0.640768  0.022253  1
  K  K6  1  0.384717  0.632583  0.530573  1
  K  K7  1  0.890586  0.361633  0.979959  1
  K  K8  1  0.614536  0.300988  0.911196  1
  K  K9  1  0.099455  0.682988  0.595556  1
  K  K10  1  0.386274  0.697142  0.090028  1
  K  K11  1  0.186016  0.171572  0.551645  1
  Al  Al12  1  0.936037  0.052619  0.844451  1
  Fe  Fe13  1  0.063346  0.948483  0.154237  1
  Fe  Fe14  1  0.567369  0.038011  0.349711  1
  Fe  Fe15  1  0.432597  0.960850  0.650489  1
  Se  Se16  1  0.417932  0.204845  0.357502  1
  Se  Se17  1  0.903715  0.825440  0.137367  1
  Se  Se18  1  0.582142  0.794071  0.642438  1
  Se  Se19  1  0.094141  0.177242  0.859302  1
  Se  Se20  1  0.702545  0.270147  0.225895  1
  Se  Se21  1  0.183772  0.686867  0.295095  1
  Se  Se22  1  0.297595  0.728551  0.774800  1
  Se  Se23  1  0.816510  0.315747  0.706005  1
  Se  Se24  1  0.546181  0.858100  0.240369  1
  Se  Se25  1  0.053742  0.135315  0.260520  1
  Se  Se26  1  0.453741  0.140369  0.760122  1
  Se  Se27  1  0.948018  0.864460  0.738482  1
