# generated using pymatgen
data_Tm11In9Au4
_symmetry_space_group_name_H-M   'P 1'
_cell_length_a   13.00293965
_cell_length_b   13.00293906
_cell_length_c   3.72142200
_cell_angle_alpha   90.00000000
_cell_angle_beta   90.00000000
_cell_angle_gamma   109.86926893
_symmetry_Int_Tables_number   1
_chemical_formula_structural   Tm11In9Au4
_chemical_formula_sum   'Tm11 In9 Au4'
_cell_volume   591.74854487
_cell_formula_units_Z   1
loop_
 _symmetry_equiv_pos_site_id
 _symmetry_equiv_pos_as_xyz
  1  'x, y, z'
loop_
 _atom_site_type_symbol
 _atom_site_label
 _atom_site_symmetry_multiplicity
 _atom_site_fract_x
 _atom_site_fract_y
 _atom_site_fract_z
 _atom_site_occupancy
  Tm  Tm0  1  0.416876  0.069772  0.000000  1
  Tm  Tm1  1  0.583124  0.930228  0.000000  1
  Tm  Tm2  1  0.069772  0.416876  0.000000  1
  Tm  Tm3  1  0.930228  0.583124  0.000000  1
  Tm  Tm4  1  0.158884  0.841116  0.000000  1
  Tm  Tm5  1  0.841116  0.158884  0.000000  1
  Tm  Tm6  1  0.367162  0.632838  0.000000  1
  Tm  Tm7  1  0.632838  0.367162  0.000000  1
  Tm  Tm8  1  0.301615  0.301615  0.000000  1
  Tm  Tm9  1  0.698385  0.698385  0.000000  1
  Tm  Tm10  1  0.000000  0.000000  0.000000  1
  In  In11  1  0.366157  0.848268  0.500000  1
  In  In12  1  0.633843  0.151732  0.500000  1
  In  In13  1  0.848268  0.366157  0.500000  1
  In  In14  1  0.151732  0.633843  0.500000  1
  In  In15  1  0.213461  0.064629  0.500000  1
  In  In16  1  0.786539  0.935371  0.500000  1
  In  In17  1  0.064629  0.213461  0.500000  1
  In  In18  1  0.935371  0.786539  0.500000  1
  In  In19  1  0.500000  0.500000  0.500000  1
  Au  Au20  1  0.452748  0.251233  0.500000  1
  Au  Au21  1  0.547252  0.748767  0.500000  1
  Au  Au22  1  0.251233  0.452748  0.500000  1
  Au  Au23  1  0.748767  0.547252  0.500000  1
