# generated using pymatgen
data_NbZnB2Ru5W
_symmetry_space_group_name_H-M   'P 1'
_cell_length_a   9.34580291
_cell_length_b   9.34580291
_cell_length_c   2.94058500
_cell_angle_alpha   90.00000000
_cell_angle_beta   90.00000000
_cell_angle_gamma   89.82493330
_symmetry_Int_Tables_number   1
_chemical_formula_structural   NbZnB2Ru5W
_chemical_formula_sum   'Nb2 Zn2 B4 Ru10 W2'
_cell_volume   256.84135130
_cell_formula_units_Z   2
loop_
 _symmetry_equiv_pos_site_id
 _symmetry_equiv_pos_as_xyz
  1  'x, y, z'
loop_
 _atom_site_type_symbol
 _atom_site_label
 _atom_site_symmetry_multiplicity
 _atom_site_fract_x
 _atom_site_fract_y
 _atom_site_fract_z
 _atom_site_occupancy
  Nb  Nb0  1  0.322284  0.822284  0.000000  1
  Nb  Nb1  1  0.677716  0.177716  0.000000  1
  Zn  Zn2  1  0.500000  0.500000  0.000000  1
  Zn  Zn3  1  0.000000  0.000000  0.000000  1
  B  B4  1  0.625313  0.874687  0.000000  1
  B  B5  1  0.374687  0.125313  0.000000  1
  B  B6  1  0.126408  0.626408  0.000000  1
  B  B7  1  0.873592  0.373592  0.000000  1
  Ru  Ru8  1  0.573444  0.714766  0.500000  1
  Ru  Ru9  1  0.426556  0.285234  0.500000  1
  Ru  Ru10  1  0.062892  0.781623  0.500000  1
  Ru  Ru11  1  0.937108  0.218377  0.500000  1
  Ru  Ru12  1  0.281623  0.562892  0.500000  1
  Ru  Ru13  1  0.718377  0.437108  0.500000  1
  Ru  Ru14  1  0.214766  0.073444  0.500000  1
  Ru  Ru15  1  0.785234  0.926556  0.500000  1
  Ru  Ru16  1  0.500000  0.000000  0.500000  1
  Ru  Ru17  1  0.000000  0.500000  0.500000  1
  W  W18  1  0.822382  0.677618  0.000000  1
  W  W19  1  0.177618  0.322382  0.000000  1
