# generated using pymatgen
data_Nd5Ho11Cd4TcNi3
_symmetry_space_group_name_H-M   'P 1'
_cell_length_a   9.66420984
_cell_length_b   9.66674942
_cell_length_c   9.66674837
_cell_angle_alpha   59.46676092
_cell_angle_beta   59.47656274
_cell_angle_gamma   59.47657158
_symmetry_Int_Tables_number   1
_chemical_formula_structural   Nd5Ho11Cd4TcNi3
_chemical_formula_sum   'Nd5 Ho11 Cd4 Tc1 Ni3'
_cell_volume   630.92496958
_cell_formula_units_Z   1
loop_
 _symmetry_equiv_pos_site_id
 _symmetry_equiv_pos_as_xyz
  1  'x, y, z'
loop_
 _atom_site_type_symbol
 _atom_site_label
 _atom_site_symmetry_multiplicity
 _atom_site_fract_x
 _atom_site_fract_y
 _atom_site_fract_z
 _atom_site_occupancy
  Nd  Nd0  1  0.801697  0.192282  0.192282  1
  Nd  Nd1  1  0.814980  0.185845  0.812965  1
  Nd  Nd2  1  0.191391  0.803284  0.188686  1
  Nd  Nd3  1  0.814980  0.812965  0.185845  1
  Nd  Nd4  1  0.191391  0.188686  0.803284  1
  Ho  Ho5  1  0.596568  0.598174  0.598174  1
  Ho  Ho6  1  0.599682  0.601181  0.208922  1
  Ho  Ho7  1  0.599682  0.208922  0.601181  1
  Ho  Ho8  1  0.206845  0.600919  0.600919  1
  Ho  Ho9  1  0.062876  0.435465  0.435465  1
  Ho  Ho10  1  0.434181  0.062588  0.062588  1
  Ho  Ho11  1  0.434612  0.061516  0.437430  1
  Ho  Ho12  1  0.063034  0.435130  0.061442  1
  Ho  Ho13  1  0.434612  0.437430  0.061516  1
  Ho  Ho14  1  0.063034  0.061442  0.435130  1
  Ho  Ho15  1  0.189574  0.810079  0.810079  1
  Cd  Cd16  1  0.831842  0.828531  0.828531  1
  Cd  Cd17  1  0.828451  0.828813  0.510797  1
  Cd  Cd18  1  0.828451  0.510797  0.828813  1
  Cd  Cd19  1  0.509002  0.828338  0.828338  1
  Tc  Tc20  1  0.393245  0.392929  0.392929  1
  Ni  Ni21  1  0.391619  0.395467  0.826371  1
  Ni  Ni22  1  0.391619  0.826371  0.395467  1
  Ni  Ni23  1  0.826628  0.392846  0.392846  1
