# generated using pymatgen
data_Sr9CaSn4(BiH)2
_symmetry_space_group_name_H-M   'P 1'
_cell_length_a   10.04573963
_cell_length_b   10.04574087
_cell_length_c   10.04574019
_cell_angle_alpha   129.27480858
_cell_angle_beta   129.27481022
_cell_angle_gamma   74.56879711
_symmetry_Int_Tables_number   1
_chemical_formula_structural   Sr9CaSn4(BiH)2
_chemical_formula_sum   'Sr9 Ca1 Sn4 Bi2 H2'
_cell_volume   591.98353646
_cell_formula_units_Z   1
loop_
 _symmetry_equiv_pos_site_id
 _symmetry_equiv_pos_as_xyz
  1  'x, y, z'
loop_
 _atom_site_type_symbol
 _atom_site_label
 _atom_site_symmetry_multiplicity
 _atom_site_fract_x
 _atom_site_fract_y
 _atom_site_fract_z
 _atom_site_occupancy
  Sr  Sr0  1  0.000000  0.000000  0.000000  1
  Sr  Sr1  1  0.514103  0.016743  0.823166  1
  Sr  Sr2  1  0.193577  0.690937  0.176834  1
  Sr  Sr3  1  0.016743  0.193577  0.502640  1
  Sr  Sr4  1  0.690937  0.514103  0.497360  1
  Sr  Sr5  1  0.485897  0.983257  0.176834  1
  Sr  Sr6  1  0.806423  0.309063  0.823166  1
  Sr  Sr7  1  0.983257  0.806423  0.497360  1
  Sr  Sr8  1  0.309063  0.485897  0.502640  1
  Ca  Ca9  1  0.500000  0.500000  0.000000  1
  Sn  Sn10  1  0.870085  0.377150  0.247236  1
  Sn  Sn11  1  0.129915  0.622850  0.752764  1
  Sn  Sn12  1  0.377150  0.129915  0.507066  1
  Sn  Sn13  1  0.622850  0.870085  0.492934  1
  Bi  Bi14  1  0.250304  0.250304  0.000000  1
  Bi  Bi15  1  0.749696  0.749696  0.000000  1
  H  H16  1  0.250000  0.750000  0.500000  1
  H  H17  1  0.750000  0.250000  0.500000  1
