# generated using pymatgen
data_Tb16Y4Si15Ag
_symmetry_space_group_name_H-M   'P 1'
_cell_length_a   7.49524689
_cell_length_b   7.72553880
_cell_length_c   14.73929909
_cell_angle_alpha   90.21005921
_cell_angle_beta   90.63735727
_cell_angle_gamma   90.15601888
_symmetry_Int_Tables_number   1
_chemical_formula_structural   Tb16Y4Si15Ag
_chemical_formula_sum   'Tb16 Y4 Si15 Ag1'
_cell_volume   853.41466932
_cell_formula_units_Z   1
loop_
 _symmetry_equiv_pos_site_id
 _symmetry_equiv_pos_as_xyz
  1  'x, y, z'
loop_
 _atom_site_type_symbol
 _atom_site_label
 _atom_site_symmetry_multiplicity
 _atom_site_fract_x
 _atom_site_fract_y
 _atom_site_fract_z
 _atom_site_occupancy
  Tb  Tb0  1  0.679070  0.175511  0.624381  1
  Tb  Tb1  1  0.182806  0.321954  0.877596  1
  Tb  Tb2  1  0.317851  0.819997  0.121113  1
  Tb  Tb3  1  0.825893  0.674810  0.376389  1
  Tb  Tb4  1  0.317783  0.824852  0.378084  1
  Tb  Tb5  1  0.817227  0.678718  0.121574  1
  Tb  Tb6  1  0.681117  0.179222  0.877659  1
  Tb  Tb7  1  0.176775  0.321142  0.623358  1
  Tb  Tb8  1  0.524480  0.675782  0.602233  1
  Tb  Tb9  1  0.029170  0.816460  0.900922  1
  Tb  Tb10  1  0.469434  0.318294  0.098501  1
  Tb  Tb11  1  0.979771  0.184752  0.398497  1
  Tb  Tb12  1  0.470682  0.325294  0.399757  1
  Tb  Tb13  1  0.969849  0.183375  0.098250  1
  Tb  Tb14  1  0.531087  0.682700  0.899500  1
  Tb  Tb15  1  0.025831  0.817161  0.601274  1
  Y  Y16  1  0.851521  0.508015  0.750105  1
  Y  Y17  1  0.349686  0.989148  0.748421  1
  Y  Y18  1  0.150683  0.488715  0.249528  1
  Y  Y19  1  0.651246  0.011192  0.249147  1
  Si  Si20  1  0.144250  0.527991  0.040381  1
  Si  Si21  1  0.354344  0.029150  0.959738  1
  Si  Si22  1  0.848716  0.471059  0.541435  1
  Si  Si23  1  0.342176  0.028302  0.542866  1
  Si  Si24  1  0.855555  0.471624  0.958798  1
  Si  Si25  1  0.643593  0.970966  0.039119  1
  Si  Si26  1  0.149128  0.530571  0.461134  1
  Si  Si27  1  0.477549  0.394606  0.750811  1
  Si  Si28  1  0.976433  0.104041  0.752377  1
  Si  Si29  1  0.523545  0.608838  0.248854  1
  Si  Si30  1  0.024280  0.895664  0.247799  1
  Si  Si31  1  0.734125  0.871099  0.751794  1
  Si  Si32  1  0.233417  0.626808  0.751355  1
  Si  Si33  1  0.268671  0.126436  0.247301  1
  Si  Si34  1  0.765473  0.374932  0.248716  1
  Ag  Ag35  1  0.656783  0.970816  0.461230  1
