# generated using pymatgen
data_Y5ErLu4(Si5Ir2)4
_symmetry_space_group_name_H-M   'P 1'
_cell_length_a   12.60645801
_cell_length_b   12.60597846
_cell_length_c   4.23759800
_cell_angle_alpha   90.00000000
_cell_angle_beta   90.00000000
_cell_angle_gamma   89.97461992
_symmetry_Int_Tables_number   1
_chemical_formula_structural   Y5ErLu4(Si5Ir2)4
_chemical_formula_sum   'Y5 Er1 Lu4 Si20 Ir8'
_cell_volume   673.42518542
_cell_formula_units_Z   1
loop_
 _symmetry_equiv_pos_site_id
 _symmetry_equiv_pos_as_xyz
  1  'x, y, z'
loop_
 _atom_site_type_symbol
 _atom_site_label
 _atom_site_symmetry_multiplicity
 _atom_site_fract_x
 _atom_site_fract_y
 _atom_site_fract_z
 _atom_site_occupancy
  Y  Y0  1  0.823415  0.676805  0.500000  1
  Y  Y1  1  0.883726  0.383385  0.500000  1
  Y  Y2  1  0.116512  0.616391  0.500000  1
  Y  Y3  1  0.383748  0.116148  0.500000  1
  Y  Y4  1  0.615773  0.884331  0.500000  1
  Er  Er5  1  0.499819  0.500248  0.000000  1
  Lu  Lu6  1  0.999708  0.000088  0.000000  1
  Lu  Lu7  1  0.676421  0.175651  0.500000  1
  Lu  Lu8  1  0.324275  0.823643  0.500000  1
  Lu  Lu9  1  0.176093  0.323841  0.500000  1
  Si  Si10  1  0.566261  0.066476  0.000000  1
  Si  Si11  1  0.433244  0.934018  0.000000  1
  Si  Si12  1  0.066577  0.433138  0.000000  1
  Si  Si13  1  0.934409  0.565801  0.000000  1
  Si  Si14  1  0.661794  0.701461  0.000000  1
  Si  Si15  1  0.336932  0.298663  0.000000  1
  Si  Si16  1  0.163659  0.799214  0.000000  1
  Si  Si17  1  0.837052  0.201403  0.000000  1
  Si  Si18  1  0.298498  0.662936  0.000000  1
  Si  Si19  1  0.700874  0.336366  0.000000  1
  Si  Si20  1  0.201256  0.163082  0.000000  1
  Si  Si21  1  0.798632  0.838212  0.000000  1
  Si  Si22  1  0.655378  0.501820  0.500000  1
  Si  Si23  1  0.343929  0.495831  0.500000  1
  Si  Si24  1  0.154181  0.995593  0.500000  1
  Si  Si25  1  0.845090  0.003445  0.500000  1
  Si  Si26  1  0.496592  0.656215  0.500000  1
  Si  Si27  1  0.504377  0.344529  0.500000  1
  Si  Si28  1  0.004167  0.154746  0.500000  1
  Si  Si29  1  0.998183  0.845927  0.500000  1
  Ir  Ir30  1  0.744346  0.521186  0.000000  1
  Ir  Ir31  1  0.254740  0.477234  0.000000  1
  Ir  Ir32  1  0.244742  0.977916  0.000000  1
  Ir  Ir33  1  0.755214  0.023252  0.000000  1
  Ir  Ir34  1  0.476666  0.745520  0.000000  1
  Ir  Ir35  1  0.522173  0.254546  0.000000  1
  Ir  Ir36  1  0.022654  0.244516  0.000000  1
  Ir  Ir37  1  0.978889  0.756423  0.000000  1
