# generated using pymatgen
data_Pr4Er2(GaSn)5
_symmetry_space_group_name_H-M   'P 1'
_cell_length_a   6.39761756
_cell_length_b   6.39761638
_cell_length_c   10.07632700
_cell_angle_alpha   90.00000000
_cell_angle_beta   90.00000000
_cell_angle_gamma   102.46153008
_symmetry_Int_Tables_number   1
_chemical_formula_structural   Pr4Er2(GaSn)5
_chemical_formula_sum   'Pr4 Er2 Ga5 Sn5'
_cell_volume   402.70292042
_cell_formula_units_Z   1
loop_
 _symmetry_equiv_pos_site_id
 _symmetry_equiv_pos_as_xyz
  1  'x, y, z'
loop_
 _atom_site_type_symbol
 _atom_site_label
 _atom_site_symmetry_multiplicity
 _atom_site_fract_x
 _atom_site_fract_y
 _atom_site_fract_z
 _atom_site_occupancy
  Pr  Pr0  1  0.201080  0.798612  0.494955  1
  Pr  Pr1  1  0.201080  0.798612  0.005045  1
  Pr  Pr2  1  0.798612  0.201080  0.494955  1
  Pr  Pr3  1  0.798612  0.201080  0.005045  1
  Er  Er4  1  0.649819  0.649819  0.250000  1
  Er  Er5  1  0.364257  0.364257  0.750000  1
  Ga  Ga6  1  0.026695  0.026695  0.250000  1
  Ga  Ga7  1  0.315590  0.315590  0.043522  1
  Ga  Ga8  1  0.681598  0.681598  0.960918  1
  Ga  Ga9  1  0.315590  0.315590  0.456478  1
  Ga  Ga10  1  0.681598  0.681598  0.539082  1
  Sn  Sn11  1  0.979096  0.979096  0.750000  1
  Sn  Sn12  1  0.483054  0.088767  0.250000  1
  Sn  Sn13  1  0.909010  0.505541  0.750000  1
  Sn  Sn14  1  0.505541  0.909010  0.750000  1
  Sn  Sn15  1  0.088767  0.483054  0.250000  1
