# generated using pymatgen
data_Pr16Co4Ag3Sn
_symmetry_space_group_name_H-M   'P 1'
_cell_length_a   9.80280334
_cell_length_b   9.80280243
_cell_length_c   9.80280307
_cell_angle_alpha   60.42930889
_cell_angle_beta   60.42931119
_cell_angle_gamma   60.42931270
_symmetry_Int_Tables_number   1
_chemical_formula_structural   Pr16Co4Ag3Sn
_chemical_formula_sum   'Pr16 Co4 Ag3 Sn1'
_cell_volume   672.56013624
_cell_formula_units_Z   1
loop_
 _symmetry_equiv_pos_site_id
 _symmetry_equiv_pos_as_xyz
  1  'x, y, z'
loop_
 _atom_site_type_symbol
 _atom_site_label
 _atom_site_symmetry_multiplicity
 _atom_site_fract_x
 _atom_site_fract_y
 _atom_site_fract_z
 _atom_site_occupancy
  Pr  Pr0  1  0.293895  0.902436  0.902436  1
  Pr  Pr1  1  0.688424  0.688424  0.305711  1
  Pr  Pr2  1  0.902436  0.902436  0.293895  1
  Pr  Pr3  1  0.308949  0.689407  0.308949  1
  Pr  Pr4  1  0.689407  0.308949  0.308949  1
  Pr  Pr5  1  0.056532  0.443409  0.443409  1
  Pr  Pr6  1  0.440388  0.060845  0.060845  1
  Pr  Pr7  1  0.060845  0.060845  0.440388  1
  Pr  Pr8  1  0.308949  0.308949  0.689407  1
  Pr  Pr9  1  0.443409  0.056532  0.443409  1
  Pr  Pr10  1  0.902661  0.902661  0.902661  1
  Pr  Pr11  1  0.443409  0.443409  0.056532  1
  Pr  Pr12  1  0.305711  0.688424  0.688424  1
  Pr  Pr13  1  0.688424  0.305711  0.688424  1
  Pr  Pr14  1  0.060845  0.440388  0.060845  1
  Pr  Pr15  1  0.902436  0.293895  0.902436  1
  Co  Co16  1  0.109309  0.109309  0.109309  1
  Co  Co17  1  0.107332  0.107332  0.672851  1
  Co  Co18  1  0.672851  0.107332  0.107332  1
  Co  Co19  1  0.107332  0.672851  0.107332  1
  Ag  Ag20  1  0.670003  0.670003  0.992623  1
  Ag  Ag21  1  0.992623  0.670003  0.670003  1
  Ag  Ag22  1  0.670003  0.992623  0.670003  1
  Sn  Sn23  1  0.673829  0.673829  0.673829  1
