# generated using pymatgen
data_Pr7Nd9Cd4TcPt3
_symmetry_space_group_name_H-M   'P 1'
_cell_length_a   10.07417223
_cell_length_b   10.07417280
_cell_length_c   10.07895787
_cell_angle_alpha   59.48367647
_cell_angle_beta   59.48367566
_cell_angle_gamma   59.50650854
_symmetry_Int_Tables_number   1
_chemical_formula_structural   Pr7Nd9Cd4TcPt3
_chemical_formula_sum   'Pr7 Nd9 Cd4 Tc1 Pt3'
_cell_volume   714.93279912
_cell_formula_units_Z   1
loop_
 _symmetry_equiv_pos_site_id
 _symmetry_equiv_pos_as_xyz
  1  'x, y, z'
loop_
 _atom_site_type_symbol
 _atom_site_label
 _atom_site_symmetry_multiplicity
 _atom_site_fract_x
 _atom_site_fract_y
 _atom_site_fract_z
 _atom_site_occupancy
  Pr  Pr0  1  0.807731  0.807731  0.188983  1
  Pr  Pr1  1  0.936705  0.562990  0.563531  1
  Pr  Pr2  1  0.554808  0.939235  0.938833  1
  Pr  Pr3  1  0.562990  0.936705  0.563531  1
  Pr  Pr4  1  0.939235  0.554808  0.938833  1
  Pr  Pr5  1  0.563100  0.563100  0.936624  1
  Pr  Pr6  1  0.939021  0.939021  0.554987  1
  Nd  Nd7  1  0.351627  0.351627  0.351939  1
  Nd  Nd8  1  0.347280  0.347280  0.953909  1
  Nd  Nd9  1  0.346817  0.954498  0.347368  1
  Nd  Nd10  1  0.954498  0.346817  0.347368  1
  Nd  Nd11  1  0.815691  0.189008  0.188475  1
  Nd  Nd12  1  0.189410  0.807839  0.807597  1
  Nd  Nd13  1  0.189008  0.815691  0.188475  1
  Nd  Nd14  1  0.807839  0.189410  0.807597  1
  Nd  Nd15  1  0.188583  0.188583  0.815821  1
  Cd  Cd16  1  0.578993  0.578993  0.579617  1
  Cd  Cd17  1  0.579882  0.579882  0.259103  1
  Cd  Cd18  1  0.580111  0.258984  0.580083  1
  Cd  Cd19  1  0.258984  0.580111  0.580083  1
  Tc  Tc20  1  0.142350  0.142350  0.142798  1
  Pt  Pt21  1  0.145360  0.145360  0.574064  1
  Pt  Pt22  1  0.146797  0.573176  0.145188  1
  Pt  Pt23  1  0.573176  0.146797  0.145188  1
