# generated using pymatgen
data_Tb5Dy6Er9(CoSb2)4
_symmetry_space_group_name_H-M   'P 1'
_cell_length_a   7.86616575
_cell_length_b   8.77613000
_cell_length_c   12.20319151
_cell_angle_alpha   90.00000000
_cell_angle_beta   89.97835497
_cell_angle_gamma   90.00000000
_symmetry_Int_Tables_number   1
_chemical_formula_structural   Tb5Dy6Er9(CoSb2)4
_chemical_formula_sum   'Tb5 Dy6 Er9 Co4 Sb8'
_cell_volume   842.44108080
_cell_formula_units_Z   1
loop_
 _symmetry_equiv_pos_site_id
 _symmetry_equiv_pos_as_xyz
  1  'x, y, z'
loop_
 _atom_site_type_symbol
 _atom_site_label
 _atom_site_symmetry_multiplicity
 _atom_site_fract_x
 _atom_site_fract_y
 _atom_site_fract_z
 _atom_site_occupancy
  Tb  Tb0  1  0.546345  0.250000  0.002545  1
  Tb  Tb1  1  0.621882  0.750000  0.307210  1
  Tb  Tb2  1  0.122266  0.250000  0.192727  1
  Tb  Tb3  1  0.377624  0.250000  0.692820  1
  Tb  Tb4  1  0.877415  0.750000  0.807045  1
  Dy  Dy5  1  0.653744  0.250000  0.296724  1
  Dy  Dy6  1  0.846859  0.250000  0.797066  1
  Dy  Dy7  1  0.346537  0.750000  0.703086  1
  Dy  Dy8  1  0.452648  0.750000  0.998013  1
  Dy  Dy9  1  0.953579  0.250000  0.501803  1
  Dy  Dy10  1  0.046913  0.750000  0.497493  1
  Er  Er11  1  0.153361  0.750000  0.202557  1
  Er  Er12  1  0.823107  0.963790  0.065410  1
  Er  Er13  1  0.322871  0.035414  0.434887  1
  Er  Er14  1  0.177053  0.464741  0.935227  1
  Er  Er15  1  0.677188  0.535284  0.565023  1
  Er  Er16  1  0.177053  0.035259  0.935227  1
  Er  Er17  1  0.677188  0.964716  0.565023  1
  Er  Er18  1  0.823107  0.536210  0.065410  1
  Er  Er19  1  0.322871  0.464586  0.434887  1
  Co  Co20  1  0.435793  0.750000  0.491378  1
  Co  Co21  1  0.935456  0.250000  0.008894  1
  Co  Co22  1  0.564840  0.250000  0.508573  1
  Co  Co23  1  0.064729  0.750000  0.991566  1
  Sb  Sb24  1  0.929994  0.991379  0.326562  1
  Sb  Sb25  1  0.427955  0.007178  0.173341  1
  Sb  Sb26  1  0.070885  0.492109  0.672756  1
  Sb  Sb27  1  0.570953  0.508095  0.827044  1
  Sb  Sb28  1  0.070885  0.007891  0.672756  1
  Sb  Sb29  1  0.570953  0.991905  0.827044  1
  Sb  Sb30  1  0.929994  0.508621  0.326562  1
  Sb  Sb31  1  0.427955  0.492822  0.173341  1
