# generated using pymatgen
data_Tb3DySiTc7
_symmetry_space_group_name_H-M   'P 1'
_cell_length_a   5.33694800
_cell_length_b   5.33694789
_cell_length_c   8.93156800
_cell_angle_alpha   90.00000000
_cell_angle_beta   90.00000000
_cell_angle_gamma   119.99998827
_symmetry_Int_Tables_number   1
_chemical_formula_structural   Tb3DySiTc7
_chemical_formula_sum   'Tb3 Dy1 Si1 Tc7'
_cell_volume   220.31513148
_cell_formula_units_Z   1
loop_
 _symmetry_equiv_pos_site_id
 _symmetry_equiv_pos_as_xyz
  1  'x, y, z'
loop_
 _atom_site_type_symbol
 _atom_site_label
 _atom_site_symmetry_multiplicity
 _atom_site_fract_x
 _atom_site_fract_y
 _atom_site_fract_z
 _atom_site_occupancy
  Tb  Tb0  1  0.333333  0.666667  0.435354  1
  Tb  Tb1  1  0.666667  0.333333  0.564633  1
  Tb  Tb2  1  0.666667  0.333333  0.934721  1
  Dy  Dy3  1  0.333333  0.666667  0.065299  1
  Si  Si4  1  0.000000  0.000000  0.500006  1
  Tc  Tc5  1  0.000000  0.000000  0.000041  1
  Tc  Tc6  1  0.830143  0.169857  0.254099  1
  Tc  Tc7  1  0.830143  0.660286  0.254099  1
  Tc  Tc8  1  0.339714  0.169857  0.254099  1
  Tc  Tc9  1  0.169859  0.830141  0.745883  1
  Tc  Tc10  1  0.169859  0.339718  0.745883  1
  Tc  Tc11  1  0.660282  0.830141  0.745883  1
