# generated using pymatgen
data_Nd2Y4MgCo17P12
_symmetry_space_group_name_H-M   'P 1'
_cell_length_a   3.74595100
_cell_length_b   10.63619200
_cell_length_c   12.31808200
_cell_angle_alpha   90.00000000
_cell_angle_beta   90.00000000
_cell_angle_gamma   90.00000000
_symmetry_Int_Tables_number   1
_chemical_formula_structural   Nd2Y4MgCo17P12
_chemical_formula_sum   'Nd2 Y4 Mg1 Co17 P12'
_cell_volume   490.78507979
_cell_formula_units_Z   1
loop_
 _symmetry_equiv_pos_site_id
 _symmetry_equiv_pos_as_xyz
  1  'x, y, z'
loop_
 _atom_site_type_symbol
 _atom_site_label
 _atom_site_symmetry_multiplicity
 _atom_site_fract_x
 _atom_site_fract_y
 _atom_site_fract_z
 _atom_site_occupancy
  Nd  Nd0  1  0.000000  0.500000  0.526010  1
  Nd  Nd1  1  0.500000  0.000000  0.477654  1
  Y  Y2  1  0.500000  0.821232  0.206256  1
  Y  Y3  1  0.500000  0.178768  0.206256  1
  Y  Y4  1  0.000000  0.682965  0.795528  1
  Y  Y5  1  0.000000  0.317035  0.795528  1
  Mg  Mg6  1  0.500000  0.500000  0.150967  1
  Co  Co7  1  0.000000  0.000000  0.840807  1
  Co  Co8  1  0.500000  0.500000  0.707329  1
  Co  Co9  1  0.000000  0.000000  0.293309  1
  Co  Co10  1  0.000000  0.500000  0.986219  1
  Co  Co11  1  0.500000  0.000000  0.011620  1
  Co  Co12  1  0.500000  0.329068  0.992991  1
  Co  Co13  1  0.500000  0.670932  0.992991  1
  Co  Co14  1  0.000000  0.163165  0.001651  1
  Co  Co15  1  0.000000  0.836835  0.001651  1
  Co  Co16  1  0.500000  0.295281  0.431813  1
  Co  Co17  1  0.500000  0.704719  0.431813  1
  Co  Co18  1  0.000000  0.202815  0.571759  1
  Co  Co19  1  0.000000  0.797185  0.571759  1
  Co  Co20  1  0.500000  0.880592  0.711095  1
  Co  Co21  1  0.500000  0.119408  0.711095  1
  Co  Co22  1  0.000000  0.622425  0.291098  1
  Co  Co23  1  0.000000  0.377575  0.291098  1
  P  P24  1  0.500000  0.500000  0.884542  1
  P  P25  1  0.000000  0.000000  0.115204  1
  P  P26  1  0.500000  0.500000  0.349955  1
  P  P27  1  0.000000  0.000000  0.659102  1
  P  P28  1  0.500000  0.306267  0.618411  1
  P  P29  1  0.500000  0.693733  0.618411  1
  P  P30  1  0.000000  0.192450  0.384740  1
  P  P31  1  0.000000  0.807550  0.384740  1
  P  P32  1  0.500000  0.849419  0.891242  1
  P  P33  1  0.500000  0.150581  0.891242  1
  P  P34  1  0.000000  0.662925  0.102056  1
  P  P35  1  0.000000  0.337075  0.102056  1
