# generated using pymatgen
data_Dy2Ho5Er(WO6)4
_symmetry_space_group_name_H-M   'P 1'
_cell_length_a   5.38296802
_cell_length_b   7.68819842
_cell_length_c   11.44488110
_cell_angle_alpha   75.34513427
_cell_angle_beta   90.00199737
_cell_angle_gamma   89.99144475
_symmetry_Int_Tables_number   1
_chemical_formula_structural   Dy2Ho5Er(WO6)4
_chemical_formula_sum   'Dy2 Ho5 Er1 W4 O24'
_cell_volume   458.24103620
_cell_formula_units_Z   1
loop_
 _symmetry_equiv_pos_site_id
 _symmetry_equiv_pos_as_xyz
  1  'x, y, z'
loop_
 _atom_site_type_symbol
 _atom_site_label
 _atom_site_symmetry_multiplicity
 _atom_site_fract_x
 _atom_site_fract_y
 _atom_site_fract_z
 _atom_site_occupancy
  Dy  Dy0  1  0.684389  0.500005  0.249994  1
  Dy  Dy1  1  0.315625  0.499928  0.750051  1
  Ho  Ho2  1  0.183546  0.205436  0.422006  1
  Ho  Ho3  1  0.183534  0.794634  0.077971  1
  Ho  Ho4  1  0.816442  0.794564  0.577994  1
  Ho  Ho5  1  0.740426  0.000025  0.249945  1
  Ho  Ho6  1  0.259568  0.000047  0.750051  1
  Er  Er7  1  0.816398  0.205584  0.921857  1
  W  W8  1  0.256130  0.276211  0.114705  1
  W  W9  1  0.256132  0.723755  0.385198  1
  W  W10  1  0.743850  0.723687  0.885217  1
  W  W11  1  0.743907  0.276238  0.614860  1
  O  O12  1  0.458508  0.208205  0.273404  1
  O  O13  1  0.458516  0.791778  0.226575  1
  O  O14  1  0.541481  0.791760  0.726584  1
  O  O15  1  0.542042  0.208150  0.773777  1
  O  O16  1  0.043843  0.060177  0.104287  1
  O  O17  1  0.044077  0.939976  0.395528  1
  O  O18  1  0.955561  0.940548  0.895577  1
  O  O19  1  0.955936  0.060045  0.604467  1
  O  O20  1  0.980615  0.288860  0.228768  1
  O  O21  1  0.980587  0.711141  0.271241  1
  O  O22  1  0.019410  0.711184  0.771264  1
  O  O23  1  0.019179  0.288747  0.729021  1
  O  O24  1  0.849023  0.365764  0.451400  1
  O  O25  1  0.849032  0.634249  0.048594  1
  O  O26  1  0.150985  0.634234  0.548609  1
  O  O27  1  0.150247  0.365436  0.951340  1
  O  O28  1  0.639539  0.510476  0.614323  1
  O  O29  1  0.639923  0.489065  0.885735  1
  O  O30  1  0.360458  0.489503  0.385668  1
  O  O31  1  0.360427  0.510459  0.114309  1
  O  O32  1  0.464661  0.153228  0.569529  1
  O  O33  1  0.464631  0.846737  0.930501  1
  O  O34  1  0.535349  0.846804  0.430506  1
  O  O35  1  0.536022  0.153362  0.069141  1
