# generated using pymatgen
data_YLu15(In3Ni)2
_symmetry_space_group_name_H-M   'P 1'
_cell_length_a   10.22562000
_cell_length_b   10.22562077
_cell_length_c   6.83172500
_cell_angle_alpha   90.00000000
_cell_angle_beta   90.00000000
_cell_angle_gamma   120.00000398
_symmetry_Int_Tables_number   1
_chemical_formula_structural   YLu15(In3Ni)2
_chemical_formula_sum   'Y1 Lu15 In6 Ni2'
_cell_volume   618.64331223
_cell_formula_units_Z   1
loop_
 _symmetry_equiv_pos_site_id
 _symmetry_equiv_pos_as_xyz
  1  'x, y, z'
loop_
 _atom_site_type_symbol
 _atom_site_label
 _atom_site_symmetry_multiplicity
 _atom_site_fract_x
 _atom_site_fract_y
 _atom_site_fract_z
 _atom_site_occupancy
  Y  Y0  1  0.000000  0.000000  0.998291  1
  Lu  Lu1  1  0.532835  0.065669  0.515692  1
  Lu  Lu2  1  0.934331  0.467165  0.515692  1
  Lu  Lu3  1  0.532835  0.467165  0.515692  1
  Lu  Lu4  1  0.466959  0.933918  0.015884  1
  Lu  Lu5  1  0.066082  0.533041  0.015884  1
  Lu  Lu6  1  0.466959  0.533041  0.015884  1
  Lu  Lu7  1  0.178315  0.356630  0.719241  1
  Lu  Lu8  1  0.643370  0.821685  0.719241  1
  Lu  Lu9  1  0.178315  0.821685  0.719241  1
  Lu  Lu10  1  0.821562  0.643124  0.220769  1
  Lu  Lu11  1  0.356876  0.178438  0.220769  1
  Lu  Lu12  1  0.821562  0.178438  0.220769  1
  Lu  Lu13  1  0.666667  0.333333  0.901425  1
  Lu  Lu14  1  0.333333  0.666667  0.402221  1
  Lu  Lu15  1  0.000000  0.000000  0.498030  1
  In  In16  1  0.836992  0.673984  0.757017  1
  In  In17  1  0.326016  0.163008  0.757017  1
  In  In18  1  0.836992  0.163008  0.757017  1
  In  In19  1  0.162904  0.325808  0.260728  1
  In  In20  1  0.674192  0.837096  0.260728  1
  In  In21  1  0.162904  0.837096  0.260728  1
  Ni  Ni22  1  0.666667  0.333333  0.287563  1
  Ni  Ni23  1  0.333333  0.666667  0.788674  1
