# generated using pymatgen
data_Pr12Al3BiI12
_symmetry_space_group_name_H-M   'P 1'
_cell_length_a   10.95183676
_cell_length_b   11.09237385
_cell_length_c   11.09237400
_cell_angle_alpha   109.72644891
_cell_angle_beta   109.21477059
_cell_angle_gamma   109.21476850
_symmetry_Int_Tables_number   1
_chemical_formula_structural   Pr12Al3BiI12
_chemical_formula_sum   'Pr12 Al3 Bi1 I12'
_cell_volume   1040.58801749
_cell_formula_units_Z   1
loop_
 _symmetry_equiv_pos_site_id
 _symmetry_equiv_pos_as_xyz
  1  'x, y, z'
loop_
 _atom_site_type_symbol
 _atom_site_label
 _atom_site_symmetry_multiplicity
 _atom_site_fract_x
 _atom_site_fract_y
 _atom_site_fract_z
 _atom_site_occupancy
  Pr  Pr0  1  0.477554  0.474987  0.246247  1
  Pr  Pr1  1  0.750000  0.241113  0.258887  1
  Pr  Pr2  1  0.750000  0.013331  0.486669  1
  Pr  Pr3  1  0.236669  0.473339  0.486669  1
  Pr  Pr4  1  0.268694  0.771260  0.246247  1
  Pr  Pr5  1  0.022446  0.253753  0.025013  1
  Pr  Pr6  1  0.008887  0.017774  0.258887  1
  Pr  Pr7  1  0.502565  0.771260  0.025013  1
  Pr  Pr8  1  0.491113  0.241113  0.482226  1
  Pr  Pr9  1  0.997435  0.474987  0.728740  1
  Pr  Pr10  1  0.263331  0.013331  0.026661  1
  Pr  Pr11  1  0.231306  0.253753  0.728740  1
  Al  Al12  1  0.250000  0.246489  0.253511  1
  Al  Al13  1  0.503511  0.007020  0.253511  1
  Al  Al14  1  0.996489  0.246489  0.492980  1
  Bi  Bi15  1  0.250000  0.500000  0.000000  1
  I  I16  1  0.250000  0.753443  0.746557  1
  I  I17  1  0.513926  0.511028  0.759982  1
  I  I18  1  0.986074  0.740018  0.988972  1
  I  I19  1  0.746055  0.248954  0.759982  1
  I  I20  1  0.996557  0.993115  0.746557  1
  I  I21  1  0.250000  0.990323  0.509677  1
  I  I22  1  0.759677  0.519353  0.509677  1
  I  I23  1  0.502899  0.248954  0.988972  1
  I  I24  1  0.753945  0.740018  0.251046  1
  I  I25  1  0.740323  0.990323  0.980647  1
  I  I26  1  0.997101  0.511028  0.251046  1
  I  I27  1  0.503443  0.753443  0.506885  1
