# generated using pymatgen
data_Ho5Er3Ti3Si16Tc9
_symmetry_space_group_name_H-M   'P 1'
_cell_length_a   6.77590236
_cell_length_b   6.77648357
_cell_length_c   12.90696016
_cell_angle_alpha   90.01634938
_cell_angle_beta   89.96984904
_cell_angle_gamma   89.57834440
_symmetry_Int_Tables_number   1
_chemical_formula_structural   Ho5Er3Ti3Si16Tc9
_chemical_formula_sum   'Ho5 Er3 Ti3 Si16 Tc9'
_cell_volume   592.63003757
_cell_formula_units_Z   1
loop_
 _symmetry_equiv_pos_site_id
 _symmetry_equiv_pos_as_xyz
  1  'x, y, z'
loop_
 _atom_site_type_symbol
 _atom_site_label
 _atom_site_symmetry_multiplicity
 _atom_site_fract_x
 _atom_site_fract_y
 _atom_site_fract_z
 _atom_site_occupancy
  Ho  Ho0  1  0.337211  0.994910  0.468576  1
  Ho  Ho1  1  0.507040  0.835295  0.718190  1
  Ho  Ho2  1  0.489356  0.166448  0.216352  1
  Ho  Ho3  1  0.835303  0.506991  0.281834  1
  Ho  Ho4  1  0.166418  0.489343  0.783618  1
  Er  Er5  1  0.659582  0.007662  0.969394  1
  Er  Er6  1  0.994671  0.337574  0.531408  1
  Er  Er7  1  0.007653  0.659574  0.030687  1
  Ti  Ti8  1  0.157033  0.843526  0.248765  1
  Ti  Ti9  1  0.843546  0.157041  0.751144  1
  Ti  Ti10  1  0.658068  0.658014  0.499994  1
  Si  Si11  1  0.206210  0.121451  0.680315  1
  Si  Si12  1  0.386500  0.693653  0.931681  1
  Si  Si13  1  0.621609  0.296174  0.431631  1
  Si  Si14  1  0.693659  0.386508  0.068308  1
  Si  Si15  1  0.295986  0.621119  0.568425  1
  Si  Si16  1  0.793654  0.880604  0.180875  1
  Si  Si17  1  0.121209  0.206433  0.319656  1
  Si  Si18  1  0.880603  0.793657  0.819123  1
  Si  Si19  1  0.267185  0.986766  0.053461  1
  Si  Si20  1  0.520562  0.782655  0.308229  1
  Si  Si21  1  0.479820  0.220715  0.810191  1
  Si  Si22  1  0.782806  0.520430  0.691630  1
  Si  Si23  1  0.220700  0.479826  0.189814  1
  Si  Si24  1  0.725232  0.019833  0.555731  1
  Si  Si25  1  0.986775  0.267199  0.946538  1
  Si  Si26  1  0.019667  0.724768  0.444311  1
  Tc  Tc27  1  0.337798  0.337811  0.999994  1
  Tc  Tc28  1  0.180842  0.989676  0.863385  1
  Tc  Tc29  1  0.498300  0.693368  0.117030  1
  Tc  Tc30  1  0.501509  0.318469  0.617670  1
  Tc  Tc31  1  0.693406  0.498267  0.882953  1
  Tc  Tc32  1  0.318327  0.501367  0.382404  1
  Tc  Tc33  1  0.819991  0.002156  0.363951  1
  Tc  Tc34  1  0.989647  0.180860  0.136630  1
  Tc  Tc35  1  0.002125  0.819856  0.636103  1
