# generated using pymatgen
data_Tb5DySc2(Co4P3)4
_symmetry_space_group_name_H-M   'P 1'
_cell_length_a   3.73351200
_cell_length_b   10.68666401
_cell_length_c   12.40173301
_cell_angle_alpha   90.00357255
_cell_angle_beta   90.00000000
_cell_angle_gamma   90.00000000
_symmetry_Int_Tables_number   1
_chemical_formula_structural   Tb5DySc2(Co4P3)4
_chemical_formula_sum   'Tb5 Dy1 Sc2 Co16 P12'
_cell_volume   494.81411884
_cell_formula_units_Z   1
loop_
 _symmetry_equiv_pos_site_id
 _symmetry_equiv_pos_as_xyz
  1  'x, y, z'
loop_
 _atom_site_type_symbol
 _atom_site_label
 _atom_site_symmetry_multiplicity
 _atom_site_fract_x
 _atom_site_fract_y
 _atom_site_fract_z
 _atom_site_occupancy
  Tb  Tb0  1  0.000000  0.499834  0.527408  1
  Tb  Tb1  1  0.500000  0.000050  0.472509  1
  Tb  Tb2  1  0.500000  0.822100  0.205537  1
  Tb  Tb3  1  0.500000  0.177911  0.205769  1
  Tb  Tb4  1  0.000000  0.677739  0.794408  1
  Dy  Dy5  1  0.000000  0.322246  0.794393  1
  Sc  Sc6  1  0.500000  0.500013  0.156845  1
  Sc  Sc7  1  0.000000  0.000087  0.843332  1
  Co  Co8  1  0.500000  0.499586  0.705307  1
  Co  Co9  1  0.000000  0.000055  0.294815  1
  Co  Co10  1  0.000000  0.499942  0.987537  1
  Co  Co11  1  0.500000  0.000056  0.012236  1
  Co  Co12  1  0.500000  0.331245  0.994571  1
  Co  Co13  1  0.500000  0.668624  0.994660  1
  Co  Co14  1  0.000000  0.168879  0.005129  1
  Co  Co15  1  0.000000  0.831217  0.005264  1
  Co  Co16  1  0.500000  0.295500  0.432949  1
  Co  Co17  1  0.500000  0.704524  0.432834  1
  Co  Co18  1  0.000000  0.204733  0.567289  1
  Co  Co19  1  0.000000  0.795381  0.567137  1
  Co  Co20  1  0.500000  0.878209  0.702596  1
  Co  Co21  1  0.500000  0.122068  0.702778  1
  Co  Co22  1  0.000000  0.621696  0.297442  1
  Co  Co23  1  0.000000  0.378232  0.297439  1
  P  P24  1  0.500000  0.499709  0.885754  1
  P  P25  1  0.000000  0.000032  0.114003  1
  P  P26  1  0.500000  0.499988  0.359488  1
  P  P27  1  0.000000  0.999957  0.640659  1
  P  P28  1  0.500000  0.309059  0.615466  1
  P  P29  1  0.500000  0.691014  0.615143  1
  P  P30  1  0.000000  0.191228  0.384950  1
  P  P31  1  0.000000  0.808848  0.384840  1
  P  P32  1  0.500000  0.839761  0.893434  1
  P  P33  1  0.500000  0.160502  0.893080  1
  P  P34  1  0.000000  0.660164  0.106504  1
  P  P35  1  0.000000  0.339811  0.106498  1
