# generated using pymatgen
data_Dy3Ho(Pd2Pb)2
_symmetry_space_group_name_H-M   'P 1'
_cell_length_a   7.89771390
_cell_length_b   7.89771390
_cell_length_c   3.64167100
_cell_angle_alpha   90.00000000
_cell_angle_beta   90.00000000
_cell_angle_gamma   90.16212875
_symmetry_Int_Tables_number   1
_chemical_formula_structural   Dy3Ho(Pd2Pb)2
_chemical_formula_sum   'Dy3 Ho1 Pd4 Pb2'
_cell_volume   227.14425849
_cell_formula_units_Z   1
loop_
 _symmetry_equiv_pos_site_id
 _symmetry_equiv_pos_as_xyz
  1  'x, y, z'
loop_
 _atom_site_type_symbol
 _atom_site_label
 _atom_site_symmetry_multiplicity
 _atom_site_fract_x
 _atom_site_fract_y
 _atom_site_fract_z
 _atom_site_occupancy
  Dy  Dy0  1  0.671215  0.171215  0.500000  1
  Dy  Dy1  1  0.171188  0.328848  0.500000  1
  Dy  Dy2  1  0.828848  0.671188  0.500000  1
  Ho  Ho3  1  0.328792  0.828792  0.500000  1
  Pd  Pd4  1  0.374613  0.124548  0.000000  1
  Pd  Pd5  1  0.125848  0.625848  0.000000  1
  Pd  Pd6  1  0.624548  0.874613  0.000000  1
  Pd  Pd7  1  0.874887  0.374887  0.000000  1
  Pb  Pb8  1  0.000173  0.999887  0.000000  1
  Pb  Pb9  1  0.499887  0.500173  0.000000  1
