# generated using pymatgen
data_Tm3Sc(OsO4)4
_symmetry_space_group_name_H-M   'P 1'
_cell_length_a   5.25811983
_cell_length_b   7.34236729
_cell_length_c   7.63570215
_cell_angle_alpha   80.07617640
_cell_angle_beta   94.12189763
_cell_angle_gamma   90.75653082
_symmetry_Int_Tables_number   1
_chemical_formula_structural   Tm3Sc(OsO4)4
_chemical_formula_sum   'Tm3 Sc1 Os4 O16'
_cell_volume   289.62995861
_cell_formula_units_Z   1
loop_
 _symmetry_equiv_pos_site_id
 _symmetry_equiv_pos_as_xyz
  1  'x, y, z'
loop_
 _atom_site_type_symbol
 _atom_site_label
 _atom_site_symmetry_multiplicity
 _atom_site_fract_x
 _atom_site_fract_y
 _atom_site_fract_z
 _atom_site_occupancy
  Tm  Tm0  1  0.243209  0.883224  0.385757  1
  Tm  Tm1  1  0.757158  0.118412  0.608985  1
  Tm  Tm2  1  0.694916  0.608011  0.668274  1
  Sc  Sc3  1  0.301172  0.384837  0.334367  1
  Os  Os4  1  0.786761  0.199342  0.164475  1
  Os  Os5  1  0.748857  0.702680  0.166091  1
  Os  Os6  1  0.253424  0.294704  0.834903  1
  Os  Os7  1  0.214579  0.801577  0.836571  1
  O  O8  1  0.096772  0.305387  0.062128  1
  O  O9  1  0.445443  0.790788  0.035501  1
  O  O10  1  0.631719  0.442177  0.187770  1
  O  O11  1  0.899311  0.946775  0.174858  1
  O  O12  1  0.516465  0.116598  0.335269  1
  O  O13  1  0.013542  0.184880  0.391658  1
  O  O14  1  0.065422  0.614616  0.297139  1
  O  O15  1  0.561694  0.685791  0.390400  1
  O  O16  1  0.440041  0.326995  0.601342  1
  O  O17  1  0.940359  0.372436  0.700900  1
  O  O18  1  0.993502  0.820893  0.605763  1
  O  O19  1  0.481592  0.888423  0.666273  1
  O  O20  1  0.099988  0.051854  0.824937  1
  O  O21  1  0.352836  0.555630  0.822014  1
  O  O22  1  0.557101  0.210950  0.965681  1
  O  O23  1  0.904137  0.693018  0.938944  1
