# generated using pymatgen
data_Gd2As(P3Pd10)2
_symmetry_space_group_name_H-M   'P 1'
_cell_length_a   8.62774358
_cell_length_b   8.62774385
_cell_length_c   8.62774300
_cell_angle_alpha   59.99999944
_cell_angle_beta   59.99999840
_cell_angle_gamma   59.99999333
_symmetry_Int_Tables_number   1
_chemical_formula_structural   Gd2As(P3Pd10)2
_chemical_formula_sum   'Gd2 As1 P6 Pd20'
_cell_volume   454.12629102
_cell_formula_units_Z   1
loop_
 _symmetry_equiv_pos_site_id
 _symmetry_equiv_pos_as_xyz
  1  'x, y, z'
loop_
 _atom_site_type_symbol
 _atom_site_label
 _atom_site_symmetry_multiplicity
 _atom_site_fract_x
 _atom_site_fract_y
 _atom_site_fract_z
 _atom_site_occupancy
  Gd  Gd0  1  0.250002  0.249961  0.249997  1
  Gd  Gd1  1  0.749998  0.750039  0.750003  1
  As  As2  1  0.000000  0.000000  0.000000  1
  P  P3  1  0.734424  0.734436  0.265551  1
  P  P4  1  0.265576  0.265564  0.734449  1
  P  P5  1  0.265562  0.734440  0.734416  1
  P  P6  1  0.734417  0.265543  0.734454  1
  P  P7  1  0.265583  0.734457  0.265546  1
  P  P8  1  0.734438  0.265560  0.265584  1
  Pd  Pd9  1  0.615291  0.615266  0.615271  1
  Pd  Pd10  1  0.384699  0.845998  0.384650  1
  Pd  Pd11  1  0.656657  0.343388  0.999989  1
  Pd  Pd12  1  0.999985  0.343377  0.656635  1
  Pd  Pd13  1  0.656608  0.000027  0.000009  1
  Pd  Pd14  1  0.615315  0.615268  0.154089  1
  Pd  Pd15  1  0.000037  0.000017  0.656609  1
  Pd  Pd16  1  0.999977  0.343410  0.999947  1
  Pd  Pd17  1  0.656633  0.999994  0.343363  1
  Pd  Pd18  1  0.343392  0.999973  0.999991  1
  Pd  Pd19  1  0.000023  0.656590  0.000053  1
  Pd  Pd20  1  0.343367  0.000006  0.656637  1
  Pd  Pd21  1  0.000015  0.656623  0.343365  1
  Pd  Pd22  1  0.343343  0.656612  0.000011  1
  Pd  Pd23  1  0.154044  0.615315  0.615306  1
  Pd  Pd24  1  0.384709  0.384734  0.384729  1
  Pd  Pd25  1  0.845956  0.384685  0.384694  1
  Pd  Pd26  1  0.384685  0.384732  0.845911  1
  Pd  Pd27  1  0.615301  0.154002  0.615350  1
  Pd  Pd28  1  0.999963  0.999983  0.343391  1
