# generated using pymatgen
data_Hf3Zr2Sc(SnRh)6
_symmetry_space_group_name_H-M   'P 1'
_cell_length_a   7.45945265
_cell_length_b   7.45821699
_cell_length_c   7.15389500
_cell_angle_alpha   90.00000000
_cell_angle_beta   90.00000000
_cell_angle_gamma   120.00820934
_symmetry_Int_Tables_number   1
_chemical_formula_structural   Hf3Zr2Sc(SnRh)6
_chemical_formula_sum   'Hf3 Zr2 Sc1 Sn6 Rh6'
_cell_volume   344.65075782
_cell_formula_units_Z   1
loop_
 _symmetry_equiv_pos_site_id
 _symmetry_equiv_pos_as_xyz
  1  'x, y, z'
loop_
 _atom_site_type_symbol
 _atom_site_label
 _atom_site_symmetry_multiplicity
 _atom_site_fract_x
 _atom_site_fract_y
 _atom_site_fract_z
 _atom_site_occupancy
  Hf  Hf0  1  0.991063  0.387860  0.250000  1
  Hf  Hf1  1  0.610800  0.601953  0.250000  1
  Hf  Hf2  1  0.399899  0.013152  0.250000  1
  Zr  Zr3  1  0.598280  0.609831  0.750000  1
  Zr  Zr4  1  0.390601  0.989287  0.750000  1
  Sc  Sc5  1  0.009621  0.401116  0.750000  1
  Sn  Sn6  1  0.268520  0.272590  0.502729  1
  Sn  Sn7  1  0.002027  0.727559  0.498193  1
  Sn  Sn8  1  0.002027  0.727559  0.001807  1
  Sn  Sn9  1  0.729433  0.000099  0.501607  1
  Sn  Sn10  1  0.729433  0.000099  0.998393  1
  Sn  Sn11  1  0.268520  0.272590  0.997271  1
  Rh  Rh12  1  0.336166  0.668587  0.464847  1
  Rh  Rh13  1  0.663746  0.332257  0.507469  1
  Rh  Rh14  1  0.336166  0.668587  0.035153  1
  Rh  Rh15  1  0.999273  0.993647  0.750000  1
  Rh  Rh16  1  0.000679  0.000968  0.250000  1
  Rh  Rh17  1  0.663746  0.332257  0.992531  1
