# generated using pymatgen
data_Tm2P7IrRu11
_symmetry_space_group_name_H-M   'P 1'
_cell_length_a   9.37197105
_cell_length_b   9.41845822
_cell_length_c   3.95055400
_cell_angle_alpha   90.00000000
_cell_angle_beta   90.00000000
_cell_angle_gamma   119.69441603
_symmetry_Int_Tables_number   1
_chemical_formula_structural   Tm2P7IrRu11
_chemical_formula_sum   'Tm2 P7 Ir1 Ru11'
_cell_volume   302.92036937
_cell_formula_units_Z   1
loop_
 _symmetry_equiv_pos_site_id
 _symmetry_equiv_pos_as_xyz
  1  'x, y, z'
loop_
 _atom_site_type_symbol
 _atom_site_label
 _atom_site_symmetry_multiplicity
 _atom_site_fract_x
 _atom_site_fract_y
 _atom_site_fract_z
 _atom_site_occupancy
  Tm  Tm0  1  0.667504  0.334606  0.500000  1
  Tm  Tm1  1  0.331557  0.663756  0.000000  1
  P  P2  1  0.598750  0.713630  0.500000  1
  P  P3  1  0.999463  0.000285  0.000000  1
  P  P4  1  0.277428  0.878410  0.500000  1
  P  P5  1  0.118703  0.400561  0.500000  1
  P  P6  1  0.885128  0.575790  0.000000  1
  P  P7  1  0.427139  0.310261  0.000000  1
  P  P8  1  0.695577  0.121394  0.000000  1
  Ir  Ir9  1  0.549727  0.941591  0.500000  1
  Ru  Ru10  1  0.391892  0.443324  0.500000  1
  Ru  Ru11  1  0.913357  0.124485  0.500000  1
  Ru  Ru12  1  0.210170  0.085643  0.500000  1
  Ru  Ru13  1  0.876350  0.792766  0.500000  1
  Ru  Ru14  1  0.726470  0.893556  0.000000  1
  Ru  Ru15  1  0.109183  0.836583  0.000000  1
  Ru  Ru16  1  0.164422  0.271254  0.000000  1
  Ru  Ru17  1  0.429872  0.068812  0.000000  1
  Ru  Ru18  1  0.934623  0.361047  0.000000  1
  Ru  Ru19  1  0.640994  0.575095  0.000000  1
  Ru  Ru20  1  0.051691  0.607150  0.500000  1
