# generated using pymatgen
data_NaAlHgF6
_symmetry_space_group_name_H-M   'P 1'
_cell_length_a   9.15957300
_cell_length_b   9.15957197
_cell_length_c   5.15149900
_cell_angle_alpha   90.00000000
_cell_angle_beta   90.00000000
_cell_angle_gamma   120.00000012
_symmetry_Int_Tables_number   1
_chemical_formula_structural   NaAlHgF6
_chemical_formula_sum   'Na3 Al3 Hg3 F18'
_cell_volume   374.29554538
_cell_formula_units_Z   3
loop_
 _symmetry_equiv_pos_site_id
 _symmetry_equiv_pos_as_xyz
  1  'x, y, z'
loop_
 _atom_site_type_symbol
 _atom_site_label
 _atom_site_symmetry_multiplicity
 _atom_site_fract_x
 _atom_site_fract_y
 _atom_site_fract_z
 _atom_site_occupancy
  Na  Na0  1  0.000000  0.711953  0.500000  1
  Na  Na1  1  0.711953  0.000000  0.500000  1
  Na  Na2  1  0.288047  0.288047  0.500000  1
  Al  Al3  1  0.666667  0.333333  0.502097  1
  Al  Al4  1  0.333333  0.666667  0.497903  1
  Al  Al5  1  0.000000  0.000000  0.000000  1
  Hg  Hg6  1  0.628061  0.628061  0.000000  1
  Hg  Hg7  1  0.000000  0.371939  0.000000  1
  Hg  Hg8  1  0.371939  0.000000  0.000000  1
  F  F9  1  0.774499  0.251648  0.299312  1
  F  F10  1  0.748352  0.522851  0.299312  1
  F  F11  1  0.477149  0.225501  0.299312  1
  F  F12  1  0.522851  0.748352  0.700688  1
  F  F13  1  0.225501  0.477149  0.700688  1
  F  F14  1  0.251648  0.774499  0.700688  1
  F  F15  1  0.408719  0.553270  0.292672  1
  F  F16  1  0.446730  0.855448  0.292672  1
  F  F17  1  0.144552  0.591281  0.292672  1
  F  F18  1  0.914837  0.104954  0.797857  1
  F  F19  1  0.895046  0.809882  0.797857  1
  F  F20  1  0.190118  0.085163  0.797857  1
  F  F21  1  0.809882  0.895046  0.202143  1
  F  F22  1  0.085163  0.190118  0.202143  1
  F  F23  1  0.104954  0.914837  0.202143  1
  F  F24  1  0.553270  0.408719  0.707328  1
  F  F25  1  0.591281  0.144552  0.707328  1
  F  F26  1  0.855448  0.446730  0.707328  1
