# generated using pymatgen
data_Tb2U2Ga12Re
_symmetry_space_group_name_H-M   'P 1'
_cell_length_a   7.46452497
_cell_length_b   7.41918807
_cell_length_c   7.41918669
_cell_angle_alpha   109.29653054
_cell_angle_beta   109.43505228
_cell_angle_gamma   109.43504611
_symmetry_Int_Tables_number   1
_chemical_formula_structural   Tb2U2Ga12Re
_chemical_formula_sum   'Tb2 U2 Ga12 Re1'
_cell_volume   317.25563187
_cell_formula_units_Z   1
loop_
 _symmetry_equiv_pos_site_id
 _symmetry_equiv_pos_as_xyz
  1  'x, y, z'
loop_
 _atom_site_type_symbol
 _atom_site_label
 _atom_site_symmetry_multiplicity
 _atom_site_fract_x
 _atom_site_fract_y
 _atom_site_fract_z
 _atom_site_occupancy
  Tb  Tb0  1  0.500000  0.500000  0.500000  1
  Tb  Tb1  1  0.500000  0.000000  0.000000  1
  U  U2  1  0.000000  0.500000  0.000000  1
  U  U3  1  0.000000  0.000000  0.500000  1
  Ga  Ga4  1  0.756072  0.251919  0.504153  1
  Ga  Ga5  1  0.000000  0.705999  0.705999  1
  Ga  Ga6  1  0.291039  0.997220  0.293819  1
  Ga  Ga7  1  0.500000  0.250000  0.750000  1
  Ga  Ga8  1  0.756072  0.504153  0.251919  1
  Ga  Ga9  1  0.243928  0.748081  0.495847  1
  Ga  Ga10  1  0.243928  0.495847  0.748081  1
  Ga  Ga11  1  0.708961  0.002780  0.706181  1
  Ga  Ga12  1  0.500000  0.750000  0.250000  1
  Ga  Ga13  1  0.708961  0.706181  0.002780  1
  Ga  Ga14  1  0.291039  0.293819  0.997220  1
  Ga  Ga15  1  0.000000  0.294001  0.294001  1
  Re  Re16  1  0.000000  0.000000  0.000000  1
