# generated using pymatgen
data_La4YbCoSb2
_symmetry_space_group_name_H-M   'P 1'
_cell_length_a   8.22719800
_cell_length_b   9.32330900
_cell_length_c   12.60666400
_cell_angle_alpha   90.00000000
_cell_angle_beta   90.00000000
_cell_angle_gamma   90.00000000
_symmetry_Int_Tables_number   1
_chemical_formula_structural   La4YbCoSb2
_chemical_formula_sum   'La16 Yb4 Co4 Sb8'
_cell_volume   966.99049557
_cell_formula_units_Z   4
loop_
 _symmetry_equiv_pos_site_id
 _symmetry_equiv_pos_as_xyz
  1  'x, y, z'
loop_
 _atom_site_type_symbol
 _atom_site_label
 _atom_site_symmetry_multiplicity
 _atom_site_fract_x
 _atom_site_fract_y
 _atom_site_fract_z
 _atom_site_occupancy
  La  La0  1  0.143334  0.751406  0.196059  1
  La  La1  1  0.643334  0.248594  0.303941  1
  La  La2  1  0.856666  0.251406  0.803941  1
  La  La3  1  0.356666  0.748594  0.696059  1
  La  La4  1  0.439108  0.747014  0.995395  1
  La  La5  1  0.939108  0.252986  0.504605  1
  La  La6  1  0.560892  0.247014  0.004605  1
  La  La7  1  0.060892  0.752986  0.495395  1
  La  La8  1  0.620000  0.748539  0.311797  1
  La  La9  1  0.120000  0.251461  0.188203  1
  La  La10  1  0.380000  0.248539  0.688203  1
  La  La11  1  0.880000  0.751461  0.811797  1
  La  La12  1  0.182168  0.029870  0.934804  1
  La  La13  1  0.682168  0.970130  0.565196  1
  La  La14  1  0.817832  0.529870  0.065196  1
  La  La15  1  0.317832  0.470130  0.434804  1
  Yb  Yb16  1  0.814862  0.964178  0.071189  1
  Yb  Yb17  1  0.314862  0.035822  0.428811  1
  Yb  Yb18  1  0.185138  0.464178  0.928811  1
  Yb  Yb19  1  0.685138  0.535822  0.571189  1
  Co  Co20  1  0.420798  0.740522  0.492335  1
  Co  Co21  1  0.920798  0.259478  0.007665  1
  Co  Co22  1  0.579202  0.240522  0.507665  1
  Co  Co23  1  0.079202  0.759478  0.992335  1
  Sb  Sb24  1  0.924538  0.995376  0.327671  1
  Sb  Sb25  1  0.424538  0.004624  0.172329  1
  Sb  Sb26  1  0.075462  0.495376  0.672329  1
  Sb  Sb27  1  0.575462  0.504624  0.827671  1
  Sb  Sb28  1  0.071895  0.006345  0.674692  1
  Sb  Sb29  1  0.571895  0.993655  0.825308  1
  Sb  Sb30  1  0.928105  0.506345  0.325308  1
  Sb  Sb31  1  0.428105  0.493655  0.174692  1
