# generated using pymatgen
data_HfZr(Co5P3)2
_symmetry_space_group_name_H-M   'P 1'
_cell_length_a   3.59389100
_cell_length_b   10.13434600
_cell_length_c   11.62378800
_cell_angle_alpha   90.00000000
_cell_angle_beta   90.00000000
_cell_angle_gamma   90.00000000
_symmetry_Int_Tables_number   1
_chemical_formula_structural   HfZr(Co5P3)2
_chemical_formula_sum   'Hf2 Zr2 Co20 P12'
_cell_volume   423.35852484
_cell_formula_units_Z   2
loop_
 _symmetry_equiv_pos_site_id
 _symmetry_equiv_pos_as_xyz
  1  'x, y, z'
loop_
 _atom_site_type_symbol
 _atom_site_label
 _atom_site_symmetry_multiplicity
 _atom_site_fract_x
 _atom_site_fract_y
 _atom_site_fract_z
 _atom_site_occupancy
  Hf  Hf0  1  0.750000  0.418835  0.297268  1
  Hf  Hf1  1  0.750000  0.081165  0.797268  1
  Zr  Zr2  1  0.250000  0.581293  0.703108  1
  Zr  Zr3  1  0.250000  0.918707  0.203108  1
  Co  Co4  1  0.250000  0.719364  0.993308  1
  Co  Co5  1  0.250000  0.780636  0.493308  1
  Co  Co6  1  0.750000  0.280019  0.006343  1
  Co  Co7  1  0.750000  0.219981  0.506343  1
  Co  Co8  1  0.250000  0.409179  0.484465  1
  Co  Co9  1  0.250000  0.090821  0.984465  1
  Co  Co10  1  0.750000  0.590380  0.513212  1
  Co  Co11  1  0.750000  0.909620  0.013212  1
  Co  Co12  1  0.250000  0.223716  0.178537  1
  Co  Co13  1  0.250000  0.276285  0.678537  1
  Co  Co14  1  0.750000  0.776703  0.821437  1
  Co  Co15  1  0.750000  0.723297  0.321437  1
  Co  Co16  1  0.250000  0.884764  0.701031  1
  Co  Co17  1  0.250000  0.615236  0.201031  1
  Co  Co18  1  0.750000  0.117221  0.299785  1
  Co  Co19  1  0.750000  0.382779  0.799785  1
  Co  Co20  1  0.250000  0.466461  0.931053  1
  Co  Co21  1  0.250000  0.033539  0.431053  1
  Co  Co22  1  0.750000  0.532182  0.070382  1
  Co  Co23  1  0.750000  0.967818  0.570382  1
  P  P24  1  0.250000  0.418834  0.114945  1
  P  P25  1  0.250000  0.081166  0.614945  1
  P  P26  1  0.750000  0.580700  0.886305  1
  P  P27  1  0.750000  0.919300  0.386305  1
  P  P28  1  0.250000  0.265962  0.869488  1
  P  P29  1  0.250000  0.234038  0.369488  1
  P  P30  1  0.750000  0.733432  0.129602  1
  P  P31  1  0.750000  0.766568  0.629602  1
  P  P32  1  0.250000  0.599853  0.389230  1
  P  P33  1  0.250000  0.900147  0.889230  1
  P  P34  1  0.750000  0.399905  0.610501  1
  P  P35  1  0.750000  0.100095  0.110501  1
