# generated using pymatgen
data_Ta2Ti2AlGaC2
_symmetry_space_group_name_H-M   'P 1'
_cell_length_a   3.08977100
_cell_length_b   3.08977160
_cell_length_c   13.66972900
_cell_angle_alpha   90.00000000
_cell_angle_beta   90.00000000
_cell_angle_gamma   120.00002574
_symmetry_Int_Tables_number   1
_chemical_formula_structural   Ta2Ti2AlGaC2
_chemical_formula_sum   'Ta2 Ti2 Al1 Ga1 C2'
_cell_volume   113.01682254
_cell_formula_units_Z   1
loop_
 _symmetry_equiv_pos_site_id
 _symmetry_equiv_pos_as_xyz
  1  'x, y, z'
loop_
 _atom_site_type_symbol
 _atom_site_label
 _atom_site_symmetry_multiplicity
 _atom_site_fract_x
 _atom_site_fract_y
 _atom_site_fract_z
 _atom_site_occupancy
  Ta  Ta0  1  0.333333  0.666667  0.090367  1
  Ta  Ta1  1  0.666667  0.333333  0.587193  1
  Ti  Ti2  1  0.666667  0.333333  0.914009  1
  Ti  Ti3  1  0.333333  0.666667  0.410818  1
  Al  Al4  1  0.333333  0.666667  0.751861  1
  Ga  Ga5  1  0.666667  0.333333  0.252969  1
  C  C6  1  0.000000  0.000000  0.494376  1
  C  C7  1  0.000000  0.000000  0.998406  1
