# generated using pymatgen
data_Co7NiRuSe8
_symmetry_space_group_name_H-M   'P 1'
_cell_length_a   7.37387981
_cell_length_b   7.35148684
_cell_length_c   7.35148600
_cell_angle_alpha   60.00000379
_cell_angle_beta   60.10040944
_cell_angle_gamma   60.10041428
_symmetry_Int_Tables_number   1
_chemical_formula_structural   Co7NiRuSe8
_chemical_formula_sum   'Co7 Ni1 Ru1 Se8'
_cell_volume   282.22069886
_cell_formula_units_Z   1
loop_
 _symmetry_equiv_pos_site_id
 _symmetry_equiv_pos_as_xyz
  1  'x, y, z'
loop_
 _atom_site_type_symbol
 _atom_site_label
 _atom_site_symmetry_multiplicity
 _atom_site_fract_x
 _atom_site_fract_y
 _atom_site_fract_z
 _atom_site_occupancy
  Co  Co0  1  0.123022  0.631655  0.122661  1
  Co  Co1  1  0.123022  0.122661  0.631655  1
  Co  Co2  1  0.123022  0.122661  0.122661  1
  Co  Co3  1  0.367862  0.877379  0.877379  1
  Co  Co4  1  0.876976  0.368480  0.877273  1
  Co  Co5  1  0.876976  0.877273  0.368480  1
  Co  Co6  1  0.876976  0.877273  0.877273  1
  Ni  Ni7  1  0.627312  0.124229  0.124229  1
  Ru  Ru8  1  0.501715  0.499429  0.499429  1
  Se  Se9  1  0.242318  0.252561  0.252561  1
  Se  Se10  1  0.747831  0.750723  0.750723  1
  Se  Se11  1  0.743074  0.261230  0.261230  1
  Se  Se12  1  0.743074  0.261230  0.734467  1
  Se  Se13  1  0.743074  0.734467  0.261230  1
  Se  Se14  1  0.261250  0.738688  0.738688  1
  Se  Se15  1  0.261250  0.738688  0.261374  1
  Se  Se16  1  0.261250  0.261374  0.738688  1
