# generated using pymatgen
data_Nd16DyLu3Sn16
_symmetry_space_group_name_H-M   'P 1'
_cell_length_a   8.19937501
_cell_length_b   8.39004601
_cell_length_c   15.87331800
_cell_angle_alpha   90.00000000
_cell_angle_beta   90.00000000
_cell_angle_gamma   90.00683171
_symmetry_Int_Tables_number   1
_chemical_formula_structural   Nd16DyLu3Sn16
_chemical_formula_sum   'Nd16 Dy1 Lu3 Sn16'
_cell_volume   1091.97527913
_cell_formula_units_Z   1
loop_
 _symmetry_equiv_pos_site_id
 _symmetry_equiv_pos_as_xyz
  1  'x, y, z'
loop_
 _atom_site_type_symbol
 _atom_site_label
 _atom_site_symmetry_multiplicity
 _atom_site_fract_x
 _atom_site_fract_y
 _atom_site_fract_z
 _atom_site_occupancy
  Nd  Nd0  1  0.017886  0.180487  0.401987  1
  Nd  Nd1  1  0.365872  0.838666  0.121084  1
  Nd  Nd2  1  0.134678  0.338357  0.621536  1
  Nd  Nd3  1  0.481793  0.680776  0.901819  1
  Nd  Nd4  1  0.864717  0.662252  0.121155  1
  Nd  Nd5  1  0.134678  0.338357  0.878464  1
  Nd  Nd6  1  0.481793  0.680776  0.598181  1
  Nd  Nd7  1  0.634598  0.161729  0.621255  1
  Nd  Nd8  1  0.864717  0.662252  0.378845  1
  Nd  Nd9  1  0.017886  0.180487  0.098013  1
  Nd  Nd10  1  0.981914  0.819158  0.901949  1
  Nd  Nd11  1  0.634598  0.161729  0.878745  1
  Nd  Nd12  1  0.518541  0.318914  0.097941  1
  Nd  Nd13  1  0.365872  0.838666  0.378916  1
  Nd  Nd14  1  0.981914  0.819158  0.598051  1
  Nd  Nd15  1  0.518541  0.318914  0.402059  1
  Dy  Dy16  1  0.196857  0.501909  0.250000  1
  Lu  Lu17  1  0.698231  0.997690  0.250000  1
  Lu  Lu18  1  0.302000  0.001984  0.750000  1
  Lu  Lu19  1  0.801903  0.497861  0.750000  1
  Sn  Sn20  1  0.793461  0.465434  0.544912  1
  Sn  Sn21  1  0.706542  0.965347  0.455349  1
  Sn  Sn22  1  0.675856  0.851336  0.750000  1
  Sn  Sn23  1  0.206478  0.535063  0.455936  1
  Sn  Sn24  1  0.293352  0.034722  0.955051  1
  Sn  Sn25  1  0.824029  0.350866  0.250000  1
  Sn  Sn26  1  0.793461  0.465434  0.955088  1
  Sn  Sn27  1  0.562948  0.615972  0.250000  1
  Sn  Sn28  1  0.206478  0.535063  0.044064  1
  Sn  Sn29  1  0.438873  0.384229  0.750000  1
  Sn  Sn30  1  0.175600  0.648970  0.750000  1
  Sn  Sn31  1  0.938761  0.115597  0.750000  1
  Sn  Sn32  1  0.293352  0.034722  0.544949  1
  Sn  Sn33  1  0.706542  0.965347  0.044651  1
  Sn  Sn34  1  0.324254  0.147112  0.250000  1
  Sn  Sn35  1  0.061023  0.884663  0.250000  1
