# generated using pymatgen
data_Tb6Dy10CdIn3Ir4
_symmetry_space_group_name_H-M   'P 1'
_cell_length_a   9.66280268
_cell_length_b   9.67655755
_cell_length_c   9.67655700
_cell_angle_alpha   59.99999845
_cell_angle_beta   59.95289871
_cell_angle_gamma   59.95290422
_symmetry_Int_Tables_number   1
_chemical_formula_structural   Tb6Dy10CdIn3Ir4
_chemical_formula_sum   'Tb6 Dy10 Cd1 In3 Ir4'
_cell_volume   639.32297573
_cell_formula_units_Z   1
loop_
 _symmetry_equiv_pos_site_id
 _symmetry_equiv_pos_as_xyz
  1  'x, y, z'
loop_
 _atom_site_type_symbol
 _atom_site_label
 _atom_site_symmetry_multiplicity
 _atom_site_fract_x
 _atom_site_fract_y
 _atom_site_fract_z
 _atom_site_occupancy
  Tb  Tb0  1  0.189280  0.811859  0.811859  1
  Tb  Tb1  1  0.812116  0.188544  0.188544  1
  Tb  Tb2  1  0.812116  0.188544  0.810794  1
  Tb  Tb3  1  0.189280  0.811859  0.187003  1
  Tb  Tb4  1  0.812116  0.810794  0.188544  1
  Tb  Tb5  1  0.189280  0.187003  0.811859  1
  Dy  Dy6  1  0.599073  0.598800  0.598800  1
  Dy  Dy7  1  0.599073  0.598800  0.203329  1
  Dy  Dy8  1  0.599073  0.203329  0.598800  1
  Dy  Dy9  1  0.202919  0.599027  0.599027  1
  Dy  Dy10  1  0.059362  0.440492  0.440492  1
  Dy  Dy11  1  0.439879  0.060327  0.060327  1
  Dy  Dy12  1  0.439879  0.060327  0.439466  1
  Dy  Dy13  1  0.059362  0.440492  0.059654  1
  Dy  Dy14  1  0.439879  0.439466  0.060327  1
  Dy  Dy15  1  0.059362  0.059654  0.440492  1
  Cd  Cd16  1  0.503868  0.832044  0.832044  1
  In  In17  1  0.831614  0.832789  0.832789  1
  In  In18  1  0.831614  0.832789  0.502808  1
  In  In19  1  0.831614  0.502808  0.832789  1
  Ir  Ir20  1  0.391226  0.391173  0.391173  1
  Ir  Ir21  1  0.391226  0.391173  0.826427  1
  Ir  Ir22  1  0.391226  0.826427  0.391173  1
  Ir  Ir23  1  0.825566  0.391478  0.391478  1
