# generated using pymatgen
data_Yb3SmTaOs7
_symmetry_space_group_name_H-M   'P 1'
_cell_length_a   5.44205500
_cell_length_b   5.44205399
_cell_length_c   8.57408600
_cell_angle_alpha   90.00000000
_cell_angle_beta   90.00000000
_cell_angle_gamma   120.00000007
_symmetry_Int_Tables_number   1
_chemical_formula_structural   Yb3SmTaOs7
_chemical_formula_sum   'Yb3 Sm1 Ta1 Os7'
_cell_volume   219.90962567
_cell_formula_units_Z   1
loop_
 _symmetry_equiv_pos_site_id
 _symmetry_equiv_pos_as_xyz
  1  'x, y, z'
loop_
 _atom_site_type_symbol
 _atom_site_label
 _atom_site_symmetry_multiplicity
 _atom_site_fract_x
 _atom_site_fract_y
 _atom_site_fract_z
 _atom_site_occupancy
  Yb  Yb0  1  0.666667  0.333333  0.576524  1
  Yb  Yb1  1  0.666667  0.333333  0.934389  1
  Yb  Yb2  1  0.333333  0.666667  0.060260  1
  Sm  Sm3  1  0.333333  0.666667  0.425094  1
  Ta  Ta4  1  0.000000  0.000000  0.500137  1
  Os  Os5  1  0.000000  0.000000  0.001967  1
  Os  Os6  1  0.826901  0.173099  0.248316  1
  Os  Os7  1  0.826901  0.653803  0.248316  1
  Os  Os8  1  0.346197  0.173099  0.248316  1
  Os  Os9  1  0.172596  0.827404  0.752226  1
  Os  Os10  1  0.172596  0.345191  0.752226  1
  Os  Os11  1  0.654809  0.827404  0.752226  1
