# generated using pymatgen
data_Dy3Y5(TmRu2)2
_symmetry_space_group_name_H-M   'P 1'
_cell_length_a   6.35237810
_cell_length_b   7.27161910
_cell_length_c   8.46505709
_cell_angle_alpha   96.77107813
_cell_angle_beta   112.07582237
_cell_angle_gamma   89.82531405
_symmetry_Int_Tables_number   1
_chemical_formula_structural   Dy3Y5(TmRu2)2
_chemical_formula_sum   'Dy3 Y5 Tm2 Ru4'
_cell_volume   359.46264984
_cell_formula_units_Z   1
loop_
 _symmetry_equiv_pos_site_id
 _symmetry_equiv_pos_as_xyz
  1  'x, y, z'
loop_
 _atom_site_type_symbol
 _atom_site_label
 _atom_site_symmetry_multiplicity
 _atom_site_fract_x
 _atom_site_fract_y
 _atom_site_fract_z
 _atom_site_occupancy
  Dy  Dy0  1  0.639686  0.315241  0.432967  1
  Dy  Dy1  1  0.793275  0.814879  0.432785  1
  Dy  Dy2  1  0.360414  0.684835  0.567020  1
  Y  Y3  1  0.791945  0.083614  0.814236  1
  Y  Y4  1  0.977091  0.416281  0.185503  1
  Y  Y5  1  0.207917  0.916347  0.185705  1
  Y  Y6  1  0.022927  0.583830  0.814347  1
  Y  Y7  1  0.206390  0.185267  0.566749  1
  Tm  Tm8  1  0.422343  0.249772  0.999862  1
  Tm  Tm9  1  0.577561  0.750276  0.000090  1
  Ru  Ru10  1  0.601751  0.426089  0.781571  1
  Ru  Ru11  1  0.819082  0.075005  0.218257  1
  Ru  Ru12  1  0.399255  0.574512  0.218968  1
  Ru  Ru13  1  0.180364  0.924053  0.781939  1
