# generated using pymatgen
data_Ho3Lu2Pb3
_symmetry_space_group_name_H-M   'P 1'
_cell_length_a   6.51772700
_cell_length_b   8.98424955
_cell_length_c   8.98405810
_cell_angle_alpha   120.00069806
_cell_angle_beta   89.99889149
_cell_angle_gamma   90.00223038
_symmetry_Int_Tables_number   1
_chemical_formula_structural   Ho3Lu2Pb3
_chemical_formula_sum   'Ho6 Lu4 Pb6'
_cell_volume   455.59411025
_cell_formula_units_Z   2
loop_
 _symmetry_equiv_pos_site_id
 _symmetry_equiv_pos_as_xyz
  1  'x, y, z'
loop_
 _atom_site_type_symbol
 _atom_site_label
 _atom_site_symmetry_multiplicity
 _atom_site_fract_x
 _atom_site_fract_y
 _atom_site_fract_z
 _atom_site_occupancy
  Ho  Ho0  1  0.750014  0.237318  0.000000  1
  Ho  Ho1  1  0.750008  0.762720  0.762691  1
  Ho  Ho2  1  0.750008  0.000030  0.237309  1
  Ho  Ho3  1  0.249989  0.762699  0.000000  1
  Ho  Ho4  1  0.249997  0.237285  0.237309  1
  Ho  Ho5  1  0.249997  0.999975  0.762691  1
  Lu  Lu6  1  0.499986  0.333322  0.666692  1
  Lu  Lu7  1  0.499986  0.666630  0.333308  1
  Lu  Lu8  1  0.999992  0.666675  0.333313  1
  Lu  Lu9  1  0.999992  0.333361  0.666687  1
  Pb  Pb10  1  0.749991  0.604191  0.000000  1
  Pb  Pb11  1  0.750012  0.395858  0.395881  1
  Pb  Pb12  1  0.750012  0.999978  0.604119  1
  Pb  Pb13  1  0.250021  0.395803  0.000000  1
  Pb  Pb14  1  0.249998  0.604138  0.604119  1
  Pb  Pb15  1  0.249998  0.000018  0.395881  1
