# generated using pymatgen
data_Tm8ReB24Mo2Ir
_symmetry_space_group_name_H-M   'P 1'
_cell_length_a   3.62718400
_cell_length_b   9.14423375
_cell_length_c   11.51788207
_cell_angle_alpha   90.14214594
_cell_angle_beta   90.00000000
_cell_angle_gamma   90.00000000
_symmetry_Int_Tables_number   1
_chemical_formula_structural   Tm8ReB24Mo2Ir
_chemical_formula_sum   'Tm8 Re1 B24 Mo2 Ir1'
_cell_volume   382.02184443
_cell_formula_units_Z   1
loop_
 _symmetry_equiv_pos_site_id
 _symmetry_equiv_pos_as_xyz
  1  'x, y, z'
loop_
 _atom_site_type_symbol
 _atom_site_label
 _atom_site_symmetry_multiplicity
 _atom_site_fract_x
 _atom_site_fract_y
 _atom_site_fract_z
 _atom_site_occupancy
  Tm  Tm0  1  0.000000  0.317868  0.414888  1
  Tm  Tm1  1  0.000000  0.680496  0.590631  1
  Tm  Tm2  1  0.000000  0.824883  0.080729  1
  Tm  Tm3  1  0.000000  0.176660  0.912817  1
  Tm  Tm4  1  0.000000  0.943077  0.371310  1
  Tm  Tm5  1  0.000000  0.054472  0.628824  1
  Tm  Tm6  1  0.000000  0.443094  0.128224  1
  Tm  Tm7  1  0.000000  0.558021  0.872346  1
  Re  Re8  1  0.000000  0.861157  0.820287  1
  B  B9  1  0.500000  0.553978  0.433628  1
  B  B10  1  0.500000  0.448950  0.564474  1
  B  B11  1  0.500000  0.051536  0.064616  1
  B  B12  1  0.500000  0.947057  0.932401  1
  B  B13  1  0.500000  0.749307  0.420306  1
  B  B14  1  0.500000  0.247715  0.578673  1
  B  B15  1  0.500000  0.251499  0.078748  1
  B  B16  1  0.500000  0.751615  0.919087  1
  B  B17  1  0.500000  0.791491  0.264805  1
  B  B18  1  0.500000  0.205289  0.735546  1
  B  B19  1  0.500000  0.294971  0.236781  1
  B  B20  1  0.500000  0.707947  0.766222  1
  B  B21  1  0.500000  0.631728  0.183999  1
  B  B22  1  0.500000  0.369581  0.816325  1
  B  B23  1  0.500000  0.130971  0.317582  1
  B  B24  1  0.500000  0.868647  0.685590  1
  B  B25  1  0.500000  0.978136  0.212240  1
  B  B26  1  0.500000  0.017743  0.787404  1
  B  B27  1  0.500000  0.482640  0.287927  1
  B  B28  1  0.500000  0.522225  0.712649  1
  B  B29  1  0.500000  0.603321  0.029441  1
  B  B30  1  0.500000  0.398513  0.972065  1
  B  B31  1  0.500000  0.100126  0.471703  1
  B  B32  1  0.500000  0.895995  0.528163  1
  Mo  Mo33  1  0.000000  0.362271  0.678035  1
  Mo  Mo34  1  0.000000  0.138728  0.180355  1
  Ir  Ir35  1  0.000000  0.638293  0.321178  1
