# generated using pymatgen
data_Ca13Y(Th3Pt8)2
_symmetry_space_group_name_H-M   'P 1'
_cell_length_a   7.75754965
_cell_length_b   7.87908662
_cell_length_c   14.96846000
_cell_angle_alpha   90.00893714
_cell_angle_beta   89.89653953
_cell_angle_gamma   90.05422066
_symmetry_Int_Tables_number   1
_chemical_formula_structural   Ca13Y(Th3Pt8)2
_chemical_formula_sum   'Ca13 Y1 Th6 Pt16'
_cell_volume   914.90637183
_cell_formula_units_Z   1
loop_
 _symmetry_equiv_pos_site_id
 _symmetry_equiv_pos_as_xyz
  1  'x, y, z'
loop_
 _atom_site_type_symbol
 _atom_site_label
 _atom_site_symmetry_multiplicity
 _atom_site_fract_x
 _atom_site_fract_y
 _atom_site_fract_z
 _atom_site_occupancy
  Ca  Ca0  1  0.839858  0.667239  0.880462  1
  Ca  Ca1  1  0.494279  0.322101  0.901343  1
  Ca  Ca2  1  0.989577  0.179334  0.599768  1
  Ca  Ca3  1  0.508199  0.679335  0.403827  1
  Ca  Ca4  1  0.009101  0.817394  0.092176  1
  Ca  Ca5  1  0.506944  0.680867  0.091164  1
  Ca  Ca6  1  0.008014  0.819789  0.404266  1
  Ca  Ca7  1  0.490408  0.320048  0.600268  1
  Ca  Ca8  1  0.992654  0.179576  0.903431  1
  Ca  Ca9  1  0.176010  0.481439  0.754268  1
  Ca  Ca10  1  0.681928  0.017730  0.753206  1
  Ca  Ca11  1  0.816306  0.525407  0.249162  1
  Ca  Ca12  1  0.316144  0.973787  0.249466  1
  Y  Y13  1  0.340343  0.836876  0.877504  1
  Th  Th14  1  0.839131  0.657983  0.622182  1
  Th  Th15  1  0.660379  0.158413  0.379869  1
  Th  Th16  1  0.162343  0.338417  0.120061  1
  Th  Th17  1  0.660847  0.160860  0.120075  1
  Th  Th18  1  0.159921  0.340240  0.379943  1
  Th  Th19  1  0.339268  0.839924  0.621969  1
  Pt  Pt20  1  0.325171  0.044922  0.042756  1
  Pt  Pt21  1  0.823982  0.453114  0.457461  1
  Pt  Pt22  1  0.677429  0.951642  0.541214  1
  Pt  Pt23  1  0.185567  0.540910  0.962222  1
  Pt  Pt24  1  0.665932  0.972546  0.958648  1
  Pt  Pt25  1  0.176003  0.544893  0.542064  1
  Pt  Pt26  1  0.323535  0.046554  0.458267  1
  Pt  Pt27  1  0.834436  0.450981  0.045704  1
  Pt  Pt28  1  0.537722  0.636520  0.745651  1
  Pt  Pt29  1  0.045420  0.864971  0.743287  1
  Pt  Pt30  1  0.460209  0.360975  0.251311  1
  Pt  Pt31  1  0.960088  0.136380  0.251607  1
  Pt  Pt32  1  0.305365  0.120241  0.750485  1
  Pt  Pt33  1  0.797786  0.379759  0.746489  1
  Pt  Pt34  1  0.694048  0.883278  0.248624  1
  Pt  Pt35  1  0.195659  0.615556  0.249799  1
