# generated using pymatgen
data_SrV2(CO3)4
_symmetry_space_group_name_H-M   'P 1'
_cell_length_a   6.37250439
_cell_length_b   9.83397474
_cell_length_c   8.10311287
_cell_angle_alpha   89.66695233
_cell_angle_beta   109.68677082
_cell_angle_gamma   89.87320724
_symmetry_Int_Tables_number   1
_chemical_formula_structural   SrV2(CO3)4
_chemical_formula_sum   'Sr2 V4 C8 O24'
_cell_volume   478.10374847
_cell_formula_units_Z   2
loop_
 _symmetry_equiv_pos_site_id
 _symmetry_equiv_pos_as_xyz
  1  'x, y, z'
loop_
 _atom_site_type_symbol
 _atom_site_label
 _atom_site_symmetry_multiplicity
 _atom_site_fract_x
 _atom_site_fract_y
 _atom_site_fract_z
 _atom_site_occupancy
  Sr  Sr0  1  0.499885  0.250082  0.499891  1
  Sr  Sr1  1  0.500101  0.749849  0.500058  1
  V  V2  1  0.499998  0.750047  0.000035  1
  V  V3  1  0.500054  0.249939  0.999963  1
  V  V4  1  0.000025  0.999928  0.500285  1
  V  V5  1  0.999988  0.500103  0.499804  1
  C  C6  1  0.032223  0.248546  0.728109  1
  C  C7  1  0.032517  0.748287  0.728210  1
  C  C8  1  0.967994  0.251451  0.271940  1
  C  C9  1  0.967187  0.751745  0.271750  1
  C  C10  1  0.524208  0.998610  0.232356  1
  C  C11  1  0.524250  0.498667  0.231564  1
  C  C12  1  0.475948  0.501419  0.767795  1
  C  C13  1  0.475670  0.001285  0.768274  1
  O  O14  1  0.342085  0.456172  0.615730  1
  O  O15  1  0.341726  0.955287  0.616717  1
  O  O16  1  0.658139  0.043973  0.384308  1
  O  O17  1  0.658220  0.544492  0.383229  1
  O  O18  1  0.584170  0.418169  0.886967  1
  O  O19  1  0.584374  0.918745  0.888196  1
  O  O20  1  0.415915  0.081789  0.113097  1
  O  O21  1  0.415544  0.581352  0.111843  1
  O  O22  1  0.009802  0.379113  0.305524  1
  O  O23  1  0.007694  0.879522  0.304782  1
  O  O24  1  0.990786  0.120843  0.694687  1
  O  O25  1  0.991556  0.620551  0.694953  1
  O  O26  1  0.499096  0.367644  0.214548  1
  O  O27  1  0.498488  0.867655  0.214797  1
  O  O28  1  0.500762  0.132329  0.785113  1
  O  O29  1  0.501667  0.632365  0.785457  1
  O  O30  1  0.903470  0.336841  0.616771  1
  O  O31  1  0.903486  0.836439  0.616801  1
  O  O32  1  0.096655  0.163028  0.383116  1
  O  O33  1  0.096319  0.663739  0.383363  1
  O  O34  1  0.181086  0.289413  0.867266  1
  O  O35  1  0.181190  0.789446  0.867336  1
  O  O36  1  0.818972  0.210754  0.132779  1
  O  O37  1  0.818748  0.710381  0.132584  1
