# generated using pymatgen
data_Dy4Tm6InSb5
_symmetry_space_group_name_H-M   'P 1'
_cell_length_a   6.33847300
_cell_length_b   8.91678724
_cell_length_c   8.89718593
_cell_angle_alpha   120.07291856
_cell_angle_beta   90.00001808
_cell_angle_gamma   89.99997168
_symmetry_Int_Tables_number   1
_chemical_formula_structural   Dy4Tm6InSb5
_chemical_formula_sum   'Dy4 Tm6 In1 Sb5'
_cell_volume   435.16781645
_cell_formula_units_Z   1
loop_
 _symmetry_equiv_pos_site_id
 _symmetry_equiv_pos_as_xyz
  1  'x, y, z'
loop_
 _atom_site_type_symbol
 _atom_site_label
 _atom_site_symmetry_multiplicity
 _atom_site_fract_x
 _atom_site_fract_y
 _atom_site_fract_z
 _atom_site_occupancy
  Dy  Dy0  1  0.750001  0.754455  0.758535  1
  Dy  Dy1  1  0.750001  0.995920  0.241465  1
  Dy  Dy2  1  0.250001  0.245999  0.243748  1
  Dy  Dy3  1  0.250001  0.002251  0.756252  1
  Tm  Tm4  1  0.499293  0.335024  0.668672  1
  Tm  Tm5  1  0.499293  0.666352  0.331328  1
  Tm  Tm6  1  0.000706  0.666353  0.331328  1
  Tm  Tm7  1  0.000706  0.335025  0.668672  1
  Tm  Tm8  1  0.750001  0.244612  0.000000  1
  Tm  Tm9  1  0.249999  0.756166  0.000000  1
  In  In10  1  0.749999  0.603299  0.000000  1
  Sb  Sb11  1  0.750001  0.389799  0.389547  1
  Sb  Sb12  1  0.750001  0.000251  0.610453  1
  Sb  Sb13  1  0.250000  0.393397  0.000000  1
  Sb  Sb14  1  0.250000  0.610660  0.610226  1
  Sb  Sb15  1  0.250000  0.000434  0.389774  1
