# generated using pymatgen
data_MnAg2F6
_symmetry_space_group_name_H-M   'P 1'
_cell_length_a   9.70321101
_cell_length_b   9.71104126
_cell_length_c   5.21017697
_cell_angle_alpha   90.14809409
_cell_angle_beta   89.77427784
_cell_angle_gamma   119.96548508
_symmetry_Int_Tables_number   1
_chemical_formula_structural   MnAg2F6
_chemical_formula_sum   'Mn3 Ag6 F18'
_cell_volume   425.31611904
_cell_formula_units_Z   3
loop_
 _symmetry_equiv_pos_site_id
 _symmetry_equiv_pos_as_xyz
  1  'x, y, z'
loop_
 _atom_site_type_symbol
 _atom_site_label
 _atom_site_symmetry_multiplicity
 _atom_site_fract_x
 _atom_site_fract_y
 _atom_site_fract_z
 _atom_site_occupancy
  Mn  Mn0  1  0.333389  0.666836  0.502113  1
  Mn  Mn1  1  0.000100  0.000094  0.000099  1
  Mn  Mn2  1  0.666826  0.333440  0.497835  1
  Ag  Ag3  1  0.999661  0.627652  0.000281  1
  Ag  Ag4  1  0.000427  0.292506  0.500543  1
  Ag  Ag5  1  0.372450  0.372406  0.000058  1
  Ag  Ag6  1  0.292598  0.000364  0.499258  1
  Ag  Ag7  1  0.707496  0.707439  0.500464  1
  Ag  Ag8  1  0.627598  0.999662  0.999634  1
  F  F9  1  0.084265  0.899659  0.796944  1
  F  F10  1  0.227545  0.742941  0.296642  1
  F  F11  1  0.151165  0.558604  0.707751  1
  F  F12  1  0.406902  0.848775  0.707683  1
  F  F13  1  0.257386  0.484577  0.296313  1
  F  F14  1  0.100097  0.183829  0.797536  1
  F  F15  1  0.183715  0.099845  0.202239  1
  F  F16  1  0.441314  0.592962  0.707526  1
  F  F17  1  0.515456  0.772166  0.296138  1
  F  F18  1  0.484323  0.257244  0.703554  1
  F  F19  1  0.593042  0.441468  0.292367  1
  F  F20  1  0.816287  0.915945  0.797898  1
  F  F21  1  0.558865  0.151442  0.292458  1
  F  F22  1  0.771988  0.515249  0.703434  1
  F  F23  1  0.915676  0.816215  0.202310  1
  F  F24  1  0.742891  0.227562  0.703512  1
  F  F25  1  0.848964  0.406965  0.292055  1
  F  F26  1  0.899574  0.084150  0.203357  1
