# generated using pymatgen
data_Dy2Tm2ReOsC4
_symmetry_space_group_name_H-M   'P 1'
_cell_length_a   5.08938800
_cell_length_b   6.52065971
_cell_length_c   9.73677826
_cell_angle_alpha   89.76990110
_cell_angle_beta   90.00000000
_cell_angle_gamma   90.00000000
_symmetry_Int_Tables_number   1
_chemical_formula_structural   Dy2Tm2ReOsC4
_chemical_formula_sum   'Dy4 Tm4 Re2 Os2 C8'
_cell_volume   323.12374654
_cell_formula_units_Z   2
loop_
 _symmetry_equiv_pos_site_id
 _symmetry_equiv_pos_as_xyz
  1  'x, y, z'
loop_
 _atom_site_type_symbol
 _atom_site_label
 _atom_site_symmetry_multiplicity
 _atom_site_fract_x
 _atom_site_fract_y
 _atom_site_fract_z
 _atom_site_occupancy
  Dy  Dy0  1  0.250000  0.531723  0.214515  1
  Dy  Dy1  1  0.750000  0.468277  0.785485  1
  Dy  Dy2  1  0.750000  0.970258  0.712747  1
  Dy  Dy3  1  0.250000  0.029742  0.287253  1
  Tm  Tm4  1  0.250000  0.675742  0.555990  1
  Tm  Tm5  1  0.750000  0.324258  0.444010  1
  Tm  Tm6  1  0.750000  0.823202  0.056245  1
  Tm  Tm7  1  0.250000  0.176798  0.943755  1
  Re  Re8  1  0.250000  0.721988  0.866237  1
  Re  Re9  1  0.750000  0.278012  0.133763  1
  Os  Os10  1  0.750000  0.776998  0.365955  1
  Os  Os11  1  0.250000  0.223002  0.634045  1
  C  C12  1  0.250000  0.455343  0.760166  1
  C  C13  1  0.750000  0.544657  0.239834  1
  C  C14  1  0.750000  0.044174  0.259237  1
  C  C15  1  0.250000  0.955826  0.740763  1
  C  C16  1  0.250000  0.827176  0.052108  1
  C  C17  1  0.750000  0.172824  0.947892  1
  C  C18  1  0.750000  0.671765  0.551286  1
  C  C19  1  0.250000  0.328235  0.448714  1
