# generated using pymatgen
data_YMgU7S17
_symmetry_space_group_name_H-M   'P 1'
_cell_length_a   7.79485493
_cell_length_b   7.79112177
_cell_length_c   10.33548500
_cell_angle_alpha   80.25222812
_cell_angle_beta   79.61397874
_cell_angle_gamma   64.25735916
_symmetry_Int_Tables_number   1
_chemical_formula_structural   YMgU7S17
_chemical_formula_sum   'Y1 Mg1 U7 S17'
_cell_volume   553.18070542
_cell_formula_units_Z   1
loop_
 _symmetry_equiv_pos_site_id
 _symmetry_equiv_pos_as_xyz
  1  'x, y, z'
loop_
 _atom_site_type_symbol
 _atom_site_label
 _atom_site_symmetry_multiplicity
 _atom_site_fract_x
 _atom_site_fract_y
 _atom_site_fract_z
 _atom_site_occupancy
  Y  Y0  1  0.812391  0.309051  0.298467  1
  Mg  Mg1  1  0.998515  0.002811  0.001648  1
  U  U2  1  0.302696  0.819791  0.299338  1
  U  U3  1  0.183084  0.695093  0.699255  1
  U  U4  1  0.698328  0.180337  0.701125  1
  U  U5  1  0.799028  0.792763  0.457049  1
  U  U6  1  0.203207  0.202041  0.542268  1
  U  U7  1  0.316299  0.322505  0.016052  1
  U  U8  1  0.680160  0.680779  0.983692  1
  S  S9  1  0.183724  0.562986  0.463692  1
  S  S10  1  0.569609  0.174325  0.469453  1
  S  S11  1  0.822713  0.431910  0.538442  1
  S  S12  1  0.435381  0.817505  0.534961  1
  S  S13  1  0.942513  0.332672  0.031100  1
  S  S14  1  0.329700  0.946883  0.034092  1
  S  S15  1  0.054001  0.673123  0.963423  1
  S  S16  1  0.669005  0.059582  0.964409  1
  S  S17  1  0.945405  0.936753  0.235149  1
  S  S18  1  0.061048  0.057055  0.767121  1
  S  S19  1  0.784839  0.785931  0.721662  1
  S  S20  1  0.219841  0.209216  0.279695  1
  S  S21  1  0.695557  0.706649  0.243155  1
  S  S22  1  0.299538  0.299325  0.755621  1
  S  S23  1  0.471083  0.487421  0.165873  1
  S  S24  1  0.518213  0.522591  0.827730  1
  S  S25  1  0.004126  0.990901  0.505527  1
