# generated using pymatgen
data_K3LaRhO6
_symmetry_space_group_name_H-M   'P 1'
_cell_length_a   7.29405550
_cell_length_b   7.29359556
_cell_length_c   7.29385703
_cell_angle_alpha   92.72324402
_cell_angle_beta   92.72894626
_cell_angle_gamma   92.72385748
_symmetry_Int_Tables_number   1
_chemical_formula_structural   K3LaRhO6
_chemical_formula_sum   'K6 La2 Rh2 O12'
_cell_volume   386.67237568
_cell_formula_units_Z   2
loop_
 _symmetry_equiv_pos_site_id
 _symmetry_equiv_pos_as_xyz
  1  'x, y, z'
loop_
 _atom_site_type_symbol
 _atom_site_label
 _atom_site_symmetry_multiplicity
 _atom_site_fract_x
 _atom_site_fract_y
 _atom_site_fract_z
 _atom_site_occupancy
  K  K0  1  0.750014  0.380128  0.119865  1
  K  K1  1  0.619833  0.880181  0.249997  1
  K  K2  1  0.119856  0.750013  0.380138  1
  K  K3  1  0.880194  0.249989  0.619832  1
  K  K4  1  0.380117  0.119848  0.750003  1
  K  K5  1  0.249982  0.619844  0.880188  1
  La  La6  1  0.250004  0.250003  0.249992  1
  La  La7  1  0.750002  0.750001  0.749999  1
  Rh  Rh8  1  0.000008  0.000007  0.000005  1
  Rh  Rh9  1  0.499994  0.499994  0.499998  1
  O  O10  1  0.919500  0.740490  0.037770  1
  O  O11  1  0.259519  0.962240  0.080523  1
  O  O12  1  0.419466  0.537755  0.240463  1
  O  O13  1  0.962246  0.080514  0.259506  1
  O  O14  1  0.537753  0.240463  0.419474  1
  O  O15  1  0.759501  0.580506  0.462235  1
  O  O16  1  0.240476  0.419471  0.537749  1
  O  O17  1  0.462236  0.759522  0.580507  1
  O  O18  1  0.037770  0.919499  0.740495  1
  O  O19  1  0.580516  0.462236  0.759523  1
  O  O20  1  0.740498  0.037772  0.919496  1
  O  O21  1  0.080519  0.259528  0.962241  1
