# generated using pymatgen
data_Dy15ThCd4Co3Ni
_symmetry_space_group_name_H-M   'P 1'
_cell_length_a   9.51548994
_cell_length_b   9.53789367
_cell_length_c   9.53044763
_cell_angle_alpha   59.94189256
_cell_angle_beta   60.05190207
_cell_angle_gamma   60.07767697
_symmetry_Int_Tables_number   1
_chemical_formula_structural   Dy15ThCd4Co3Ni
_chemical_formula_sum   'Dy15 Th1 Cd4 Co3 Ni1'
_cell_volume   611.94873699
_cell_formula_units_Z   1
loop_
 _symmetry_equiv_pos_site_id
 _symmetry_equiv_pos_as_xyz
  1  'x, y, z'
loop_
 _atom_site_type_symbol
 _atom_site_label
 _atom_site_symmetry_multiplicity
 _atom_site_fract_x
 _atom_site_fract_y
 _atom_site_fract_z
 _atom_site_occupancy
  Dy  Dy0  1  0.691511  0.312783  0.685443  1
  Dy  Dy1  1  0.688461  0.312191  0.310888  1
  Dy  Dy2  1  0.936602  0.563387  0.563409  1
  Dy  Dy3  1  0.543163  0.149207  0.154774  1
  Dy  Dy4  1  0.153384  0.150332  0.542900  1
  Dy  Dy5  1  0.937028  0.938557  0.561774  1
  Dy  Dy6  1  0.311495  0.689203  0.312986  1
  Dy  Dy7  1  0.562813  0.937066  0.937310  1
  Dy  Dy8  1  0.562642  0.938557  0.561774  1
  Dy  Dy9  1  0.686316  0.689203  0.312986  1
  Dy  Dy10  1  0.563037  0.563756  0.937826  1
  Dy  Dy11  1  0.935382  0.563756  0.937826  1
  Dy  Dy12  1  0.312116  0.691498  0.684270  1
  Dy  Dy13  1  0.152856  0.149207  0.154774  1
  Dy  Dy14  1  0.310264  0.312783  0.685443  1
  Th  Th15  1  0.153527  0.531993  0.160952  1
  Cd  Cd16  1  0.919460  0.241380  0.919702  1
  Cd  Cd17  1  0.918259  0.919860  0.919246  1
  Cd  Cd18  1  0.918119  0.919380  0.244383  1
  Cd  Cd19  1  0.242636  0.919860  0.919246  1
  Co  Co20  1  0.358940  0.923939  0.358183  1
  Co  Co21  1  0.928874  0.361201  0.354339  1
  Co  Co22  1  0.355587  0.361201  0.354339  1
  Ni  Ni23  1  0.357533  0.359699  0.925235  1
