# generated using pymatgen
data_Zr8Mn7Si14Pd
_symmetry_space_group_name_H-M   'P 1'
_cell_length_a   9.72023641
_cell_length_b   9.70282481
_cell_length_c   9.69282500
_cell_angle_alpha   94.12124688
_cell_angle_beta   94.21859071
_cell_angle_gamma   148.74535218
_symmetry_Int_Tables_number   1
_chemical_formula_structural   Zr8Mn7Si14Pd
_chemical_formula_sum   'Zr8 Mn7 Si14 Pd1'
_cell_volume   456.70155529
_cell_formula_units_Z   1
loop_
 _symmetry_equiv_pos_site_id
 _symmetry_equiv_pos_as_xyz
  1  'x, y, z'
loop_
 _atom_site_type_symbol
 _atom_site_label
 _atom_site_symmetry_multiplicity
 _atom_site_fract_x
 _atom_site_fract_y
 _atom_site_fract_z
 _atom_site_occupancy
  Zr  Zr0  1  0.138855  0.138855  0.277469  1
  Zr  Zr1  1  0.860734  0.860745  0.721702  1
  Zr  Zr2  1  0.135978  0.857259  0.999958  1
  Zr  Zr3  1  0.863990  0.142731  0.999951  1
  Zr  Zr4  1  0.310178  0.507243  0.803350  1
  Zr  Zr5  1  0.702536  0.506832  0.195516  1
  Zr  Zr6  1  0.493196  0.688866  0.195523  1
  Zr  Zr7  1  0.492999  0.295928  0.803360  1
  Mn  Mn8  1  0.389202  0.889213  0.778488  1
  Mn  Mn9  1  0.905355  0.101637  0.501731  1
  Mn  Mn10  1  0.596304  0.400152  0.501740  1
  Mn  Mn11  1  0.597299  0.097352  0.194365  1
  Mn  Mn12  1  0.901698  0.401703  0.803542  1
  Mn  Mn13  1  0.105624  0.890560  0.500903  1
  Mn  Mn14  1  0.395315  0.610199  0.500870  1
  Si  Si15  1  0.290489  0.290486  0.581700  1
  Si  Si16  1  0.709264  0.709249  0.417916  1
  Si  Si17  1  0.298726  0.717376  0.996362  1
  Si  Si18  1  0.697643  0.279001  0.996402  1
  Si  Si19  1  0.047568  0.455491  0.591239  1
  Si  Si20  1  0.848483  0.442642  0.410028  1
  Si  Si21  1  0.561714  0.967590  0.410004  1
  Si  Si22  1  0.543644  0.135706  0.591211  1
  Si  Si23  1  0.251349  0.250362  0.999657  1
  Si  Si24  1  0.748354  0.749355  0.999680  1
  Si  Si25  1  0.321656  0.028563  0.296736  1
  Si  Si26  1  0.726214  0.021991  0.704043  1
  Si  Si27  1  0.977712  0.681941  0.704092  1
  Si  Si28  1  0.975121  0.268235  0.296729  1
  Pd  Pd29  1  0.112797  0.612735  0.225735  1
