# generated using pymatgen
data_Tm2Al8GeIr3
_symmetry_space_group_name_H-M   'P 1'
_cell_length_a   7.53687554
_cell_length_b   7.53687602
_cell_length_c   9.39366500
_cell_angle_alpha   90.00000000
_cell_angle_beta   90.00000000
_cell_angle_gamma   119.71670903
_symmetry_Int_Tables_number   1
_chemical_formula_structural   Tm2Al8GeIr3
_chemical_formula_sum   'Tm4 Al16 Ge2 Ir6'
_cell_volume   463.42675082
_cell_formula_units_Z   2
loop_
 _symmetry_equiv_pos_site_id
 _symmetry_equiv_pos_as_xyz
  1  'x, y, z'
loop_
 _atom_site_type_symbol
 _atom_site_label
 _atom_site_symmetry_multiplicity
 _atom_site_fract_x
 _atom_site_fract_y
 _atom_site_fract_z
 _atom_site_occupancy
  Tm  Tm0  1  0.995385  0.675859  0.250000  1
  Tm  Tm1  1  0.004615  0.324141  0.750000  1
  Tm  Tm2  1  0.675859  0.995385  0.250000  1
  Tm  Tm3  1  0.324141  0.004615  0.750000  1
  Al  Al4  1  0.000010  0.337342  0.074920  1
  Al  Al5  1  0.999990  0.662658  0.925080  1
  Al  Al6  1  0.999990  0.662658  0.574920  1
  Al  Al7  1  0.337342  0.000010  0.425080  1
  Al  Al8  1  0.000010  0.337342  0.425080  1
  Al  Al9  1  0.662658  0.999990  0.574920  1
  Al  Al10  1  0.662658  0.999990  0.925080  1
  Al  Al11  1  0.337342  0.000010  0.074920  1
  Al  Al12  1  0.335145  0.335145  0.559831  1
  Al  Al13  1  0.664855  0.664855  0.440169  1
  Al  Al14  1  0.664855  0.664855  0.059831  1
  Al  Al15  1  0.335145  0.335145  0.940169  1
  Al  Al16  1  0.336105  0.553486  0.250000  1
  Al  Al17  1  0.663895  0.446514  0.750000  1
  Al  Al18  1  0.553486  0.336105  0.250000  1
  Al  Al19  1  0.446514  0.663895  0.750000  1
  Ge  Ge20  1  0.134048  0.134048  0.250000  1
  Ge  Ge21  1  0.865952  0.865952  0.750000  1
  Ir  Ir22  1  0.671260  0.328740  0.000000  1
  Ir  Ir23  1  0.328740  0.671260  0.000000  1
  Ir  Ir24  1  0.328740  0.671260  0.500000  1
  Ir  Ir25  1  0.671260  0.328740  0.500000  1
  Ir  Ir26  1  0.000000  0.000000  0.000000  1
  Ir  Ir27  1  0.000000  0.000000  0.500000  1
