# generated using pymatgen
data_Nd3ZnCd3Au2
_symmetry_space_group_name_H-M   'P 1'
_cell_length_a   7.84296500
_cell_length_b   7.84296481
_cell_length_c   4.13228300
_cell_angle_alpha   90.00000000
_cell_angle_beta   90.00000000
_cell_angle_gamma   119.99999658
_symmetry_Int_Tables_number   1
_chemical_formula_structural   Nd3ZnCd3Au2
_chemical_formula_sum   'Nd3 Zn1 Cd3 Au2'
_cell_volume   220.13102031
_cell_formula_units_Z   1
loop_
 _symmetry_equiv_pos_site_id
 _symmetry_equiv_pos_as_xyz
  1  'x, y, z'
loop_
 _atom_site_type_symbol
 _atom_site_label
 _atom_site_symmetry_multiplicity
 _atom_site_fract_x
 _atom_site_fract_y
 _atom_site_fract_z
 _atom_site_occupancy
  Nd  Nd0  1  0.588732  0.000000  0.000000  1
  Nd  Nd1  1  0.000000  0.588732  0.000000  1
  Nd  Nd2  1  0.411268  0.411268  0.000000  1
  Zn  Zn3  1  0.000000  0.000000  0.000000  1
  Cd  Cd4  1  0.244691  0.000000  0.500000  1
  Cd  Cd5  1  0.000000  0.244691  0.500000  1
  Cd  Cd6  1  0.755309  0.755309  0.500000  1
  Au  Au7  1  0.333333  0.666667  0.500000  1
  Au  Au8  1  0.666667  0.333333  0.500000  1
