# generated using pymatgen
data_KMnSb12OsRu2
_symmetry_space_group_name_H-M   'P 1'
_cell_length_a   8.18678216
_cell_length_b   8.19357753
_cell_length_c   8.15372862
_cell_angle_alpha   109.40459069
_cell_angle_beta   109.36761940
_cell_angle_gamma   109.52550961
_symmetry_Int_Tables_number   1
_chemical_formula_structural   KMnSb12OsRu2
_chemical_formula_sum   'K1 Mn1 Sb12 Os1 Ru2'
_cell_volume   421.63859580
_cell_formula_units_Z   1
loop_
 _symmetry_equiv_pos_site_id
 _symmetry_equiv_pos_as_xyz
  1  'x, y, z'
loop_
 _atom_site_type_symbol
 _atom_site_label
 _atom_site_symmetry_multiplicity
 _atom_site_fract_x
 _atom_site_fract_y
 _atom_site_fract_z
 _atom_site_occupancy
  K  K0  1  0.000000  0.000000  0.000000  1
  Mn  Mn1  1  0.000000  0.000000  0.500000  1
  Sb  Sb2  1  0.160598  0.813007  0.659740  1
  Sb  Sb3  1  0.157867  0.498009  0.339946  1
  Sb  Sb4  1  0.502278  0.661118  0.842916  1
  Sb  Sb5  1  0.339409  0.840549  0.181050  1
  Sb  Sb6  1  0.812573  0.652621  0.153222  1
  Sb  Sb7  1  0.652707  0.840493  0.499557  1
  Sb  Sb8  1  0.187427  0.347379  0.846778  1
  Sb  Sb9  1  0.660591  0.159451  0.818950  1
  Sb  Sb10  1  0.347293  0.159507  0.500443  1
  Sb  Sb11  1  0.497722  0.338882  0.157084  1
  Sb  Sb12  1  0.842133  0.501991  0.660054  1
  Sb  Sb13  1  0.839402  0.186993  0.340260  1
  Os  Os14  1  0.500000  0.500000  0.500000  1
  Ru  Ru15  1  0.500000  0.000000  0.000000  1
  Ru  Ru16  1  0.000000  0.500000  0.000000  1
