# generated using pymatgen
data_Y2FeCo5P4
_symmetry_space_group_name_H-M   'P 1'
_cell_length_a   3.70986200
_cell_length_b   10.55698100
_cell_length_c   12.15259500
_cell_angle_alpha   90.00000000
_cell_angle_beta   90.00000000
_cell_angle_gamma   90.00000000
_symmetry_Int_Tables_number   1
_chemical_formula_structural   Y2FeCo5P4
_chemical_formula_sum   'Y6 Fe3 Co15 P12'
_cell_volume   475.95568618
_cell_formula_units_Z   3
loop_
 _symmetry_equiv_pos_site_id
 _symmetry_equiv_pos_as_xyz
  1  'x, y, z'
loop_
 _atom_site_type_symbol
 _atom_site_label
 _atom_site_symmetry_multiplicity
 _atom_site_fract_x
 _atom_site_fract_y
 _atom_site_fract_z
 _atom_site_occupancy
  Y  Y0  1  0.000000  0.500000  0.521793  1
  Y  Y1  1  0.500000  0.000000  0.478162  1
  Y  Y2  1  0.500000  0.817798  0.205121  1
  Y  Y3  1  0.500000  0.182202  0.205121  1
  Y  Y4  1  0.000000  0.680876  0.795393  1
  Y  Y5  1  0.000000  0.319124  0.795393  1
  Fe  Fe6  1  0.500000  0.500000  0.155077  1
  Fe  Fe7  1  0.000000  0.000000  0.843320  1
  Fe  Fe8  1  0.000000  0.500000  0.988523  1
  Co  Co9  1  0.500000  0.500000  0.701692  1
  Co  Co10  1  0.000000  0.000000  0.298278  1
  Co  Co11  1  0.500000  0.000000  0.013682  1
  Co  Co12  1  0.500000  0.331136  0.994458  1
  Co  Co13  1  0.500000  0.668864  0.994458  1
  Co  Co14  1  0.000000  0.166185  0.005342  1
  Co  Co15  1  0.000000  0.833815  0.005342  1
  Co  Co16  1  0.500000  0.297039  0.430606  1
  Co  Co17  1  0.500000  0.702961  0.430606  1
  Co  Co18  1  0.000000  0.203502  0.569465  1
  Co  Co19  1  0.000000  0.796498  0.569465  1
  Co  Co20  1  0.500000  0.879196  0.709137  1
  Co  Co21  1  0.500000  0.120804  0.709137  1
  Co  Co22  1  0.000000  0.620808  0.290447  1
  Co  Co23  1  0.000000  0.379192  0.290447  1
  P  P24  1  0.500000  0.500000  0.884808  1
  P  P25  1  0.000000  0.000000  0.117511  1
  P  P26  1  0.500000  0.500000  0.340820  1
  P  P27  1  0.000000  0.000000  0.658152  1
  P  P28  1  0.500000  0.309915  0.616260  1
  P  P29  1  0.500000  0.690085  0.616260  1
  P  P30  1  0.000000  0.190302  0.383844  1
  P  P31  1  0.000000  0.809698  0.383844  1
  P  P32  1  0.500000  0.847810  0.892847  1
  P  P33  1  0.500000  0.152190  0.892847  1
  P  P34  1  0.000000  0.652700  0.106169  1
  P  P35  1  0.000000  0.347300  0.106169  1
