# generated using pymatgen
data_AcH2Cl
_symmetry_space_group_name_H-M   'P 1'
_cell_length_a   11.21303786
_cell_length_b   11.21303777
_cell_length_c   11.21303796
_cell_angle_alpha   21.58354387
_cell_angle_beta   21.58354538
_cell_angle_gamma   21.58354933
_symmetry_Int_Tables_number   1
_chemical_formula_structural   AcH2Cl
_chemical_formula_sum   'Ac2 H4 Cl2'
_cell_volume   167.17198477
_cell_formula_units_Z   2
loop_
 _symmetry_equiv_pos_site_id
 _symmetry_equiv_pos_as_xyz
  1  'x, y, z'
loop_
 _atom_site_type_symbol
 _atom_site_label
 _atom_site_symmetry_multiplicity
 _atom_site_fract_x
 _atom_site_fract_y
 _atom_site_fract_z
 _atom_site_occupancy
  Ac  Ac0  1  0.888863  0.888863  0.888863  1
  Ac  Ac1  1  0.111137  0.111137  0.111137  1
  H  H2  1  0.812313  0.812313  0.812313  1
  H  H3  1  0.187687  0.187687  0.187687  1
  H  H4  1  0.546996  0.546996  0.546996  1
  H  H5  1  0.453004  0.453004  0.453004  1
  Cl  Cl6  1  0.721829  0.721829  0.721829  1
  Cl  Cl7  1  0.278171  0.278171  0.278171  1
