# generated using pymatgen
data_Tb4Ge6Rh7
_symmetry_space_group_name_H-M   'P 1'
_cell_length_a   7.30107044
_cell_length_b   7.30094705
_cell_length_c   7.30105500
_cell_angle_alpha   109.46925608
_cell_angle_beta   109.47230884
_cell_angle_gamma   109.47170734
_symmetry_Int_Tables_number   1
_chemical_formula_structural   Tb4Ge6Rh7
_chemical_formula_sum   'Tb4 Ge6 Rh7'
_cell_volume   299.59292611
_cell_formula_units_Z   1
loop_
 _symmetry_equiv_pos_site_id
 _symmetry_equiv_pos_as_xyz
  1  'x, y, z'
loop_
 _atom_site_type_symbol
 _atom_site_label
 _atom_site_symmetry_multiplicity
 _atom_site_fract_x
 _atom_site_fract_y
 _atom_site_fract_z
 _atom_site_occupancy
  Tb  Tb0  1  0.000000  0.000000  0.500000  1
  Tb  Tb1  1  0.000000  0.500000  0.000000  1
  Tb  Tb2  1  0.500000  0.000000  0.000000  1
  Tb  Tb3  1  0.500000  0.500000  0.500000  1
  Ge  Ge4  1  0.678842  0.678840  0.999999  1
  Ge  Ge5  1  0.321158  0.999999  0.321157  1
  Ge  Ge6  1  0.000000  0.321158  0.321155  1
  Ge  Ge7  1  0.321158  0.321160  0.000001  1
  Ge  Ge8  1  0.678842  0.000001  0.678843  1
  Ge  Ge9  1  0.000000  0.678842  0.678845  1
  Rh  Rh10  1  0.750003  0.250001  0.500006  1
  Rh  Rh11  1  0.750003  0.500002  0.249997  1
  Rh  Rh12  1  0.500009  0.250004  0.750004  1
  Rh  Rh13  1  0.249997  0.499998  0.750003  1
  Rh  Rh14  1  0.249997  0.749999  0.499994  1
  Rh  Rh15  1  0.499991  0.749996  0.249996  1
  Rh  Rh16  1  0.000000  0.000000  0.000000  1
