# generated using pymatgen
data_Ba12Sm3Er(Co4O15)2
_symmetry_space_group_name_H-M   'P 1'
_cell_length_a   6.08803902
_cell_length_b   8.10652114
_cell_length_c   18.61710600
_cell_angle_alpha   89.19690899
_cell_angle_beta   90.06587845
_cell_angle_gamma   90.02689067
_symmetry_Int_Tables_number   1
_chemical_formula_structural   Ba12Sm3Er(Co4O15)2
_chemical_formula_sum   'Ba12 Sm3 Er1 Co8 O30'
_cell_volume   918.71566998
_cell_formula_units_Z   1
loop_
 _symmetry_equiv_pos_site_id
 _symmetry_equiv_pos_as_xyz
  1  'x, y, z'
loop_
 _atom_site_type_symbol
 _atom_site_label
 _atom_site_symmetry_multiplicity
 _atom_site_fract_x
 _atom_site_fract_y
 _atom_site_fract_z
 _atom_site_occupancy
  Ba  Ba0  1  0.277423  0.999865  0.249619  1
  Ba  Ba1  1  0.722691  0.999154  0.751381  1
  Ba  Ba2  1  0.332053  0.499988  0.249997  1
  Ba  Ba3  1  0.669627  0.501062  0.751019  1
  Ba  Ba4  1  0.748142  0.977203  0.088213  1
  Ba  Ba5  1  0.749056  0.022787  0.409870  1
  Ba  Ba6  1  0.250885  0.020146  0.910094  1
  Ba  Ba7  1  0.250952  0.977142  0.590412  1
  Ba  Ba8  1  0.248559  0.496883  0.578698  1
  Ba  Ba9  1  0.247422  0.504853  0.920905  1
  Ba  Ba10  1  0.751705  0.503068  0.421631  1
  Ba  Ba11  1  0.751094  0.497824  0.077204  1
  Sm  Sm12  1  0.251157  0.754736  0.410875  1
  Sm  Sm13  1  0.250843  0.245846  0.088765  1
  Sm  Sm14  1  0.748930  0.245191  0.589536  1
  Er  Er15  1  0.747550  0.753355  0.910977  1
  Co  Co16  1  0.252051  0.754110  0.060773  1
  Co  Co17  1  0.252777  0.246077  0.436628  1
  Co  Co18  1  0.746356  0.246540  0.935869  1
  Co  Co19  1  0.747517  0.753980  0.563704  1
  Co  Co20  1  0.776867  0.768547  0.262310  1
  Co  Co21  1  0.776960  0.231344  0.237264  1
  Co  Co22  1  0.223498  0.231422  0.737597  1
  Co  Co23  1  0.224205  0.768554  0.764581  1
  O  O24  1  0.817964  0.000219  0.250337  1
  O  O25  1  0.182618  0.999376  0.750290  1
  O  O26  1  0.770581  0.953956  0.609217  1
  O  O27  1  0.767289  0.040496  0.893387  1
  O  O28  1  0.229294  0.045867  0.391222  1
  O  O29  1  0.229422  0.953179  0.106940  1
  O  O30  1  0.242673  0.535979  0.088460  1
  O  O31  1  0.243183  0.465472  0.410328  1
  O  O32  1  0.754910  0.469258  0.910713  1
  O  O33  1  0.756667  0.534608  0.590129  1
  O  O34  1  0.038407  0.715974  0.306991  1
  O  O35  1  0.038773  0.283558  0.192693  1
  O  O36  1  0.961826  0.284137  0.693536  1
  O  O37  1  0.963519  0.719245  0.811644  1
  O  O38  1  0.550674  0.751057  0.335303  1
  O  O39  1  0.550012  0.248809  0.164545  1
  O  O40  1  0.448852  0.248965  0.664725  1
  O  O41  1  0.458304  0.751461  0.836022  1
  O  O42  1  0.489958  0.765073  0.504749  1
  O  O43  1  0.490966  0.235313  0.995571  1
  O  O44  1  0.510076  0.234895  0.495691  1
  O  O45  1  0.512218  0.764580  0.001515  1
  O  O46  1  0.013041  0.764975  0.991676  1
  O  O47  1  0.018326  0.234120  0.505740  1
  O  O48  1  0.981411  0.234913  0.004836  1
  O  O49  1  0.981993  0.765911  0.494712  1
  O  O50  1  0.345491  0.697877  0.682726  1
  O  O51  1  0.350981  0.300798  0.818783  1
  O  O52  1  0.651177  0.301025  0.318747  1
  O  O53  1  0.651073  0.699231  0.180851  1
