# generated using pymatgen
data_Nd5Ho3(Si3Pt)4
_symmetry_space_group_name_H-M   'P 1'
_cell_length_a   8.20651700
_cell_length_b   8.20651571
_cell_length_c   8.40413800
_cell_angle_alpha   90.00000000
_cell_angle_beta   90.00000000
_cell_angle_gamma   120.00000116
_symmetry_Int_Tables_number   1
_chemical_formula_structural   Nd5Ho3(Si3Pt)4
_chemical_formula_sum   'Nd5 Ho3 Si12 Pt4'
_cell_volume   490.16407802
_cell_formula_units_Z   1
loop_
 _symmetry_equiv_pos_site_id
 _symmetry_equiv_pos_as_xyz
  1  'x, y, z'
loop_
 _atom_site_type_symbol
 _atom_site_label
 _atom_site_symmetry_multiplicity
 _atom_site_fract_x
 _atom_site_fract_y
 _atom_site_fract_z
 _atom_site_occupancy
  Nd  Nd0  1  0.000000  0.000000  0.250000  1
  Nd  Nd1  1  0.000000  0.000000  0.750000  1
  Nd  Nd2  1  0.501330  0.498670  0.250000  1
  Nd  Nd3  1  0.501330  0.002660  0.250000  1
  Nd  Nd4  1  0.997340  0.498670  0.250000  1
  Ho  Ho5  1  0.497456  0.502544  0.750000  1
  Ho  Ho6  1  0.497456  0.994910  0.750000  1
  Ho  Ho7  1  0.005090  0.502544  0.750000  1
  Si  Si8  1  0.166273  0.833727  0.503091  1
  Si  Si9  1  0.166273  0.332547  0.503091  1
  Si  Si10  1  0.667453  0.833727  0.503091  1
  Si  Si11  1  0.833625  0.166375  0.504097  1
  Si  Si12  1  0.833625  0.667252  0.504097  1
  Si  Si13  1  0.332748  0.166375  0.504097  1
  Si  Si14  1  0.833625  0.166375  0.995903  1
  Si  Si15  1  0.833625  0.667252  0.995903  1
  Si  Si16  1  0.332748  0.166375  0.995903  1
  Si  Si17  1  0.166273  0.833727  0.996909  1
  Si  Si18  1  0.166273  0.332547  0.996909  1
  Si  Si19  1  0.667453  0.833727  0.996909  1
  Pt  Pt20  1  0.333333  0.666667  0.510296  1
  Pt  Pt21  1  0.666667  0.333333  0.522159  1
  Pt  Pt22  1  0.666667  0.333333  0.977841  1
  Pt  Pt23  1  0.333333  0.666667  0.989704  1
