# generated using pymatgen
data_Ho3Ga2B4Ir9
_symmetry_space_group_name_H-M   'P 1'
_cell_length_a   5.53366801
_cell_length_b   5.53323611
_cell_length_c   10.08656200
_cell_angle_alpha   89.99992315
_cell_angle_beta   90.00017336
_cell_angle_gamma   120.00278590
_symmetry_Int_Tables_number   1
_chemical_formula_structural   Ho3Ga2B4Ir9
_chemical_formula_sum   'Ho3 Ga2 B4 Ir9'
_cell_volume   267.45696057
_cell_formula_units_Z   1
loop_
 _symmetry_equiv_pos_site_id
 _symmetry_equiv_pos_as_xyz
  1  'x, y, z'
loop_
 _atom_site_type_symbol
 _atom_site_label
 _atom_site_symmetry_multiplicity
 _atom_site_fract_x
 _atom_site_fract_y
 _atom_site_fract_z
 _atom_site_occupancy
  Ho  Ho0  1  0.999983  0.999996  0.000019  1
  Ho  Ho1  1  0.999993  0.000001  0.339799  1
  Ho  Ho2  1  0.000001  0.000001  0.660222  1
  Ga  Ga3  1  0.333209  0.666610  0.999950  1
  Ga  Ga4  1  0.666779  0.333395  0.999940  1
  B  B5  1  0.333290  0.666634  0.346403  1
  B  B6  1  0.666698  0.333364  0.346403  1
  B  B7  1  0.666699  0.333364  0.653614  1
  B  B8  1  0.333291  0.666635  0.653615  1
  Ir  Ir9  1  0.499995  0.999999  0.500004  1
  Ir  Ir10  1  0.499994  0.500001  0.500004  1
  Ir  Ir11  1  0.999996  0.500000  0.500003  1
  Ir  Ir12  1  0.499993  0.999999  0.204108  1
  Ir  Ir13  1  0.499992  0.499999  0.204089  1
  Ir  Ir14  1  0.999991  0.500000  0.204020  1
  Ir  Ir15  1  0.499999  0.999999  0.795902  1
  Ir  Ir16  1  0.499998  0.500002  0.795917  1
  Ir  Ir17  1  0.999998  0.500000  0.795986  1
