# generated using pymatgen
data_Zn4In8Co3Ir
_symmetry_space_group_name_H-M   'P 1'
_cell_length_a   6.68010607
_cell_length_b   6.68010480
_cell_length_c   7.17088700
_cell_angle_alpha   90.00000000
_cell_angle_beta   90.00000000
_cell_angle_gamma   90.02480491
_symmetry_Int_Tables_number   1
_chemical_formula_structural   Zn4In8Co3Ir
_chemical_formula_sum   'Zn4 In8 Co3 Ir1'
_cell_volume   319.99225932
_cell_formula_units_Z   1
loop_
 _symmetry_equiv_pos_site_id
 _symmetry_equiv_pos_as_xyz
  1  'x, y, z'
loop_
 _atom_site_type_symbol
 _atom_site_label
 _atom_site_symmetry_multiplicity
 _atom_site_fract_x
 _atom_site_fract_y
 _atom_site_fract_z
 _atom_site_occupancy
  Zn  Zn0  1  0.994818  0.505710  0.000000  1
  Zn  Zn1  1  0.000166  0.500798  0.500000  1
  Zn  Zn2  1  0.500798  0.000166  0.500000  1
  Zn  Zn3  1  0.505710  0.994818  0.000000  1
  In  In4  1  0.160453  0.160453  0.272309  1
  In  In5  1  0.335824  0.672661  0.761725  1
  In  In6  1  0.672661  0.335824  0.761725  1
  In  In7  1  0.672661  0.335824  0.238275  1
  In  In8  1  0.335824  0.672661  0.238275  1
  In  In9  1  0.831866  0.831866  0.267702  1
  In  In10  1  0.160453  0.160453  0.727691  1
  In  In11  1  0.831866  0.831866  0.732298  1
  Co  Co12  1  0.147662  0.848636  0.500000  1
  Co  Co13  1  0.848636  0.147662  0.500000  1
  Co  Co14  1  0.651804  0.651804  0.000000  1
  Ir  Ir15  1  0.348801  0.348801  0.000000  1
