# generated using pymatgen
data_Tm3Lu5Re2(B12Ir)2
_symmetry_space_group_name_H-M   'P 1'
_cell_length_a   3.61581600
_cell_length_b   9.05093292
_cell_length_c   11.43074304
_cell_angle_alpha   90.28276679
_cell_angle_beta   90.00000000
_cell_angle_gamma   90.00000000
_symmetry_Int_Tables_number   1
_chemical_formula_structural   Tm3Lu5Re2(B12Ir)2
_chemical_formula_sum   'Tm3 Lu5 Re2 B24 Ir2'
_cell_volume   374.08374837
_cell_formula_units_Z   1
loop_
 _symmetry_equiv_pos_site_id
 _symmetry_equiv_pos_as_xyz
  1  'x, y, z'
loop_
 _atom_site_type_symbol
 _atom_site_label
 _atom_site_symmetry_multiplicity
 _atom_site_fract_x
 _atom_site_fract_y
 _atom_site_fract_z
 _atom_site_occupancy
  Tm  Tm0  1  0.000000  0.315856  0.409923  1
  Tm  Tm1  1  0.000000  0.684149  0.590077  1
  Tm  Tm2  1  0.000000  0.825847  0.082018  1
  Lu  Lu3  1  0.000000  0.174062  0.918199  1
  Lu  Lu4  1  0.000000  0.946557  0.372486  1
  Lu  Lu5  1  0.000000  0.053501  0.627546  1
  Lu  Lu6  1  0.000000  0.441935  0.125610  1
  Lu  Lu7  1  0.000000  0.557928  0.874319  1
  Re  Re8  1  0.000000  0.138789  0.180093  1
  Re  Re9  1  0.000000  0.861469  0.819821  1
  B  B10  1  0.500000  0.554238  0.434585  1
  B  B11  1  0.500000  0.445744  0.565420  1
  B  B12  1  0.500000  0.053423  0.066551  1
  B  B13  1  0.500000  0.946872  0.933292  1
  B  B14  1  0.500000  0.750756  0.421545  1
  B  B15  1  0.500000  0.249259  0.578471  1
  B  B16  1  0.500000  0.249303  0.079883  1
  B  B17  1  0.500000  0.750675  0.919848  1
  B  B18  1  0.500000  0.792097  0.265452  1
  B  B19  1  0.500000  0.207850  0.734713  1
  B  B20  1  0.500000  0.293584  0.234806  1
  B  B21  1  0.500000  0.706417  0.765151  1
  B  B22  1  0.500000  0.631357  0.183179  1
  B  B23  1  0.500000  0.368420  0.816937  1
  B  B24  1  0.500000  0.131236  0.315624  1
  B  B25  1  0.500000  0.868797  0.684389  1
  B  B26  1  0.500000  0.981813  0.213238  1
  B  B27  1  0.500000  0.018459  0.786846  1
  B  B28  1  0.500000  0.481792  0.287177  1
  B  B29  1  0.500000  0.518174  0.712827  1
  B  B30  1  0.500000  0.604741  0.029317  1
  B  B31  1  0.500000  0.394956  0.970592  1
  B  B32  1  0.500000  0.105272  0.471548  1
  B  B33  1  0.500000  0.894734  0.528459  1
  Ir  Ir34  1  0.000000  0.637300  0.321868  1
  Ir  Ir35  1  0.000000  0.362639  0.678190  1
