# generated using pymatgen
data_Th5ScNiBr15
_symmetry_space_group_name_H-M   'P 1'
_cell_length_a   10.07971125
_cell_length_b   10.07971167
_cell_length_c   10.07971225
_cell_angle_alpha   110.58281986
_cell_angle_beta   108.91829320
_cell_angle_gamma   108.91829934
_symmetry_Int_Tables_number   1
_chemical_formula_structural   Th5ScNiBr15
_chemical_formula_sum   'Th5 Sc1 Ni1 Br15'
_cell_volume   788.13308210
_cell_formula_units_Z   1
loop_
 _symmetry_equiv_pos_site_id
 _symmetry_equiv_pos_as_xyz
  1  'x, y, z'
loop_
 _atom_site_type_symbol
 _atom_site_label
 _atom_site_symmetry_multiplicity
 _atom_site_fract_x
 _atom_site_fract_y
 _atom_site_fract_z
 _atom_site_occupancy
  Th  Th0  1  0.000000  0.750916  0.750916  1
  Th  Th1  1  0.238888  0.005409  0.244297  1
  Th  Th2  1  0.761112  0.005409  0.766521  1
  Th  Th3  1  0.238888  0.244297  0.005409  1
  Th  Th4  1  0.761112  0.766521  0.005409  1
  Sc  Sc5  1  0.000000  0.230038  0.230038  1
  Ni  Ni6  1  0.000000  0.995900  0.995900  1
  Br  Br7  1  0.499810  0.249307  0.249307  1
  Br  Br8  1  0.500190  0.749497  0.749497  1
  Br  Br9  1  0.000000  0.249307  0.749497  1
  Br  Br10  1  0.000000  0.749497  0.249307  1
  Br  Br11  1  0.231535  0.486826  0.255291  1
  Br  Br12  1  0.768465  0.023756  0.255291  1
  Br  Br13  1  0.749087  0.498163  0.749076  1
  Br  Br14  1  0.250913  0.999989  0.749076  1
  Br  Br15  1  0.231535  0.255291  0.486826  1
  Br  Br16  1  0.749087  0.749076  0.498163  1
  Br  Br17  1  0.768465  0.255291  0.023756  1
  Br  Br18  1  0.250913  0.749076  0.999989  1
  Br  Br19  1  0.000000  0.492312  0.492312  1
  Br  Br20  1  0.500000  0.997061  0.497061  1
  Br  Br21  1  0.500000  0.497061  0.997061  1
