# generated using pymatgen
data_Ag6AsS5Br
_symmetry_space_group_name_H-M   'P 1'
_cell_length_a   7.53803629
_cell_length_b   7.53803701
_cell_length_c   13.14926887
_cell_angle_alpha   73.27527455
_cell_angle_beta   73.27527422
_cell_angle_gamma   60.05481578
_symmetry_Int_Tables_number   1
_chemical_formula_structural   Ag6AsS5Br
_chemical_formula_sum   'Ag12 As2 S10 Br2'
_cell_volume   610.61342763
_cell_formula_units_Z   2
loop_
 _symmetry_equiv_pos_site_id
 _symmetry_equiv_pos_as_xyz
  1  'x, y, z'
loop_
 _atom_site_type_symbol
 _atom_site_label
 _atom_site_symmetry_multiplicity
 _atom_site_fract_x
 _atom_site_fract_y
 _atom_site_fract_z
 _atom_site_occupancy
  Ag  Ag0  1  0.031552  0.954498  0.889681  1
  Ag  Ag1  1  0.267579  0.382224  0.612295  1
  Ag  Ag2  1  0.004809  0.534552  0.884141  1
  Ag  Ag3  1  0.382224  0.267579  0.112295  1
  Ag  Ag4  1  0.454485  0.504008  0.887935  1
  Ag  Ag5  1  0.534552  0.004809  0.384141  1
  Ag  Ag6  1  0.868663  0.126707  0.612598  1
  Ag  Ag7  1  0.769137  0.607586  0.111191  1
  Ag  Ag8  1  0.607586  0.769137  0.611191  1
  Ag  Ag9  1  0.126707  0.868663  0.112598  1
  Ag  Ag10  1  0.504008  0.454485  0.387935  1
  Ag  Ag11  1  0.954498  0.031552  0.389681  1
  As  As12  1  0.999749  0.500771  0.374827  1
  As  As13  1  0.500771  0.999749  0.874827  1
  S  S14  1  0.938870  0.443704  0.554315  1
  S  S15  1  0.443704  0.938870  0.054315  1
  S  S16  1  0.191546  0.203287  0.312414  1
  S  S17  1  0.692469  0.168683  0.813455  1
  S  S18  1  0.168683  0.692469  0.313455  1
  S  S19  1  0.203287  0.191546  0.812414  1
  S  S20  1  0.703694  0.669103  0.311033  1
  S  S21  1  0.118448  0.616449  0.019021  1
  S  S22  1  0.616449  0.118448  0.519021  1
  S  S23  1  0.669103  0.703694  0.811033  1
  Br  Br24  1  0.752274  0.239141  0.134224  1
  Br  Br25  1  0.239141  0.752274  0.634224  1
