# generated using pymatgen
data_Ti8AlTc4Ru3
_symmetry_space_group_name_H-M   'P 1'
_cell_length_a   6.24454400
_cell_length_b   4.36744600
_cell_length_c   8.80554800
_cell_angle_alpha   90.00000000
_cell_angle_beta   89.99981982
_cell_angle_gamma   90.00000000
_symmetry_Int_Tables_number   1
_chemical_formula_structural   Ti8AlTc4Ru3
_chemical_formula_sum   'Ti8 Al1 Tc4 Ru3'
_cell_volume   240.15114568
_cell_formula_units_Z   1
loop_
 _symmetry_equiv_pos_site_id
 _symmetry_equiv_pos_as_xyz
  1  'x, y, z'
loop_
 _atom_site_type_symbol
 _atom_site_label
 _atom_site_symmetry_multiplicity
 _atom_site_fract_x
 _atom_site_fract_y
 _atom_site_fract_z
 _atom_site_occupancy
  Ti  Ti0  1  0.996099  0.750001  0.130519  1
  Ti  Ti1  1  0.503875  0.750001  0.130530  1
  Ti  Ti2  1  0.000532  0.250001  0.374963  1
  Ti  Ti3  1  0.499463  0.250001  0.374966  1
  Ti  Ti4  1  0.503789  0.750001  0.619599  1
  Ti  Ti5  1  0.996214  0.750001  0.619605  1
  Ti  Ti6  1  0.511095  0.250001  0.874884  1
  Ti  Ti7  1  0.988929  0.250001  0.874884  1
  Al  Al8  1  0.250027  0.750001  0.875307  1
  Tc  Tc9  1  0.249995  0.250001  0.118324  1
  Tc  Tc10  1  0.749992  0.750001  0.375006  1
  Tc  Tc11  1  0.250008  0.250001  0.631579  1
  Tc  Tc12  1  0.749994  0.750001  0.874959  1
  Ru  Ru13  1  0.749987  0.250001  0.126197  1
  Ru  Ru14  1  0.249996  0.750001  0.375035  1
  Ru  Ru15  1  0.750005  0.250001  0.623643  1
