# generated using pymatgen
data_Ta12Al5Ga3Ru3RhC4
_symmetry_space_group_name_H-M   'P 1'
_cell_length_a   8.31464465
_cell_length_b   8.31464558
_cell_length_c   8.29615300
_cell_angle_alpha   59.92624949
_cell_angle_beta   59.92624579
_cell_angle_gamma   59.99999921
_symmetry_Int_Tables_number   1
_chemical_formula_structural   Ta12Al5Ga3Ru3RhC4
_chemical_formula_sum   'Ta12 Al5 Ga3 Ru3 Rh1 C4'
_cell_volume   405.10177867
_cell_formula_units_Z   1
loop_
 _symmetry_equiv_pos_site_id
 _symmetry_equiv_pos_as_xyz
  1  'x, y, z'
loop_
 _atom_site_type_symbol
 _atom_site_label
 _atom_site_symmetry_multiplicity
 _atom_site_fract_x
 _atom_site_fract_y
 _atom_site_fract_z
 _atom_site_occupancy
  Ta  Ta0  1  0.564778  0.938621  0.558662  1
  Ta  Ta1  1  0.311320  0.685314  0.692824  1
  Ta  Ta2  1  0.689131  0.309913  0.309271  1
  Ta  Ta3  1  0.309913  0.689131  0.309271  1
  Ta  Ta4  1  0.691051  0.691051  0.309019  1
  Ta  Ta5  1  0.312194  0.312194  0.690975  1
  Ta  Ta6  1  0.560043  0.560043  0.940191  1
  Ta  Ta7  1  0.938621  0.564778  0.558662  1
  Ta  Ta8  1  0.558360  0.940622  0.940446  1
  Ta  Ta9  1  0.939633  0.939633  0.556774  1
  Ta  Ta10  1  0.685314  0.311320  0.692824  1
  Ta  Ta11  1  0.940622  0.558360  0.940446  1
  Al  Al12  1  0.332450  0.332450  0.003404  1
  Al  Al13  1  0.917488  0.250131  0.915545  1
  Al  Al14  1  0.917978  0.917978  0.246845  1
  Al  Al15  1  0.250131  0.917488  0.915545  1
  Al  Al16  1  0.332615  0.332615  0.334516  1
  Ga  Ga17  1  0.914366  0.914366  0.913844  1
  Ga  Ga18  1  0.992087  0.336346  0.336210  1
  Ga  Ga19  1  0.336346  0.992087  0.336210  1
  Ru  Ru20  1  0.125434  0.125434  0.122939  1
  Ru  Ru21  1  0.624678  0.127477  0.125229  1
  Ru  Ru22  1  0.127477  0.624678  0.125229  1
  Rh  Rh23  1  0.126832  0.126832  0.625626  1
  C  C24  1  0.625081  0.625081  0.624405  1
  C  C25  1  0.124775  0.625904  0.625038  1
  C  C26  1  0.625904  0.124775  0.625038  1
  C  C27  1  0.625380  0.625380  0.125012  1
