# generated using pymatgen
data_ErLu4In4CoPt
_symmetry_space_group_name_H-M   'P 1'
_cell_length_a   3.53652000
_cell_length_b   7.97322463
_cell_length_c   17.85166383
_cell_angle_alpha   90.01913527
_cell_angle_beta   90.00000000
_cell_angle_gamma   90.00000000
_symmetry_Int_Tables_number   1
_chemical_formula_structural   ErLu4In4CoPt
_chemical_formula_sum   'Er2 Lu8 In8 Co2 Pt2'
_cell_volume   503.37169786
_cell_formula_units_Z   2
loop_
 _symmetry_equiv_pos_site_id
 _symmetry_equiv_pos_as_xyz
  1  'x, y, z'
loop_
 _atom_site_type_symbol
 _atom_site_label
 _atom_site_symmetry_multiplicity
 _atom_site_fract_x
 _atom_site_fract_y
 _atom_site_fract_z
 _atom_site_occupancy
  Er  Er0  1  0.000000  0.000000  0.000000  1
  Er  Er1  1  0.000000  0.500000  0.500000  1
  Lu  Lu2  1  0.000000  0.113435  0.409834  1
  Lu  Lu3  1  0.000000  0.886565  0.590166  1
  Lu  Lu4  1  0.000000  0.381576  0.913669  1
  Lu  Lu5  1  0.000000  0.618424  0.086331  1
  Lu  Lu6  1  0.000000  0.234416  0.223800  1
  Lu  Lu7  1  0.000000  0.765584  0.776200  1
  Lu  Lu8  1  0.000000  0.243783  0.719955  1
  Lu  Lu9  1  0.000000  0.756217  0.280045  1
  In  In10  1  0.500000  0.422755  0.351984  1
  In  In11  1  0.500000  0.577245  0.648016  1
  In  In12  1  0.500000  0.071030  0.848625  1
  In  In13  1  0.500000  0.928970  0.151375  1
  In  In14  1  0.500000  0.292732  0.066740  1
  In  In15  1  0.500000  0.707268  0.933260  1
  In  In16  1  0.500000  0.203295  0.567816  1
  In  In17  1  0.500000  0.796705  0.432184  1
  Co  Co18  1  0.500000  0.022018  0.304620  1
  Co  Co19  1  0.500000  0.977982  0.695380  1
  Pt  Pt20  1  0.500000  0.476024  0.802956  1
  Pt  Pt21  1  0.500000  0.523976  0.197044  1
