# generated using pymatgen
data_InP6PdO18
_symmetry_space_group_name_H-M   'P 1'
_cell_length_a   5.26844348
_cell_length_b   7.06413821
_cell_length_c   10.71705892
_cell_angle_alpha   98.93318080
_cell_angle_beta   93.18633301
_cell_angle_gamma   90.26945933
_symmetry_Int_Tables_number   1
_chemical_formula_structural   InP6PdO18
_chemical_formula_sum   'In1 P6 Pd1 O18'
_cell_volume   393.37374420
_cell_formula_units_Z   1
loop_
 _symmetry_equiv_pos_site_id
 _symmetry_equiv_pos_as_xyz
  1  'x, y, z'
loop_
 _atom_site_type_symbol
 _atom_site_label
 _atom_site_symmetry_multiplicity
 _atom_site_fract_x
 _atom_site_fract_y
 _atom_site_fract_z
 _atom_site_occupancy
  In  In0  1  0.000000  0.000000  0.000000  1
  P  P1  1  0.492963  0.327308  0.633941  1
  P  P2  1  0.507037  0.672692  0.366059  1
  P  P3  1  0.471421  0.042350  0.813483  1
  P  P4  1  0.528579  0.957650  0.186517  1
  P  P5  1  0.247214  0.319690  0.236406  1
  P  P6  1  0.752786  0.680310  0.763594  1
  Pd  Pd7  1  0.000000  0.500000  0.500000  1
  O  O8  1  0.334520  0.883205  0.081598  1
  O  O9  1  0.665480  0.116795  0.918402  1
  O  O10  1  0.471557  0.869702  0.311539  1
  O  O11  1  0.528443  0.130298  0.688461  1
  O  O12  1  0.614747  0.476621  0.753648  1
  O  O13  1  0.385253  0.523379  0.246352  1
  O  O14  1  0.899038  0.697656  0.647664  1
  O  O15  1  0.100962  0.302344  0.352336  1
  O  O16  1  0.646421  0.321817  0.520314  1
  O  O17  1  0.353579  0.678183  0.479686  1
  O  O18  1  0.489293  0.180693  0.237390  1
  O  O19  1  0.510707  0.819307  0.762610  1
  O  O20  1  0.896857  0.721405  0.890022  1
  O  O21  1  0.103143  0.278595  0.109978  1
  O  O22  1  0.803492  0.929551  0.158977  1
  O  O23  1  0.196508  0.070449  0.841023  1
  O  O24  1  0.793366  0.642164  0.377241  1
  O  O25  1  0.206634  0.357836  0.622759  1
