# generated using pymatgen
data_Ac7Nd13Si15Hg
_symmetry_space_group_name_H-M   'P 1'
_cell_length_a   8.12061201
_cell_length_b   8.10197814
_cell_length_c   15.60273200
_cell_angle_alpha   90.17113137
_cell_angle_beta   89.64257516
_cell_angle_gamma   89.99931377
_symmetry_Int_Tables_number   1
_chemical_formula_structural   Ac7Nd13Si15Hg
_chemical_formula_sum   'Ac7 Nd13 Si15 Hg1'
_cell_volume   1026.52632045
_cell_formula_units_Z   1
loop_
 _symmetry_equiv_pos_site_id
 _symmetry_equiv_pos_as_xyz
  1  'x, y, z'
loop_
 _atom_site_type_symbol
 _atom_site_label
 _atom_site_symmetry_multiplicity
 _atom_site_fract_x
 _atom_site_fract_y
 _atom_site_fract_z
 _atom_site_occupancy
  Ac  Ac0  1  0.369235  0.015956  0.449383  1
  Ac  Ac1  1  0.486396  0.867353  0.701002  1
  Ac  Ac2  1  0.513758  0.125873  0.199958  1
  Ac  Ac3  1  0.870865  0.484329  0.296339  1
  Ac  Ac4  1  0.124799  0.523010  0.802110  1
  Ac  Ac5  1  0.632367  0.982565  0.954781  1
  Ac  Ac6  1  0.007624  0.377527  0.546212  1
  Nd  Nd7  1  0.310020  0.309945  0.999607  1
  Nd  Nd8  1  0.187569  0.809088  0.248452  1
  Nd  Nd9  1  0.801650  0.185056  0.753882  1
  Nd  Nd10  1  0.688826  0.687609  0.498844  1
  Nd  Nd11  1  0.992987  0.622623  0.054261  1
  Nd  Nd12  1  0.126231  0.980944  0.882309  1
  Nd  Nd13  1  0.518022  0.629620  0.126991  1
  Nd  Nd14  1  0.490300  0.374079  0.626597  1
  Nd  Nd15  1  0.632437  0.522331  0.876929  1
  Nd  Nd16  1  0.373845  0.484909  0.370154  1
  Nd  Nd17  1  0.870039  0.014980  0.374910  1
  Nd  Nd18  1  0.984598  0.128550  0.122509  1
  Nd  Nd19  1  0.007808  0.862165  0.619057  1
  Si  Si20  1  0.330987  0.693295  0.957547  1
  Si  Si21  1  0.660885  0.301226  0.451895  1
  Si  Si22  1  0.706337  0.344226  0.048935  1
  Si  Si23  1  0.303763  0.662946  0.544026  1
  Si  Si24  1  0.806326  0.833603  0.200710  1
  Si  Si25  1  0.163796  0.198297  0.295537  1
  Si  Si26  1  0.834647  0.806654  0.795682  1
  Si  Si27  1  0.279083  0.917791  0.062101  1
  Si  Si28  1  0.581690  0.784191  0.309838  1
  Si  Si29  1  0.435412  0.219912  0.817168  1
  Si  Si30  1  0.782188  0.579138  0.689889  1
  Si  Si31  1  0.215694  0.423558  0.187689  1
  Si  Si32  1  0.714064  0.078817  0.559345  1
  Si  Si33  1  0.925888  0.292360  0.941189  1
  Si  Si34  1  0.080009  0.716167  0.436499  1
  Hg  Hg35  1  0.189855  0.159306  0.697665  1
