# generated using pymatgen
data_YbY3(SiPd2)4
_symmetry_space_group_name_H-M   'P 1'
_cell_length_a   5.54864260
_cell_length_b   7.00505700
_cell_length_c   7.34842377
_cell_angle_alpha   90.00000000
_cell_angle_beta   89.94713458
_cell_angle_gamma   90.00000000
_symmetry_Int_Tables_number   1
_chemical_formula_structural   YbY3(SiPd2)4
_chemical_formula_sum   'Yb1 Y3 Si4 Pd8'
_cell_volume   285.62251160
_cell_formula_units_Z   1
loop_
 _symmetry_equiv_pos_site_id
 _symmetry_equiv_pos_as_xyz
  1  'x, y, z'
loop_
 _atom_site_type_symbol
 _atom_site_label
 _atom_site_symmetry_multiplicity
 _atom_site_fract_x
 _atom_site_fract_y
 _atom_site_fract_z
 _atom_site_occupancy
  Yb  Yb0  1  0.860650  0.250000  0.474822  1
  Y  Y1  1  0.361376  0.750000  0.026049  1
  Y  Y2  1  0.136571  0.750000  0.526341  1
  Y  Y3  1  0.639717  0.250000  0.973320  1
  Si  Si4  1  0.635847  0.750000  0.377236  1
  Si  Si5  1  0.861845  0.750000  0.877077  1
  Si  Si6  1  0.362162  0.250000  0.622119  1
  Si  Si7  1  0.140062  0.250000  0.122718  1
  Pd  Pd8  1  0.901961  0.552691  0.175316  1
  Pd  Pd9  1  0.596224  0.948221  0.676717  1
  Pd  Pd10  1  0.100192  0.052310  0.823088  1
  Pd  Pd11  1  0.402507  0.447860  0.325039  1
  Pd  Pd12  1  0.100192  0.447690  0.823088  1
  Pd  Pd13  1  0.402507  0.052140  0.325039  1
  Pd  Pd14  1  0.901961  0.947309  0.175316  1
  Pd  Pd15  1  0.596224  0.551779  0.676717  1
