# generated using pymatgen
data_Li3Ca4Sc(P3Ir4)4
_symmetry_space_group_name_H-M   'P 1'
_cell_length_a   12.65965000
_cell_length_b   12.65964956
_cell_length_c   3.91857000
_cell_angle_alpha   90.00000000
_cell_angle_beta   90.00000000
_cell_angle_gamma   120.00000114
_symmetry_Int_Tables_number   1
_chemical_formula_structural   Li3Ca4Sc(P3Ir4)4
_chemical_formula_sum   'Li3 Ca4 Sc1 P12 Ir16'
_cell_volume   543.87815916
_cell_formula_units_Z   1
loop_
 _symmetry_equiv_pos_site_id
 _symmetry_equiv_pos_as_xyz
  1  'x, y, z'
loop_
 _atom_site_type_symbol
 _atom_site_label
 _atom_site_symmetry_multiplicity
 _atom_site_fract_x
 _atom_site_fract_y
 _atom_site_fract_z
 _atom_site_occupancy
  Li  Li0  1  0.441639  0.001592  0.000000  1
  Li  Li1  1  0.998408  0.440047  0.000000  1
  Li  Li2  1  0.559953  0.558361  0.000000  1
  Ca  Ca3  1  0.333333  0.666667  0.000000  1
  Ca  Ca4  1  0.813276  0.000007  0.500000  1
  Ca  Ca5  1  0.999993  0.813270  0.500000  1
  Ca  Ca6  1  0.186730  0.186724  0.500000  1
  Sc  Sc7  1  0.666667  0.333333  0.000000  1
  P  P8  1  0.181074  0.000966  0.000000  1
  P  P9  1  0.999034  0.180108  0.000000  1
  P  P10  1  0.819892  0.818926  0.000000  1
  P  P11  1  0.172566  0.483587  0.500000  1
  P  P12  1  0.516413  0.688979  0.500000  1
  P  P13  1  0.311021  0.827434  0.500000  1
  P  P14  1  0.691057  0.515479  0.500000  1
  P  P15  1  0.824421  0.308943  0.500000  1
  P  P16  1  0.484521  0.175579  0.500000  1
  P  P17  1  0.627554  0.999193  0.000000  1
  P  P18  1  0.000807  0.628360  0.000000  1
  P  P19  1  0.371640  0.372446  0.000000  1
  Ir  Ir20  1  0.361891  0.488638  0.500000  1
  Ir  Ir21  1  0.511362  0.873253  0.500000  1
  Ir  Ir22  1  0.126747  0.638109  0.500000  1
  Ir  Ir23  1  0.866694  0.503680  0.500000  1
  Ir  Ir24  1  0.636986  0.133306  0.500000  1
  Ir  Ir25  1  0.496320  0.363014  0.500000  1
  Ir  Ir26  1  0.179720  0.377573  0.000000  1
  Ir  Ir27  1  0.622427  0.802148  0.000000  1
  Ir  Ir28  1  0.197852  0.820280  0.000000  1
  Ir  Ir29  1  0.804369  0.621872  0.000000  1
  Ir  Ir30  1  0.817504  0.195631  0.000000  1
  Ir  Ir31  1  0.378128  0.182496  0.000000  1
  Ir  Ir32  1  0.281125  0.001107  0.500000  1
  Ir  Ir33  1  0.998893  0.280018  0.500000  1
  Ir  Ir34  1  0.719982  0.718875  0.500000  1
  Ir  Ir35  1  0.000000  0.000000  0.000000  1
