# generated using pymatgen
data_CeLu4(FeB3)2
_symmetry_space_group_name_H-M   'P 1'
_cell_length_a   5.37771269
_cell_length_b   5.37771146
_cell_length_c   7.85971119
_cell_angle_alpha   69.99475101
_cell_angle_beta   69.99475597
_cell_angle_gamma   60.00000263
_symmetry_Int_Tables_number   1
_chemical_formula_structural   CeLu4(FeB3)2
_chemical_formula_sum   'Ce1 Lu4 Fe2 B6'
_cell_volume   180.83853286
_cell_formula_units_Z   1
loop_
 _symmetry_equiv_pos_site_id
 _symmetry_equiv_pos_as_xyz
  1  'x, y, z'
loop_
 _atom_site_type_symbol
 _atom_site_label
 _atom_site_symmetry_multiplicity
 _atom_site_fract_x
 _atom_site_fract_y
 _atom_site_fract_z
 _atom_site_occupancy
  Ce  Ce0  1  0.000000  0.000000  0.000000  1
  Lu  Lu1  1  0.747550  0.747550  0.757349  1
  Lu  Lu2  1  0.252450  0.252450  0.242651  1
  Lu  Lu3  1  0.585387  0.585387  0.243840  1
  Lu  Lu4  1  0.414613  0.414613  0.756160  1
  Fe  Fe5  1  0.890780  0.890780  0.327661  1
  Fe  Fe6  1  0.109220  0.109220  0.672339  1
  B  B7  1  0.500000  0.167622  0.500000  1
  B  B8  1  0.832378  0.500000  0.500000  1
  B  B9  1  0.167622  0.832378  0.500000  1
  B  B10  1  0.167622  0.500000  0.500000  1
  B  B11  1  0.832378  0.167622  0.500000  1
  B  B12  1  0.500000  0.832378  0.500000  1
