# generated using pymatgen
data_Nb12Al11Cu11Rh2
_symmetry_space_group_name_H-M   'P 1'
_cell_length_a   8.75452441
_cell_length_b   8.74726892
_cell_length_c   8.03174200
_cell_angle_alpha   90.00000000
_cell_angle_beta   90.00000000
_cell_angle_gamma   120.25630416
_symmetry_Int_Tables_number   1
_chemical_formula_structural   Nb12Al11Cu11Rh2
_chemical_formula_sum   'Nb12 Al11 Cu11 Rh2'
_cell_volume   531.27326949
_cell_formula_units_Z   1
loop_
 _symmetry_equiv_pos_site_id
 _symmetry_equiv_pos_as_xyz
  1  'x, y, z'
loop_
 _atom_site_type_symbol
 _atom_site_label
 _atom_site_symmetry_multiplicity
 _atom_site_fract_x
 _atom_site_fract_y
 _atom_site_fract_z
 _atom_site_occupancy
  Nb  Nb0  1  0.333057  0.996710  0.067983  1
  Nb  Nb1  1  0.665362  0.001318  0.931863  1
  Nb  Nb2  1  0.999398  0.335448  0.066626  1
  Nb  Nb3  1  0.665362  0.001318  0.568137  1
  Nb  Nb4  1  0.999398  0.335448  0.433374  1
  Nb  Nb5  1  0.002690  0.665996  0.932180  1
  Nb  Nb6  1  0.333057  0.996710  0.432017  1
  Nb  Nb7  1  0.002690  0.665996  0.567820  1
  Nb  Nb8  1  0.663607  0.663004  0.068206  1
  Nb  Nb9  1  0.336379  0.335222  0.931884  1
  Nb  Nb10  1  0.336379  0.335222  0.568116  1
  Nb  Nb11  1  0.663607  0.663004  0.431794  1
  Al  Al12  1  0.157239  0.657889  0.250000  1
  Al  Al13  1  0.340037  0.665981  0.506851  1
  Al  Al14  1  0.666495  0.332833  0.499911  1
  Al  Al15  1  0.666495  0.332833  0.000089  1
  Al  Al16  1  0.340037  0.665981  0.993149  1
  Al  Al17  1  0.180203  0.001177  0.750000  1
  Al  Al18  1  0.817733  0.000818  0.250000  1
  Al  Al19  1  0.000635  0.180806  0.750000  1
  Al  Al20  1  0.993164  0.824791  0.250000  1
  Al  Al21  1  0.822217  0.820456  0.750000  1
  Al  Al22  1  0.179599  0.180939  0.250000  1
  Cu  Cu23  1  0.162819  0.498057  0.750000  1
  Cu  Cu24  1  0.835254  0.503755  0.250000  1
  Cu  Cu25  1  0.505755  0.665506  0.750000  1
  Cu  Cu26  1  0.498300  0.163176  0.750000  1
  Cu  Cu27  1  0.496579  0.332944  0.250000  1
  Cu  Cu28  1  0.498302  0.835033  0.250000  1
  Cu  Cu29  1  0.335776  0.838452  0.750000  1
  Cu  Cu30  1  0.666700  0.502223  0.750000  1
  Cu  Cu31  1  0.663584  0.162465  0.250000  1
  Cu  Cu32  1  0.335564  0.499307  0.250000  1
  Cu  Cu33  1  0.837506  0.335636  0.750000  1
  Rh  Rh34  1  0.999510  0.001775  0.500532  1
  Rh  Rh35  1  0.999510  0.001775  0.999468  1
