# generated using pymatgen
data_Er16Cd4TcPt3
_symmetry_space_group_name_H-M   'P 1'
_cell_length_a   9.63885491
_cell_length_b   9.63885559
_cell_length_c   9.63885505
_cell_angle_alpha   59.37016429
_cell_angle_beta   59.37016524
_cell_angle_gamma   59.37016378
_symmetry_Int_Tables_number   1
_chemical_formula_structural   Er16Cd4TcPt3
_chemical_formula_sum   'Er16 Cd4 Tc1 Pt3'
_cell_volume   624.15224188
_cell_formula_units_Z   1
loop_
 _symmetry_equiv_pos_site_id
 _symmetry_equiv_pos_as_xyz
  1  'x, y, z'
loop_
 _atom_site_type_symbol
 _atom_site_label
 _atom_site_symmetry_multiplicity
 _atom_site_fract_x
 _atom_site_fract_y
 _atom_site_fract_z
 _atom_site_occupancy
  Er  Er0  1  0.351307  0.351307  0.351307  1
  Er  Er1  1  0.351476  0.351476  0.946320  1
  Er  Er2  1  0.351476  0.946320  0.351476  1
  Er  Er3  1  0.946320  0.351476  0.351476  1
  Er  Er4  1  0.814828  0.188106  0.188106  1
  Er  Er5  1  0.189306  0.809852  0.809852  1
  Er  Er6  1  0.188106  0.814828  0.188106  1
  Er  Er7  1  0.809852  0.189306  0.809852  1
  Er  Er8  1  0.188106  0.188106  0.814828  1
  Er  Er9  1  0.809852  0.809852  0.189306  1
  Er  Er10  1  0.935578  0.565623  0.565623  1
  Er  Er11  1  0.556656  0.938178  0.938178  1
  Er  Er12  1  0.565623  0.935578  0.565623  1
  Er  Er13  1  0.938178  0.556656  0.938178  1
  Er  Er14  1  0.565623  0.565623  0.935578  1
  Er  Er15  1  0.938178  0.938178  0.556656  1
  Cd  Cd16  1  0.580007  0.580007  0.580007  1
  Cd  Cd17  1  0.580917  0.580917  0.253736  1
  Cd  Cd18  1  0.580917  0.253736  0.580917  1
  Cd  Cd19  1  0.253736  0.580917  0.580917  1
  Tc  Tc20  1  0.144155  0.144155  0.144155  1
  Pt  Pt21  1  0.143979  0.143979  0.571845  1
  Pt  Pt22  1  0.143979  0.571845  0.143979  1
  Pt  Pt23  1  0.571845  0.143979  0.143979  1
