# generated using pymatgen
data_Tb2Y4NpO12
_symmetry_space_group_name_H-M   'P 1'
_cell_length_a   6.58675845
_cell_length_b   6.57601692
_cell_length_c   6.58860868
_cell_angle_alpha   98.90720242
_cell_angle_beta   98.84819391
_cell_angle_gamma   98.77850591
_symmetry_Int_Tables_number   1
_chemical_formula_structural   Tb2Y4NpO12
_chemical_formula_sum   'Tb2 Y4 Np1 O12'
_cell_volume   273.99843875
_cell_formula_units_Z   1
loop_
 _symmetry_equiv_pos_site_id
 _symmetry_equiv_pos_as_xyz
  1  'x, y, z'
loop_
 _atom_site_type_symbol
 _atom_site_label
 _atom_site_symmetry_multiplicity
 _atom_site_fract_x
 _atom_site_fract_y
 _atom_site_fract_z
 _atom_site_occupancy
  Tb  Tb0  1  0.389610  0.680213  0.855044  1
  Tb  Tb1  1  0.854555  0.389384  0.679253  1
  Y  Y2  1  0.679132  0.854449  0.389924  1
  Y  Y3  1  0.609747  0.320608  0.145296  1
  Y  Y4  1  0.145150  0.610025  0.320925  1
  Y  Y5  1  0.320965  0.145290  0.609655  1
  Np  Np6  1  0.000122  0.000226  0.000180  1
  O  O7  1  0.178260  0.429112  0.588590  1
  O  O8  1  0.589281  0.177790  0.428569  1
  O  O9  1  0.428766  0.588895  0.178475  1
  O  O10  1  0.822960  0.570996  0.410672  1
  O  O11  1  0.410809  0.822896  0.570813  1
  O  O12  1  0.570447  0.410208  0.823009  1
  O  O13  1  0.920311  0.044618  0.693459  1
  O  O14  1  0.954917  0.307082  0.078818  1
  O  O15  1  0.306313  0.078557  0.954871  1
  O  O16  1  0.079679  0.955444  0.306476  1
  O  O17  1  0.045085  0.693372  0.920733  1
  O  O18  1  0.693891  0.920837  0.045236  1
