# generated using pymatgen
data_Li4In8PtRh3
_symmetry_space_group_name_H-M   'P 1'
_cell_length_a   6.52177300
_cell_length_b   4.66184400
_cell_length_c   9.26862500
_cell_angle_alpha   90.00000000
_cell_angle_beta   90.00270184
_cell_angle_gamma   90.00000000
_symmetry_Int_Tables_number   1
_chemical_formula_structural   Li4In8PtRh3
_chemical_formula_sum   'Li4 In8 Pt1 Rh3'
_cell_volume   281.79853186
_cell_formula_units_Z   1
loop_
 _symmetry_equiv_pos_site_id
 _symmetry_equiv_pos_as_xyz
  1  'x, y, z'
loop_
 _atom_site_type_symbol
 _atom_site_label
 _atom_site_symmetry_multiplicity
 _atom_site_fract_x
 _atom_site_fract_y
 _atom_site_fract_z
 _atom_site_occupancy
  Li  Li0  1  0.249919  0.250000  0.121074  1
  Li  Li1  1  0.750011  0.750001  0.379524  1
  Li  Li2  1  0.250007  0.250000  0.619873  1
  Li  Li3  1  0.750071  0.750001  0.879623  1
  In  In4  1  0.997108  0.750001  0.128979  1
  In  In5  1  0.503128  0.750001  0.128998  1
  In  In6  1  0.000550  0.250000  0.372894  1
  In  In7  1  0.499280  0.250000  0.372982  1
  In  In8  1  0.502691  0.750001  0.625144  1
  In  In9  1  0.997163  0.750001  0.625074  1
  In  In10  1  0.503578  0.250000  0.872882  1
  In  In11  1  0.996623  0.250000  0.872618  1
  Pt  Pt12  1  0.250085  0.750001  0.878026  1
  Rh  Rh13  1  0.750007  0.250000  0.121832  1
  Rh  Rh14  1  0.250011  0.750001  0.377686  1
  Rh  Rh15  1  0.749770  0.250000  0.622790  1
