# generated using pymatgen
data_SrBi(PtO2)4
_symmetry_space_group_name_H-M   'P 1'
_cell_length_a   5.64477793
_cell_length_b   6.22474441
_cell_length_c   6.73025008
_cell_angle_alpha   116.29280894
_cell_angle_beta   96.02204469
_cell_angle_gamma   109.44894614
_symmetry_Int_Tables_number   1
_chemical_formula_structural   SrBi(PtO2)4
_chemical_formula_sum   'Sr1 Bi1 Pt4 O8'
_cell_volume   190.80039890
_cell_formula_units_Z   1
loop_
 _symmetry_equiv_pos_site_id
 _symmetry_equiv_pos_as_xyz
  1  'x, y, z'
loop_
 _atom_site_type_symbol
 _atom_site_label
 _atom_site_symmetry_multiplicity
 _atom_site_fract_x
 _atom_site_fract_y
 _atom_site_fract_z
 _atom_site_occupancy
  Sr  Sr0  1  0.871325  0.245907  0.633346  1
  Bi  Bi1  1  0.143348  0.756809  0.343892  1
  Pt  Pt2  1  0.999161  0.000876  0.002241  1
  Pt  Pt3  1  0.498021  0.499214  0.000741  1
  Pt  Pt4  1  0.500607  0.501106  0.501828  1
  Pt  Pt5  1  0.495700  0.999587  0.997581  1
  O  O6  1  0.639540  0.397593  0.225211  1
  O  O7  1  0.359515  0.602705  0.775739  1
  O  O8  1  0.844361  0.833887  0.650182  1
  O  O9  1  0.155912  0.152524  0.351239  1
  O  O10  1  0.514457  0.867281  0.229923  1
  O  O11  1  0.472551  0.132260  0.771229  1
  O  O12  1  0.879328  0.654431  0.996503  1
  O  O13  1  0.126176  0.355820  0.020346  1
