# generated using pymatgen
data_LaPr6Pa(ZnRh)8
_symmetry_space_group_name_H-M   'P 1'
_cell_length_a   4.00187400
_cell_length_b   7.38646772
_cell_length_c   16.66781002
_cell_angle_alpha   89.56726354
_cell_angle_beta   90.00000000
_cell_angle_gamma   90.00000000
_symmetry_Int_Tables_number   1
_chemical_formula_structural   LaPr6Pa(ZnRh)8
_chemical_formula_sum   'La1 Pr6 Pa1 Zn8 Rh8'
_cell_volume   492.68163024
_cell_formula_units_Z   1
loop_
 _symmetry_equiv_pos_site_id
 _symmetry_equiv_pos_as_xyz
  1  'x, y, z'
loop_
 _atom_site_type_symbol
 _atom_site_label
 _atom_site_symmetry_multiplicity
 _atom_site_fract_x
 _atom_site_fract_y
 _atom_site_fract_z
 _atom_site_occupancy
  La  La0  1  0.250000  0.049483  0.715959  1
  Pr  Pr1  1  0.750000  0.947666  0.282669  1
  Pr  Pr2  1  0.750000  0.822602  0.060762  1
  Pr  Pr3  1  0.250000  0.168911  0.940606  1
  Pr  Pr4  1  0.250000  0.548542  0.784271  1
  Pr  Pr5  1  0.750000  0.334401  0.439744  1
  Pr  Pr6  1  0.250000  0.672445  0.559889  1
  Pa  Pa7  1  0.750000  0.444232  0.214865  1
  Zn  Zn8  1  0.250000  0.003862  0.439058  1
  Zn  Zn9  1  0.750000  0.501622  0.940056  1
  Zn  Zn10  1  0.750000  0.003636  0.558741  1
  Zn  Zn11  1  0.250000  0.623420  0.350647  1
  Zn  Zn12  1  0.750000  0.379854  0.650630  1
  Zn  Zn13  1  0.750000  0.878175  0.850543  1
  Zn  Zn14  1  0.250000  0.497928  0.057523  1
  Zn  Zn15  1  0.250000  0.118373  0.151674  1
  Rh  Rh16  1  0.250000  0.246487  0.565561  1
  Rh  Rh17  1  0.750000  0.268146  0.076044  1
  Rh  Rh18  1  0.250000  0.266040  0.300251  1
  Rh  Rh19  1  0.750000  0.252917  0.815370  1
  Rh  Rh20  1  0.250000  0.747870  0.935036  1
  Rh  Rh21  1  0.750000  0.758172  0.686015  1
  Rh  Rh22  1  0.750000  0.762765  0.433799  1
  Rh  Rh23  1  0.250000  0.702451  0.190287  1
