# generated using pymatgen
data_Tb3CeDy4(ReB6)4
_symmetry_space_group_name_H-M   'P 1'
_cell_length_a   3.70368900
_cell_length_b   9.19526713
_cell_length_c   11.58622401
_cell_angle_alpha   90.04993130
_cell_angle_beta   90.00000000
_cell_angle_gamma   90.00000000
_symmetry_Int_Tables_number   1
_chemical_formula_structural   Tb3CeDy4(ReB6)4
_chemical_formula_sum   'Tb3 Ce1 Dy4 Re4 B24'
_cell_volume   394.58504216
_cell_formula_units_Z   1
loop_
 _symmetry_equiv_pos_site_id
 _symmetry_equiv_pos_as_xyz
  1  'x, y, z'
loop_
 _atom_site_type_symbol
 _atom_site_label
 _atom_site_symmetry_multiplicity
 _atom_site_fract_x
 _atom_site_fract_y
 _atom_site_fract_z
 _atom_site_occupancy
  Tb  Tb0  1  0.000000  0.677395  0.586525  1
  Tb  Tb1  1  0.000000  0.823181  0.085481  1
  Tb  Tb2  1  0.000000  0.176212  0.913980  1
  Ce  Ce3  1  0.000000  0.323151  0.414082  1
  Dy  Dy4  1  0.000000  0.942256  0.369834  1
  Dy  Dy5  1  0.000000  0.056947  0.630497  1
  Dy  Dy6  1  0.000000  0.442804  0.129331  1
  Dy  Dy7  1  0.000000  0.557501  0.870082  1
  Re  Re8  1  0.000000  0.637582  0.321131  1
  Re  Re9  1  0.000000  0.362107  0.678644  1
  Re  Re10  1  0.000000  0.138690  0.179815  1
  Re  Re11  1  0.000000  0.861842  0.820771  1
  B  B12  1  0.500000  0.553550  0.432201  1
  B  B13  1  0.500000  0.446314  0.567814  1
  B  B14  1  0.500000  0.053256  0.067206  1
  B  B15  1  0.500000  0.946862  0.932751  1
  B  B16  1  0.500000  0.748954  0.417977  1
  B  B17  1  0.500000  0.251606  0.582700  1
  B  B18  1  0.500000  0.248397  0.081474  1
  B  B19  1  0.500000  0.751312  0.918025  1
  B  B20  1  0.500000  0.791277  0.265522  1
  B  B21  1  0.500000  0.208885  0.734925  1
  B  B22  1  0.500000  0.290757  0.234060  1
  B  B23  1  0.500000  0.708701  0.765454  1
  B  B24  1  0.500000  0.630892  0.185404  1
  B  B25  1  0.500000  0.369799  0.814345  1
  B  B26  1  0.500000  0.130512  0.313802  1
  B  B27  1  0.500000  0.869376  0.685998  1
  B  B28  1  0.500000  0.982493  0.211729  1
  B  B29  1  0.500000  0.017336  0.788181  1
  B  B30  1  0.500000  0.483501  0.287659  1
  B  B31  1  0.500000  0.517723  0.712565  1
  B  B32  1  0.500000  0.600447  0.027847  1
  B  B33  1  0.500000  0.399784  0.971652  1
  B  B34  1  0.500000  0.099771  0.472116  1
  B  B35  1  0.500000  0.898832  0.528419  1
