# generated using pymatgen
data_Tb2Pr8B2Cl15
_symmetry_space_group_name_H-M   'P 1'
_cell_length_a   9.05975175
_cell_length_b   9.86114105
_cell_length_c   10.71047017
_cell_angle_alpha   91.04462257
_cell_angle_beta   114.49104651
_cell_angle_gamma   110.89158083
_symmetry_Int_Tables_number   1
_chemical_formula_structural   Tb2Pr8B2Cl15
_chemical_formula_sum   'Tb2 Pr8 B2 Cl15'
_cell_volume   797.85850668
_cell_formula_units_Z   1
loop_
 _symmetry_equiv_pos_site_id
 _symmetry_equiv_pos_as_xyz
  1  'x, y, z'
loop_
 _atom_site_type_symbol
 _atom_site_label
 _atom_site_symmetry_multiplicity
 _atom_site_fract_x
 _atom_site_fract_y
 _atom_site_fract_z
 _atom_site_occupancy
  Tb  Tb0  1  0.726787  0.075611  0.047813  1
  Tb  Tb1  1  0.273213  0.924389  0.952187  1
  Pr  Pr2  1  0.810510  0.418430  0.278465  1
  Pr  Pr3  1  0.189490  0.581570  0.721535  1
  Pr  Pr4  1  0.681811  0.744130  0.818919  1
  Pr  Pr5  1  0.318189  0.255870  0.181081  1
  Pr  Pr6  1  0.527886  0.699329  0.102662  1
  Pr  Pr7  1  0.472114  0.300671  0.897338  1
  Pr  Pr8  1  0.591837  0.035364  0.333540  1
  Pr  Pr9  1  0.408163  0.964636  0.666460  1
  B  B10  1  0.467024  0.822871  0.878100  1
  B  B11  1  0.532976  0.177129  0.121900  1
  Cl  Cl12  1  0.000000  0.000000  0.000000  1
  Cl  Cl13  1  0.634111  0.881877  0.585137  1
  Cl  Cl14  1  0.365889  0.118123  0.414863  1
  Cl  Cl15  1  0.882444  0.299268  0.523889  1
  Cl  Cl16  1  0.117556  0.700732  0.476111  1
  Cl  Cl17  1  0.286919  0.769987  0.170339  1
  Cl  Cl18  1  0.713081  0.230013  0.829661  1
  Cl  Cl19  1  0.041513  0.331057  0.217215  1
  Cl  Cl20  1  0.163660  0.050200  0.715094  1
  Cl  Cl21  1  0.836340  0.949800  0.284906  1
  Cl  Cl22  1  0.232713  0.410550  0.945511  1
  Cl  Cl23  1  0.767287  0.589450  0.054489  1
  Cl  Cl24  1  0.407376  0.466953  0.658724  1
  Cl  Cl25  1  0.592624  0.533047  0.341276  1
  Cl  Cl26  1  0.958487  0.668943  0.782785  1
