# generated using pymatgen
data_Tb18Sc2Si15Os
_symmetry_space_group_name_H-M   'P 1'
_cell_length_a   7.34032412
_cell_length_b   7.77009462
_cell_length_c   14.55867600
_cell_angle_alpha   90.00000000
_cell_angle_beta   90.00000000
_cell_angle_gamma   90.12506416
_symmetry_Int_Tables_number   1
_chemical_formula_structural   Tb18Sc2Si15Os
_chemical_formula_sum   'Tb18 Sc2 Si15 Os1'
_cell_volume   830.35229545
_cell_formula_units_Z   1
loop_
 _symmetry_equiv_pos_site_id
 _symmetry_equiv_pos_as_xyz
  1  'x, y, z'
loop_
 _atom_site_type_symbol
 _atom_site_label
 _atom_site_symmetry_multiplicity
 _atom_site_fract_x
 _atom_site_fract_y
 _atom_site_fract_z
 _atom_site_occupancy
  Tb  Tb0  1  0.673132  0.183953  0.623969  1
  Tb  Tb1  1  0.192267  0.324967  0.874164  1
  Tb  Tb2  1  0.317230  0.821166  0.127297  1
  Tb  Tb3  1  0.816383  0.676346  0.373477  1
  Tb  Tb4  1  0.317230  0.821166  0.372703  1
  Tb  Tb5  1  0.816383  0.676346  0.126523  1
  Tb  Tb6  1  0.673132  0.183953  0.876031  1
  Tb  Tb7  1  0.192267  0.324967  0.625836  1
  Tb  Tb8  1  0.520950  0.675139  0.594311  1
  Tb  Tb9  1  0.025023  0.815534  0.905312  1
  Tb  Tb10  1  0.474742  0.315030  0.099879  1
  Tb  Tb11  1  0.974646  0.183646  0.400396  1
  Tb  Tb12  1  0.474742  0.315030  0.400121  1
  Tb  Tb13  1  0.974646  0.183646  0.099604  1
  Tb  Tb14  1  0.520950  0.675139  0.905689  1
  Tb  Tb15  1  0.025023  0.815534  0.594688  1
  Tb  Tb16  1  0.840102  0.512789  0.750000  1
  Tb  Tb17  1  0.355196  0.984619  0.750000  1
  Sc  Sc18  1  0.150771  0.480931  0.250000  1
  Sc  Sc19  1  0.651499  0.017410  0.250000  1
  Si  Si20  1  0.646851  0.973079  0.456701  1
  Si  Si21  1  0.149672  0.526857  0.042564  1
  Si  Si22  1  0.349387  0.025368  0.963155  1
  Si  Si23  1  0.856819  0.471151  0.537119  1
  Si  Si24  1  0.349387  0.025368  0.536845  1
  Si  Si25  1  0.856819  0.471151  0.962881  1
  Si  Si26  1  0.646851  0.973079  0.043299  1
  Si  Si27  1  0.149672  0.526857  0.457436  1
  Si  Si28  1  0.979270  0.100765  0.750000  1
  Si  Si29  1  0.513538  0.591436  0.250000  1
  Si  Si30  1  0.011320  0.906925  0.250000  1
  Si  Si31  1  0.742620  0.876733  0.750000  1
  Si  Si32  1  0.232300  0.633780  0.750000  1
  Si  Si33  1  0.272197  0.136801  0.250000  1
  Si  Si34  1  0.775087  0.363805  0.250000  1
  Os  Os35  1  0.481894  0.409536  0.750000  1
