# generated using pymatgen
data_Tb2GdTcB7
_symmetry_space_group_name_H-M   'P 1'
_cell_length_a   8.13792210
_cell_length_b   8.13792180
_cell_length_c   9.39580700
_cell_angle_alpha   90.00000000
_cell_angle_beta   90.00000000
_cell_angle_gamma   154.77590647
_symmetry_Int_Tables_number   1
_chemical_formula_structural   Tb2GdTcB7
_chemical_formula_sum   'Tb4 Gd2 Tc2 B14'
_cell_volume   265.17559431
_cell_formula_units_Z   2
loop_
 _symmetry_equiv_pos_site_id
 _symmetry_equiv_pos_as_xyz
  1  'x, y, z'
loop_
 _atom_site_type_symbol
 _atom_site_label
 _atom_site_symmetry_multiplicity
 _atom_site_fract_x
 _atom_site_fract_y
 _atom_site_fract_z
 _atom_site_occupancy
  Tb  Tb0  1  0.604624  0.395376  0.060328  1
  Tb  Tb1  1  0.395376  0.604624  0.939672  1
  Tb  Tb2  1  0.395376  0.604624  0.560328  1
  Tb  Tb3  1  0.604624  0.395376  0.439672  1
  Gd  Gd4  1  0.257585  0.742415  0.250000  1
  Gd  Gd5  1  0.742415  0.257585  0.750000  1
  Tc  Tc6  1  0.446675  0.553325  0.250000  1
  Tc  Tc7  1  0.553325  0.446675  0.750000  1
  B  B8  1  0.978532  0.021468  0.096153  1
  B  B9  1  0.021468  0.978532  0.903847  1
  B  B10  1  0.021468  0.978532  0.596153  1
  B  B11  1  0.978532  0.021468  0.403847  1
  B  B12  1  0.773422  0.226578  0.032405  1
  B  B13  1  0.226578  0.773422  0.967595  1
  B  B14  1  0.226578  0.773422  0.532405  1
  B  B15  1  0.773422  0.226578  0.467595  1
  B  B16  1  0.868232  0.131768  0.151110  1
  B  B17  1  0.131768  0.868232  0.848890  1
  B  B18  1  0.131768  0.868232  0.651110  1
  B  B19  1  0.868232  0.131768  0.348890  1
  B  B20  1  0.040692  0.959308  0.250000  1
  B  B21  1  0.959308  0.040692  0.750000  1
