# generated using pymatgen
data_Pr11Nd5Cd4IrRu3
_symmetry_space_group_name_H-M   'P 1'
_cell_length_a   9.99253626
_cell_length_b   9.99934028
_cell_length_c   9.99934039
_cell_angle_alpha   59.80122487
_cell_angle_beta   59.77137755
_cell_angle_gamma   59.77137806
_symmetry_Int_Tables_number   1
_chemical_formula_structural   Pr11Nd5Cd4IrRu3
_chemical_formula_sum   'Pr11 Nd5 Cd4 Ir1 Ru3'
_cell_volume   702.97821879
_cell_formula_units_Z   1
loop_
 _symmetry_equiv_pos_site_id
 _symmetry_equiv_pos_as_xyz
  1  'x, y, z'
loop_
 _atom_site_type_symbol
 _atom_site_label
 _atom_site_symmetry_multiplicity
 _atom_site_fract_x
 _atom_site_fract_y
 _atom_site_fract_z
 _atom_site_occupancy
  Pr  Pr0  1  0.190940  0.809848  0.809848  1
  Pr  Pr1  1  0.191071  0.809216  0.190287  1
  Pr  Pr2  1  0.811388  0.191331  0.807689  1
  Pr  Pr3  1  0.191071  0.190287  0.809216  1
  Pr  Pr4  1  0.811388  0.807689  0.191331  1
  Pr  Pr5  1  0.938865  0.561571  0.561571  1
  Pr  Pr6  1  0.559847  0.939865  0.939865  1
  Pr  Pr7  1  0.560758  0.938762  0.562014  1
  Pr  Pr8  1  0.939473  0.560557  0.940017  1
  Pr  Pr9  1  0.560758  0.562014  0.938762  1
  Pr  Pr10  1  0.939473  0.940017  0.560557  1
  Nd  Nd11  1  0.345242  0.346836  0.346836  1
  Nd  Nd12  1  0.344603  0.346895  0.960759  1
  Nd  Nd13  1  0.344603  0.960759  0.346895  1
  Nd  Nd14  1  0.961697  0.345282  0.345282  1
  Nd  Nd15  1  0.810544  0.190948  0.190948  1
  Cd  Cd16  1  0.579293  0.579107  0.579107  1
  Cd  Cd17  1  0.579470  0.579132  0.261443  1
  Cd  Cd18  1  0.579470  0.261443  0.579132  1
  Cd  Cd19  1  0.261719  0.579220  0.579220  1
  Ir  Ir20  1  0.578363  0.140557  0.140557  1
  Ru  Ru21  1  0.139912  0.137576  0.137576  1
  Ru  Ru22  1  0.140026  0.137840  0.583247  1
  Ru  Ru23  1  0.140026  0.583247  0.137840  1
