# generated using pymatgen
data_NdTh2(SnIr)3
_symmetry_space_group_name_H-M   'P 1'
_cell_length_a   7.60693906
_cell_length_b   7.60693878
_cell_length_c   4.12116100
_cell_angle_alpha   90.00000000
_cell_angle_beta   90.00000000
_cell_angle_gamma   120.35769172
_symmetry_Int_Tables_number   1
_chemical_formula_structural   NdTh2(SnIr)3
_chemical_formula_sum   'Nd1 Th2 Sn3 Ir3'
_cell_volume   205.77538136
_cell_formula_units_Z   1
loop_
 _symmetry_equiv_pos_site_id
 _symmetry_equiv_pos_as_xyz
  1  'x, y, z'
loop_
 _atom_site_type_symbol
 _atom_site_label
 _atom_site_symmetry_multiplicity
 _atom_site_fract_x
 _atom_site_fract_y
 _atom_site_fract_z
 _atom_site_occupancy
  Nd  Nd0  1  0.409341  0.409341  0.000000  1
  Th  Th1  1  0.587716  0.000317  0.000000  1
  Th  Th2  1  0.000317  0.587716  0.000000  1
  Sn  Sn3  1  0.251251  0.007590  0.500000  1
  Sn  Sn4  1  0.007590  0.251251  0.500000  1
  Sn  Sn5  1  0.741349  0.741349  0.500000  1
  Ir  Ir6  1  0.331228  0.680436  0.500000  1
  Ir  Ir7  1  0.680436  0.331228  0.500000  1
  Ir  Ir8  1  0.990772  0.990772  0.000000  1
