# generated using pymatgen
data_Sm(YSi2)2
_symmetry_space_group_name_H-M   'P 1'
_cell_length_a   3.92655650
_cell_length_b   4.26174629
_cell_length_c   9.23151100
_cell_angle_alpha   76.65453995
_cell_angle_beta   77.71921795
_cell_angle_gamma   90.00088610
_symmetry_Int_Tables_number   1
_chemical_formula_structural   Sm(YSi2)2
_chemical_formula_sum   'Sm1 Y2 Si4'
_cell_volume   146.67282079
_cell_formula_units_Z   1
loop_
 _symmetry_equiv_pos_site_id
 _symmetry_equiv_pos_as_xyz
  1  'x, y, z'
loop_
 _atom_site_type_symbol
 _atom_site_label
 _atom_site_symmetry_multiplicity
 _atom_site_fract_x
 _atom_site_fract_y
 _atom_site_fract_z
 _atom_site_occupancy
  Sm  Sm0  1  0.999981  0.999998  0.000000  1
  Y  Y1  1  0.683270  0.183372  0.633739  1
  Y  Y2  1  0.316744  0.816630  0.366261  1
  Si  Si3  1  0.851785  0.351613  0.296514  1
  Si  Si4  1  0.148228  0.648389  0.703487  1
  Si  Si5  1  0.566980  0.567823  0.865591  1
  Si  Si6  1  0.433013  0.432176  0.134408  1
