# generated using pymatgen
data_Hf6GaCu5N2
_symmetry_space_group_name_H-M   'P 1'
_cell_length_a   8.35943906
_cell_length_b   8.35943929
_cell_length_c   8.32059500
_cell_angle_alpha   60.15359087
_cell_angle_beta   60.15358997
_cell_angle_gamma   60.33269611
_symmetry_Int_Tables_number   1
_chemical_formula_structural   Hf6GaCu5N2
_chemical_formula_sum   'Hf12 Ga2 Cu10 N4'
_cell_volume   413.12659774
_cell_formula_units_Z   2
loop_
 _symmetry_equiv_pos_site_id
 _symmetry_equiv_pos_as_xyz
  1  'x, y, z'
loop_
 _atom_site_type_symbol
 _atom_site_label
 _atom_site_symmetry_multiplicity
 _atom_site_fract_x
 _atom_site_fract_y
 _atom_site_fract_z
 _atom_site_occupancy
  Hf  Hf0  1  0.809878  0.188879  0.191829  1
  Hf  Hf1  1  0.188879  0.809878  0.191829  1
  Hf  Hf2  1  0.810632  0.810632  0.189368  1
  Hf  Hf3  1  0.188879  0.809878  0.809414  1
  Hf  Hf4  1  0.809878  0.188879  0.809414  1
  Hf  Hf5  1  0.190616  0.190616  0.809384  1
  Hf  Hf6  1  0.440122  0.061121  0.058171  1
  Hf  Hf7  1  0.061121  0.440122  0.058171  1
  Hf  Hf8  1  0.439368  0.439368  0.060632  1
  Hf  Hf9  1  0.061121  0.440122  0.440586  1
  Hf  Hf10  1  0.440122  0.061121  0.440586  1
  Hf  Hf11  1  0.059384  0.059384  0.440616  1
  Ga  Ga12  1  0.625000  0.625000  0.125000  1
  Ga  Ga13  1  0.625000  0.625000  0.625000  1
  Cu  Cu14  1  0.416619  0.416619  0.747025  1
  Cu  Cu15  1  0.416619  0.416619  0.419737  1
  Cu  Cu16  1  0.748124  0.414712  0.418581  1
  Cu  Cu17  1  0.414712  0.748124  0.418581  1
  Cu  Cu18  1  0.833381  0.833381  0.502975  1
  Cu  Cu19  1  0.833381  0.833381  0.830263  1
  Cu  Cu20  1  0.501876  0.835288  0.831419  1
  Cu  Cu21  1  0.835288  0.501876  0.831419  1
  Cu  Cu22  1  0.125000  0.625000  0.625000  1
  Cu  Cu23  1  0.625000  0.125000  0.625000  1
  N  N24  1  0.125000  0.125000  0.625000  1
  N  N25  1  0.125000  0.125000  0.125000  1
  N  N26  1  0.625000  0.125000  0.125000  1
  N  N27  1  0.125000  0.625000  0.125000  1
