# generated using pymatgen
data_Ho20SnBi7Ru4
_symmetry_space_group_name_H-M   'P 1'
_cell_length_a   7.92730617
_cell_length_b   9.01684844
_cell_length_c   12.40233590
_cell_angle_alpha   90.01072306
_cell_angle_beta   90.07756018
_cell_angle_gamma   90.03434647
_symmetry_Int_Tables_number   1
_chemical_formula_structural   Ho20SnBi7Ru4
_chemical_formula_sum   'Ho20 Sn1 Bi7 Ru4'
_cell_volume   886.50952829
_cell_formula_units_Z   1
loop_
 _symmetry_equiv_pos_site_id
 _symmetry_equiv_pos_as_xyz
  1  'x, y, z'
loop_
 _atom_site_type_symbol
 _atom_site_label
 _atom_site_symmetry_multiplicity
 _atom_site_fract_x
 _atom_site_fract_y
 _atom_site_fract_z
 _atom_site_occupancy
  Ho  Ho0  1  0.837470  0.746264  0.791848  1
  Ho  Ho1  1  0.159287  0.250443  0.206693  1
  Ho  Ho2  1  0.343683  0.253914  0.709307  1
  Ho  Ho3  1  0.658924  0.750042  0.292127  1
  Ho  Ho4  1  0.379619  0.746265  0.692675  1
  Ho  Ho5  1  0.624108  0.250151  0.309530  1
  Ho  Ho6  1  0.870677  0.253209  0.809371  1
  Ho  Ho7  1  0.123989  0.749857  0.190333  1
  Ho  Ho8  1  0.945825  0.750241  0.504512  1
  Ho  Ho9  1  0.054790  0.249916  0.495966  1
  Ho  Ho10  1  0.448007  0.253459  0.993456  1
  Ho  Ho11  1  0.554160  0.746744  0.002242  1
  Ho  Ho12  1  0.674974  0.042242  0.565219  1
  Ho  Ho13  1  0.325526  0.957810  0.435266  1
  Ho  Ho14  1  0.173958  0.958684  0.934673  1
  Ho  Ho15  1  0.325614  0.541660  0.434859  1
  Ho  Ho16  1  0.824545  0.041341  0.065104  1
  Ho  Ho17  1  0.673025  0.458513  0.569173  1
  Ho  Ho18  1  0.824353  0.458472  0.062942  1
  Ho  Ho19  1  0.178363  0.540759  0.934040  1
  Sn  Sn20  1  0.567618  0.493687  0.828879  1
  Bi  Bi21  1  0.431899  0.506860  0.173339  1
  Bi  Bi22  1  0.068174  0.506732  0.671937  1
  Bi  Bi23  1  0.431868  0.993311  0.171208  1
  Bi  Bi24  1  0.931952  0.493241  0.327505  1
  Bi  Bi25  1  0.567777  0.006337  0.827605  1
  Bi  Bi26  1  0.932181  0.006877  0.327379  1
  Bi  Bi27  1  0.068322  0.993647  0.673450  1
  Ru  Ru28  1  0.574392  0.749949  0.509769  1
  Ru  Ru29  1  0.425377  0.249724  0.490058  1
  Ru  Ru30  1  0.073042  0.249773  0.989794  1
  Ru  Ru31  1  0.926501  0.749879  0.009740  1
