# generated using pymatgen
data_Dy2Fe6Mo(P2Ir)3
_symmetry_space_group_name_H-M   'P 1'
_cell_length_a   3.78948400
_cell_length_b   10.34273400
_cell_length_c   12.18632300
_cell_angle_alpha   90.00000000
_cell_angle_beta   90.00000000
_cell_angle_gamma   90.00000000
_symmetry_Int_Tables_number   1
_chemical_formula_structural   Dy2Fe6Mo(P2Ir)3
_chemical_formula_sum   'Dy4 Fe12 Mo2 P12 Ir6'
_cell_volume   477.62617390
_cell_formula_units_Z   2
loop_
 _symmetry_equiv_pos_site_id
 _symmetry_equiv_pos_as_xyz
  1  'x, y, z'
loop_
 _atom_site_type_symbol
 _atom_site_label
 _atom_site_symmetry_multiplicity
 _atom_site_fract_x
 _atom_site_fract_y
 _atom_site_fract_z
 _atom_site_occupancy
  Dy  Dy0  1  0.250000  0.582554  0.712884  1
  Dy  Dy1  1  0.250000  0.917446  0.212884  1
  Dy  Dy2  1  0.750000  0.419860  0.288571  1
  Dy  Dy3  1  0.750000  0.080140  0.788571  1
  Fe  Fe4  1  0.250000  0.223606  0.170678  1
  Fe  Fe5  1  0.250000  0.276394  0.670678  1
  Fe  Fe6  1  0.750000  0.779569  0.826030  1
  Fe  Fe7  1  0.750000  0.720431  0.326030  1
  Fe  Fe8  1  0.250000  0.878517  0.696275  1
  Fe  Fe9  1  0.250000  0.621483  0.196275  1
  Fe  Fe10  1  0.750000  0.120556  0.304582  1
  Fe  Fe11  1  0.750000  0.379444  0.804582  1
  Fe  Fe12  1  0.250000  0.456884  0.937460  1
  Fe  Fe13  1  0.250000  0.043116  0.437460  1
  Fe  Fe14  1  0.750000  0.536010  0.063132  1
  Fe  Fe15  1  0.750000  0.963990  0.563132  1
  Mo  Mo16  1  0.250000  0.701782  0.988149  1
  Mo  Mo17  1  0.250000  0.798218  0.488149  1
  P  P18  1  0.250000  0.429174  0.114028  1
  P  P19  1  0.250000  0.070826  0.614028  1
  P  P20  1  0.750000  0.575835  0.887396  1
  P  P21  1  0.750000  0.924165  0.387396  1
  P  P22  1  0.250000  0.273253  0.851476  1
  P  P23  1  0.250000  0.226747  0.351476  1
  P  P24  1  0.750000  0.724865  0.142440  1
  P  P25  1  0.750000  0.775135  0.642440  1
  P  P26  1  0.250000  0.604127  0.378491  1
  P  P27  1  0.250000  0.895873  0.878491  1
  P  P28  1  0.750000  0.394561  0.623740  1
  P  P29  1  0.750000  0.105439  0.123740  1
  Ir  Ir30  1  0.750000  0.292704  0.015522  1
  Ir  Ir31  1  0.750000  0.207296  0.515522  1
  Ir  Ir32  1  0.250000  0.401560  0.476519  1
  Ir  Ir33  1  0.250000  0.098440  0.976519  1
  Ir  Ir34  1  0.750000  0.592606  0.522628  1
  Ir  Ir35  1  0.750000  0.907394  0.022628  1
