# generated using pymatgen
data_Sm2U(AlIr)3
_symmetry_space_group_name_H-M   'P 1'
_cell_length_a   7.09006097
_cell_length_b   7.24650448
_cell_length_c   4.02387500
_cell_angle_alpha   90.00000000
_cell_angle_beta   90.00000000
_cell_angle_gamma   120.73560495
_symmetry_Int_Tables_number   1
_chemical_formula_structural   Sm2U(AlIr)3
_chemical_formula_sum   'Sm2 U1 Al3 Ir3'
_cell_volume   177.69962129
_cell_formula_units_Z   1
loop_
 _symmetry_equiv_pos_site_id
 _symmetry_equiv_pos_as_xyz
  1  'x, y, z'
loop_
 _atom_site_type_symbol
 _atom_site_label
 _atom_site_symmetry_multiplicity
 _atom_site_fract_x
 _atom_site_fract_y
 _atom_site_fract_z
 _atom_site_occupancy
  Sm  Sm0  1  0.415383  0.418194  0.500000  1
  Sm  Sm1  1  0.584610  0.002807  0.500000  1
  U  U2  1  0.000001  0.581044  0.500000  1
  Al  Al3  1  0.760032  0.760824  0.000000  1
  Al  Al4  1  0.239974  0.000801  0.000000  1
  Al  Al5  1  0.999998  0.227500  0.000000  1
  Ir  Ir6  1  0.707357  0.367269  0.000000  1
  Ir  Ir7  1  0.292648  0.659929  0.000000  1
  Ir  Ir8  1  0.999997  0.981633  0.500000  1
