# generated using pymatgen
data_KPa2Te5
_symmetry_space_group_name_H-M   'P 1'
_cell_length_a   9.88919180
_cell_length_b   9.88919057
_cell_length_c   9.88919133
_cell_angle_alpha   130.06180009
_cell_angle_beta   130.06179248
_cell_angle_gamma   73.30799536
_symmetry_Int_Tables_number   1
_chemical_formula_structural   KPa2Te5
_chemical_formula_sum   'K2 Pa4 Te10'
_cell_volume   553.02679324
_cell_formula_units_Z   2
loop_
 _symmetry_equiv_pos_site_id
 _symmetry_equiv_pos_as_xyz
  1  'x, y, z'
loop_
 _atom_site_type_symbol
 _atom_site_label
 _atom_site_symmetry_multiplicity
 _atom_site_fract_x
 _atom_site_fract_y
 _atom_site_fract_z
 _atom_site_occupancy
  K  K0  1  0.750000  0.750000  0.000000  1
  K  K1  1  0.250000  0.250000  0.000000  1
  Pa  Pa2  1  0.651584  0.151584  0.803169  1
  Pa  Pa3  1  0.348416  0.848416  0.196831  1
  Pa  Pa4  1  0.151584  0.348416  0.500000  1
  Pa  Pa5  1  0.848416  0.651584  0.500000  1
  Te  Te6  1  0.022016  0.522016  0.794759  1
  Te  Te7  1  0.727256  0.227256  0.205241  1
  Te  Te8  1  0.522016  0.727256  0.500000  1
  Te  Te9  1  0.227256  0.022016  0.500000  1
  Te  Te10  1  0.977984  0.477984  0.205241  1
  Te  Te11  1  0.272744  0.772744  0.794759  1
  Te  Te12  1  0.477984  0.272744  0.500000  1
  Te  Te13  1  0.772744  0.977984  0.500000  1
  Te  Te14  1  0.000000  0.000000  0.000000  1
  Te  Te15  1  0.500000  0.500000  0.000000  1
