# generated using pymatgen
data_Sm7Th(Pt2Pb)4
_symmetry_space_group_name_H-M   'P 1'
_cell_length_a   8.07804165
_cell_length_b   8.07804240
_cell_length_c   7.36770200
_cell_angle_alpha   90.00000000
_cell_angle_beta   90.00000000
_cell_angle_gamma   89.35351070
_symmetry_Int_Tables_number   1
_chemical_formula_structural   Sm7Th(Pt2Pb)4
_chemical_formula_sum   'Sm7 Th1 Pt8 Pb4'
_cell_volume   480.74704281
_cell_formula_units_Z   1
loop_
 _symmetry_equiv_pos_site_id
 _symmetry_equiv_pos_as_xyz
  1  'x, y, z'
loop_
 _atom_site_type_symbol
 _atom_site_label
 _atom_site_symmetry_multiplicity
 _atom_site_fract_x
 _atom_site_fract_y
 _atom_site_fract_z
 _atom_site_occupancy
  Sm  Sm0  1  0.673949  0.671504  0.000000  1
  Sm  Sm1  1  0.335316  0.335010  0.500000  1
  Sm  Sm2  1  0.826971  0.173029  0.500000  1
  Sm  Sm3  1  0.664990  0.664684  0.500000  1
  Sm  Sm4  1  0.328496  0.326051  0.000000  1
  Sm  Sm5  1  0.172800  0.827200  0.500000  1
  Sm  Sm6  1  0.832386  0.167614  0.000000  1
  Th  Th7  1  0.164315  0.835685  0.000000  1
  Pt  Pt8  1  0.875353  0.871083  0.743402  1
  Pt  Pt9  1  0.128917  0.124647  0.743402  1
  Pt  Pt10  1  0.625143  0.374857  0.757824  1
  Pt  Pt11  1  0.625143  0.374857  0.242176  1
  Pt  Pt12  1  0.369215  0.630785  0.236906  1
  Pt  Pt13  1  0.128917  0.124647  0.256598  1
  Pt  Pt14  1  0.875353  0.871083  0.256598  1
  Pt  Pt15  1  0.369215  0.630785  0.763094  1
  Pb  Pb16  1  0.502710  0.000949  0.748639  1
  Pb  Pb17  1  0.502710  0.000949  0.251361  1
  Pb  Pb18  1  0.999051  0.497290  0.748639  1
  Pb  Pb19  1  0.999051  0.497290  0.251361  1
