# generated using pymatgen
data_Sr6DyFe(BO3)6
_symmetry_space_group_name_H-M   'P 1'
_cell_length_a   7.77469983
_cell_length_b   7.77469940
_cell_length_c   7.77469955
_cell_angle_alpha   105.26397630
_cell_angle_beta   105.26397135
_cell_angle_gamma   105.26397298
_symmetry_Int_Tables_number   1
_chemical_formula_structural   Sr6DyFe(BO3)6
_chemical_formula_sum   'Sr6 Dy1 Fe1 B6 O18'
_cell_volume   408.49870778
_cell_formula_units_Z   1
loop_
 _symmetry_equiv_pos_site_id
 _symmetry_equiv_pos_as_xyz
  1  'x, y, z'
loop_
 _atom_site_type_symbol
 _atom_site_label
 _atom_site_symmetry_multiplicity
 _atom_site_fract_x
 _atom_site_fract_y
 _atom_site_fract_z
 _atom_site_occupancy
  Sr  Sr0  1  0.648601  0.266094  0.162889  1
  Sr  Sr1  1  0.162889  0.648601  0.266094  1
  Sr  Sr2  1  0.733905  0.837112  0.351399  1
  Sr  Sr3  1  0.266095  0.162888  0.648601  1
  Sr  Sr4  1  0.837112  0.351399  0.733906  1
  Sr  Sr5  1  0.351399  0.733906  0.837111  1
  Dy  Dy6  1  0.000000  0.000000  0.000000  1
  Fe  Fe7  1  0.500000  0.500000  0.500000  1
  B  B8  1  0.296480  0.378332  0.046425  1
  B  B9  1  0.378331  0.046425  0.296480  1
  B  B10  1  0.046425  0.296480  0.378331  1
  B  B11  1  0.953575  0.703521  0.621669  1
  B  B12  1  0.621669  0.953576  0.703520  1
  B  B13  1  0.703521  0.621669  0.953576  1
  O  O14  1  0.726271  0.814775  0.015938  1
  O  O15  1  0.804353  0.547643  0.068569  1
  O  O16  1  0.984062  0.273729  0.185223  1
  O  O17  1  0.452356  0.931431  0.195646  1
  O  O18  1  0.432380  0.498612  0.226708  1
  O  O19  1  0.185224  0.984062  0.273728  1
  O  O20  1  0.498611  0.226708  0.432380  1
  O  O21  1  0.931431  0.195646  0.452357  1
  O  O22  1  0.226708  0.432380  0.498612  1
  O  O23  1  0.773292  0.567620  0.501389  1
  O  O24  1  0.068569  0.804353  0.547643  1
  O  O25  1  0.501389  0.773292  0.567620  1
  O  O26  1  0.814775  0.015937  0.726271  1
  O  O27  1  0.567620  0.501389  0.773293  1
  O  O28  1  0.547643  0.068569  0.804354  1
  O  O29  1  0.015937  0.726270  0.814776  1
  O  O30  1  0.195646  0.452356  0.931431  1
  O  O31  1  0.273729  0.185224  0.984062  1
