# generated using pymatgen
data_Pr2Si4As2Pd21
_symmetry_space_group_name_H-M   'P 1'
_cell_length_a   8.80038527
_cell_length_b   8.76234326
_cell_length_c   8.76234401
_cell_angle_alpha   60.26266978
_cell_angle_beta   59.85627923
_cell_angle_gamma   59.85627110
_symmetry_Int_Tables_number   1
_chemical_formula_structural   Pr2Si4As2Pd21
_chemical_formula_sum   'Pr2 Si4 As2 Pd21'
_cell_volume   477.67366258
_cell_formula_units_Z   1
loop_
 _symmetry_equiv_pos_site_id
 _symmetry_equiv_pos_as_xyz
  1  'x, y, z'
loop_
 _atom_site_type_symbol
 _atom_site_label
 _atom_site_symmetry_multiplicity
 _atom_site_fract_x
 _atom_site_fract_y
 _atom_site_fract_z
 _atom_site_occupancy
  Pr  Pr0  1  0.750145  0.750442  0.749269  1
  Pr  Pr1  1  0.249855  0.250731  0.249558  1
  Si  Si2  1  0.737054  0.263156  0.262737  1
  Si  Si3  1  0.262983  0.263443  0.736557  1
  Si  Si4  1  0.737017  0.263443  0.736557  1
  Si  Si5  1  0.262946  0.737263  0.736844  1
  As  As6  1  0.737019  0.737303  0.262697  1
  As  As7  1  0.262981  0.737303  0.262697  1
  Pd  Pd8  1  0.000000  0.001988  0.998012  1
  Pd  Pd9  1  0.617824  0.608560  0.155792  1
  Pd  Pd10  1  0.613976  0.157142  0.614908  1
  Pd  Pd11  1  0.156808  0.611054  0.619956  1
  Pd  Pd12  1  0.612183  0.611054  0.619956  1
  Pd  Pd13  1  0.386024  0.385092  0.842858  1
  Pd  Pd14  1  0.382176  0.844208  0.391440  1
  Pd  Pd15  1  0.843192  0.380044  0.388946  1
  Pd  Pd16  1  0.387817  0.380044  0.388946  1
  Pd  Pd17  1  0.995132  0.006453  0.345876  1
  Pd  Pd18  1  0.652539  0.006453  0.345876  1
  Pd  Pd19  1  0.000000  0.652031  0.347969  1
  Pd  Pd20  1  0.656209  0.344798  0.999932  1
  Pd  Pd21  1  0.999060  0.344798  0.999932  1
  Pd  Pd22  1  0.000000  0.343611  0.656389  1
  Pd  Pd23  1  0.347461  0.654124  0.993547  1
  Pd  Pd24  1  0.343791  0.000068  0.655202  1
  Pd  Pd25  1  0.345570  0.005601  0.994399  1
  Pd  Pd26  1  0.000940  0.000068  0.655202  1
  Pd  Pd27  1  0.004868  0.654124  0.993547  1
  Pd  Pd28  1  0.654430  0.005601  0.994399  1
