# generated using pymatgen
data_Dy3Tm5(MgSn4)2
_symmetry_space_group_name_H-M   'P 1'
_cell_length_a   7.64385104
_cell_length_b   8.21016811
_cell_length_c   15.21504300
_cell_angle_alpha   89.99117900
_cell_angle_beta   89.99430329
_cell_angle_gamma   89.99677499
_symmetry_Int_Tables_number   1
_chemical_formula_structural   Dy3Tm5(MgSn4)2
_chemical_formula_sum   'Dy6 Tm10 Mg4 Sn16'
_cell_volume   954.85503141
_cell_formula_units_Z   2
loop_
 _symmetry_equiv_pos_site_id
 _symmetry_equiv_pos_as_xyz
  1  'x, y, z'
loop_
 _atom_site_type_symbol
 _atom_site_label
 _atom_site_symmetry_multiplicity
 _atom_site_fract_x
 _atom_site_fract_y
 _atom_site_fract_z
 _atom_site_occupancy
  Dy  Dy0  1  0.998636  0.184577  0.091079  1
  Dy  Dy1  1  0.001364  0.815423  0.908921  1
  Dy  Dy2  1  0.501272  0.684494  0.909219  1
  Dy  Dy3  1  0.001331  0.815233  0.590894  1
  Dy  Dy4  1  0.498728  0.315506  0.090781  1
  Dy  Dy5  1  0.998669  0.184767  0.409106  1
  Tm  Tm6  1  0.498573  0.315284  0.409202  1
  Tm  Tm7  1  0.501427  0.684716  0.590798  1
  Tm  Tm8  1  0.335402  0.169147  0.628697  1
  Tm  Tm9  1  0.664598  0.830853  0.371303  1
  Tm  Tm10  1  0.164907  0.668838  0.371299  1
  Tm  Tm11  1  0.664734  0.830939  0.128823  1
  Tm  Tm12  1  0.835093  0.331162  0.628701  1
  Tm  Tm13  1  0.335266  0.169061  0.871177  1
  Tm  Tm14  1  0.835220  0.330966  0.871167  1
  Tm  Tm15  1  0.164780  0.669034  0.128833  1
  Mg  Mg16  1  0.159395  0.505009  0.750044  1
  Mg  Mg17  1  0.840605  0.494991  0.249956  1
  Mg  Mg18  1  0.340595  0.005047  0.249995  1
  Mg  Mg19  1  0.659405  0.994953  0.750005  1
  Sn  Sn20  1  0.022340  0.093635  0.749974  1
  Sn  Sn21  1  0.977660  0.906365  0.250026  1
  Sn  Sn22  1  0.477985  0.593111  0.250268  1
  Sn  Sn23  1  0.522015  0.406889  0.749732  1
  Sn  Sn24  1  0.183531  0.462844  0.538736  1
  Sn  Sn25  1  0.816469  0.537156  0.461264  1
  Sn  Sn26  1  0.318764  0.962458  0.461287  1
  Sn  Sn27  1  0.818233  0.537865  0.038520  1
  Sn  Sn28  1  0.681236  0.037542  0.538713  1
  Sn  Sn29  1  0.181767  0.462135  0.961480  1
  Sn  Sn30  1  0.681906  0.037902  0.961489  1
  Sn  Sn31  1  0.318094  0.962098  0.038511  1
  Sn  Sn32  1  0.303457  0.847584  0.749571  1
  Sn  Sn33  1  0.696543  0.152416  0.250429  1
  Sn  Sn34  1  0.197987  0.348190  0.250203  1
  Sn  Sn35  1  0.802013  0.651810  0.749797  1
