# generated using pymatgen
data_Er10Tl3Fe
_symmetry_space_group_name_H-M   'P 1'
_cell_length_a   9.64463806
_cell_length_b   9.64404952
_cell_length_c   9.61252600
_cell_angle_alpha   90.00000000
_cell_angle_beta   90.00000000
_cell_angle_gamma   120.01480218
_symmetry_Int_Tables_number   1
_chemical_formula_structural   Er10Tl3Fe
_chemical_formula_sum   'Er20 Tl6 Fe2'
_cell_volume   774.19208656
_cell_formula_units_Z   2
loop_
 _symmetry_equiv_pos_site_id
 _symmetry_equiv_pos_as_xyz
  1  'x, y, z'
loop_
 _atom_site_type_symbol
 _atom_site_label
 _atom_site_symmetry_multiplicity
 _atom_site_fract_x
 _atom_site_fract_y
 _atom_site_fract_z
 _atom_site_occupancy
  Er  Er0  1  0.000000  0.000000  0.500000  1
  Er  Er1  1  0.000000  0.000000  0.000000  1
  Er  Er2  1  0.540054  0.459946  0.250000  1
  Er  Er3  1  0.540109  0.080133  0.250000  1
  Er  Er4  1  0.919867  0.459890  0.250000  1
  Er  Er5  1  0.459946  0.540054  0.750000  1
  Er  Er6  1  0.459891  0.919867  0.750000  1
  Er  Er7  1  0.080133  0.540110  0.750000  1
  Er  Er8  1  0.213074  0.786948  0.434345  1
  Er  Er9  1  0.213037  0.426147  0.434365  1
  Er  Er10  1  0.573857  0.786969  0.434363  1
  Er  Er11  1  0.786926  0.213052  0.565655  1
  Er  Er12  1  0.786963  0.573853  0.565635  1
  Er  Er13  1  0.426143  0.213031  0.565637  1
  Er  Er14  1  0.786926  0.213052  0.934345  1
  Er  Er15  1  0.786963  0.573853  0.934365  1
  Er  Er16  1  0.426143  0.213031  0.934363  1
  Er  Er17  1  0.213074  0.786948  0.065655  1
  Er  Er18  1  0.213037  0.426147  0.065635  1
  Er  Er19  1  0.573857  0.786969  0.065637  1
  Tl  Tl20  1  0.881244  0.118771  0.250000  1
  Tl  Tl21  1  0.881197  0.762452  0.250000  1
  Tl  Tl22  1  0.237562  0.118824  0.250000  1
  Tl  Tl23  1  0.118756  0.881229  0.750000  1
  Tl  Tl24  1  0.118803  0.237548  0.750000  1
  Tl  Tl25  1  0.762438  0.881176  0.750000  1
  Fe  Fe26  1  0.333353  0.666624  0.250000  1
  Fe  Fe27  1  0.666647  0.333376  0.750000  1
