# generated using pymatgen
data_Dy2HoTaO7
_symmetry_space_group_name_H-M   'P 1'
_cell_length_a   6.49312135
_cell_length_b   6.49312126
_cell_length_c   7.45078933
_cell_angle_alpha   89.98047788
_cell_angle_beta   89.98048015
_cell_angle_gamma   108.45501622
_symmetry_Int_Tables_number   1
_chemical_formula_structural   Dy2HoTaO7
_chemical_formula_sum   'Dy4 Ho2 Ta2 O14'
_cell_volume   297.97495679
_cell_formula_units_Z   2
loop_
 _symmetry_equiv_pos_site_id
 _symmetry_equiv_pos_as_xyz
  1  'x, y, z'
loop_
 _atom_site_type_symbol
 _atom_site_label
 _atom_site_symmetry_multiplicity
 _atom_site_fract_x
 _atom_site_fract_y
 _atom_site_fract_z
 _atom_site_occupancy
  Dy  Dy0  1  0.460157  0.459689  0.000458  1
  Dy  Dy1  1  0.540311  0.539843  0.499542  1
  Dy  Dy2  1  0.999868  0.464773  0.740959  1
  Dy  Dy3  1  0.535227  0.000132  0.759041  1
  Ho  Ho4  1  0.000393  0.535347  0.240723  1
  Ho  Ho5  1  0.464653  0.999607  0.259277  1
  Ta  Ta6  1  0.002299  0.002434  0.499322  1
  Ta  Ta7  1  0.997566  0.997701  0.000678  1
  O  O8  1  0.932034  0.067966  0.750000  1
  O  O9  1  0.639956  0.360044  0.750000  1
  O  O10  1  0.307096  0.047921  0.544394  1
  O  O11  1  0.952079  0.692904  0.955606  1
  O  O12  1  0.629368  0.370632  0.250000  1
  O  O13  1  0.917233  0.671267  0.523477  1
  O  O14  1  0.328733  0.082767  0.976523  1
  O  O15  1  0.082419  0.328507  0.025165  1
  O  O16  1  0.671493  0.917581  0.474835  1
  O  O17  1  0.371136  0.628864  0.750000  1
  O  O18  1  0.693986  0.954720  0.046736  1
  O  O19  1  0.045280  0.306014  0.453264  1
  O  O20  1  0.358947  0.641053  0.250000  1
  O  O21  1  0.069768  0.930232  0.250000  1
