# generated using pymatgen
data_Zr6V5Os4W3
_symmetry_space_group_name_H-M   'P 1'
_cell_length_a   5.24934539
_cell_length_b   5.35454840
_cell_length_c   12.83178873
_cell_angle_alpha   89.98324620
_cell_angle_beta   89.90449150
_cell_angle_gamma   120.62589409
_symmetry_Int_Tables_number   1
_chemical_formula_structural   Zr6V5Os4W3
_chemical_formula_sum   'Zr6 V5 Os4 W3'
_cell_volume   310.36381748
_cell_formula_units_Z   1
loop_
 _symmetry_equiv_pos_site_id
 _symmetry_equiv_pos_as_xyz
  1  'x, y, z'
loop_
 _atom_site_type_symbol
 _atom_site_label
 _atom_site_symmetry_multiplicity
 _atom_site_fract_x
 _atom_site_fract_y
 _atom_site_fract_z
 _atom_site_occupancy
  Zr  Zr0  1  0.334686  0.664522  0.919654  1
  Zr  Zr1  1  0.005454  0.003192  0.246469  1
  Zr  Zr2  1  0.668732  0.332919  0.582490  1
  Zr  Zr3  1  0.331268  0.667081  0.667510  1
  Zr  Zr4  1  0.994546  0.996808  0.003530  1
  Zr  Zr5  1  0.665314  0.335478  0.330346  1
  V  V6  1  0.335571  0.670115  0.287082  1
  V  V7  1  0.664429  0.329885  0.962918  1
  V  V8  1  0.000000  0.500000  0.125000  1
  V  V9  1  0.665516  0.833494  0.454656  1
  V  V10  1  0.334484  0.166506  0.795344  1
  Os  Os11  1  0.500000  0.500000  0.125000  1
  Os  Os12  1  0.169093  0.832543  0.453982  1
  Os  Os13  1  0.830907  0.167457  0.796018  1
  Os  Os14  1  0.500000  0.000000  0.125000  1
  W  W15  1  0.167814  0.335649  0.454513  1
  W  W16  1  0.832186  0.664351  0.795487  1
  W  W17  1  0.000000  0.000000  0.625000  1
