# generated using pymatgen
data_CaTh7(Si3Ru)4
_symmetry_space_group_name_H-M   'P 1'
_cell_length_a   8.29764700
_cell_length_b   8.29764753
_cell_length_c   8.26362700
_cell_angle_alpha   90.00000000
_cell_angle_beta   90.00000000
_cell_angle_gamma   119.99999388
_symmetry_Int_Tables_number   1
_chemical_formula_structural   CaTh7(Si3Ru)4
_chemical_formula_sum   'Ca1 Th7 Si12 Ru4'
_cell_volume   492.73260643
_cell_formula_units_Z   1
loop_
 _symmetry_equiv_pos_site_id
 _symmetry_equiv_pos_as_xyz
  1  'x, y, z'
loop_
 _atom_site_type_symbol
 _atom_site_label
 _atom_site_symmetry_multiplicity
 _atom_site_fract_x
 _atom_site_fract_y
 _atom_site_fract_z
 _atom_site_occupancy
  Ca  Ca0  1  0.000000  0.000000  0.250000  1
  Th  Th1  1  0.499581  0.500419  0.750000  1
  Th  Th2  1  0.500388  0.499612  0.250000  1
  Th  Th3  1  0.000837  0.500419  0.750000  1
  Th  Th4  1  0.999224  0.499612  0.250000  1
  Th  Th5  1  0.499581  0.999163  0.750000  1
  Th  Th6  1  0.500388  0.000776  0.250000  1
  Th  Th7  1  0.000000  0.000000  0.750000  1
  Si  Si8  1  0.833942  0.166058  0.998165  1
  Si  Si9  1  0.166094  0.833906  0.998297  1
  Si  Si10  1  0.332116  0.166058  0.998165  1
  Si  Si11  1  0.166094  0.833906  0.501703  1
  Si  Si12  1  0.667812  0.833906  0.998297  1
  Si  Si13  1  0.833942  0.166058  0.501835  1
  Si  Si14  1  0.833942  0.667884  0.998165  1
  Si  Si15  1  0.667812  0.833906  0.501703  1
  Si  Si16  1  0.166094  0.332188  0.998297  1
  Si  Si17  1  0.332116  0.166058  0.501835  1
  Si  Si18  1  0.166094  0.332188  0.501703  1
  Si  Si19  1  0.833942  0.667884  0.501835  1
  Ru  Ru20  1  0.666667  0.333333  0.006870  1
  Ru  Ru21  1  0.333333  0.666667  0.008170  1
  Ru  Ru22  1  0.333333  0.666667  0.491830  1
  Ru  Ru23  1  0.666667  0.333333  0.493130  1
