# generated using pymatgen
data_HoHf(Mn2P)4
_symmetry_space_group_name_H-M   'P 1'
_cell_length_a   6.96744452
_cell_length_b   6.96744396
_cell_length_c   3.69616800
_cell_angle_alpha   90.00000000
_cell_angle_beta   90.00000000
_cell_angle_gamma   90.81017419
_symmetry_Int_Tables_number   1
_chemical_formula_structural   HoHf(Mn2P)4
_chemical_formula_sum   'Ho1 Hf1 Mn8 P4'
_cell_volume   179.41356970
_cell_formula_units_Z   1
loop_
 _symmetry_equiv_pos_site_id
 _symmetry_equiv_pos_as_xyz
  1  'x, y, z'
loop_
 _atom_site_type_symbol
 _atom_site_label
 _atom_site_symmetry_multiplicity
 _atom_site_fract_x
 _atom_site_fract_y
 _atom_site_fract_z
 _atom_site_occupancy
  Ho  Ho0  1  0.000000  0.000000  0.500000  1
  Hf  Hf1  1  0.500000  0.500000  0.000000  1
  Mn  Mn2  1  0.582222  0.159347  0.500000  1
  Mn  Mn3  1  0.417778  0.840653  0.500000  1
  Mn  Mn4  1  0.088730  0.349194  0.000000  1
  Mn  Mn5  1  0.911270  0.650806  0.000000  1
  Mn  Mn6  1  0.159347  0.582222  0.500000  1
  Mn  Mn7  1  0.840653  0.417778  0.500000  1
  Mn  Mn8  1  0.349194  0.088730  0.000000  1
  Mn  Mn9  1  0.650806  0.911270  0.000000  1
  P  P10  1  0.711185  0.711185  0.500000  1
  P  P11  1  0.288815  0.288815  0.500000  1
  P  P12  1  0.219533  0.780467  0.000000  1
  P  P13  1  0.780467  0.219533  0.000000  1
