# generated using pymatgen
data_Y5Ho3(PS)8
_symmetry_space_group_name_H-M   'P 1'
_cell_length_a   5.30011400
_cell_length_b   5.35558992
_cell_length_c   16.69576000
_cell_angle_alpha   89.92233022
_cell_angle_beta   90.00000000
_cell_angle_gamma   90.00000000
_symmetry_Int_Tables_number   1
_chemical_formula_structural   Y5Ho3(PS)8
_chemical_formula_sum   'Y5 Ho3 P8 S8'
_cell_volume   473.91267102
_cell_formula_units_Z   1
loop_
 _symmetry_equiv_pos_site_id
 _symmetry_equiv_pos_as_xyz
  1  'x, y, z'
loop_
 _atom_site_type_symbol
 _atom_site_label
 _atom_site_symmetry_multiplicity
 _atom_site_fract_x
 _atom_site_fract_y
 _atom_site_fract_z
 _atom_site_occupancy
  Y  Y0  1  0.250000  0.484165  0.362121  1
  Y  Y1  1  0.250000  0.984494  0.137381  1
  Y  Y2  1  0.750000  0.515967  0.637631  1
  Y  Y3  1  0.750000  0.015611  0.863110  1
  Y  Y4  1  0.250000  0.014716  0.645827  1
  Ho  Ho5  1  0.250000  0.514303  0.854256  1
  Ho  Ho6  1  0.750000  0.985550  0.353413  1
  Ho  Ho7  1  0.750000  0.485813  0.146116  1
  P  P8  1  0.034819  0.294364  0.997482  1
  P  P9  1  0.465405  0.793688  0.501960  1
  P  P10  1  0.534840  0.705717  0.002927  1
  P  P11  1  0.964958  0.205397  0.496679  1
  P  P12  1  0.965160  0.705717  0.002927  1
  P  P13  1  0.535042  0.205397  0.496679  1
  P  P14  1  0.465181  0.294364  0.997482  1
  P  P15  1  0.034595  0.793688  0.501960  1
  S  S16  1  0.250000  0.485047  0.188451  1
  S  S17  1  0.250000  0.984991  0.311249  1
  S  S18  1  0.750000  0.515047  0.811696  1
  S  S19  1  0.750000  0.015298  0.689052  1
  S  S20  1  0.250000  0.010743  0.816474  1
  S  S21  1  0.250000  0.511386  0.685425  1
  S  S22  1  0.750000  0.989320  0.184730  1
  S  S23  1  0.750000  0.489219  0.314973  1
