# generated using pymatgen
data_Ho3P6Ir8W
_symmetry_space_group_name_H-M   'P 1'
_cell_length_a   3.98453500
_cell_length_b   11.13650600
_cell_length_c   12.80654800
_cell_angle_alpha   90.00000000
_cell_angle_beta   90.00000000
_cell_angle_gamma   90.00000000
_symmetry_Int_Tables_number   1
_chemical_formula_structural   Ho3P6Ir8W
_chemical_formula_sum   'Ho6 P12 Ir16 W2'
_cell_volume   568.27517319
_cell_formula_units_Z   2
loop_
 _symmetry_equiv_pos_site_id
 _symmetry_equiv_pos_as_xyz
  1  'x, y, z'
loop_
 _atom_site_type_symbol
 _atom_site_label
 _atom_site_symmetry_multiplicity
 _atom_site_fract_x
 _atom_site_fract_y
 _atom_site_fract_z
 _atom_site_occupancy
  Ho  Ho0  1  0.000000  0.500000  0.523420  1
  Ho  Ho1  1  0.500000  0.000000  0.476580  1
  Ho  Ho2  1  0.500000  0.818101  0.203303  1
  Ho  Ho3  1  0.500000  0.181899  0.203303  1
  Ho  Ho4  1  0.000000  0.681899  0.796697  1
  Ho  Ho5  1  0.000000  0.318101  0.796697  1
  P  P6  1  0.500000  0.314425  0.617877  1
  P  P7  1  0.500000  0.685575  0.617877  1
  P  P8  1  0.000000  0.185575  0.382123  1
  P  P9  1  0.000000  0.814425  0.382123  1
  P  P10  1  0.500000  0.500000  0.873510  1
  P  P11  1  0.000000  0.000000  0.126490  1
  P  P12  1  0.500000  0.844945  0.886414  1
  P  P13  1  0.500000  0.155055  0.886414  1
  P  P14  1  0.000000  0.655055  0.113586  1
  P  P15  1  0.000000  0.344945  0.113586  1
  P  P16  1  0.500000  0.500000  0.348204  1
  P  P17  1  0.000000  0.000000  0.651796  1
  Ir  Ir18  1  0.000000  0.500000  0.994756  1
  Ir  Ir19  1  0.500000  0.000000  0.005244  1
  Ir  Ir20  1  0.500000  0.297516  0.431770  1
  Ir  Ir21  1  0.500000  0.702484  0.431770  1
  Ir  Ir22  1  0.000000  0.202484  0.568230  1
  Ir  Ir23  1  0.000000  0.797516  0.568230  1
  Ir  Ir24  1  0.500000  0.872152  0.711183  1
  Ir  Ir25  1  0.500000  0.127848  0.711183  1
  Ir  Ir26  1  0.000000  0.627848  0.288817  1
  Ir  Ir27  1  0.000000  0.372152  0.288817  1
  Ir  Ir28  1  0.500000  0.331797  0.980675  1
  Ir  Ir29  1  0.500000  0.668203  0.980675  1
  Ir  Ir30  1  0.000000  0.168203  0.019325  1
  Ir  Ir31  1  0.000000  0.831797  0.019325  1
  Ir  Ir32  1  0.500000  0.500000  0.696578  1
  Ir  Ir33  1  0.000000  0.000000  0.303422  1
  W  W34  1  0.500000  0.500000  0.159732  1
  W  W35  1  0.000000  0.000000  0.840268  1
