# generated using pymatgen
data_Y7Ho3Cd3Os
_symmetry_space_group_name_H-M   'P 1'
_cell_length_a   9.62362803
_cell_length_b   9.62362735
_cell_length_c   9.88613900
_cell_angle_alpha   90.00070079
_cell_angle_beta   89.99930102
_cell_angle_gamma   119.99129854
_symmetry_Int_Tables_number   1
_chemical_formula_structural   Y7Ho3Cd3Os
_chemical_formula_sum   'Y14 Ho6 Cd6 Os2'
_cell_volume   792.99973632
_cell_formula_units_Z   2
loop_
 _symmetry_equiv_pos_site_id
 _symmetry_equiv_pos_as_xyz
  1  'x, y, z'
loop_
 _atom_site_type_symbol
 _atom_site_label
 _atom_site_symmetry_multiplicity
 _atom_site_fract_x
 _atom_site_fract_y
 _atom_site_fract_z
 _atom_site_occupancy
  Y  Y0  1  0.000000  0.000000  0.500000  1
  Y  Y1  1  0.000000  0.000000  0.000000  1
  Y  Y2  1  0.790448  0.209552  0.940350  1
  Y  Y3  1  0.790427  0.580881  0.940388  1
  Y  Y4  1  0.419119  0.209573  0.940388  1
  Y  Y5  1  0.209552  0.790448  0.059650  1
  Y  Y6  1  0.209573  0.419119  0.059612  1
  Y  Y7  1  0.580881  0.790427  0.059612  1
  Y  Y8  1  0.540091  0.459909  0.250816  1
  Y  Y9  1  0.540072  0.080187  0.250823  1
  Y  Y10  1  0.919813  0.459928  0.250823  1
  Y  Y11  1  0.459909  0.540091  0.749184  1
  Y  Y12  1  0.459928  0.919813  0.749177  1
  Y  Y13  1  0.080187  0.540072  0.749177  1
  Ho  Ho14  1  0.210022  0.789978  0.440479  1
  Ho  Ho15  1  0.210033  0.420050  0.440503  1
  Ho  Ho16  1  0.579950  0.789967  0.440503  1
  Ho  Ho17  1  0.789978  0.210022  0.559521  1
  Ho  Ho18  1  0.789967  0.579950  0.559497  1
  Ho  Ho19  1  0.420050  0.210033  0.559497  1
  Cd  Cd20  1  0.885436  0.114564  0.250059  1
  Cd  Cd21  1  0.885422  0.770857  0.250056  1
  Cd  Cd22  1  0.229143  0.114578  0.250056  1
  Cd  Cd23  1  0.114564  0.885436  0.749941  1
  Cd  Cd24  1  0.114578  0.229143  0.749944  1
  Cd  Cd25  1  0.770857  0.885422  0.749944  1
  Os  Os26  1  0.333307  0.666693  0.251907  1
  Os  Os27  1  0.666693  0.333307  0.748093  1
