# generated using pymatgen
data_Tb4Ho4Lu4Co5Sb
_symmetry_space_group_name_H-M   'P 1'
_cell_length_a   8.22708520
_cell_length_b   8.22708503
_cell_length_c   8.22708460
_cell_angle_alpha   111.20463251
_cell_angle_beta   110.45348437
_cell_angle_gamma   106.78931444
_symmetry_Int_Tables_number   1
_chemical_formula_structural   Tb4Ho4Lu4Co5Sb
_chemical_formula_sum   'Tb4 Ho4 Lu4 Co5 Sb1'
_cell_volume   427.94346067
_cell_formula_units_Z   1
loop_
 _symmetry_equiv_pos_site_id
 _symmetry_equiv_pos_as_xyz
  1  'x, y, z'
loop_
 _atom_site_type_symbol
 _atom_site_label
 _atom_site_symmetry_multiplicity
 _atom_site_fract_x
 _atom_site_fract_y
 _atom_site_fract_z
 _atom_site_occupancy
  Tb  Tb0  1  0.596313  0.790857  0.805457  1
  Tb  Tb1  1  0.403687  0.209143  0.194543  1
  Tb  Tb2  1  0.985401  0.790857  0.194543  1
  Tb  Tb3  1  0.014599  0.209143  0.805457  1
  Ho  Ho4  1  0.816012  0.709783  0.525795  1
  Ho  Ho5  1  0.183988  0.290217  0.474205  1
  Ho  Ho6  1  0.183988  0.709783  0.893771  1
  Ho  Ho7  1  0.816012  0.290217  0.106229  1
  Lu  Lu8  1  0.685944  0.375746  0.689802  1
  Lu  Lu9  1  0.314056  0.624254  0.310198  1
  Lu  Lu10  1  0.685944  0.996143  0.310198  1
  Lu  Lu11  1  0.314056  0.003857  0.689802  1
  Co  Co12  1  0.623028  0.000000  0.623028  1
  Co  Co13  1  0.376972  0.000000  0.376972  1
  Co  Co14  1  0.112645  0.612645  0.500000  1
  Co  Co15  1  0.887355  0.387355  0.500000  1
  Co  Co16  1  0.000000  0.000000  0.000000  1
  Sb  Sb17  1  0.500000  0.500000  0.000000  1
