# generated using pymatgen
data_Tm7Co2Sn23Ir4
_symmetry_space_group_name_H-M   'P 1'
_cell_length_a   9.76978838
_cell_length_b   9.80177958
_cell_length_c   10.01960032
_cell_angle_alpha   89.99999911
_cell_angle_beta   89.89771886
_cell_angle_gamma   120.10837756
_symmetry_Int_Tables_number   1
_chemical_formula_structural   Tm7Co2Sn23Ir4
_chemical_formula_sum   'Tm7 Co2 Sn23 Ir4'
_cell_volume   830.03206723
_cell_formula_units_Z   1
loop_
 _symmetry_equiv_pos_site_id
 _symmetry_equiv_pos_as_xyz
  1  'x, y, z'
loop_
 _atom_site_type_symbol
 _atom_site_label
 _atom_site_symmetry_multiplicity
 _atom_site_fract_x
 _atom_site_fract_y
 _atom_site_fract_z
 _atom_site_occupancy
  Tm  Tm0  1  0.481408  0.520592  0.309079  1
  Tm  Tm1  1  0.518592  0.479408  0.690921  1
  Tm  Tm2  1  0.481408  0.960817  0.309079  1
  Tm  Tm3  1  0.518592  0.039183  0.690921  1
  Tm  Tm4  1  0.038931  0.519466  0.307668  1
  Tm  Tm5  1  0.961069  0.480534  0.692332  1
  Tm  Tm6  1  0.000000  0.000000  0.000000  1
  Co  Co7  1  0.337988  0.168994  0.198975  1
  Co  Co8  1  0.662012  0.831006  0.801025  1
  Sn  Sn9  1  0.123810  0.887598  0.277843  1
  Sn  Sn10  1  0.876190  0.112402  0.722157  1
  Sn  Sn11  1  0.123810  0.236213  0.277843  1
  Sn  Sn12  1  0.876190  0.763787  0.722157  1
  Sn  Sn13  1  0.759257  0.879629  0.284092  1
  Sn  Sn14  1  0.240743  0.120371  0.715908  1
  Sn  Sn15  1  0.780434  0.220904  0.459198  1
  Sn  Sn16  1  0.219566  0.779096  0.540802  1
  Sn  Sn17  1  0.780434  0.559530  0.459198  1
  Sn  Sn18  1  0.219566  0.440470  0.540802  1
  Sn  Sn19  1  0.437949  0.218974  0.452488  1
  Sn  Sn20  1  0.562051  0.781026  0.547512  1
  Sn  Sn21  1  0.352849  0.005338  0.005181  1
  Sn  Sn22  1  0.647151  0.994662  0.994819  1
  Sn  Sn23  1  0.000000  0.353288  0.000000  1
  Sn  Sn24  1  0.000000  0.646712  0.000000  1
  Sn  Sn25  1  0.647151  0.652489  0.994819  1
  Sn  Sn26  1  0.352849  0.347511  0.005181  1
  Sn  Sn27  1  0.335273  0.667637  0.120889  1
  Sn  Sn28  1  0.664727  0.332363  0.879111  1
  Sn  Sn29  1  0.339675  0.669838  0.824100  1
  Sn  Sn30  1  0.660325  0.330162  0.175900  1
  Sn  Sn31  1  0.000000  0.000000  0.500000  1
  Ir  Ir32  1  0.829739  0.168232  0.198779  1
  Ir  Ir33  1  0.170261  0.831768  0.801221  1
  Ir  Ir34  1  0.829739  0.661507  0.198779  1
  Ir  Ir35  1  0.170261  0.338493  0.801221  1
