# generated using pymatgen
data_Ho5Er2TmTi4O20
_symmetry_space_group_name_H-M   'P 1'
_cell_length_a   3.67993700
_cell_length_b   10.38501265
_cell_length_c   11.26524703
_cell_angle_alpha   90.01590164
_cell_angle_beta   90.00000000
_cell_angle_gamma   90.00000000
_symmetry_Int_Tables_number   1
_chemical_formula_structural   Ho5Er2TmTi4O20
_chemical_formula_sum   'Ho5 Er2 Tm1 Ti4 O20'
_cell_volume   430.51483052
_cell_formula_units_Z   1
loop_
 _symmetry_equiv_pos_site_id
 _symmetry_equiv_pos_as_xyz
  1  'x, y, z'
loop_
 _atom_site_type_symbol
 _atom_site_label
 _atom_site_symmetry_multiplicity
 _atom_site_fract_x
 _atom_site_fract_y
 _atom_site_fract_z
 _atom_site_occupancy
  Ho  Ho0  1  0.250000  0.114568  0.276277  1
  Ho  Ho1  1  0.250000  0.134967  0.942414  1
  Ho  Ho2  1  0.750000  0.364024  0.443606  1
  Ho  Ho3  1  0.250000  0.615082  0.223383  1
  Ho  Ho4  1  0.250000  0.636040  0.557608  1
  Er  Er5  1  0.750000  0.384784  0.776267  1
  Er  Er6  1  0.750000  0.863895  0.056078  1
  Tm  Tm7  1  0.750000  0.884310  0.724057  1
  Ti  Ti8  1  0.250000  0.174572  0.619739  1
  Ti  Ti9  1  0.750000  0.324704  0.119023  1
  Ti  Ti10  1  0.250000  0.675670  0.880373  1
  Ti  Ti11  1  0.750000  0.824913  0.380973  1
  O  O12  1  0.750000  0.006294  0.893927  1
  O  O13  1  0.250000  0.007051  0.657148  1
  O  O14  1  0.250000  0.222824  0.456444  1
  O  O15  1  0.750000  0.240484  0.616835  1
  O  O16  1  0.750000  0.242391  0.271507  1
  O  O17  1  0.250000  0.258492  0.771497  1
  O  O18  1  0.250000  0.259082  0.116004  1
  O  O19  1  0.750000  0.276784  0.955488  1
  O  O20  1  0.750000  0.492159  0.155701  1
  O  O21  1  0.250000  0.492585  0.395186  1
  O  O22  1  0.750000  0.507505  0.605826  1
  O  O23  1  0.250000  0.507979  0.843489  1
  O  O24  1  0.250000  0.723935  0.043422  1
  O  O25  1  0.750000  0.741288  0.883124  1
  O  O26  1  0.750000  0.743168  0.227999  1
  O  O27  1  0.250000  0.759612  0.728750  1
  O  O28  1  0.250000  0.759200  0.384062  1
  O  O29  1  0.750000  0.777903  0.544972  1
  O  O30  1  0.750000  0.992125  0.344383  1
  O  O31  1  0.250000  0.991611  0.104442  1
