# generated using pymatgen
data_Ca6Pr3NdPb8
_symmetry_space_group_name_H-M   'P 1'
_cell_length_a   8.11105900
_cell_length_b   8.71273204
_cell_length_c   16.35239007
_cell_angle_alpha   90.01082903
_cell_angle_beta   90.00000000
_cell_angle_gamma   90.00000000
_symmetry_Int_Tables_number   1
_chemical_formula_structural   Ca6Pr3NdPb8
_chemical_formula_sum   'Ca12 Pr6 Nd2 Pb16'
_cell_volume   1155.61494175
_cell_formula_units_Z   2
loop_
 _symmetry_equiv_pos_site_id
 _symmetry_equiv_pos_as_xyz
  1  'x, y, z'
loop_
 _atom_site_type_symbol
 _atom_site_label
 _atom_site_symmetry_multiplicity
 _atom_site_fract_x
 _atom_site_fract_y
 _atom_site_fract_z
 _atom_site_occupancy
  Ca  Ca0  1  0.671780  0.165867  0.622929  1
  Ca  Ca1  1  0.171780  0.334133  0.877071  1
  Ca  Ca2  1  0.328288  0.834073  0.122892  1
  Ca  Ca3  1  0.828288  0.665927  0.377108  1
  Ca  Ca4  1  0.328220  0.834057  0.377104  1
  Ca  Ca5  1  0.828220  0.665943  0.122896  1
  Ca  Ca6  1  0.671756  0.165916  0.877086  1
  Ca  Ca7  1  0.171756  0.334084  0.622914  1
  Ca  Ca8  1  0.842061  0.497815  0.750017  1
  Ca  Ca9  1  0.342061  0.002185  0.749983  1
  Ca  Ca10  1  0.157915  0.502285  0.249992  1
  Ca  Ca11  1  0.657915  0.997715  0.250008  1
  Pr  Pr12  1  0.505783  0.688032  0.594961  1
  Pr  Pr13  1  0.005783  0.811968  0.905039  1
  Pr  Pr14  1  0.494238  0.312058  0.094910  1
  Pr  Pr15  1  0.994238  0.187942  0.405090  1
  Pr  Pr16  1  0.494192  0.312064  0.405069  1
  Pr  Pr17  1  0.994192  0.187936  0.094931  1
  Nd  Nd18  1  0.505858  0.688072  0.904960  1
  Nd  Nd19  1  0.005858  0.811928  0.595040  1
  Pb  Pb20  1  0.676273  0.963618  0.459144  1
  Pb  Pb21  1  0.176273  0.536382  0.040856  1
  Pb  Pb22  1  0.323930  0.036201  0.959075  1
  Pb  Pb23  1  0.823930  0.463799  0.540925  1
  Pb  Pb24  1  0.323629  0.036205  0.540957  1
  Pb  Pb25  1  0.823629  0.463795  0.959043  1
  Pb  Pb26  1  0.676105  0.963568  0.040835  1
  Pb  Pb27  1  0.176105  0.536432  0.459165  1
  Pb  Pb28  1  0.474816  0.397314  0.750039  1
  Pb  Pb29  1  0.974816  0.102686  0.749961  1
  Pb  Pb30  1  0.525179  0.602759  0.249990  1
  Pb  Pb31  1  0.025179  0.897241  0.250010  1
  Pb  Pb32  1  0.709455  0.850833  0.750021  1
  Pb  Pb33  1  0.209455  0.649167  0.749979  1
  Pb  Pb34  1  0.290521  0.149035  0.250004  1
  Pb  Pb35  1  0.790521  0.350965  0.249996  1
