# generated using pymatgen
data_Pr3Cd3CuIrAu
_symmetry_space_group_name_H-M   'P 1'
_cell_length_a   7.96550300
_cell_length_b   7.96550193
_cell_length_c   3.91253800
_cell_angle_alpha   90.00000000
_cell_angle_beta   90.00000000
_cell_angle_gamma   120.00000031
_symmetry_Int_Tables_number   1
_chemical_formula_structural   Pr3Cd3CuIrAu
_chemical_formula_sum   'Pr3 Cd3 Cu1 Ir1 Au1'
_cell_volume   214.98865932
_cell_formula_units_Z   1
loop_
 _symmetry_equiv_pos_site_id
 _symmetry_equiv_pos_as_xyz
  1  'x, y, z'
loop_
 _atom_site_type_symbol
 _atom_site_label
 _atom_site_symmetry_multiplicity
 _atom_site_fract_x
 _atom_site_fract_y
 _atom_site_fract_z
 _atom_site_occupancy
  Pr  Pr0  1  0.403036  0.978876  0.500000  1
  Pr  Pr1  1  0.021124  0.424161  0.500000  1
  Pr  Pr2  1  0.575839  0.596964  0.500000  1
  Cd  Cd3  1  0.756734  0.001053  0.000000  1
  Cd  Cd4  1  0.998947  0.755681  0.000000  1
  Cd  Cd5  1  0.244319  0.243266  0.000000  1
  Cu  Cu6  1  0.000000  0.000000  0.500000  1
  Ir  Ir7  1  0.333333  0.666667  0.000000  1
  Au  Au8  1  0.666667  0.333333  0.000000  1
