# generated using pymatgen
data_PrTh(Al5Os)4
_symmetry_space_group_name_H-M   'P 1'
_cell_length_a   6.88440600
_cell_length_b   6.88440416
_cell_length_c   9.18813500
_cell_angle_alpha   90.00000000
_cell_angle_beta   90.00000000
_cell_angle_gamma   96.87993464
_symmetry_Int_Tables_number   1
_chemical_formula_structural   PrTh(Al5Os)4
_chemical_formula_sum   'Pr1 Th1 Al20 Os4'
_cell_volume   432.33628471
_cell_formula_units_Z   1
loop_
 _symmetry_equiv_pos_site_id
 _symmetry_equiv_pos_as_xyz
  1  'x, y, z'
loop_
 _atom_site_type_symbol
 _atom_site_label
 _atom_site_symmetry_multiplicity
 _atom_site_fract_x
 _atom_site_fract_y
 _atom_site_fract_z
 _atom_site_occupancy
  Pr  Pr0  1  0.372368  0.627632  0.250000  1
  Th  Th1  1  0.627727  0.372273  0.750000  1
  Al  Al2  1  0.279966  0.015912  0.750000  1
  Al  Al3  1  0.016220  0.280905  0.250000  1
  Al  Al4  1  0.719095  0.983780  0.250000  1
  Al  Al5  1  0.984088  0.720034  0.750000  1
  Al  Al6  1  0.878491  0.121509  0.949738  1
  Al  Al7  1  0.123068  0.876932  0.047230  1
  Al  Al8  1  0.878491  0.121509  0.550262  1
  Al  Al9  1  0.123068  0.876932  0.452770  1
  Al  Al10  1  0.643559  0.909535  0.750000  1
  Al  Al11  1  0.913884  0.645420  0.250000  1
  Al  Al12  1  0.354580  0.086116  0.250000  1
  Al  Al13  1  0.090465  0.356441  0.750000  1
  Al  Al14  1  0.341116  0.658884  0.897572  1
  Al  Al15  1  0.660839  0.339161  0.103861  1
  Al  Al16  1  0.341116  0.658884  0.602428  1
  Al  Al17  1  0.660839  0.339161  0.396139  1
  Al  Al18  1  0.724735  0.726682  0.000709  1
  Al  Al19  1  0.724735  0.726682  0.499291  1
  Al  Al20  1  0.273318  0.275265  0.000709  1
  Al  Al21  1  0.273318  0.275265  0.499291  1
  Os  Os22  1  0.500469  0.003011  0.998445  1
  Os  Os23  1  0.996989  0.499531  0.998445  1
  Os  Os24  1  0.500469  0.003011  0.501555  1
  Os  Os25  1  0.996989  0.499531  0.501555  1
