# generated using pymatgen
data_NdTl(PS3)2
_symmetry_space_group_name_H-M   'P 1'
_cell_length_a   12.06204352
_cell_length_b   7.60780700
_cell_length_c   11.42567900
_cell_angle_alpha   90.00000000
_cell_angle_beta   109.72016429
_cell_angle_gamma   90.00000000
_symmetry_Int_Tables_number   1
_chemical_formula_structural   NdTl(PS3)2
_chemical_formula_sum   'Nd4 Tl4 P8 S24'
_cell_volume   986.99369269
_cell_formula_units_Z   4
loop_
 _symmetry_equiv_pos_site_id
 _symmetry_equiv_pos_as_xyz
  1  'x, y, z'
loop_
 _atom_site_type_symbol
 _atom_site_label
 _atom_site_symmetry_multiplicity
 _atom_site_fract_x
 _atom_site_fract_y
 _atom_site_fract_z
 _atom_site_occupancy
  Nd  Nd0  1  0.352193  0.892722  0.095901  1
  Nd  Nd1  1  0.647807  0.392722  0.404100  1
  Nd  Nd2  1  0.352193  0.607278  0.595900  1
  Nd  Nd3  1  0.647807  0.107277  0.904099  1
  Tl  Tl4  1  0.870173  0.595273  0.125598  1
  Tl  Tl5  1  0.129827  0.095274  0.374401  1
  Tl  Tl6  1  0.870173  0.904727  0.625599  1
  Tl  Tl7  1  0.129827  0.404726  0.874402  1
  P  P8  1  0.788382  0.119141  0.232333  1
  P  P9  1  0.669502  0.899935  0.245798  1
  P  P10  1  0.330498  0.399934  0.254202  1
  P  P11  1  0.211618  0.619141  0.267667  1
  P  P12  1  0.788383  0.380860  0.732333  1
  P  P13  1  0.669502  0.600065  0.745798  1
  P  P14  1  0.330498  0.100065  0.754202  1
  P  P15  1  0.211618  0.880859  0.767667  1
  S  S16  1  0.588093  0.817633  0.067052  1
  S  S17  1  0.133079  0.706680  0.091630  1
  S  S18  1  0.882639  0.024534  0.130991  1
  S  S19  1  0.672785  0.305176  0.135646  1
  S  S20  1  0.227785  0.211132  0.143651  1
  S  S21  1  0.448360  0.520023  0.186033  1
  S  S22  1  0.551639  0.020024  0.313967  1
  S  S23  1  0.772215  0.711133  0.356348  1
  S  S24  1  0.327215  0.805175  0.364354  1
  S  S25  1  0.117362  0.524533  0.369010  1
  S  S26  1  0.866920  0.206680  0.408370  1
  S  S27  1  0.411908  0.317634  0.432948  1
  S  S28  1  0.588093  0.682367  0.567052  1
  S  S29  1  0.133080  0.793320  0.591630  1
  S  S30  1  0.882639  0.475467  0.630990  1
  S  S31  1  0.672785  0.194825  0.635646  1
  S  S32  1  0.227786  0.288868  0.643652  1
  S  S33  1  0.448361  0.979977  0.686033  1
  S  S34  1  0.551639  0.479976  0.813967  1
  S  S35  1  0.772214  0.788867  0.856349  1
  S  S36  1  0.327215  0.694824  0.864354  1
  S  S37  1  0.117362  0.975467  0.869009  1
  S  S38  1  0.866920  0.293319  0.908370  1
  S  S39  1  0.411907  0.182367  0.932948  1
