# generated using pymatgen
data_Tb8Ho4Co3Si8Ni
_symmetry_space_group_name_H-M   'P 1'
_cell_length_a   4.11062900
_cell_length_b   11.13822459
_cell_length_c   11.36219302
_cell_angle_alpha   90.07913986
_cell_angle_beta   90.00000000
_cell_angle_gamma   90.00000000
_symmetry_Int_Tables_number   1
_chemical_formula_structural   Tb8Ho4Co3Si8Ni
_chemical_formula_sum   'Tb8 Ho4 Co3 Si8 Ni1'
_cell_volume   520.21874959
_cell_formula_units_Z   1
loop_
 _symmetry_equiv_pos_site_id
 _symmetry_equiv_pos_as_xyz
  1  'x, y, z'
loop_
 _atom_site_type_symbol
 _atom_site_label
 _atom_site_symmetry_multiplicity
 _atom_site_fract_x
 _atom_site_fract_y
 _atom_site_fract_z
 _atom_site_occupancy
  Tb  Tb0  1  0.250000  0.125645  0.557297  1
  Tb  Tb1  1  0.250000  0.372678  0.057467  1
  Tb  Tb2  1  0.750000  0.873495  0.442117  1
  Tb  Tb3  1  0.750000  0.623931  0.943722  1
  Tb  Tb4  1  0.250000  0.802912  0.715094  1
  Tb  Tb5  1  0.250000  0.699056  0.218181  1
  Tb  Tb6  1  0.750000  0.199979  0.281924  1
  Tb  Tb7  1  0.750000  0.300795  0.782323  1
  Ho  Ho8  1  0.250000  0.059567  0.882172  1
  Ho  Ho9  1  0.250000  0.441460  0.382739  1
  Ho  Ho10  1  0.750000  0.942427  0.118056  1
  Ho  Ho11  1  0.750000  0.558313  0.618452  1
  Co  Co12  1  0.250000  0.364736  0.629497  1
  Co  Co13  1  0.250000  0.134417  0.129233  1
  Co  Co14  1  0.750000  0.634065  0.371106  1
  Si  Si15  1  0.250000  0.816278  0.974881  1
  Si  Si16  1  0.250000  0.682792  0.475379  1
  Si  Si17  1  0.750000  0.182211  0.024419  1
  Si  Si18  1  0.750000  0.317593  0.525325  1
  Si  Si19  1  0.250000  0.496198  0.800310  1
  Si  Si20  1  0.250000  0.004513  0.300196  1
  Si  Si21  1  0.750000  0.503749  0.199814  1
  Si  Si22  1  0.750000  0.996926  0.698549  1
  Ni  Ni23  1  0.750000  0.866268  0.871745  1
