# generated using pymatgen
data_Ho12Os2PtRh
_symmetry_space_group_name_H-M   'P 1'
_cell_length_a   6.39548479
_cell_length_b   7.28124567
_cell_length_c   9.12081800
_cell_angle_alpha   90.00000000
_cell_angle_beta   90.00000000
_cell_angle_gamma   90.29322422
_symmetry_Int_Tables_number   1
_chemical_formula_structural   Ho12Os2PtRh
_chemical_formula_sum   'Ho12 Os2 Pt1 Rh1'
_cell_volume   424.72444471
_cell_formula_units_Z   1
loop_
 _symmetry_equiv_pos_site_id
 _symmetry_equiv_pos_as_xyz
  1  'x, y, z'
loop_
 _atom_site_type_symbol
 _atom_site_label
 _atom_site_symmetry_multiplicity
 _atom_site_fract_x
 _atom_site_fract_y
 _atom_site_fract_z
 _atom_site_occupancy
  Ho  Ho0  1  0.334756  0.673183  0.059408  1
  Ho  Ho1  1  0.175455  0.183032  0.437794  1
  Ho  Ho2  1  0.668101  0.324667  0.560745  1
  Ho  Ho3  1  0.824150  0.821018  0.934474  1
  Ho  Ho4  1  0.668101  0.324667  0.939255  1
  Ho  Ho5  1  0.824150  0.821018  0.565526  1
  Ho  Ho6  1  0.334756  0.673183  0.440592  1
  Ho  Ho7  1  0.175455  0.183032  0.062206  1
  Ho  Ho8  1  0.873566  0.531263  0.250000  1
  Ho  Ho9  1  0.624806  0.037785  0.250000  1
  Ho  Ho10  1  0.125641  0.464308  0.750000  1
  Ho  Ho11  1  0.370859  0.962692  0.750000  1
  Os  Os12  1  0.461036  0.384801  0.250000  1
  Os  Os13  1  0.535893  0.614792  0.750000  1
  Pt  Pt14  1  0.044533  0.885933  0.250000  1
  Rh  Rh15  1  0.958746  0.114623  0.750000  1
