# generated using pymatgen
data_Er13Tm7Sn16
_symmetry_space_group_name_H-M   'P 1'
_cell_length_a   7.96570957
_cell_length_b   8.08797793
_cell_length_c   15.30527518
_cell_angle_alpha   90.00246420
_cell_angle_beta   90.00331375
_cell_angle_gamma   90.00417130
_symmetry_Int_Tables_number   1
_chemical_formula_structural   Er13Tm7Sn16
_chemical_formula_sum   'Er13 Tm7 Sn16'
_cell_volume   986.06505005
_cell_formula_units_Z   1
loop_
 _symmetry_equiv_pos_site_id
 _symmetry_equiv_pos_as_xyz
  1  'x, y, z'
loop_
 _atom_site_type_symbol
 _atom_site_label
 _atom_site_symmetry_multiplicity
 _atom_site_fract_x
 _atom_site_fract_y
 _atom_site_fract_z
 _atom_site_occupancy
  Er  Er0  1  0.132174  0.337101  0.122439  1
  Er  Er1  1  0.631836  0.162981  0.122737  1
  Er  Er2  1  0.131765  0.337082  0.377572  1
  Er  Er3  1  0.368266  0.837092  0.622509  1
  Er  Er4  1  0.868200  0.662874  0.877522  1
  Er  Er5  1  0.521664  0.320854  0.902936  1
  Er  Er6  1  0.021897  0.179208  0.597117  1
  Er  Er7  1  0.478276  0.679329  0.403046  1
  Er  Er8  1  0.978101  0.820820  0.097085  1
  Er  Er9  1  0.478480  0.679243  0.096899  1
  Er  Er10  1  0.978478  0.820812  0.403174  1
  Er  Er11  1  0.521544  0.320876  0.596958  1
  Er  Er12  1  0.021668  0.178881  0.902703  1
  Tm  Tm13  1  0.367877  0.837326  0.876943  1
  Tm  Tm14  1  0.867653  0.662687  0.622718  1
  Tm  Tm15  1  0.632229  0.162656  0.377504  1
  Tm  Tm16  1  0.198619  0.503618  0.750077  1
  Tm  Tm17  1  0.698666  0.996415  0.749794  1
  Tm  Tm18  1  0.801266  0.496467  0.250334  1
  Tm  Tm19  1  0.301470  0.003504  0.249946  1
  Sn  Sn20  1  0.292444  0.036086  0.041219  1
  Sn  Sn21  1  0.792099  0.463060  0.458745  1
  Sn  Sn22  1  0.708277  0.963217  0.541335  1
  Sn  Sn23  1  0.208114  0.537222  0.958240  1
  Sn  Sn24  1  0.706577  0.963675  0.958193  1
  Sn  Sn25  1  0.206487  0.536751  0.541728  1
  Sn  Sn26  1  0.293354  0.036570  0.458159  1
  Sn  Sn27  1  0.792506  0.463497  0.041884  1
  Sn  Sn28  1  0.564828  0.619328  0.749866  1
  Sn  Sn29  1  0.064623  0.880382  0.749895  1
  Sn  Sn30  1  0.435459  0.380763  0.250365  1
  Sn  Sn31  1  0.935052  0.119181  0.250299  1
  Sn  Sn32  1  0.331164  0.148915  0.750018  1
  Sn  Sn33  1  0.831202  0.351204  0.749847  1
  Sn  Sn34  1  0.668832  0.851390  0.250128  1
  Sn  Sn35  1  0.168849  0.648937  0.250066  1
