# generated using pymatgen
data_Sm8Ho9Sc3Sn16
_symmetry_space_group_name_H-M   'P 1'
_cell_length_a   8.00486000
_cell_length_b   8.19774609
_cell_length_c   15.52597200
_cell_angle_alpha   90.00000000
_cell_angle_beta   90.00000000
_cell_angle_gamma   89.99147316
_symmetry_Int_Tables_number   1
_chemical_formula_structural   Sm8Ho9Sc3Sn16
_chemical_formula_sum   'Sm8 Ho9 Sc3 Sn16'
_cell_volume   1018.84236983
_cell_formula_units_Z   1
loop_
 _symmetry_equiv_pos_site_id
 _symmetry_equiv_pos_as_xyz
  1  'x, y, z'
loop_
 _atom_site_type_symbol
 _atom_site_label
 _atom_site_symmetry_multiplicity
 _atom_site_fract_x
 _atom_site_fract_y
 _atom_site_fract_z
 _atom_site_occupancy
  Sm  Sm0  1  0.513651  0.320269  0.904496  1
  Sm  Sm1  1  0.012327  0.178221  0.595440  1
  Sm  Sm2  1  0.486065  0.678981  0.402968  1
  Sm  Sm3  1  0.986465  0.821164  0.096356  1
  Sm  Sm4  1  0.486065  0.678981  0.097032  1
  Sm  Sm5  1  0.986465  0.821164  0.403644  1
  Sm  Sm6  1  0.513651  0.320269  0.595504  1
  Sm  Sm7  1  0.012327  0.178221  0.904560  1
  Ho  Ho8  1  0.357087  0.837384  0.876586  1
  Ho  Ho9  1  0.855787  0.663727  0.623212  1
  Ho  Ho10  1  0.643383  0.162609  0.375206  1
  Ho  Ho11  1  0.143845  0.337350  0.125567  1
  Ho  Ho12  1  0.643383  0.162609  0.124794  1
  Ho  Ho13  1  0.143845  0.337350  0.374433  1
  Ho  Ho14  1  0.357087  0.837384  0.623414  1
  Ho  Ho15  1  0.855787  0.663727  0.876788  1
  Ho  Ho16  1  0.188257  0.501806  0.750000  1
  Sc  Sc17  1  0.689088  0.996804  0.750000  1
  Sc  Sc18  1  0.811399  0.497846  0.250000  1
  Sc  Sc19  1  0.311440  0.001965  0.250000  1
  Sn  Sn20  1  0.304395  0.038645  0.044651  1
  Sn  Sn21  1  0.804592  0.461660  0.455226  1
  Sn  Sn22  1  0.695053  0.961935  0.543445  1
  Sn  Sn23  1  0.195234  0.539557  0.959068  1
  Sn  Sn24  1  0.695053  0.961935  0.956555  1
  Sn  Sn25  1  0.195234  0.539557  0.540932  1
  Sn  Sn26  1  0.304395  0.038645  0.455349  1
  Sn  Sn27  1  0.804592  0.461660  0.044774  1
  Sn  Sn28  1  0.555362  0.622695  0.750000  1
  Sn  Sn29  1  0.048413  0.883520  0.750000  1
  Sn  Sn30  1  0.451136  0.381892  0.250000  1
  Sn  Sn31  1  0.950569  0.117505  0.250000  1
  Sn  Sn32  1  0.325219  0.144630  0.750000  1
  Sn  Sn33  1  0.818521  0.347378  0.750000  1
  Sn  Sn34  1  0.677768  0.849378  0.250000  1
  Sn  Sn35  1  0.177061  0.651580  0.250000  1
