# generated using pymatgen
data_SrNd3(Rh2O7)2
_symmetry_space_group_name_H-M   'P 1'
_cell_length_a   7.40983222
_cell_length_b   7.38178653
_cell_length_c   7.40983200
_cell_angle_alpha   59.87424109
_cell_angle_beta   60.00000097
_cell_angle_gamma   59.87423558
_symmetry_Int_Tables_number   1
_chemical_formula_structural   SrNd3(Rh2O7)2
_chemical_formula_sum   'Sr1 Nd3 Rh4 O14'
_cell_volume   286.04545907
_cell_formula_units_Z   1
loop_
 _symmetry_equiv_pos_site_id
 _symmetry_equiv_pos_as_xyz
  1  'x, y, z'
loop_
 _atom_site_type_symbol
 _atom_site_label
 _atom_site_symmetry_multiplicity
 _atom_site_fract_x
 _atom_site_fract_y
 _atom_site_fract_z
 _atom_site_occupancy
  Sr  Sr0  1  0.125000  0.625000  0.125000  1
  Nd  Nd1  1  0.125000  0.125000  0.125000  1
  Nd  Nd2  1  0.625000  0.125000  0.125000  1
  Nd  Nd3  1  0.125000  0.125000  0.625000  1
  Rh  Rh4  1  0.625000  0.625000  0.625000  1
  Rh  Rh5  1  0.625000  0.625000  0.125000  1
  Rh  Rh6  1  0.125000  0.625000  0.625000  1
  Rh  Rh7  1  0.625000  0.125000  0.625000  1
  O  O8  1  0.253680  0.238962  0.253680  1
  O  O9  1  0.299232  0.707384  0.299232  1
  O  O10  1  0.954227  0.956330  0.544722  1
  O  O11  1  0.544722  0.956330  0.544722  1
  O  O12  1  0.694152  0.707384  0.299232  1
  O  O13  1  0.950768  0.542616  0.555848  1
  O  O14  1  0.705278  0.293670  0.705278  1
  O  O15  1  0.295773  0.293670  0.705278  1
  O  O16  1  0.705278  0.293670  0.295773  1
  O  O17  1  0.299232  0.707384  0.694152  1
  O  O18  1  0.950768  0.542616  0.950768  1
  O  O19  1  0.555848  0.542616  0.950768  1
  O  O20  1  0.996320  0.011038  0.996320  1
  O  O21  1  0.544722  0.956330  0.954227  1
