# generated using pymatgen
data_Ba5Ir2I2O9
_symmetry_space_group_name_H-M   'P 1'
_cell_length_a   5.95263300
_cell_length_b   5.95263291
_cell_length_c   27.20529200
_cell_angle_alpha   90.00000000
_cell_angle_beta   90.00000000
_cell_angle_gamma   120.00000608
_symmetry_Int_Tables_number   1
_chemical_formula_structural   Ba5Ir2I2O9
_chemical_formula_sum   'Ba10 Ir4 I4 O18'
_cell_volume   834.83799265
_cell_formula_units_Z   2
loop_
 _symmetry_equiv_pos_site_id
 _symmetry_equiv_pos_as_xyz
  1  'x, y, z'
loop_
 _atom_site_type_symbol
 _atom_site_label
 _atom_site_symmetry_multiplicity
 _atom_site_fract_x
 _atom_site_fract_y
 _atom_site_fract_z
 _atom_site_occupancy
  Ba  Ba0  1  0.333333  0.666667  0.905598  1
  Ba  Ba1  1  0.666667  0.333333  0.405598  1
  Ba  Ba2  1  0.666667  0.333333  0.094402  1
  Ba  Ba3  1  0.333333  0.666667  0.174967  1
  Ba  Ba4  1  0.666667  0.333333  0.674967  1
  Ba  Ba5  1  0.333333  0.666667  0.325033  1
  Ba  Ba6  1  0.666667  0.333333  0.825033  1
  Ba  Ba7  1  0.666667  0.333333  0.250000  1
  Ba  Ba8  1  0.333333  0.666667  0.594402  1
  Ba  Ba9  1  0.333333  0.666667  0.750000  1
  Ir  Ir10  1  0.000000  0.000000  0.800289  1
  Ir  Ir11  1  0.000000  0.000000  0.300289  1
  Ir  Ir12  1  0.000000  0.000000  0.699711  1
  Ir  Ir13  1  0.000000  0.000000  0.199711  1
  I  I14  1  0.333333  0.666667  0.454075  1
  I  I15  1  0.333333  0.666667  0.045925  1
  I  I16  1  0.666667  0.333333  0.545925  1
  I  I17  1  0.666667  0.333333  0.954075  1
  O  O18  1  0.159662  0.840338  0.662176  1
  O  O19  1  0.680677  0.840338  0.837824  1
  O  O20  1  0.159662  0.319323  0.662176  1
  O  O21  1  0.846796  0.153204  0.750000  1
  O  O22  1  0.306407  0.153204  0.750000  1
  O  O23  1  0.153204  0.306407  0.250000  1
  O  O24  1  0.153204  0.846796  0.250000  1
  O  O25  1  0.693593  0.846796  0.250000  1
  O  O26  1  0.840338  0.159662  0.337824  1
  O  O27  1  0.319323  0.159662  0.162176  1
  O  O28  1  0.846796  0.693593  0.750000  1
  O  O29  1  0.840338  0.680677  0.162176  1
  O  O30  1  0.319323  0.159662  0.337824  1
  O  O31  1  0.840338  0.159662  0.162176  1
  O  O32  1  0.159662  0.319323  0.837824  1
  O  O33  1  0.840338  0.680677  0.337824  1
  O  O34  1  0.680677  0.840338  0.662176  1
  O  O35  1  0.159662  0.840338  0.837824  1
