# generated using pymatgen
data_Pr3CdHg2PtAu2
_symmetry_space_group_name_H-M   'P 1'
_cell_length_a   8.10277848
_cell_length_b   8.07176355
_cell_length_c   3.91371300
_cell_angle_alpha   90.00000000
_cell_angle_beta   90.00000000
_cell_angle_gamma   120.24994093
_symmetry_Int_Tables_number   1
_chemical_formula_structural   Pr3CdHg2PtAu2
_chemical_formula_sum   'Pr3 Cd1 Hg2 Pt1 Au2'
_cell_volume   221.11728018
_cell_formula_units_Z   1
loop_
 _symmetry_equiv_pos_site_id
 _symmetry_equiv_pos_as_xyz
  1  'x, y, z'
loop_
 _atom_site_type_symbol
 _atom_site_label
 _atom_site_symmetry_multiplicity
 _atom_site_fract_x
 _atom_site_fract_y
 _atom_site_fract_z
 _atom_site_occupancy
  Pr  Pr0  1  0.589194  0.989412  0.000000  1
  Pr  Pr1  1  0.019013  0.603331  0.000000  1
  Pr  Pr2  1  0.389714  0.404443  0.000000  1
  Cd  Cd3  1  0.736143  0.734297  0.500000  1
  Hg  Hg4  1  0.268135  0.000531  0.500000  1
  Hg  Hg5  1  0.995621  0.265671  0.500000  1
  Pt  Pt6  1  0.341877  0.667932  0.500000  1
  Au  Au7  1  0.667436  0.341854  0.500000  1
  Au  Au8  1  0.992868  0.992528  0.000000  1
