# generated using pymatgen
data_Y2Tm3Ti3(Co4As3)4
_symmetry_space_group_name_H-M   'P 1'
_cell_length_a   12.57817600
_cell_length_b   12.57817654
_cell_length_c   3.80038500
_cell_angle_alpha   90.00000000
_cell_angle_beta   90.00000000
_cell_angle_gamma   120.00000383
_symmetry_Int_Tables_number   1
_chemical_formula_structural   Y2Tm3Ti3(Co4As3)4
_chemical_formula_sum   'Y2 Tm3 Ti3 Co16 As12'
_cell_volume   520.70717689
_cell_formula_units_Z   1
loop_
 _symmetry_equiv_pos_site_id
 _symmetry_equiv_pos_as_xyz
  1  'x, y, z'
loop_
 _atom_site_type_symbol
 _atom_site_label
 _atom_site_symmetry_multiplicity
 _atom_site_fract_x
 _atom_site_fract_y
 _atom_site_fract_z
 _atom_site_occupancy
  Y  Y0  1  0.333333  0.666667  0.000000  1
  Y  Y1  1  0.666667  0.333333  0.000000  1
  Tm  Tm2  1  0.185609  0.185609  0.500000  1
  Tm  Tm3  1  0.814391  0.000000  0.500000  1
  Tm  Tm4  1  0.000000  0.814391  0.500000  1
  Ti  Ti5  1  0.563047  0.563047  0.000000  1
  Ti  Ti6  1  0.436953  0.000000  0.000000  1
  Ti  Ti7  1  0.000000  0.436953  0.000000  1
  Co  Co8  1  0.717215  0.717215  0.500000  1
  Co  Co9  1  0.282785  0.000000  0.500000  1
  Co  Co10  1  0.000000  0.282785  0.500000  1
  Co  Co11  1  0.176734  0.374947  0.000000  1
  Co  Co12  1  0.625053  0.801786  0.000000  1
  Co  Co13  1  0.198214  0.823266  0.000000  1
  Co  Co14  1  0.801786  0.625053  0.000000  1
  Co  Co15  1  0.823266  0.198214  0.000000  1
  Co  Co16  1  0.374947  0.176734  0.000000  1
  Co  Co17  1  0.355431  0.478981  0.500000  1
  Co  Co18  1  0.521019  0.876450  0.500000  1
  Co  Co19  1  0.123550  0.644569  0.500000  1
  Co  Co20  1  0.876450  0.521019  0.500000  1
  Co  Co21  1  0.644569  0.123550  0.500000  1
  Co  Co22  1  0.478981  0.355431  0.500000  1
  Co  Co23  1  0.000000  0.000000  0.000000  1
  As  As24  1  0.822709  0.822709  0.000000  1
  As  As25  1  0.177291  0.000000  0.000000  1
  As  As26  1  0.000000  0.177291  0.000000  1
  As  As27  1  0.168164  0.482550  0.500000  1
  As  As28  1  0.517450  0.685615  0.500000  1
  As  As29  1  0.314385  0.831836  0.500000  1
  As  As30  1  0.685615  0.517450  0.500000  1
  As  As31  1  0.831836  0.314385  0.500000  1
  As  As32  1  0.482550  0.168164  0.500000  1
  As  As33  1  0.358323  0.358323  0.000000  1
  As  As34  1  0.641677  0.000000  0.000000  1
  As  As35  1  0.000000  0.641677  0.000000  1
