# generated using pymatgen
data_HoTm3(Al8Pt3)3
_symmetry_space_group_name_H-M   'P 1'
_cell_length_a   7.51830659
_cell_length_b   7.54336083
_cell_length_c   13.15667478
_cell_angle_alpha   84.59890679
_cell_angle_beta   79.13023604
_cell_angle_gamma   59.97776918
_symmetry_Int_Tables_number   1
_chemical_formula_structural   HoTm3(Al8Pt3)3
_chemical_formula_sum   'Ho1 Tm3 Al24 Pt9'
_cell_volume   634.45619007
_cell_formula_units_Z   1
loop_
 _symmetry_equiv_pos_site_id
 _symmetry_equiv_pos_as_xyz
  1  'x, y, z'
loop_
 _atom_site_type_symbol
 _atom_site_label
 _atom_site_symmetry_multiplicity
 _atom_site_fract_x
 _atom_site_fract_y
 _atom_site_fract_z
 _atom_site_occupancy
  Ho  Ho0  1  0.393430  0.168747  0.807690  1
  Tm  Tm1  1  0.606502  0.831132  0.192615  1
  Tm  Tm2  1  0.734377  0.498704  0.807155  1
  Tm  Tm3  1  0.265556  0.501370  0.192865  1
  Al  Al4  1  0.684368  0.833683  0.944303  1
  Al  Al5  1  0.315788  0.166079  0.055961  1
  Al  Al6  1  0.146547  0.832436  0.561226  1
  Al  Al7  1  0.853482  0.167560  0.438757  1
  Al  Al8  1  0.479387  0.166579  0.558495  1
  Al  Al9  1  0.520626  0.833403  0.441432  1
  Al  Al10  1  0.217503  0.165265  0.328940  1
  Al  Al11  1  0.782708  0.834560  0.670950  1
  Al  Al12  1  0.437616  0.506230  0.671060  1
  Al  Al13  1  0.562429  0.493958  0.328819  1
  Al  Al14  1  0.109183  0.160234  0.669981  1
  Al  Al15  1  0.890669  0.839772  0.329873  1
  Al  Al16  1  0.353644  0.499328  0.944388  1
  Al  Al17  1  0.646347  0.500896  0.055733  1
  Al  Al18  1  0.015704  0.167965  0.952234  1
  Al  Al19  1  0.984010  0.832066  0.047912  1
  Al  Al20  1  0.186705  0.499331  0.441348  1
  Al  Al21  1  0.813291  0.500681  0.558635  1
  Al  Al22  1  0.733641  0.163784  0.183316  1
  Al  Al23  1  0.266345  0.835940  0.816694  1
  Al  Al24  1  0.061505  0.631100  0.815519  1
  Al  Al25  1  0.938249  0.369170  0.184477  1
  Al  Al26  1  0.855163  0.041987  0.816064  1
  Al  Al27  1  0.145105  0.957974  0.183944  1
  Pt  Pt28  1  0.119260  0.491295  0.639273  1
  Pt  Pt29  1  0.880435  0.509127  0.360478  1
  Pt  Pt30  1  0.657116  0.171483  0.999827  1
  Pt  Pt31  1  0.342961  0.828449  0.000347  1
  Pt  Pt32  1  0.537372  0.167026  0.360649  1
  Pt  Pt33  1  0.462662  0.832603  0.639165  1
  Pt  Pt34  1  0.778161  0.175465  0.637637  1
  Pt  Pt35  1  0.222256  0.824502  0.362148  1
  Pt  Pt36  1  0.999899  0.500115  0.000091  1
