# generated using pymatgen
data_La4SmP12Ru19
_symmetry_space_group_name_H-M   'P 1'
_cell_length_a   4.03392800
_cell_length_b   12.68509869
_cell_length_c   12.68471101
_cell_angle_alpha   119.99493336
_cell_angle_beta   90.00000000
_cell_angle_gamma   90.00000000
_symmetry_Int_Tables_number   1
_chemical_formula_structural   La4SmP12Ru19
_chemical_formula_sum   'La4 Sm1 P12 Ru19'
_cell_volume   562.15408668
_cell_formula_units_Z   1
loop_
 _symmetry_equiv_pos_site_id
 _symmetry_equiv_pos_as_xyz
  1  'x, y, z'
loop_
 _atom_site_type_symbol
 _atom_site_label
 _atom_site_symmetry_multiplicity
 _atom_site_fract_x
 _atom_site_fract_y
 _atom_site_fract_z
 _atom_site_occupancy
  La  La0  1  0.500000  0.000411  0.183568  1
  La  La1  1  0.500000  0.183167  0.999587  1
  La  La2  1  0.500000  0.816414  0.816840  1
  La  La3  1  0.000000  0.333321  0.666673  1
  Sm  Sm4  1  0.000000  0.666675  0.333336  1
  P  P5  1  0.000000  0.998569  0.809977  1
  P  P6  1  0.000000  0.811386  0.001426  1
  P  P7  1  0.000000  0.190042  0.188615  1
  P  P8  1  0.500000  0.305034  0.474973  1
  P  P9  1  0.500000  0.169956  0.694976  1
  P  P10  1  0.500000  0.525029  0.830060  1
  P  P11  1  0.500000  0.826273  0.522080  1
  P  P12  1  0.500000  0.477913  0.304210  1
  P  P13  1  0.500000  0.695792  0.173713  1
  P  P14  1  0.000000  0.000224  0.375692  1
  P  P15  1  0.000000  0.375448  0.999764  1
  P  P16  1  0.000000  0.624323  0.624560  1
  Ru  Ru17  1  0.000000  0.999532  0.554025  1
  Ru  Ru18  1  0.000000  0.554493  0.000461  1
  Ru  Ru19  1  0.000000  0.445950  0.445488  1
  Ru  Ru20  1  0.500000  0.998331  0.712031  1
  Ru  Ru21  1  0.500000  0.713681  0.001672  1
  Ru  Ru22  1  0.500000  0.287979  0.286310  1
  Ru  Ru23  1  0.000000  0.194984  0.378553  1
  Ru  Ru24  1  0.000000  0.183575  0.805032  1
  Ru  Ru25  1  0.000000  0.621445  0.816438  1
  Ru  Ru26  1  0.000000  0.814015  0.618983  1
  Ru  Ru27  1  0.000000  0.381037  0.195065  1
  Ru  Ru28  1  0.000000  0.804948  0.185973  1
  Ru  Ru29  1  0.500000  0.123469  0.490466  1
  Ru  Ru30  1  0.500000  0.367019  0.876537  1
  Ru  Ru31  1  0.500000  0.509513  0.632969  1
  Ru  Ru32  1  0.500000  0.631814  0.506256  1
  Ru  Ru33  1  0.500000  0.493728  0.125559  1
  Ru  Ru34  1  0.500000  0.874404  0.368134  1
  Ru  Ru35  1  0.000000  0.000005  0.999998  1
