# generated using pymatgen
data_Ti8Cr2Si6CN
_symmetry_space_group_name_H-M   'P 1'
_cell_length_a   7.32588500
_cell_length_b   7.32588480
_cell_length_c   5.07206400
_cell_angle_alpha   90.00000000
_cell_angle_beta   90.00000000
_cell_angle_gamma   120.00000540
_symmetry_Int_Tables_number   1
_chemical_formula_structural   Ti8Cr2Si6CN
_chemical_formula_sum   'Ti8 Cr2 Si6 C1 N1'
_cell_volume   235.74121372
_cell_formula_units_Z   1
loop_
 _symmetry_equiv_pos_site_id
 _symmetry_equiv_pos_as_xyz
  1  'x, y, z'
loop_
 _atom_site_type_symbol
 _atom_site_label
 _atom_site_symmetry_multiplicity
 _atom_site_fract_x
 _atom_site_fract_y
 _atom_site_fract_z
 _atom_site_occupancy
  Ti  Ti0  1  0.666667  0.333333  0.500000  1
  Ti  Ti1  1  0.333333  0.666667  0.500000  1
  Ti  Ti2  1  0.231414  0.000000  0.254922  1
  Ti  Ti3  1  0.768586  0.000000  0.745078  1
  Ti  Ti4  1  0.000000  0.231414  0.254922  1
  Ti  Ti5  1  0.000000  0.768586  0.745078  1
  Ti  Ti6  1  0.768586  0.768586  0.254922  1
  Ti  Ti7  1  0.231414  0.231414  0.745078  1
  Cr  Cr8  1  0.333333  0.666667  0.000000  1
  Cr  Cr9  1  0.666667  0.333333  0.000000  1
  Si  Si10  1  0.589385  0.000000  0.226789  1
  Si  Si11  1  0.410615  0.000000  0.773211  1
  Si  Si12  1  0.000000  0.589385  0.226789  1
  Si  Si13  1  0.000000  0.410615  0.773211  1
  Si  Si14  1  0.410615  0.410615  0.226789  1
  Si  Si15  1  0.589385  0.589385  0.773211  1
  C  C16  1  0.000000  0.000000  0.000000  1
  N  N17  1  0.000000  0.000000  0.500000  1
