# generated using pymatgen
data_YbCe2(PrRu)2
_symmetry_space_group_name_H-M   'P 1'
_cell_length_a   9.15236769
_cell_length_b   9.15236856
_cell_length_c   7.13932100
_cell_angle_alpha   85.67544016
_cell_angle_beta   85.67543974
_cell_angle_gamma   41.78305666
_symmetry_Int_Tables_number   1
_chemical_formula_structural   YbCe2(PrRu)2
_chemical_formula_sum   'Yb2 Ce4 Pr4 Ru4'
_cell_volume   397.17533047
_cell_formula_units_Z   2
loop_
 _symmetry_equiv_pos_site_id
 _symmetry_equiv_pos_as_xyz
  1  'x, y, z'
loop_
 _atom_site_type_symbol
 _atom_site_label
 _atom_site_symmetry_multiplicity
 _atom_site_fract_x
 _atom_site_fract_y
 _atom_site_fract_z
 _atom_site_occupancy
  Yb  Yb0  1  0.575002  0.424998  0.750000  1
  Yb  Yb1  1  0.424998  0.575002  0.250000  1
  Ce  Ce2  1  0.010712  0.807890  0.901649  1
  Ce  Ce3  1  0.192110  0.989288  0.598351  1
  Ce  Ce4  1  0.989288  0.192110  0.098351  1
  Ce  Ce5  1  0.807890  0.010712  0.401649  1
  Pr  Pr6  1  0.353354  0.217362  0.822767  1
  Pr  Pr7  1  0.782638  0.646646  0.677233  1
  Pr  Pr8  1  0.646646  0.782638  0.177233  1
  Pr  Pr9  1  0.217362  0.353354  0.322767  1
  Ru  Ru10  1  0.130947  0.652221  0.600638  1
  Ru  Ru11  1  0.347779  0.869053  0.899362  1
  Ru  Ru12  1  0.869053  0.347779  0.399362  1
  Ru  Ru13  1  0.652221  0.130947  0.100638  1
