# generated using pymatgen
data_Ta2GeB2Ru5
_symmetry_space_group_name_H-M   'P 1'
_cell_length_a   9.32970700
_cell_length_b   9.32970700
_cell_length_c   2.98925400
_cell_angle_alpha   90.00000000
_cell_angle_beta   90.00000000
_cell_angle_gamma   90.00000000
_symmetry_Int_Tables_number   1
_chemical_formula_structural   Ta2GeB2Ru5
_chemical_formula_sum   'Ta4 Ge2 B4 Ru10'
_cell_volume   260.19492939
_cell_formula_units_Z   2
loop_
 _symmetry_equiv_pos_site_id
 _symmetry_equiv_pos_as_xyz
  1  'x, y, z'
loop_
 _atom_site_type_symbol
 _atom_site_label
 _atom_site_symmetry_multiplicity
 _atom_site_fract_x
 _atom_site_fract_y
 _atom_site_fract_z
 _atom_site_occupancy
  Ta  Ta0  1  0.823177  0.676823  0.000000  1
  Ta  Ta1  1  0.176823  0.323177  0.000000  1
  Ta  Ta2  1  0.323177  0.823177  0.000000  1
  Ta  Ta3  1  0.676823  0.176823  0.000000  1
  Ge  Ge4  1  0.500000  0.500000  0.000000  1
  Ge  Ge5  1  0.000000  0.000000  0.000000  1
  B  B6  1  0.624417  0.875583  0.000000  1
  B  B7  1  0.375583  0.124417  0.000000  1
  B  B8  1  0.124417  0.624417  0.000000  1
  B  B9  1  0.875583  0.375583  0.000000  1
  Ru  Ru10  1  0.568089  0.714429  0.500000  1
  Ru  Ru11  1  0.431911  0.285571  0.500000  1
  Ru  Ru12  1  0.068089  0.785571  0.500000  1
  Ru  Ru13  1  0.931911  0.214429  0.500000  1
  Ru  Ru14  1  0.285571  0.568089  0.500000  1
  Ru  Ru15  1  0.714429  0.431911  0.500000  1
  Ru  Ru16  1  0.214429  0.068089  0.500000  1
  Ru  Ru17  1  0.785571  0.931911  0.500000  1
  Ru  Ru18  1  0.500000  0.000000  0.500000  1
  Ru  Ru19  1  0.000000  0.500000  0.500000  1
