# generated using pymatgen
data_Sc4BeSi(B2Rh5)2
_symmetry_space_group_name_H-M   'P 1'
_cell_length_a   9.20433100
_cell_length_b   3.05005600
_cell_length_c   9.20433100
_cell_angle_alpha   90.00000000
_cell_angle_beta   90.00000000
_cell_angle_gamma   90.00000000
_symmetry_Int_Tables_number   1
_chemical_formula_structural   Sc4BeSi(B2Rh5)2
_chemical_formula_sum   'Sc4 Be1 Si1 B4 Rh10'
_cell_volume   258.39985723
_cell_formula_units_Z   1
loop_
 _symmetry_equiv_pos_site_id
 _symmetry_equiv_pos_as_xyz
  1  'x, y, z'
loop_
 _atom_site_type_symbol
 _atom_site_label
 _atom_site_symmetry_multiplicity
 _atom_site_fract_x
 _atom_site_fract_y
 _atom_site_fract_z
 _atom_site_occupancy
  Sc  Sc0  1  0.672420  0.000000  0.176464  1
  Sc  Sc1  1  0.176464  0.000000  0.327580  1
  Sc  Sc2  1  0.823536  0.000000  0.672420  1
  Sc  Sc3  1  0.327580  0.000000  0.823536  1
  Be  Be4  1  0.500000  0.000000  0.500000  1
  Si  Si5  1  0.000000  0.000000  0.000000  1
  B  B6  1  0.378546  0.000000  0.130229  1
  B  B7  1  0.869771  0.000000  0.378546  1
  B  B8  1  0.130229  0.000000  0.621452  1
  B  B9  1  0.621452  0.000000  0.869771  1
  Rh  Rh10  1  0.500000  0.500000  0.000000  1
  Rh  Rh11  1  0.211912  0.500000  0.070070  1
  Rh  Rh12  1  0.929930  0.500000  0.211912  1
  Rh  Rh13  1  0.430140  0.500000  0.290073  1
  Rh  Rh14  1  0.709927  0.500000  0.430140  1
  Rh  Rh15  1  0.000000  0.500000  0.500000  1
  Rh  Rh16  1  0.290073  0.500000  0.569860  1
  Rh  Rh17  1  0.569860  0.500000  0.709927  1
  Rh  Rh18  1  0.070070  0.500000  0.788087  1
  Rh  Rh19  1  0.788087  0.500000  0.929930  1
