# generated using pymatgen
data_Tb20TcIr3Pt8
_symmetry_space_group_name_H-M   'P 1'
_cell_length_a   11.08327900
_cell_length_b   11.08327900
_cell_length_c   6.38176500
_cell_angle_alpha   90.00000000
_cell_angle_beta   90.00000000
_cell_angle_gamma   90.00000000
_symmetry_Int_Tables_number   1
_chemical_formula_structural   Tb20TcIr3Pt8
_chemical_formula_sum   'Tb20 Tc1 Ir3 Pt8'
_cell_volume   783.93009920
_cell_formula_units_Z   1
loop_
 _symmetry_equiv_pos_site_id
 _symmetry_equiv_pos_as_xyz
  1  'x, y, z'
loop_
 _atom_site_type_symbol
 _atom_site_label
 _atom_site_symmetry_multiplicity
 _atom_site_fract_x
 _atom_site_fract_y
 _atom_site_fract_z
 _atom_site_occupancy
  Tb  Tb0  1  0.296166  0.087041  0.370799  1
  Tb  Tb1  1  0.296722  0.913467  0.874890  1
  Tb  Tb2  1  0.703278  0.086533  0.874890  1
  Tb  Tb3  1  0.703834  0.912959  0.370799  1
  Tb  Tb4  1  0.586533  0.796722  0.874890  1
  Tb  Tb5  1  0.587041  0.203834  0.370799  1
  Tb  Tb6  1  0.412959  0.796166  0.370799  1
  Tb  Tb7  1  0.413467  0.203278  0.874890  1
  Tb  Tb8  1  0.205451  0.411171  0.626718  1
  Tb  Tb9  1  0.204999  0.588357  0.126162  1
  Tb  Tb10  1  0.795001  0.411643  0.126162  1
  Tb  Tb11  1  0.794549  0.588829  0.626718  1
  Tb  Tb12  1  0.911643  0.704999  0.126162  1
  Tb  Tb13  1  0.911171  0.294549  0.626718  1
  Tb  Tb14  1  0.088829  0.705451  0.626718  1
  Tb  Tb15  1  0.088357  0.295001  0.126162  1
  Tb  Tb16  1  0.000000  0.000000  0.499311  1
  Tb  Tb17  1  0.000000  0.000000  0.999701  1
  Tb  Tb18  1  0.500000  0.500000  0.999701  1
  Tb  Tb19  1  0.500000  0.500000  0.499311  1
  Tc  Tc20  1  0.500000  0.000000  0.127043  1
  Ir  Ir21  1  0.500000  0.000000  0.621723  1
  Ir  Ir22  1  0.000000  0.500000  0.880179  1
  Ir  Ir23  1  0.000000  0.500000  0.381191  1
  Pt  Pt24  1  0.846814  0.154326  0.249790  1
  Pt  Pt25  1  0.847234  0.845750  0.749600  1
  Pt  Pt26  1  0.152766  0.154250  0.749600  1
  Pt  Pt27  1  0.153186  0.845674  0.249790  1
  Pt  Pt28  1  0.654250  0.347234  0.749600  1
  Pt  Pt29  1  0.654326  0.653186  0.249790  1
  Pt  Pt30  1  0.345674  0.346814  0.249790  1
  Pt  Pt31  1  0.345750  0.652766  0.749600  1
