# generated using pymatgen
data_Rb5Au(ClO)2
_symmetry_space_group_name_H-M   'P 1'
_cell_length_a   5.65585700
_cell_length_b   7.59563200
_cell_length_c   14.32527300
_cell_angle_alpha   90.00000000
_cell_angle_beta   90.00000000
_cell_angle_gamma   90.00000000
_symmetry_Int_Tables_number   1
_chemical_formula_structural   Rb5Au(ClO)2
_chemical_formula_sum   'Rb10 Au2 Cl4 O4'
_cell_volume   615.41098360
_cell_formula_units_Z   2
loop_
 _symmetry_equiv_pos_site_id
 _symmetry_equiv_pos_as_xyz
  1  'x, y, z'
loop_
 _atom_site_type_symbol
 _atom_site_label
 _atom_site_symmetry_multiplicity
 _atom_site_fract_x
 _atom_site_fract_y
 _atom_site_fract_z
 _atom_site_occupancy
  Rb  Rb0  1  0.500000  0.317205  0.603355  1
  Rb  Rb1  1  0.500000  0.182795  0.103355  1
  Rb  Rb2  1  0.000000  0.637029  0.727947  1
  Rb  Rb3  1  0.000000  0.500000  0.000000  1
  Rb  Rb4  1  0.500000  0.682795  0.396645  1
  Rb  Rb5  1  0.500000  0.817205  0.896645  1
  Rb  Rb6  1  0.000000  0.862971  0.227947  1
  Rb  Rb7  1  0.000000  0.362971  0.272053  1
  Rb  Rb8  1  0.000000  0.137029  0.772053  1
  Rb  Rb9  1  0.000000  0.000000  0.500000  1
  Au  Au10  1  0.000000  0.500000  0.500000  1
  Au  Au11  1  0.000000  0.000000  0.000000  1
  Cl  Cl12  1  0.500000  0.612934  0.153819  1
  Cl  Cl13  1  0.500000  0.387066  0.846181  1
  Cl  Cl14  1  0.500000  0.112934  0.346181  1
  Cl  Cl15  1  0.500000  0.887066  0.653819  1
  O  O16  1  0.000000  0.673160  0.390792  1
  O  O17  1  0.000000  0.826840  0.890792  1
  O  O18  1  0.000000  0.173160  0.109208  1
  O  O19  1  0.000000  0.326840  0.609208  1
