# generated using pymatgen
data_Hf16Fe4OsPd3
_symmetry_space_group_name_H-M   'P 1'
_cell_length_a   8.62695625
_cell_length_b   8.61978459
_cell_length_c   8.61978400
_cell_angle_alpha   60.00000228
_cell_angle_beta   60.02749791
_cell_angle_gamma   60.02750567
_symmetry_Int_Tables_number   1
_chemical_formula_structural   Hf16Fe4OsPd3
_chemical_formula_sum   'Hf16 Fe4 Os1 Pd3'
_cell_volume   453.43580228
_cell_formula_units_Z   1
loop_
 _symmetry_equiv_pos_site_id
 _symmetry_equiv_pos_as_xyz
  1  'x, y, z'
loop_
 _atom_site_type_symbol
 _atom_site_label
 _atom_site_symmetry_multiplicity
 _atom_site_fract_x
 _atom_site_fract_y
 _atom_site_fract_z
 _atom_site_occupancy
  Hf  Hf0  1  0.184577  0.605141  0.605141  1
  Hf  Hf1  1  0.603012  0.188790  0.604099  1
  Hf  Hf2  1  0.603012  0.604099  0.188790  1
  Hf  Hf3  1  0.603012  0.604099  0.604099  1
  Hf  Hf4  1  0.811019  0.810582  0.189200  1
  Hf  Hf5  1  0.196347  0.182002  0.810826  1
  Hf  Hf6  1  0.811019  0.189200  0.810582  1
  Hf  Hf7  1  0.196347  0.810826  0.182002  1
  Hf  Hf8  1  0.196347  0.810826  0.810826  1
  Hf  Hf9  1  0.811019  0.189200  0.189200  1
  Hf  Hf10  1  0.440833  0.446275  0.056446  1
  Hf  Hf11  1  0.058889  0.057951  0.441580  1
  Hf  Hf12  1  0.440833  0.056446  0.446275  1
  Hf  Hf13  1  0.058889  0.441580  0.057951  1
  Hf  Hf14  1  0.058889  0.441580  0.441580  1
  Hf  Hf15  1  0.440833  0.056446  0.056446  1
  Fe  Fe16  1  0.826295  0.391235  0.391235  1
  Fe  Fe17  1  0.391249  0.822486  0.393132  1
  Fe  Fe18  1  0.391249  0.393132  0.822486  1
  Fe  Fe19  1  0.391249  0.393132  0.393132  1
  Os  Os20  1  0.491394  0.836202  0.836202  1
  Pd  Pd21  1  0.831230  0.496965  0.835903  1
  Pd  Pd22  1  0.831230  0.835903  0.496965  1
  Pd  Pd23  1  0.831230  0.835903  0.835903  1
