# generated using pymatgen
data_Lu2B4Mo2Ru3
_symmetry_space_group_name_H-M   'P 1'
_cell_length_a   3.09605500
_cell_length_b   8.82928902
_cell_length_c   10.12406401
_cell_angle_alpha   89.99849452
_cell_angle_beta   90.00000000
_cell_angle_gamma   90.00000000
_symmetry_Int_Tables_number   1
_chemical_formula_structural   Lu2B4Mo2Ru3
_chemical_formula_sum   'Lu4 B8 Mo4 Ru6'
_cell_volume   276.75105320
_cell_formula_units_Z   2
loop_
 _symmetry_equiv_pos_site_id
 _symmetry_equiv_pos_as_xyz
  1  'x, y, z'
loop_
 _atom_site_type_symbol
 _atom_site_label
 _atom_site_symmetry_multiplicity
 _atom_site_fract_x
 _atom_site_fract_y
 _atom_site_fract_z
 _atom_site_occupancy
  Lu  Lu0  1  0.500000  0.839175  0.181366  1
  Lu  Lu1  1  0.500000  0.160825  0.818634  1
  Lu  Lu2  1  0.500000  0.660847  0.681344  1
  Lu  Lu3  1  0.500000  0.339153  0.318656  1
  B  B4  1  0.500000  0.966885  0.585657  1
  B  B5  1  0.500000  0.033115  0.414343  1
  B  B6  1  0.500000  0.853359  0.899066  1
  B  B7  1  0.500000  0.146641  0.100934  1
  B  B8  1  0.500000  0.646616  0.399000  1
  B  B9  1  0.500000  0.353384  0.601000  1
  B  B10  1  0.500000  0.466996  0.914318  1
  B  B11  1  0.500000  0.533004  0.085682  1
  Mo  Mo12  1  0.000000  0.661374  0.953102  1
  Mo  Mo13  1  0.000000  0.338626  0.046898  1
  Mo  Mo14  1  0.000000  0.838643  0.453052  1
  Mo  Mo15  1  0.000000  0.161357  0.546948  1
  Ru  Ru16  1  0.000000  0.000000  0.000000  1
  Ru  Ru17  1  0.000000  0.408416  0.760684  1
  Ru  Ru18  1  0.000000  0.591584  0.239316  1
  Ru  Ru19  1  0.000000  0.500000  0.500000  1
  Ru  Ru20  1  0.000000  0.908397  0.739335  1
  Ru  Ru21  1  0.000000  0.091603  0.260665  1
