# generated using pymatgen
data_Hf3Sc5Co7Si14Os
_symmetry_space_group_name_H-M   'P 1'
_cell_length_a   9.49796046
_cell_length_b   9.50508281
_cell_length_c   9.53808208
_cell_angle_alpha   94.16196607
_cell_angle_beta   94.09172972
_cell_angle_gamma   148.82062333
_symmetry_Int_Tables_number   1
_chemical_formula_structural   Hf3Sc5Co7Si14Os
_chemical_formula_sum   'Hf3 Sc5 Co7 Si14 Os1'
_cell_volume   429.52080289
_cell_formula_units_Z   1
loop_
 _symmetry_equiv_pos_site_id
 _symmetry_equiv_pos_as_xyz
  1  'x, y, z'
loop_
 _atom_site_type_symbol
 _atom_site_label
 _atom_site_symmetry_multiplicity
 _atom_site_fract_x
 _atom_site_fract_y
 _atom_site_fract_z
 _atom_site_occupancy
  Hf  Hf0  1  0.697403  0.500050  0.197575  1
  Hf  Hf1  1  0.500395  0.696544  0.196293  1
  Hf  Hf2  1  0.497413  0.303282  0.802651  1
  Sc  Sc3  1  0.139014  0.138069  0.276979  1
  Sc  Sc4  1  0.861317  0.861829  0.722862  1
  Sc  Sc5  1  0.136645  0.859443  0.000210  1
  Sc  Sc6  1  0.862851  0.139358  0.999170  1
  Sc  Sc7  1  0.304931  0.499569  0.802288  1
  Co  Co8  1  0.395464  0.896545  0.792063  1
  Co  Co9  1  0.896018  0.100149  0.499233  1
  Co  Co10  1  0.603812  0.399899  0.500234  1
  Co  Co11  1  0.601894  0.101932  0.203788  1
  Co  Co12  1  0.896609  0.398210  0.795053  1
  Co  Co13  1  0.103725  0.898631  0.501275  1
  Co  Co14  1  0.396455  0.602152  0.499903  1
  Si  Si15  1  0.289576  0.289842  0.579228  1
  Si  Si16  1  0.710204  0.710239  0.420551  1
  Si  Si17  1  0.299417  0.717842  0.994014  1
  Si  Si18  1  0.695105  0.276768  0.994515  1
  Si  Si19  1  0.089179  0.496381  0.592527  1
  Si  Si20  1  0.901343  0.493348  0.414676  1
  Si  Si21  1  0.514773  0.922329  0.414080  1
  Si  Si22  1  0.502655  0.095584  0.592281  1
  Si  Si23  1  0.253122  0.252740  0.001294  1
  Si  Si24  1  0.749516  0.747302  0.001372  1
  Si  Si25  1  0.306161  0.010858  0.301539  1
  Si  Si26  1  0.699454  0.001433  0.698395  1
  Si  Si27  1  0.998624  0.699670  0.700353  1
  Si  Si28  1  0.994018  0.287982  0.300403  1
  Os  Os29  1  0.102906  0.602018  0.205196  1
