# generated using pymatgen
data_Dy2Lu6Ti9Si16Mo3
_symmetry_space_group_name_H-M   'P 1'
_cell_length_a   6.95515532
_cell_length_b   6.95581080
_cell_length_c   12.77892643
_cell_angle_alpha   89.96044089
_cell_angle_beta   89.96557717
_cell_angle_gamma   90.00436194
_symmetry_Int_Tables_number   1
_chemical_formula_structural   Dy2Lu6Ti9Si16Mo3
_chemical_formula_sum   'Dy2 Lu6 Ti9 Si16 Mo3'
_cell_volume   618.22815581
_cell_formula_units_Z   1
loop_
 _symmetry_equiv_pos_site_id
 _symmetry_equiv_pos_as_xyz
  1  'x, y, z'
loop_
 _atom_site_type_symbol
 _atom_site_label
 _atom_site_symmetry_multiplicity
 _atom_site_fract_x
 _atom_site_fract_y
 _atom_site_fract_z
 _atom_site_occupancy
  Dy  Dy0  1  0.499127  0.840772  0.717230  1
  Dy  Dy1  1  0.339966  0.001226  0.466950  1
  Lu  Lu2  1  0.998428  0.659577  0.033548  1
  Lu  Lu3  1  0.999298  0.341099  0.532946  1
  Lu  Lu4  1  0.659892  0.998590  0.966807  1
  Lu  Lu5  1  0.157685  0.500509  0.782045  1
  Lu  Lu6  1  0.841783  0.500718  0.282962  1
  Lu  Lu7  1  0.500748  0.157983  0.218026  1
  Ti  Ti8  1  0.347732  0.507727  0.374506  1
  Ti  Ti9  1  0.847802  0.991942  0.375846  1
  Ti  Ti10  1  0.007338  0.151180  0.124821  1
  Ti  Ti11  1  0.992043  0.847606  0.624103  1
  Ti  Ti12  1  0.508574  0.347467  0.625392  1
  Ti  Ti13  1  0.150932  0.008092  0.875422  1
  Ti  Ti14  1  0.327055  0.327177  0.000203  1
  Ti  Ti15  1  0.493039  0.652338  0.127073  1
  Ti  Ti16  1  0.653148  0.492997  0.873366  1
  Si  Si17  1  0.045582  0.705383  0.434665  1
  Si  Si18  1  0.952489  0.294290  0.934207  1
  Si  Si19  1  0.709241  0.048222  0.564867  1
  Si  Si20  1  0.207130  0.453814  0.184591  1
  Si  Si21  1  0.794199  0.546326  0.684573  1
  Si  Si22  1  0.453049  0.209146  0.815864  1
  Si  Si23  1  0.548245  0.792164  0.314787  1
  Si  Si24  1  0.294107  0.952389  0.066077  1
  Si  Si25  1  0.797173  0.868731  0.182723  1
  Si  Si26  1  0.296645  0.628538  0.566299  1
  Si  Si27  1  0.702825  0.367969  0.067046  1
  Si  Si28  1  0.632898  0.299375  0.432790  1
  Si  Si29  1  0.367717  0.702417  0.933846  1
  Si  Si30  1  0.130005  0.203439  0.315428  1
  Si  Si31  1  0.200597  0.132891  0.684077  1
  Si  Si32  1  0.870676  0.796706  0.817615  1
  Mo  Mo33  1  0.673590  0.671865  0.499560  1
  Mo  Mo34  1  0.827079  0.173260  0.749597  1
  Mo  Mo35  1  0.172157  0.826074  0.250144  1
