# generated using pymatgen
data_Tm4Lu3CoI12
_symmetry_space_group_name_H-M   'P 1'
_cell_length_a   9.63433071
_cell_length_b   9.63433007
_cell_length_c   9.63433000
_cell_angle_alpha   106.83666308
_cell_angle_beta   106.83665609
_cell_angle_gamma   106.83665968
_symmetry_Int_Tables_number   1
_chemical_formula_structural   Tm4Lu3CoI12
_chemical_formula_sum   'Tm4 Lu3 Co1 I12'
_cell_volume   748.04323467
_cell_formula_units_Z   1
loop_
 _symmetry_equiv_pos_site_id
 _symmetry_equiv_pos_as_xyz
  1  'x, y, z'
loop_
 _atom_site_type_symbol
 _atom_site_label
 _atom_site_symmetry_multiplicity
 _atom_site_fract_x
 _atom_site_fract_y
 _atom_site_fract_z
 _atom_site_occupancy
  Tm  Tm0  1  0.499951  0.499951  0.499951  1
  Tm  Tm1  1  0.715395  0.909996  0.979203  1
  Tm  Tm2  1  0.979203  0.715395  0.909996  1
  Tm  Tm3  1  0.909996  0.979203  0.715395  1
  Lu  Lu4  1  0.282280  0.090001  0.021660  1
  Lu  Lu5  1  0.021660  0.282280  0.090001  1
  Lu  Lu6  1  0.090001  0.021660  0.282280  1
  Co  Co7  1  0.000112  0.000112  0.000112  1
  I  I8  1  0.462993  0.161183  0.386689  1
  I  I9  1  0.386689  0.462993  0.161183  1
  I  I10  1  0.161183  0.386689  0.462993  1
  I  I11  1  0.536641  0.839035  0.613167  1
  I  I12  1  0.613167  0.536641  0.839035  1
  I  I13  1  0.839035  0.613167  0.536641  1
  I  I14  1  0.323917  0.776698  0.929612  1
  I  I15  1  0.929612  0.323917  0.776698  1
  I  I16  1  0.776698  0.929612  0.323917  1
  I  I17  1  0.676327  0.224457  0.070683  1
  I  I18  1  0.070683  0.676327  0.224457  1
  I  I19  1  0.224457  0.070683  0.676327  1
