# generated using pymatgen
data_Sc10Cd3Co
_symmetry_space_group_name_H-M   'P 1'
_cell_length_a   8.99308100
_cell_length_b   8.99308109
_cell_length_c   9.01291700
_cell_angle_alpha   90.00000000
_cell_angle_beta   90.00000000
_cell_angle_gamma   119.99999598
_symmetry_Int_Tables_number   1
_chemical_formula_structural   Sc10Cd3Co
_chemical_formula_sum   'Sc20 Cd6 Co2'
_cell_volume   631.26692555
_cell_formula_units_Z   2
loop_
 _symmetry_equiv_pos_site_id
 _symmetry_equiv_pos_as_xyz
  1  'x, y, z'
loop_
 _atom_site_type_symbol
 _atom_site_label
 _atom_site_symmetry_multiplicity
 _atom_site_fract_x
 _atom_site_fract_y
 _atom_site_fract_z
 _atom_site_occupancy
  Sc  Sc0  1  0.000000  0.000000  0.500000  1
  Sc  Sc1  1  0.000000  0.000000  0.000000  1
  Sc  Sc2  1  0.541730  0.458270  0.250000  1
  Sc  Sc3  1  0.541730  0.083459  0.250000  1
  Sc  Sc4  1  0.916541  0.458270  0.250000  1
  Sc  Sc5  1  0.458270  0.541730  0.750000  1
  Sc  Sc6  1  0.458270  0.916541  0.750000  1
  Sc  Sc7  1  0.083459  0.541730  0.750000  1
  Sc  Sc8  1  0.212361  0.787639  0.436489  1
  Sc  Sc9  1  0.212361  0.424723  0.436489  1
  Sc  Sc10  1  0.575277  0.787639  0.436489  1
  Sc  Sc11  1  0.787639  0.212361  0.563511  1
  Sc  Sc12  1  0.787639  0.575277  0.563511  1
  Sc  Sc13  1  0.424723  0.212361  0.563511  1
  Sc  Sc14  1  0.787639  0.212361  0.936489  1
  Sc  Sc15  1  0.787639  0.575277  0.936489  1
  Sc  Sc16  1  0.424723  0.212361  0.936489  1
  Sc  Sc17  1  0.212361  0.787639  0.063511  1
  Sc  Sc18  1  0.212361  0.424723  0.063511  1
  Sc  Sc19  1  0.575277  0.787639  0.063511  1
  Cd  Cd20  1  0.883902  0.116098  0.250000  1
  Cd  Cd21  1  0.883902  0.767806  0.250000  1
  Cd  Cd22  1  0.232194  0.116098  0.250000  1
  Cd  Cd23  1  0.116098  0.883902  0.750000  1
  Cd  Cd24  1  0.116098  0.232194  0.750000  1
  Cd  Cd25  1  0.767806  0.883902  0.750000  1
  Co  Co26  1  0.333333  0.666667  0.250000  1
  Co  Co27  1  0.666667  0.333333  0.750000  1
