# generated using pymatgen
data_Th4Sc6SiGe7
_symmetry_space_group_name_H-M   'P 1'
_cell_length_a   7.47081002
_cell_length_b   7.55026525
_cell_length_c   14.24623800
_cell_angle_alpha   90.00000000
_cell_angle_beta   90.00000000
_cell_angle_gamma   89.81174927
_symmetry_Int_Tables_number   1
_chemical_formula_structural   Th4Sc6SiGe7
_chemical_formula_sum   'Th8 Sc12 Si2 Ge14'
_cell_volume   803.57747230
_cell_formula_units_Z   2
loop_
 _symmetry_equiv_pos_site_id
 _symmetry_equiv_pos_as_xyz
  1  'x, y, z'
loop_
 _atom_site_type_symbol
 _atom_site_label
 _atom_site_symmetry_multiplicity
 _atom_site_fract_x
 _atom_site_fract_y
 _atom_site_fract_z
 _atom_site_occupancy
  Th  Th0  1  0.007037  0.679332  0.597633  1
  Th  Th1  1  0.992963  0.320668  0.402367  1
  Th  Th2  1  0.489005  0.176980  0.403366  1
  Th  Th3  1  0.992963  0.320668  0.097633  1
  Th  Th4  1  0.510995  0.823020  0.596634  1
  Th  Th5  1  0.007037  0.679332  0.902367  1
  Th  Th6  1  0.510995  0.823020  0.903366  1
  Th  Th7  1  0.489005  0.176980  0.096634  1
  Sc  Sc8  1  0.177959  0.000073  0.750000  1
  Sc  Sc9  1  0.822041  0.999927  0.250000  1
  Sc  Sc10  1  0.317096  0.497950  0.250000  1
  Sc  Sc11  1  0.682904  0.502050  0.750000  1
  Sc  Sc12  1  0.352235  0.333732  0.625338  1
  Sc  Sc13  1  0.647765  0.666268  0.374662  1
  Sc  Sc14  1  0.148361  0.835882  0.375172  1
  Sc  Sc15  1  0.647765  0.666268  0.125338  1
  Sc  Sc16  1  0.851639  0.164118  0.624828  1
  Sc  Sc17  1  0.352235  0.333732  0.874662  1
  Sc  Sc18  1  0.851639  0.164118  0.875172  1
  Sc  Sc19  1  0.148361  0.835882  0.124828  1
  Si  Si20  1  0.186253  0.129122  0.250000  1
  Si  Si21  1  0.813747  0.870878  0.750000  1
  Ge  Ge22  1  0.049030  0.369050  0.750000  1
  Ge  Ge23  1  0.950970  0.630950  0.250000  1
  Ge  Ge24  1  0.448102  0.872393  0.250000  1
  Ge  Ge25  1  0.551898  0.127607  0.750000  1
  Ge  Ge26  1  0.316454  0.631535  0.750000  1
  Ge  Ge27  1  0.683546  0.368465  0.250000  1
  Ge  Ge28  1  0.189799  0.043811  0.544180  1
  Ge  Ge29  1  0.810201  0.956189  0.455820  1
  Ge  Ge30  1  0.310349  0.544565  0.456586  1
  Ge  Ge31  1  0.810201  0.956189  0.044180  1
  Ge  Ge32  1  0.689651  0.455435  0.543414  1
  Ge  Ge33  1  0.189799  0.043811  0.955820  1
  Ge  Ge34  1  0.689651  0.455435  0.956586  1
  Ge  Ge35  1  0.310349  0.544565  0.043414  1
