# generated using pymatgen
data_Er8Nb11Si16Pt
_symmetry_space_group_name_H-M   'P 1'
_cell_length_a   7.03649087
_cell_length_b   7.03649090
_cell_length_c   12.94221078
_cell_angle_alpha   90.26964584
_cell_angle_beta   89.73035298
_cell_angle_gamma   89.69276769
_symmetry_Int_Tables_number   1
_chemical_formula_structural   Er8Nb11Si16Pt
_chemical_formula_sum   'Er8 Nb11 Si16 Pt1'
_cell_volume   640.77389799
_cell_formula_units_Z   1
loop_
 _symmetry_equiv_pos_site_id
 _symmetry_equiv_pos_as_xyz
  1  'x, y, z'
loop_
 _atom_site_type_symbol
 _atom_site_label
 _atom_site_symmetry_multiplicity
 _atom_site_fract_x
 _atom_site_fract_y
 _atom_site_fract_z
 _atom_site_occupancy
  Er  Er0  1  0.341883  0.001409  0.467287  1
  Er  Er1  1  0.495559  0.842861  0.718274  1
  Er  Er2  1  0.501995  0.157130  0.215977  1
  Er  Er3  1  0.842861  0.495559  0.281726  1
  Er  Er4  1  0.157130  0.501995  0.784023  1
  Er  Er5  1  0.655908  0.001503  0.967795  1
  Er  Er6  1  0.001409  0.341883  0.532713  1
  Er  Er7  1  0.001503  0.655908  0.032205  1
  Nb  Nb8  1  0.174901  0.826039  0.247658  1
  Nb  Nb9  1  0.826039  0.174901  0.752342  1
  Nb  Nb10  1  0.671034  0.671034  0.500000  1
  Nb  Nb11  1  0.149976  0.005085  0.875396  1
  Nb  Nb12  1  0.496201  0.655367  0.122169  1
  Nb  Nb13  1  0.503400  0.349377  0.624385  1
  Nb  Nb14  1  0.655367  0.496201  0.877831  1
  Nb  Nb15  1  0.349377  0.503400  0.375615  1
  Nb  Nb16  1  0.849030  0.992363  0.373503  1
  Nb  Nb17  1  0.005085  0.149976  0.124604  1
  Nb  Nb18  1  0.992363  0.849030  0.626497  1
  Si  Si19  1  0.202277  0.136791  0.682870  1
  Si  Si20  1  0.369891  0.712319  0.930097  1
  Si  Si21  1  0.635758  0.293376  0.431419  1
  Si  Si22  1  0.712319  0.369891  0.069903  1
  Si  Si23  1  0.293376  0.635758  0.568581  1
  Si  Si24  1  0.796519  0.864174  0.181805  1
  Si  Si25  1  0.136791  0.202277  0.317130  1
  Si  Si26  1  0.864174  0.796519  0.818195  1
  Si  Si27  1  0.290105  0.949116  0.061578  1
  Si  Si28  1  0.545962  0.793250  0.312596  1
  Si  Si29  1  0.449681  0.208921  0.814362  1
  Si  Si30  1  0.793250  0.545962  0.687404  1
  Si  Si31  1  0.208921  0.449681  0.185638  1
  Si  Si32  1  0.704596  0.046324  0.563837  1
  Si  Si33  1  0.949116  0.290105  0.938422  1
  Si  Si34  1  0.046324  0.704596  0.436163  1
  Pt  Pt35  1  0.329922  0.329922  0.000000  1
