# generated using pymatgen
data_Tb12Co2Ru3Pb
_symmetry_space_group_name_H-M   'P 1'
_cell_length_a   8.41256996
_cell_length_b   8.41257046
_cell_length_c   8.41257076
_cell_angle_alpha   112.67469280
_cell_angle_beta   109.80252717
_cell_angle_gamma   106.00504736
_symmetry_Int_Tables_number   1
_chemical_formula_structural   Tb12Co2Ru3Pb
_chemical_formula_sum   'Tb12 Co2 Ru3 Pb1'
_cell_volume   456.76036765
_cell_formula_units_Z   1
loop_
 _symmetry_equiv_pos_site_id
 _symmetry_equiv_pos_as_xyz
  1  'x, y, z'
loop_
 _atom_site_type_symbol
 _atom_site_label
 _atom_site_symmetry_multiplicity
 _atom_site_fract_x
 _atom_site_fract_y
 _atom_site_fract_z
 _atom_site_occupancy
  Tb  Tb0  1  0.822166  0.723749  0.545915  1
  Tb  Tb1  1  0.177834  0.276251  0.454085  1
  Tb  Tb2  1  0.177834  0.723749  0.901583  1
  Tb  Tb3  1  0.822166  0.276251  0.098417  1
  Tb  Tb4  1  0.678649  0.361024  0.682376  1
  Tb  Tb5  1  0.321351  0.638976  0.317624  1
  Tb  Tb6  1  0.678649  0.996274  0.317624  1
  Tb  Tb7  1  0.321351  0.003726  0.682376  1
  Tb  Tb8  1  0.582853  0.770879  0.811975  1
  Tb  Tb9  1  0.417147  0.229121  0.188025  1
  Tb  Tb10  1  0.958904  0.770879  0.188025  1
  Tb  Tb11  1  0.041096  0.229121  0.811975  1
  Co  Co12  1  0.109417  0.609417  0.500000  1
  Co  Co13  1  0.890583  0.390583  0.500000  1
  Ru  Ru14  1  0.664248  0.000000  0.664248  1
  Ru  Ru15  1  0.335752  0.000000  0.335752  1
  Ru  Ru16  1  0.000000  0.000000  0.000000  1
  Pb  Pb17  1  0.500000  0.500000  0.000000  1
