# generated using pymatgen
data_Rb2TiMnTe4
_symmetry_space_group_name_H-M   'P 1'
_cell_length_a   15.23734065
_cell_length_b   13.64688852
_cell_length_c   8.16894495
_cell_angle_alpha   84.64899817
_cell_angle_beta   63.08997911
_cell_angle_gamma   32.26102181
_symmetry_Int_Tables_number   1
_chemical_formula_structural   Rb2TiMnTe4
_chemical_formula_sum   'Rb4 Ti2 Mn2 Te8'
_cell_volume   641.83143928
_cell_formula_units_Z   2
loop_
 _symmetry_equiv_pos_site_id
 _symmetry_equiv_pos_as_xyz
  1  'x, y, z'
loop_
 _atom_site_type_symbol
 _atom_site_label
 _atom_site_symmetry_multiplicity
 _atom_site_fract_x
 _atom_site_fract_y
 _atom_site_fract_z
 _atom_site_occupancy
  Rb  Rb0  1  0.817368  0.817368  0.182632  1
  Rb  Rb1  1  0.182632  0.182632  0.817368  1
  Rb  Rb2  1  0.432632  0.432632  0.067368  1
  Rb  Rb3  1  0.067368  0.067368  0.432632  1
  Ti  Ti4  1  0.250000  0.250000  0.250000  1
  Ti  Ti5  1  0.000000  0.000000  0.000000  1
  Mn  Mn6  1  0.750000  0.750000  0.750000  1
  Mn  Mn7  1  0.500000  0.500000  0.500000  1
  Te  Te8  1  0.398989  0.713754  0.801724  1
  Te  Te9  1  0.085532  0.801724  0.713754  1
  Te  Te10  1  0.801724  0.085532  0.398989  1
  Te  Te11  1  0.713754  0.398989  0.085532  1
  Te  Te12  1  0.851011  0.536246  0.448276  1
  Te  Te13  1  0.164468  0.448276  0.536246  1
  Te  Te14  1  0.448276  0.164468  0.851011  1
  Te  Te15  1  0.536246  0.851011  0.164468  1
