# generated using pymatgen
data_PrNdB2(Pt3Rh)2
_symmetry_space_group_name_H-M   'P 1'
_cell_length_a   5.49448410
_cell_length_b   5.47045730
_cell_length_c   7.64431400
_cell_angle_alpha   90.00000000
_cell_angle_beta   90.00000000
_cell_angle_gamma   119.85544793
_symmetry_Int_Tables_number   1
_chemical_formula_structural   PrNdB2(Pt3Rh)2
_chemical_formula_sum   'Pr1 Nd1 B2 Pt6 Rh2'
_cell_volume   199.27391642
_cell_formula_units_Z   1
loop_
 _symmetry_equiv_pos_site_id
 _symmetry_equiv_pos_as_xyz
  1  'x, y, z'
loop_
 _atom_site_type_symbol
 _atom_site_label
 _atom_site_symmetry_multiplicity
 _atom_site_fract_x
 _atom_site_fract_y
 _atom_site_fract_z
 _atom_site_occupancy
  Pr  Pr0  1  0.000000  0.000000  0.500000  1
  Nd  Nd1  1  0.000000  0.000000  0.000000  1
  B  B2  1  0.328977  0.664489  0.000000  1
  B  B3  1  0.671023  0.335511  0.000000  1
  Pt  Pt4  1  0.315630  0.657815  0.500000  1
  Pt  Pt5  1  0.684370  0.342185  0.500000  1
  Pt  Pt6  1  0.500000  0.000000  0.200642  1
  Pt  Pt7  1  0.500000  0.000000  0.799358  1
  Pt  Pt8  1  0.500000  0.500000  0.200642  1
  Pt  Pt9  1  0.500000  0.500000  0.799358  1
  Rh  Rh10  1  0.000000  0.500000  0.190444  1
  Rh  Rh11  1  0.000000  0.500000  0.809556  1
