# generated using pymatgen
data_CePr(Si7Ir3)2
_symmetry_space_group_name_H-M   'P 1'
_cell_length_a   8.11529534
_cell_length_b   8.11529600
_cell_length_c   8.11529682
_cell_angle_alpha   56.56535414
_cell_angle_beta   56.56534973
_cell_angle_gamma   56.56535730
_symmetry_Int_Tables_number   1
_chemical_formula_structural   CePr(Si7Ir3)2
_chemical_formula_sum   'Ce1 Pr1 Si14 Ir6'
_cell_volume   347.92597717
_cell_formula_units_Z   1
loop_
 _symmetry_equiv_pos_site_id
 _symmetry_equiv_pos_as_xyz
  1  'x, y, z'
loop_
 _atom_site_type_symbol
 _atom_site_label
 _atom_site_symmetry_multiplicity
 _atom_site_fract_x
 _atom_site_fract_y
 _atom_site_fract_z
 _atom_site_occupancy
  Ce  Ce0  1  0.000000  0.000000  0.000000  1
  Pr  Pr1  1  0.500000  0.500000  0.500000  1
  Si  Si2  1  0.749617  0.749617  0.749617  1
  Si  Si3  1  0.250383  0.250383  0.250383  1
  Si  Si4  1  0.851154  0.062199  0.673301  1
  Si  Si5  1  0.673301  0.851154  0.062199  1
  Si  Si6  1  0.062199  0.673301  0.851154  1
  Si  Si7  1  0.649962  0.827881  0.434992  1
  Si  Si8  1  0.434992  0.649962  0.827881  1
  Si  Si9  1  0.827881  0.434992  0.649962  1
  Si  Si10  1  0.172119  0.565008  0.350038  1
  Si  Si11  1  0.565008  0.350038  0.172119  1
  Si  Si12  1  0.350038  0.172119  0.565008  1
  Si  Si13  1  0.937801  0.326699  0.148846  1
  Si  Si14  1  0.326699  0.148846  0.937801  1
  Si  Si15  1  0.148846  0.937801  0.326699  1
  Ir  Ir16  1  0.066978  0.431150  0.751190  1
  Ir  Ir17  1  0.248810  0.933022  0.568850  1
  Ir  Ir18  1  0.568850  0.248810  0.933022  1
  Ir  Ir19  1  0.933022  0.568850  0.248810  1
  Ir  Ir20  1  0.431150  0.751190  0.066978  1
  Ir  Ir21  1  0.751190  0.066978  0.431150  1
