# generated using pymatgen
data_Tm4Cd2CoCu3
_symmetry_space_group_name_H-M   'P 1'
_cell_length_a   3.64785600
_cell_length_b   7.41115664
_cell_length_c   7.41115664
_cell_angle_alpha   90.09663773
_cell_angle_beta   90.00000000
_cell_angle_gamma   90.00000000
_symmetry_Int_Tables_number   1
_chemical_formula_structural   Tm4Cd2CoCu3
_chemical_formula_sum   'Tm4 Cd2 Co1 Cu3'
_cell_volume   200.35909105
_cell_formula_units_Z   1
loop_
 _symmetry_equiv_pos_site_id
 _symmetry_equiv_pos_as_xyz
  1  'x, y, z'
loop_
 _atom_site_type_symbol
 _atom_site_label
 _atom_site_symmetry_multiplicity
 _atom_site_fract_x
 _atom_site_fract_y
 _atom_site_fract_z
 _atom_site_occupancy
  Tm  Tm0  1  0.500000  0.170935  0.670935  1
  Tm  Tm1  1  0.500000  0.811780  0.311780  1
  Tm  Tm2  1  0.500000  0.344792  0.180133  1
  Tm  Tm3  1  0.500000  0.680133  0.844792  1
  Cd  Cd4  1  0.000000  0.004743  0.001104  1
  Cd  Cd5  1  0.000000  0.501104  0.504743  1
  Co  Co6  1  0.000000  0.617054  0.117054  1
  Cu  Cu7  1  0.000000  0.378959  0.878959  1
  Cu  Cu8  1  0.000000  0.874876  0.615624  1
  Cu  Cu9  1  0.000000  0.115624  0.374876  1
