# generated using pymatgen
data_Y9TmAl4GaGeC8
_symmetry_space_group_name_H-M   'P 1'
_cell_length_a   10.86334000
_cell_length_b   10.86090262
_cell_length_c   3.51408900
_cell_angle_alpha   90.00000000
_cell_angle_beta   90.00000000
_cell_angle_gamma   90.04677184
_symmetry_Int_Tables_number   1
_chemical_formula_structural   Y9TmAl4GaGeC8
_chemical_formula_sum   'Y9 Tm1 Al4 Ga1 Ge1 C8'
_cell_volume   414.61203456
_cell_formula_units_Z   1
loop_
 _symmetry_equiv_pos_site_id
 _symmetry_equiv_pos_as_xyz
  1  'x, y, z'
loop_
 _atom_site_type_symbol
 _atom_site_label
 _atom_site_symmetry_multiplicity
 _atom_site_fract_x
 _atom_site_fract_y
 _atom_site_fract_z
 _atom_site_occupancy
  Y  Y0  1  0.449807  0.274415  0.500000  1
  Y  Y1  1  0.051236  0.771771  0.500000  1
  Y  Y2  1  0.948568  0.228245  0.500000  1
  Y  Y3  1  0.274534  0.550728  0.500000  1
  Y  Y4  1  0.725775  0.450149  0.500000  1
  Y  Y5  1  0.228486  0.050783  0.500000  1
  Y  Y6  1  0.771000  0.947708  0.500000  1
  Y  Y7  1  0.499968  0.999977  0.000000  1
  Y  Y8  1  0.000037  0.500083  0.000000  1
  Tm  Tm9  1  0.550044  0.728711  0.500000  1
  Al  Al10  1  0.706844  0.200786  0.000000  1
  Al  Al11  1  0.294530  0.798164  0.000000  1
  Al  Al12  1  0.201050  0.293199  0.000000  1
  Al  Al13  1  0.797530  0.705749  0.000000  1
  Ga  Ga14  1  0.999697  0.999836  0.000000  1
  Ge  Ge15  1  0.500783  0.503365  0.000000  1
  C  C16  1  0.632490  0.134369  0.500000  1
  C  C17  1  0.369389  0.863620  0.500000  1
  C  C18  1  0.135040  0.367330  0.500000  1
  C  C19  1  0.865179  0.632746  0.500000  1
  C  C20  1  0.164353  0.661981  0.000000  1
  C  C21  1  0.835792  0.338170  0.000000  1
  C  C22  1  0.659572  0.833876  0.000000  1
  C  C23  1  0.338296  0.164242  0.000000  1
