# generated using pymatgen
data_Dy5Tm5(IrRu)2
_symmetry_space_group_name_H-M   'P 1'
_cell_length_a   6.38339233
_cell_length_b   7.24202618
_cell_length_c   8.41042922
_cell_angle_alpha   96.97955778
_cell_angle_beta   112.10090459
_cell_angle_gamma   89.95207046
_symmetry_Int_Tables_number   1
_chemical_formula_structural   Dy5Tm5(IrRu)2
_chemical_formula_sum   'Dy5 Tm5 Ir2 Ru2'
_cell_volume   357.13938563
_cell_formula_units_Z   1
loop_
 _symmetry_equiv_pos_site_id
 _symmetry_equiv_pos_as_xyz
  1  'x, y, z'
loop_
 _atom_site_type_symbol
 _atom_site_label
 _atom_site_symmetry_multiplicity
 _atom_site_fract_x
 _atom_site_fract_y
 _atom_site_fract_z
 _atom_site_occupancy
  Dy  Dy0  1  0.790764  0.081278  0.813789  1
  Dy  Dy1  1  0.976176  0.418669  0.186227  1
  Dy  Dy2  1  0.211978  0.915358  0.184776  1
  Dy  Dy3  1  0.026056  0.584257  0.814851  1
  Dy  Dy4  1  0.208125  0.182948  0.563629  1
  Tm  Tm5  1  0.644066  0.318711  0.435592  1
  Tm  Tm6  1  0.789655  0.814387  0.436473  1
  Tm  Tm7  1  0.353717  0.684398  0.563133  1
  Tm  Tm8  1  0.425409  0.250216  0.001052  1
  Tm  Tm9  1  0.575579  0.750260  0.000007  1
  Ir  Ir10  1  0.602914  0.425083  0.779179  1
  Ir  Ir11  1  0.820797  0.075255  0.220549  1
  Ru  Ru12  1  0.397445  0.574511  0.220315  1
  Ru  Ru13  1  0.177317  0.924669  0.780427  1
