# generated using pymatgen
data_Er3TiGa2Rh3
_symmetry_space_group_name_H-M   'P 1'
_cell_length_a   6.83848700
_cell_length_b   7.03332940
_cell_length_c   4.09567600
_cell_angle_alpha   90.00000000
_cell_angle_beta   90.00000000
_cell_angle_gamma   119.08775077
_symmetry_Int_Tables_number   1
_chemical_formula_structural   Er3TiGa2Rh3
_chemical_formula_sum   'Er3 Ti1 Ga2 Rh3'
_cell_volume   172.14581778
_cell_formula_units_Z   1
loop_
 _symmetry_equiv_pos_site_id
 _symmetry_equiv_pos_as_xyz
  1  'x, y, z'
loop_
 _atom_site_type_symbol
 _atom_site_label
 _atom_site_symmetry_multiplicity
 _atom_site_fract_x
 _atom_site_fract_y
 _atom_site_fract_z
 _atom_site_occupancy
  Er  Er0  1  0.605334  0.000000  0.500001  1
  Er  Er1  1  0.417515  0.428290  0.500001  1
  Er  Er2  1  0.989224  0.571710  0.500001  1
  Ti  Ti3  1  0.233653  0.000000  0.000000  1
  Ga  Ga4  1  0.001971  0.247383  0.000000  1
  Ga  Ga5  1  0.754588  0.752618  0.000000  1
  Rh  Rh6  1  0.649951  0.320901  0.000000  1
  Rh  Rh7  1  0.329049  0.679098  0.000000  1
  Rh  Rh8  1  0.018716  0.000000  0.500001  1
