# generated using pymatgen
data_Pr5Nb2O12
_symmetry_space_group_name_H-M   'P 1'
_cell_length_a   7.14985726
_cell_length_b   7.14985744
_cell_length_c   7.81470702
_cell_angle_alpha   74.12997500
_cell_angle_beta   74.12997757
_cell_angle_gamma   50.75591640
_symmetry_Int_Tables_number   1
_chemical_formula_structural   Pr5Nb2O12
_chemical_formula_sum   'Pr5 Nb2 O12'
_cell_volume   294.87823392
_cell_formula_units_Z   1
loop_
 _symmetry_equiv_pos_site_id
 _symmetry_equiv_pos_as_xyz
  1  'x, y, z'
loop_
 _atom_site_type_symbol
 _atom_site_label
 _atom_site_symmetry_multiplicity
 _atom_site_fract_x
 _atom_site_fract_y
 _atom_site_fract_z
 _atom_site_occupancy
  Pr  Pr0  1  0.305431  0.305431  0.359855  1
  Pr  Pr1  1  0.694569  0.694569  0.640145  1
  Pr  Pr2  1  0.691065  0.691065  0.170346  1
  Pr  Pr3  1  0.308935  0.308935  0.829654  1
  Pr  Pr4  1  0.000000  0.000000  0.500000  1
  Nb  Nb5  1  0.766972  0.233028  0.000000  1
  Nb  Nb6  1  0.233028  0.766972  0.000000  1
  O  O7  1  0.095353  0.594093  0.577267  1
  O  O8  1  0.998974  0.998974  0.190000  1
  O  O9  1  0.405907  0.904647  0.422733  1
  O  O10  1  0.500575  0.500575  0.176235  1
  O  O11  1  0.100464  0.578330  0.079895  1
  O  O12  1  0.904647  0.405907  0.422733  1
  O  O13  1  0.001026  0.001026  0.810000  1
  O  O14  1  0.594093  0.095352  0.577267  1
  O  O15  1  0.499425  0.499425  0.823765  1
  O  O16  1  0.578330  0.100464  0.079895  1
  O  O17  1  0.421670  0.899536  0.920105  1
  O  O18  1  0.899536  0.421670  0.920105  1
