# generated using pymatgen
data_Ga2HgCl8
_symmetry_space_group_name_H-M   'P 1'
_cell_length_a   6.99431200
_cell_length_b   7.33050763
_cell_length_c   13.49627201
_cell_angle_alpha   87.07671023
_cell_angle_beta   90.00000000
_cell_angle_gamma   90.00000000
_symmetry_Int_Tables_number   1
_chemical_formula_structural   Ga2HgCl8
_chemical_formula_sum   'Ga4 Hg2 Cl16'
_cell_volume   691.07846939
_cell_formula_units_Z   2
loop_
 _symmetry_equiv_pos_site_id
 _symmetry_equiv_pos_as_xyz
  1  'x, y, z'
loop_
 _atom_site_type_symbol
 _atom_site_label
 _atom_site_symmetry_multiplicity
 _atom_site_fract_x
 _atom_site_fract_y
 _atom_site_fract_z
 _atom_site_occupancy
  Ga  Ga0  1  0.932578  0.224201  0.577405  1
  Ga  Ga1  1  0.067422  0.224201  0.077405  1
  Ga  Ga2  1  0.569141  0.637909  0.775840  1
  Ga  Ga3  1  0.430859  0.637909  0.275840  1
  Hg  Hg4  1  0.753670  0.079049  0.817710  1
  Hg  Hg5  1  0.246330  0.079049  0.317710  1
  Cl  Cl6  1  0.417505  0.613174  0.639859  1
  Cl  Cl7  1  0.582495  0.613174  0.139859  1
  Cl  Cl8  1  0.870947  0.732259  0.761134  1
  Cl  Cl9  1  0.129053  0.732259  0.261134  1
  Cl  Cl10  1  0.940457  0.479603  0.494326  1
  Cl  Cl11  1  0.059543  0.479603  0.994326  1
  Cl  Cl12  1  0.916953  0.002231  0.999755  1
  Cl  Cl13  1  0.083047  0.002231  0.499755  1
  Cl  Cl14  1  0.638988  0.128113  0.617771  1
  Cl  Cl15  1  0.361012  0.128113  0.117771  1
  Cl  Cl16  1  0.561160  0.379471  0.873179  1
  Cl  Cl17  1  0.438840  0.379471  0.373179  1
  Cl  Cl18  1  0.446616  0.862307  0.865147  1
  Cl  Cl19  1  0.553384  0.862307  0.365147  1
  Cl  Cl20  1  0.934970  0.229085  0.230076  1
  Cl  Cl21  1  0.065030  0.229085  0.730076  1
