# generated using pymatgen
data_LiLa6Cd22Sb
_symmetry_space_group_name_H-M   'P 1'
_cell_length_a   10.23206902
_cell_length_b   10.23206931
_cell_length_c   10.23206900
_cell_angle_alpha   60.00000423
_cell_angle_beta   60.00000330
_cell_angle_gamma   60.00000313
_symmetry_Int_Tables_number   1
_chemical_formula_structural   LiLa6Cd22Sb
_chemical_formula_sum   'Li1 La6 Cd22 Sb1'
_cell_volume   757.48743191
_cell_formula_units_Z   1
loop_
 _symmetry_equiv_pos_site_id
 _symmetry_equiv_pos_as_xyz
  1  'x, y, z'
loop_
 _atom_site_type_symbol
 _atom_site_label
 _atom_site_symmetry_multiplicity
 _atom_site_fract_x
 _atom_site_fract_y
 _atom_site_fract_z
 _atom_site_occupancy
  Li  Li0  1  0.500000  0.500000  0.500000  1
  La  La1  1  0.782030  0.782030  0.217970  1
  La  La2  1  0.217970  0.782030  0.217970  1
  La  La3  1  0.782030  0.217970  0.217970  1
  La  La4  1  0.217970  0.217970  0.782030  1
  La  La5  1  0.782030  0.217970  0.782030  1
  La  La6  1  0.217970  0.782030  0.782030  1
  Cd  Cd7  1  0.831842  0.831842  0.504474  1
  Cd  Cd8  1  0.831842  0.504474  0.831842  1
  Cd  Cd9  1  0.504474  0.831842  0.831842  1
  Cd  Cd10  1  0.831842  0.831842  0.831842  1
  Cd  Cd11  1  0.168158  0.168158  0.495526  1
  Cd  Cd12  1  0.168158  0.495526  0.168158  1
  Cd  Cd13  1  0.495526  0.168158  0.168158  1
  Cd  Cd14  1  0.168158  0.168158  0.168158  1
  Cd  Cd15  1  0.621507  0.621507  0.135480  1
  Cd  Cd16  1  0.621507  0.135480  0.621507  1
  Cd  Cd17  1  0.135480  0.621507  0.621507  1
  Cd  Cd18  1  0.621507  0.621507  0.621507  1
  Cd  Cd19  1  0.378493  0.378493  0.864520  1
  Cd  Cd20  1  0.378493  0.864520  0.378493  1
  Cd  Cd21  1  0.864520  0.378493  0.378493  1
  Cd  Cd22  1  0.378493  0.378493  0.378493  1
  Cd  Cd23  1  0.000000  0.000000  0.500000  1
  Cd  Cd24  1  0.500000  0.000000  0.500000  1
  Cd  Cd25  1  0.000000  0.500000  0.500000  1
  Cd  Cd26  1  0.500000  0.500000  0.000000  1
  Cd  Cd27  1  0.000000  0.500000  0.000000  1
  Cd  Cd28  1  0.500000  0.000000  0.000000  1
  Sb  Sb29  1  0.000000  0.000000  0.000000  1
