# generated using pymatgen
data_Na2(ZrTe2)5
_symmetry_space_group_name_H-M   'P 1'
_cell_length_a   6.85131654
_cell_length_b   11.40521869
_cell_length_c   9.11474999
_cell_angle_alpha   60.47977185
_cell_angle_beta   68.11802903
_cell_angle_gamma   90.06791482
_symmetry_Int_Tables_number   1
_chemical_formula_structural   Na2(ZrTe2)5
_chemical_formula_sum   'Na2 Zr5 Te10'
_cell_volume   559.85244461
_cell_formula_units_Z   1
loop_
 _symmetry_equiv_pos_site_id
 _symmetry_equiv_pos_as_xyz
  1  'x, y, z'
loop_
 _atom_site_type_symbol
 _atom_site_label
 _atom_site_symmetry_multiplicity
 _atom_site_fract_x
 _atom_site_fract_y
 _atom_site_fract_z
 _atom_site_occupancy
  Na  Na0  1  0.792306  0.086357  0.413663  1
  Na  Na1  1  0.007694  0.513643  0.986337  1
  Zr  Zr2  1  0.400000  0.800000  0.200000  1
  Zr  Zr3  1  0.803403  0.599857  0.398614  1
  Zr  Zr4  1  0.196833  0.400775  0.599655  1
  Zr  Zr5  1  0.603167  0.199225  0.800345  1
  Zr  Zr6  1  0.996597  0.000143  0.001386  1
  Te  Te7  1  0.977976  0.840709  0.380292  1
  Te  Te8  1  0.572748  0.044301  0.178893  1
  Te  Te9  1  0.179589  0.244144  0.978274  1
  Te  Te10  1  0.773413  0.444320  0.777900  1
  Te  Te11  1  0.382250  0.645537  0.574473  1
  Te  Te12  1  0.417750  0.954463  0.825527  1
  Te  Te13  1  0.026587  0.155680  0.622100  1
  Te  Te14  1  0.620411  0.355856  0.421726  1
  Te  Te15  1  0.227252  0.555699  0.221107  1
  Te  Te16  1  0.822024  0.759291  0.019708  1
