# generated using pymatgen
data_Dy5Ho7(Zn3C)4
_symmetry_space_group_name_H-M   'P 1'
_cell_length_a   9.13638791
_cell_length_b   9.13559045
_cell_length_c   9.13558961
_cell_angle_alpha   59.95895742
_cell_angle_beta   59.99711057
_cell_angle_gamma   59.99711311
_symmetry_Int_Tables_number   1
_chemical_formula_structural   Dy5Ho7(Zn3C)4
_chemical_formula_sum   'Dy5 Ho7 Zn12 C4'
_cell_volume   538.98775332
_cell_formula_units_Z   1
loop_
 _symmetry_equiv_pos_site_id
 _symmetry_equiv_pos_as_xyz
  1  'x, y, z'
loop_
 _atom_site_type_symbol
 _atom_site_label
 _atom_site_symmetry_multiplicity
 _atom_site_fract_x
 _atom_site_fract_y
 _atom_site_fract_z
 _atom_site_occupancy
  Dy  Dy0  1  0.447380  0.447356  0.052712  1
  Dy  Dy1  1  0.052553  0.447356  0.052712  1
  Dy  Dy2  1  0.447464  0.052536  0.052536  1
  Dy  Dy3  1  0.052553  0.052712  0.447356  1
  Dy  Dy4  1  0.447380  0.052712  0.447356  1
  Ho  Ho5  1  0.052781  0.447219  0.447219  1
  Ho  Ho6  1  0.803115  0.802870  0.197122  1
  Ho  Ho7  1  0.196893  0.802870  0.197122  1
  Ho  Ho8  1  0.803054  0.196946  0.196946  1
  Ho  Ho9  1  0.196893  0.197122  0.802870  1
  Ho  Ho10  1  0.803115  0.197122  0.802870  1
  Ho  Ho11  1  0.196812  0.803188  0.803188  1
  Zn  Zn12  1  0.826756  0.826421  0.520067  1
  Zn  Zn13  1  0.826756  0.520067  0.826421  1
  Zn  Zn14  1  0.520147  0.826637  0.826637  1
  Zn  Zn15  1  0.826579  0.826637  0.826637  1
  Zn  Zn16  1  0.423463  0.423571  0.729503  1
  Zn  Zn17  1  0.423463  0.729503  0.423571  1
  Zn  Zn18  1  0.729641  0.423485  0.423485  1
  Zn  Zn19  1  0.423389  0.423485  0.423485  1
  Zn  Zn20  1  0.625006  0.624961  0.125027  1
  Zn  Zn21  1  0.625006  0.125027  0.624961  1
  Zn  Zn22  1  0.124987  0.624898  0.624898  1
  Zn  Zn23  1  0.625217  0.624898  0.624898  1
  C  C24  1  0.124193  0.125262  0.626351  1
  C  C25  1  0.124193  0.626351  0.125262  1
  C  C26  1  0.626840  0.124393  0.124393  1
  C  C27  1  0.124373  0.124393  0.124393  1
