# generated using pymatgen
data_Lu4Al17SiIr5Rh
_symmetry_space_group_name_H-M   'P 1'
_cell_length_a   7.52093633
_cell_length_b   7.52106264
_cell_length_c   9.34547320
_cell_angle_alpha   89.98347165
_cell_angle_beta   89.99351844
_cell_angle_gamma   119.69645878
_symmetry_Int_Tables_number   1
_chemical_formula_structural   Lu4Al17SiIr5Rh
_chemical_formula_sum   'Lu4 Al17 Si1 Ir5 Rh1'
_cell_volume   459.20146887
_cell_formula_units_Z   1
loop_
 _symmetry_equiv_pos_site_id
 _symmetry_equiv_pos_as_xyz
  1  'x, y, z'
loop_
 _atom_site_type_symbol
 _atom_site_label
 _atom_site_symmetry_multiplicity
 _atom_site_fract_x
 _atom_site_fract_y
 _atom_site_fract_z
 _atom_site_occupancy
  Lu  Lu0  1  0.995279  0.675681  0.250302  1
  Lu  Lu1  1  0.004138  0.330004  0.749680  1
  Lu  Lu2  1  0.675122  0.994983  0.250306  1
  Lu  Lu3  1  0.329647  0.003893  0.749703  1
  Al  Al4  1  0.874931  0.874873  0.750046  1
  Al  Al5  1  0.999185  0.336380  0.077576  1
  Al  Al6  1  0.999076  0.665367  0.924163  1
  Al  Al7  1  0.998949  0.665263  0.575700  1
  Al  Al8  1  0.336867  0.000465  0.422519  1
  Al  Al9  1  0.999945  0.336697  0.422386  1
  Al  Al10  1  0.665321  0.999420  0.575809  1
  Al  Al11  1  0.665653  0.000278  0.924297  1
  Al  Al12  1  0.336918  0.000485  0.077557  1
  Al  Al13  1  0.332381  0.332248  0.558126  1
  Al  Al14  1  0.664535  0.664391  0.445471  1
  Al  Al15  1  0.664400  0.664053  0.054677  1
  Al  Al16  1  0.332716  0.332373  0.941684  1
  Al  Al17  1  0.336465  0.548899  0.249976  1
  Al  Al18  1  0.661310  0.450388  0.750757  1
  Al  Al19  1  0.550043  0.336366  0.249190  1
  Al  Al20  1  0.451585  0.661275  0.749997  1
  Si  Si21  1  0.130399  0.130575  0.249988  1
  Ir  Ir22  1  0.326385  0.670780  0.000512  1
  Ir  Ir23  1  0.326324  0.670801  0.499467  1
  Ir  Ir24  1  0.670744  0.326456  0.499491  1
  Ir  Ir25  1  0.000552  0.000540  0.007131  1
  Ir  Ir26  1  0.000462  0.000553  0.492847  1
  Rh  Rh27  1  0.670673  0.326516  0.000641  1
