# generated using pymatgen
data_Y7Ho10Tm3Pt16
_symmetry_space_group_name_H-M   'P 1'
_cell_length_a   7.46749805
_cell_length_b   7.55123033
_cell_length_c   14.70624700
_cell_angle_alpha   90.00099567
_cell_angle_beta   90.00372619
_cell_angle_gamma   89.97773765
_symmetry_Int_Tables_number   1
_chemical_formula_structural   Y7Ho10Tm3Pt16
_chemical_formula_sum   'Y7 Ho10 Tm3 Pt16'
_cell_volume   829.26752295
_cell_formula_units_Z   1
loop_
 _symmetry_equiv_pos_site_id
 _symmetry_equiv_pos_as_xyz
  1  'x, y, z'
loop_
 _atom_site_type_symbol
 _atom_site_label
 _atom_site_symmetry_multiplicity
 _atom_site_fract_x
 _atom_site_fract_y
 _atom_site_fract_z
 _atom_site_occupancy
  Y  Y0  1  0.498052  0.679944  0.093293  1
  Y  Y1  1  0.502171  0.320263  0.593056  1
  Y  Y2  1  0.001730  0.180072  0.906959  1
  Y  Y3  1  0.001600  0.179812  0.592974  1
  Y  Y4  1  0.502103  0.320296  0.906929  1
  Y  Y5  1  0.498017  0.679990  0.406714  1
  Y  Y6  1  0.998130  0.820041  0.093183  1
  Ho  Ho7  1  0.318714  0.011487  0.750011  1
  Ho  Ho8  1  0.656491  0.832233  0.622270  1
  Ho  Ho9  1  0.156091  0.667372  0.877686  1
  Ho  Ho10  1  0.843746  0.332310  0.377556  1
  Ho  Ho11  1  0.343717  0.167677  0.122475  1
  Ho  Ho12  1  0.343602  0.167559  0.377609  1
  Ho  Ho13  1  0.843741  0.332293  0.122504  1
  Ho  Ho14  1  0.155961  0.667507  0.622214  1
  Ho  Ho15  1  0.656524  0.832162  0.877727  1
  Ho  Ho16  1  0.997517  0.819629  0.406604  1
  Tm  Tm17  1  0.681458  0.988471  0.250105  1
  Tm  Tm18  1  0.181366  0.511641  0.250116  1
  Tm  Tm19  1  0.818615  0.488369  0.749961  1
  Pt  Pt20  1  0.817002  0.642896  0.250554  1
  Pt  Pt21  1  0.316153  0.857510  0.250184  1
  Pt  Pt22  1  0.684426  0.142781  0.749944  1
  Pt  Pt23  1  0.183276  0.358514  0.749949  1
  Pt  Pt24  1  0.546160  0.386313  0.250043  1
  Pt  Pt25  1  0.045978  0.113227  0.250271  1
  Pt  Pt26  1  0.953058  0.885963  0.749976  1
  Pt  Pt27  1  0.454094  0.613244  0.749963  1
  Pt  Pt28  1  0.817444  0.533354  0.541973  1
  Pt  Pt29  1  0.317262  0.967070  0.958005  1
  Pt  Pt30  1  0.683872  0.032067  0.457519  1
  Pt  Pt31  1  0.182661  0.467198  0.042311  1
  Pt  Pt32  1  0.182351  0.468005  0.457489  1
  Pt  Pt33  1  0.682707  0.032894  0.042261  1
  Pt  Pt34  1  0.316968  0.966919  0.541822  1
  Pt  Pt35  1  0.817244  0.532920  0.957786  1
