# generated using pymatgen
data_Pr3Y7(Er5Bi6)2
_symmetry_space_group_name_H-M   'P 1'
_cell_length_a   8.30500676
_cell_length_b   9.51977321
_cell_length_c   12.16083299
_cell_angle_alpha   90.00445553
_cell_angle_beta   89.95425929
_cell_angle_gamma   89.98243890
_symmetry_Int_Tables_number   1
_chemical_formula_structural   Pr3Y7(Er5Bi6)2
_chemical_formula_sum   'Pr3 Y7 Er10 Bi12'
_cell_volume   961.45675874
_cell_formula_units_Z   1
loop_
 _symmetry_equiv_pos_site_id
 _symmetry_equiv_pos_as_xyz
  1  'x, y, z'
loop_
 _atom_site_type_symbol
 _atom_site_label
 _atom_site_symmetry_multiplicity
 _atom_site_fract_x
 _atom_site_fract_y
 _atom_site_fract_z
 _atom_site_occupancy
  Pr  Pr0  1  0.182423  0.749924  0.719931  1
  Pr  Pr1  1  0.683119  0.750127  0.779652  1
  Pr  Pr2  1  0.816746  0.249834  0.280068  1
  Y  Y3  1  0.314718  0.250187  0.218727  1
  Y  Y4  1  0.307808  0.061821  0.939957  1
  Y  Y5  1  0.809352  0.437338  0.559996  1
  Y  Y6  1  0.352429  0.750252  0.217435  1
  Y  Y7  1  0.853601  0.749715  0.281606  1
  Y  Y8  1  0.647106  0.249755  0.784000  1
  Y  Y9  1  0.147584  0.250129  0.716528  1
  Er  Er10  1  0.023963  0.749775  0.988694  1
  Er  Er11  1  0.522132  0.750266  0.511266  1
  Er  Er12  1  0.975595  0.250162  0.013635  1
  Er  Er13  1  0.476673  0.249860  0.487777  1
  Er  Er14  1  0.307352  0.435144  0.939862  1
  Er  Er15  1  0.809172  0.065575  0.560131  1
  Er  Er16  1  0.692863  0.935331  0.060225  1
  Er  Er17  1  0.191394  0.565168  0.439351  1
  Er  Er18  1  0.693452  0.563700  0.060631  1
  Er  Er19  1  0.191803  0.935955  0.438963  1
  Bi  Bi20  1  0.434391  0.008880  0.670415  1
  Bi  Bi21  1  0.933827  0.490793  0.830409  1
  Bi  Bi22  1  0.562745  0.506527  0.328027  1
  Bi  Bi23  1  0.069942  0.993598  0.171513  1
  Bi  Bi24  1  0.562955  0.993571  0.328237  1
  Bi  Bi25  1  0.070231  0.506261  0.171239  1
  Bi  Bi26  1  0.433849  0.491006  0.670479  1
  Bi  Bi27  1  0.933338  0.009284  0.830372  1
  Bi  Bi28  1  0.406177  0.747493  0.963649  1
  Bi  Bi29  1  0.904363  0.752395  0.536054  1
  Bi  Bi30  1  0.590697  0.250061  0.040350  1
  Bi  Bi31  1  0.098198  0.250111  0.460823  1
