# generated using pymatgen
data_Hf16Fe3NiRh4
_symmetry_space_group_name_H-M   'P 1'
_cell_length_a   8.58528944
_cell_length_b   8.58528982
_cell_length_c   8.58529049
_cell_angle_alpha   60.13422596
_cell_angle_beta   60.13422352
_cell_angle_gamma   60.13422610
_symmetry_Int_Tables_number   1
_chemical_formula_structural   Hf16Fe3NiRh4
_chemical_formula_sum   'Hf16 Fe3 Ni1 Rh4'
_cell_volume   448.81609865
_cell_formula_units_Z   1
loop_
 _symmetry_equiv_pos_site_id
 _symmetry_equiv_pos_as_xyz
  1  'x, y, z'
loop_
 _atom_site_type_symbol
 _atom_site_label
 _atom_site_symmetry_multiplicity
 _atom_site_fract_x
 _atom_site_fract_y
 _atom_site_fract_z
 _atom_site_occupancy
  Hf  Hf0  1  0.679111  0.107779  0.107779  1
  Hf  Hf1  1  0.107779  0.679111  0.107779  1
  Hf  Hf2  1  0.107779  0.107779  0.679111  1
  Hf  Hf3  1  0.105077  0.105077  0.105077  1
  Hf  Hf4  1  0.311886  0.311886  0.688691  1
  Hf  Hf5  1  0.687459  0.687459  0.313733  1
  Hf  Hf6  1  0.311886  0.688691  0.311886  1
  Hf  Hf7  1  0.687459  0.313733  0.687459  1
  Hf  Hf8  1  0.688691  0.311886  0.311886  1
  Hf  Hf9  1  0.313733  0.687459  0.687459  1
  Hf  Hf10  1  0.944296  0.944296  0.550937  1
  Hf  Hf11  1  0.557863  0.557863  0.942561  1
  Hf  Hf12  1  0.944296  0.550937  0.944296  1
  Hf  Hf13  1  0.557863  0.942561  0.557863  1
  Hf  Hf14  1  0.550937  0.944296  0.944296  1
  Hf  Hf15  1  0.942561  0.557863  0.557863  1
  Fe  Fe16  1  0.319789  0.893351  0.893351  1
  Fe  Fe17  1  0.893351  0.319789  0.893351  1
  Fe  Fe18  1  0.893351  0.893351  0.319789  1
  Ni  Ni19  1  0.894120  0.894120  0.894120  1
  Rh  Rh20  1  0.994992  0.335089  0.335089  1
  Rh  Rh21  1  0.335089  0.994992  0.335089  1
  Rh  Rh22  1  0.335089  0.335089  0.994992  1
  Rh  Rh23  1  0.335537  0.335537  0.335537  1
