# generated using pymatgen
data_Hf3Be2Ir3Rh2
_symmetry_space_group_name_H-M   'P 1'
_cell_length_a   9.44926305
_cell_length_b   9.39665110
_cell_length_c   3.35005600
_cell_angle_alpha   90.00000000
_cell_angle_beta   90.00000000
_cell_angle_gamma   89.85958292
_symmetry_Int_Tables_number   1
_chemical_formula_structural   Hf3Be2Ir3Rh2
_chemical_formula_sum   'Hf6 Be4 Ir6 Rh4'
_cell_volume   297.45536291
_cell_formula_units_Z   2
loop_
 _symmetry_equiv_pos_site_id
 _symmetry_equiv_pos_as_xyz
  1  'x, y, z'
loop_
 _atom_site_type_symbol
 _atom_site_label
 _atom_site_symmetry_multiplicity
 _atom_site_fract_x
 _atom_site_fract_y
 _atom_site_fract_z
 _atom_site_occupancy
  Hf  Hf0  1  0.175730  0.672971  0.000000  1
  Hf  Hf1  1  0.324900  0.175109  0.000000  1
  Hf  Hf2  1  0.825968  0.324488  0.000000  1
  Hf  Hf3  1  0.500399  0.500084  0.000000  1
  Hf  Hf4  1  0.674393  0.825872  0.000000  1
  Hf  Hf5  1  0.001472  0.997032  0.000000  1
  Be  Be6  1  0.379894  0.880227  0.000000  1
  Be  Be7  1  0.119538  0.380182  0.000000  1
  Be  Be8  1  0.880626  0.621213  0.000000  1
  Be  Be9  1  0.618982  0.120904  0.000000  1
  Ir  Ir10  1  0.716119  0.573710  0.500000  1
  Ir  Ir11  1  0.283564  0.427222  0.500000  1
  Ir  Ir12  1  0.072066  0.215080  0.500000  1
  Ir  Ir13  1  0.999619  0.500675  0.500000  1
  Ir  Ir14  1  0.499917  0.999733  0.500000  1
  Ir  Ir15  1  0.784096  0.073152  0.500000  1
  Rh  Rh16  1  0.216143  0.926857  0.500000  1
  Rh  Rh17  1  0.927609  0.785119  0.500000  1
  Rh  Rh18  1  0.427152  0.715106  0.500000  1
  Rh  Rh19  1  0.571813  0.285264  0.500000  1
