# generated using pymatgen
data_Hf2MnBr12
_symmetry_space_group_name_H-M   'P 1'
_cell_length_a   9.43430392
_cell_length_b   9.43430321
_cell_length_c   7.20614194
_cell_angle_alpha   71.40211463
_cell_angle_beta   71.40212008
_cell_angle_gamma   82.32437779
_symmetry_Int_Tables_number   1
_chemical_formula_structural   Hf2MnBr12
_chemical_formula_sum   'Hf2 Mn1 Br12'
_cell_volume   575.79060460
_cell_formula_units_Z   1
loop_
 _symmetry_equiv_pos_site_id
 _symmetry_equiv_pos_as_xyz
  1  'x, y, z'
loop_
 _atom_site_type_symbol
 _atom_site_label
 _atom_site_symmetry_multiplicity
 _atom_site_fract_x
 _atom_site_fract_y
 _atom_site_fract_z
 _atom_site_occupancy
  Hf  Hf0  1  0.270630  0.270630  0.736709  1
  Hf  Hf1  1  0.729370  0.729370  0.263291  1
  Mn  Mn2  1  0.000000  0.000000  0.000000  1
  Br  Br3  1  0.970678  0.244893  0.758009  1
  Br  Br4  1  0.244893  0.970678  0.758009  1
  Br  Br5  1  0.029322  0.755107  0.241991  1
  Br  Br6  1  0.755107  0.029322  0.241991  1
  Br  Br7  1  0.208499  0.518450  0.799268  1
  Br  Br8  1  0.518450  0.208499  0.799268  1
  Br  Br9  1  0.791501  0.481550  0.200732  1
  Br  Br10  1  0.481550  0.791501  0.200732  1
  Br  Br11  1  0.126080  0.126080  0.150867  1
  Br  Br12  1  0.873920  0.873920  0.849133  1
  Br  Br13  1  0.657450  0.657450  0.643583  1
  Br  Br14  1  0.342550  0.342550  0.356417  1
