# generated using pymatgen
data_Ho20Ir5PdRu6
_symmetry_space_group_name_H-M   'P 1'
_cell_length_a   10.80534776
_cell_length_b   10.79924169
_cell_length_c   6.38322495
_cell_angle_alpha   90.02916315
_cell_angle_beta   89.88553246
_cell_angle_gamma   90.19317378
_symmetry_Int_Tables_number   1
_chemical_formula_structural   Ho20Ir5PdRu6
_chemical_formula_sum   'Ho20 Ir5 Pd1 Ru6'
_cell_volume   744.84990917
_cell_formula_units_Z   1
loop_
 _symmetry_equiv_pos_site_id
 _symmetry_equiv_pos_as_xyz
  1  'x, y, z'
loop_
 _atom_site_type_symbol
 _atom_site_label
 _atom_site_symmetry_multiplicity
 _atom_site_fract_x
 _atom_site_fract_y
 _atom_site_fract_z
 _atom_site_occupancy
  Ho  Ho0  1  0.296235  0.083882  0.371514  1
  Ho  Ho1  1  0.295483  0.908976  0.880917  1
  Ho  Ho2  1  0.708802  0.086082  0.877132  1
  Ho  Ho3  1  0.706928  0.913307  0.376604  1
  Ho  Ho4  1  0.587818  0.793368  0.879169  1
  Ho  Ho5  1  0.587789  0.206554  0.379127  1
  Ho  Ho6  1  0.413756  0.793082  0.378170  1
  Ho  Ho7  1  0.418971  0.206917  0.877312  1
  Ho  Ho8  1  0.206515  0.419228  0.621649  1
  Ho  Ho9  1  0.206346  0.586781  0.121254  1
  Ho  Ho10  1  0.792861  0.412744  0.121612  1
  Ho  Ho11  1  0.793105  0.587767  0.621933  1
  Ho  Ho12  1  0.913289  0.705983  0.121933  1
  Ho  Ho13  1  0.908802  0.295261  0.619510  1
  Ho  Ho14  1  0.085479  0.708771  0.622521  1
  Ho  Ho15  1  0.083569  0.295203  0.130032  1
  Ho  Ho16  1  0.996335  0.999197  0.497928  1
  Ho  Ho17  1  0.996793  0.996761  0.001688  1
  Ho  Ho18  1  0.499807  0.500459  0.000512  1
  Ho  Ho19  1  0.499860  0.499551  0.499907  1
  Ir  Ir20  1  0.153400  0.847870  0.250163  1
  Ir  Ir21  1  0.651974  0.348226  0.749567  1
  Ir  Ir22  1  0.652420  0.652043  0.249746  1
  Ir  Ir23  1  0.346461  0.345702  0.250471  1
  Ir  Ir24  1  0.347639  0.652813  0.750437  1
  Pd  Pd25  1  0.154827  0.154569  0.750250  1
  Ru  Ru26  1  0.848693  0.152369  0.249571  1
  Ru  Ru27  1  0.847131  0.847075  0.749410  1
  Ru  Ru28  1  0.499677  0.000663  0.122800  1
  Ru  Ru29  1  0.499377  0.000125  0.624329  1
  Ru  Ru30  1  0.999988  0.499516  0.875736  1
  Ru  Ru31  1  0.999868  0.499155  0.377095  1
