# generated using pymatgen
data_CeHo(Si2Rh3)2
_symmetry_space_group_name_H-M   'P 1'
_cell_length_a   6.64981724
_cell_length_b   6.64981651
_cell_length_c   6.64981663
_cell_angle_alpha   130.34716255
_cell_angle_beta   114.35785040
_cell_angle_gamma   86.56869385
_symmetry_Int_Tables_number   1
_chemical_formula_structural   CeHo(Si2Rh3)2
_chemical_formula_sum   'Ce1 Ho1 Si4 Rh6'
_cell_volume   194.86115479
_cell_formula_units_Z   1
loop_
 _symmetry_equiv_pos_site_id
 _symmetry_equiv_pos_as_xyz
  1  'x, y, z'
loop_
 _atom_site_type_symbol
 _atom_site_label
 _atom_site_symmetry_multiplicity
 _atom_site_fract_x
 _atom_site_fract_y
 _atom_site_fract_z
 _atom_site_occupancy
  Ce  Ce0  1  0.750000  0.038963  0.288963  1
  Ho  Ho1  1  0.250000  0.956078  0.706078  1
  Si  Si2  1  0.079972  0.274525  0.194553  1
  Si  Si3  1  0.922107  0.727026  0.804919  1
  Si  Si4  1  0.420028  0.614581  0.194553  1
  Si  Si5  1  0.577893  0.382813  0.804919  1
  Rh  Rh6  1  0.498963  0.498713  0.497676  1
  Rh  Rh7  1  0.001037  0.498713  0.999750  1
  Rh  Rh8  1  0.283782  0.000477  0.287599  1
  Rh  Rh9  1  0.712879  0.000477  0.716695  1
  Rh  Rh10  1  0.216218  0.503817  0.716695  1
  Rh  Rh11  1  0.787121  0.503817  0.287599  1
