# generated using pymatgen
data_NiHgP2O7
_symmetry_space_group_name_H-M   'P 1'
_cell_length_a   6.48589395
_cell_length_b   6.72442426
_cell_length_c   6.60072183
_cell_angle_alpha   67.11899372
_cell_angle_beta   81.26015915
_cell_angle_gamma   84.60627559
_symmetry_Int_Tables_number   1
_chemical_formula_structural   NiHgP2O7
_chemical_formula_sum   'Ni2 Hg2 P4 O14'
_cell_volume   261.95840960
_cell_formula_units_Z   2
loop_
 _symmetry_equiv_pos_site_id
 _symmetry_equiv_pos_as_xyz
  1  'x, y, z'
loop_
 _atom_site_type_symbol
 _atom_site_label
 _atom_site_symmetry_multiplicity
 _atom_site_fract_x
 _atom_site_fract_y
 _atom_site_fract_z
 _atom_site_occupancy
  Ni  Ni0  1  0.647078  0.781154  0.097664  1
  Ni  Ni1  1  0.352913  0.218853  0.902339  1
  Hg  Hg2  1  0.865421  0.203426  0.276146  1
  Hg  Hg3  1  0.134579  0.796574  0.723855  1
  P  P4  1  0.143386  0.759625  0.217872  1
  P  P5  1  0.381704  0.333073  0.357887  1
  P  P6  1  0.618297  0.666926  0.642112  1
  P  P7  1  0.856614  0.240374  0.782128  1
  O  O8  1  0.331747  0.874397  0.054226  1
  O  O9  1  0.975849  0.727959  0.090499  1
  O  O10  1  0.291143  0.247553  0.209920  1
  O  O11  1  0.594485  0.444950  0.245424  1
  O  O12  1  0.046997  0.869050  0.376207  1
  O  O13  1  0.607932  0.820341  0.403310  1
  O  O14  1  0.224391  0.530500  0.379261  1
  O  O15  1  0.775610  0.469499  0.620738  1
  O  O16  1  0.392069  0.179658  0.596689  1
  O  O17  1  0.953005  0.130950  0.623793  1
  O  O18  1  0.405516  0.555050  0.754575  1
  O  O19  1  0.708858  0.752447  0.790078  1
  O  O20  1  0.024150  0.272041  0.909500  1
  O  O21  1  0.668252  0.125604  0.945773  1
