# generated using pymatgen
data_Pr5FeCoO12
_symmetry_space_group_name_H-M   'P 1'
_cell_length_a   7.01594871
_cell_length_b   7.01594805
_cell_length_c   7.63227457
_cell_angle_alpha   74.45373366
_cell_angle_beta   74.45373822
_cell_angle_gamma   50.85188434
_symmetry_Int_Tables_number   1
_chemical_formula_structural   Pr5FeCoO12
_chemical_formula_sum   'Pr5 Fe1 Co1 O12'
_cell_volume   278.22704691
_cell_formula_units_Z   1
loop_
 _symmetry_equiv_pos_site_id
 _symmetry_equiv_pos_as_xyz
  1  'x, y, z'
loop_
 _atom_site_type_symbol
 _atom_site_label
 _atom_site_symmetry_multiplicity
 _atom_site_fract_x
 _atom_site_fract_y
 _atom_site_fract_z
 _atom_site_occupancy
  Pr  Pr0  1  0.314697  0.305461  0.355577  1
  Pr  Pr1  1  0.694539  0.685303  0.644423  1
  Pr  Pr2  1  0.695158  0.690386  0.164527  1
  Pr  Pr3  1  0.309614  0.304842  0.835473  1
  Pr  Pr4  1  0.994414  0.005586  0.500000  1
  Fe  Fe5  1  0.239575  0.760425  0.000000  1
  Co  Co6  1  0.757483  0.242517  0.000000  1
  O  O7  1  0.098287  0.594641  0.580047  1
  O  O8  1  0.981302  0.015739  0.170195  1
  O  O9  1  0.405359  0.901713  0.419953  1
  O  O10  1  0.514495  0.487620  0.169761  1
  O  O11  1  0.102006  0.590857  0.074025  1
  O  O12  1  0.908596  0.404588  0.418731  1
  O  O13  1  0.984261  0.018698  0.829805  1
  O  O14  1  0.595412  0.091403  0.581269  1
  O  O15  1  0.512380  0.485505  0.830239  1
  O  O16  1  0.589050  0.105768  0.074108  1
  O  O17  1  0.409143  0.897994  0.925975  1
  O  O18  1  0.894232  0.410950  0.925892  1
