# generated using pymatgen
data_NdU5(Ni3Sb4)2
_symmetry_space_group_name_H-M   'P 1'
_cell_length_a   8.14727465
_cell_length_b   8.14727391
_cell_length_c   8.14727415
_cell_angle_alpha   109.36836126
_cell_angle_beta   109.67712846
_cell_angle_gamma   109.36836608
_symmetry_Int_Tables_number   1
_chemical_formula_structural   NdU5(Ni3Sb4)2
_chemical_formula_sum   'Nd1 U5 Ni6 Sb8'
_cell_volume   416.30432161
_cell_formula_units_Z   1
loop_
 _symmetry_equiv_pos_site_id
 _symmetry_equiv_pos_as_xyz
  1  'x, y, z'
loop_
 _atom_site_type_symbol
 _atom_site_label
 _atom_site_symmetry_multiplicity
 _atom_site_fract_x
 _atom_site_fract_y
 _atom_site_fract_z
 _atom_site_occupancy
  Nd  Nd0  1  0.875000  0.250000  0.125000  1
  U  U1  1  0.625000  0.750000  0.375000  1
  U  U2  1  0.250049  0.123267  0.878337  1
  U  U3  1  0.755070  0.376733  0.626781  1
  U  U4  1  0.121663  0.871711  0.244930  1
  U  U5  1  0.373219  0.628289  0.749951  1
  Ni  Ni6  1  0.375000  0.250000  0.625000  1
  Ni  Ni7  1  0.125000  0.750000  0.875000  1
  Ni  Ni8  1  0.263899  0.634719  0.382785  1
  Ni  Ni9  1  0.748066  0.865281  0.129180  1
  Ni  Ni10  1  0.617215  0.381114  0.251934  1
  Ni  Ni11  1  0.870820  0.118886  0.736101  1
  Sb  Sb12  1  0.661139  0.497315  0.996201  1
  Sb  Sb13  1  0.498887  0.002685  0.663825  1
  Sb  Sb14  1  0.998732  0.665649  0.498093  1
  Sb  Sb15  1  0.832444  0.834351  0.833083  1
  Sb  Sb16  1  0.501907  0.000639  0.167556  1
  Sb  Sb17  1  0.166917  0.499361  0.001268  1
  Sb  Sb18  1  0.003799  0.164938  0.501113  1
  Sb  Sb19  1  0.336175  0.335062  0.338861  1
