# generated using pymatgen
data_Yb2ErPa(Al8Pt3)3
_symmetry_space_group_name_H-M   'P 1'
_cell_length_a   7.53800089
_cell_length_b   7.54440527
_cell_length_c   13.18472825
_cell_angle_alpha   84.56394540
_cell_angle_beta   100.93081983
_cell_angle_gamma   119.85077770
_symmetry_Int_Tables_number   1
_chemical_formula_structural   Yb2ErPa(Al8Pt3)3
_chemical_formula_sum   'Yb2 Er1 Pa1 Al24 Pt9'
_cell_volume   638.53134163
_cell_formula_units_Z   1
loop_
 _symmetry_equiv_pos_site_id
 _symmetry_equiv_pos_as_xyz
  1  'x, y, z'
loop_
 _atom_site_type_symbol
 _atom_site_label
 _atom_site_symmetry_multiplicity
 _atom_site_fract_x
 _atom_site_fract_y
 _atom_site_fract_z
 _atom_site_occupancy
  Yb  Yb0  1  0.767889  0.501400  0.807815  1
  Yb  Yb1  1  0.232479  0.498788  0.192538  1
  Er  Er2  1  0.563204  0.168783  0.192732  1
  Pa  Pa3  1  0.435615  0.831108  0.804477  1
  Al  Al4  1  0.483118  0.167510  0.944304  1
  Al  Al5  1  0.517954  0.834011  0.054945  1
  Al  Al6  1  0.021333  0.168305  0.560839  1
  Al  Al7  1  0.978247  0.831894  0.439593  1
  Al  Al8  1  0.353973  0.833315  0.558067  1
  Al  Al9  1  0.647153  0.167829  0.441770  1
  Al  Al10  1  0.616787  0.833856  0.330005  1
  Al  Al11  1  0.383611  0.169730  0.670782  1
  Al  Al12  1  0.051765  0.489583  0.670818  1
  Al  Al13  1  0.944260  0.506551  0.329298  1
  Al  Al14  1  0.734164  0.839370  0.668955  1
  Al  Al15  1  0.269427  0.160606  0.330814  1
  Al  Al16  1  0.146952  0.500140  0.945421  1
  Al  Al17  1  0.851862  0.499725  0.054160  1
  Al  Al18  1  0.816661  0.831754  0.953019  1
  Al  Al19  1  0.182811  0.167509  0.046072  1
  Al  Al20  1  0.314001  0.499851  0.441175  1
  Al  Al21  1  0.685573  0.498703  0.559268  1
  Al  Al22  1  0.103201  0.838198  0.182993  1
  Al  Al23  1  0.897398  0.159456  0.817548  1
  Al  Al24  1  0.304140  0.370134  0.816308  1
  Al  Al25  1  0.693292  0.629126  0.183924  1
  Al  Al26  1  0.107645  0.962580  0.817200  1
  Al  Al27  1  0.894837  0.040224  0.183060  1
  Pt  Pt28  1  0.388008  0.509381  0.639703  1
  Pt  Pt29  1  0.612675  0.492395  0.361927  1
  Pt  Pt30  1  0.171393  0.829209  0.998938  1
  Pt  Pt31  1  0.827814  0.171358  0.998831  1
  Pt  Pt32  1  0.295611  0.833765  0.362399  1
  Pt  Pt33  1  0.703844  0.165035  0.639747  1
  Pt  Pt34  1  0.048856  0.825153  0.638990  1
  Pt  Pt35  1  0.952869  0.173946  0.362893  1
  Pt  Pt36  1  0.499583  0.499724  0.998678  1
