# generated using pymatgen
data_FeRuPtO6
_symmetry_space_group_name_H-M   'P 1'
_cell_length_a   4.59250800
_cell_length_b   9.18319000
_cell_length_c   9.38711500
_cell_angle_alpha   90.00000000
_cell_angle_beta   90.00000000
_cell_angle_gamma   90.00000000
_symmetry_Int_Tables_number   1
_chemical_formula_structural   FeRuPtO6
_chemical_formula_sum   'Fe4 Ru4 Pt4 O24'
_cell_volume   395.89100092
_cell_formula_units_Z   4
loop_
 _symmetry_equiv_pos_site_id
 _symmetry_equiv_pos_as_xyz
  1  'x, y, z'
loop_
 _atom_site_type_symbol
 _atom_site_label
 _atom_site_symmetry_multiplicity
 _atom_site_fract_x
 _atom_site_fract_y
 _atom_site_fract_z
 _atom_site_occupancy
  Fe  Fe0  1  0.000000  0.500000  0.998889  1
  Fe  Fe1  1  0.500000  0.750000  0.498889  1
  Fe  Fe2  1  0.000000  0.000000  0.998889  1
  Fe  Fe3  1  0.500000  0.250000  0.498889  1
  Ru  Ru4  1  0.500000  0.250000  0.168316  1
  Ru  Ru5  1  0.500000  0.750000  0.168316  1
  Ru  Ru6  1  0.000000  0.000000  0.668316  1
  Ru  Ru7  1  0.000000  0.500000  0.668316  1
  Pt  Pt8  1  0.000000  0.000000  0.331894  1
  Pt  Pt9  1  0.000000  0.500000  0.331894  1
  Pt  Pt10  1  0.500000  0.250000  0.831894  1
  Pt  Pt11  1  0.500000  0.750000  0.831894  1
  O  O12  1  0.308786  0.154313  0.002606  1
  O  O13  1  0.308786  0.654313  0.002606  1
  O  O14  1  0.191214  0.404313  0.502606  1
  O  O15  1  0.191214  0.904313  0.502606  1
  O  O16  1  0.808786  0.095687  0.502606  1
  O  O17  1  0.808786  0.595687  0.502606  1
  O  O18  1  0.691214  0.345687  0.002606  1
  O  O19  1  0.691214  0.845687  0.002606  1
  O  O20  1  0.308362  0.154222  0.332780  1
  O  O21  1  0.308362  0.654222  0.332780  1
  O  O22  1  0.191638  0.404222  0.832780  1
  O  O23  1  0.191638  0.904222  0.832780  1
  O  O24  1  0.808362  0.095778  0.832780  1
  O  O25  1  0.808362  0.595778  0.832780  1
  O  O26  1  0.799511  0.100233  0.165064  1
  O  O27  1  0.799511  0.600233  0.165064  1
  O  O28  1  0.200489  0.399767  0.165064  1
  O  O29  1  0.200489  0.899767  0.165064  1
  O  O30  1  0.691638  0.345778  0.332780  1
  O  O31  1  0.691638  0.845778  0.332780  1
  O  O32  1  0.299511  0.149767  0.665064  1
  O  O33  1  0.299511  0.649767  0.665064  1
  O  O34  1  0.700489  0.350233  0.665064  1
  O  O35  1  0.700489  0.850233  0.665064  1
