# generated using pymatgen
data_TbDyGa6(NiAu)2
_symmetry_space_group_name_H-M   'P 1'
_cell_length_a   4.07961621
_cell_length_b   6.58884700
_cell_length_c   7.97803520
_cell_angle_alpha   90.00000000
_cell_angle_beta   104.81376310
_cell_angle_gamma   90.00000000
_symmetry_Int_Tables_number   1
_chemical_formula_structural   TbDyGa6(NiAu)2
_chemical_formula_sum   'Tb1 Dy1 Ga6 Ni2 Au2'
_cell_volume   207.32145677
_cell_formula_units_Z   1
loop_
 _symmetry_equiv_pos_site_id
 _symmetry_equiv_pos_as_xyz
  1  'x, y, z'
loop_
 _atom_site_type_symbol
 _atom_site_label
 _atom_site_symmetry_multiplicity
 _atom_site_fract_x
 _atom_site_fract_y
 _atom_site_fract_z
 _atom_site_occupancy
  Tb  Tb0  1  0.125323  0.250000  0.250644  1
  Dy  Dy1  1  0.874745  0.750000  0.749491  1
  Ga  Ga2  1  0.069813  0.750000  0.139625  1
  Ga  Ga3  1  0.930195  0.250000  0.860390  1
  Ga  Ga4  1  0.685403  0.551779  0.370805  1
  Ga  Ga5  1  0.314850  0.448570  0.629700  1
  Ga  Ga6  1  0.685403  0.948221  0.370805  1
  Ga  Ga7  1  0.314850  0.051430  0.629700  1
  Ni  Ni8  1  0.224549  0.750000  0.449099  1
  Ni  Ni9  1  0.775736  0.250000  0.551472  1
  Au  Au10  1  0.499567  0.500679  0.999135  1
  Au  Au11  1  0.499567  0.999321  0.999135  1
