# generated using pymatgen
data_RbBeBiF6
_symmetry_space_group_name_H-M   'P 1'
_cell_length_a   6.06683700
_cell_length_b   6.68119783
_cell_length_c   7.43905884
_cell_angle_alpha   66.47686719
_cell_angle_beta   90.00000000
_cell_angle_gamma   90.00000000
_symmetry_Int_Tables_number   1
_chemical_formula_structural   RbBeBiF6
_chemical_formula_sum   'Rb2 Be2 Bi2 F12'
_cell_volume   276.47518318
_cell_formula_units_Z   2
loop_
 _symmetry_equiv_pos_site_id
 _symmetry_equiv_pos_as_xyz
  1  'x, y, z'
loop_
 _atom_site_type_symbol
 _atom_site_label
 _atom_site_symmetry_multiplicity
 _atom_site_fract_x
 _atom_site_fract_y
 _atom_site_fract_z
 _atom_site_occupancy
  Rb  Rb0  1  0.250000  0.078889  0.786326  1
  Rb  Rb1  1  0.750000  0.921111  0.213674  1
  Be  Be2  1  0.250000  0.768395  0.463547  1
  Be  Be3  1  0.750000  0.231605  0.536453  1
  Bi  Bi4  1  0.250000  0.392952  0.183036  1
  Bi  Bi5  1  0.750000  0.607048  0.816964  1
  F  F6  1  0.459212  0.760998  0.590338  1
  F  F7  1  0.540788  0.239002  0.409662  1
  F  F8  1  0.959212  0.239002  0.409662  1
  F  F9  1  0.040788  0.760998  0.590338  1
  F  F10  1  0.250000  0.572316  0.400378  1
  F  F11  1  0.750000  0.427684  0.599622  1
  F  F12  1  0.497987  0.679215  0.031194  1
  F  F13  1  0.502013  0.320785  0.968806  1
  F  F14  1  0.997987  0.320785  0.968806  1
  F  F15  1  0.002013  0.679215  0.031194  1
  F  F16  1  0.250000  0.987618  0.274906  1
  F  F17  1  0.750000  0.012382  0.725094  1
