# generated using pymatgen
data_Hf18Re6PIrW2
_symmetry_space_group_name_H-M   'P 1'
_cell_length_a   8.63711500
_cell_length_b   8.63711475
_cell_length_c   8.58363300
_cell_angle_alpha   90.00000000
_cell_angle_beta   90.00000000
_cell_angle_gamma   119.99999715
_symmetry_Int_Tables_number   1
_chemical_formula_structural   Hf18Re6PIrW2
_chemical_formula_sum   'Hf18 Re6 P1 Ir1 W2'
_cell_volume   554.54804216
_cell_formula_units_Z   1
loop_
 _symmetry_equiv_pos_site_id
 _symmetry_equiv_pos_as_xyz
  1  'x, y, z'
loop_
 _atom_site_type_symbol
 _atom_site_label
 _atom_site_symmetry_multiplicity
 _atom_site_fract_x
 _atom_site_fract_y
 _atom_site_fract_z
 _atom_site_occupancy
  Hf  Hf0  1  0.196785  0.803215  0.447966  1
  Hf  Hf1  1  0.196785  0.393570  0.447966  1
  Hf  Hf2  1  0.606430  0.803215  0.447966  1
  Hf  Hf3  1  0.804020  0.195980  0.549126  1
  Hf  Hf4  1  0.804020  0.608039  0.549126  1
  Hf  Hf5  1  0.391961  0.195980  0.549126  1
  Hf  Hf6  1  0.804020  0.195980  0.950874  1
  Hf  Hf7  1  0.804020  0.608039  0.950874  1
  Hf  Hf8  1  0.391961  0.195980  0.950874  1
  Hf  Hf9  1  0.196785  0.803215  0.052034  1
  Hf  Hf10  1  0.196785  0.393570  0.052034  1
  Hf  Hf11  1  0.606430  0.803215  0.052034  1
  Hf  Hf12  1  0.541227  0.458773  0.250000  1
  Hf  Hf13  1  0.541227  0.082452  0.250000  1
  Hf  Hf14  1  0.917548  0.458773  0.250000  1
  Hf  Hf15  1  0.459641  0.540359  0.750000  1
  Hf  Hf16  1  0.459641  0.919283  0.750000  1
  Hf  Hf17  1  0.080717  0.540359  0.750000  1
  Re  Re18  1  0.888322  0.111678  0.250000  1
  Re  Re19  1  0.888322  0.776644  0.250000  1
  Re  Re20  1  0.223356  0.111678  0.250000  1
  Re  Re21  1  0.110491  0.889509  0.750000  1
  Re  Re22  1  0.110491  0.220982  0.750000  1
  Re  Re23  1  0.779018  0.889509  0.750000  1
  P  P24  1  0.666667  0.333333  0.750000  1
  Ir  Ir25  1  0.333333  0.666667  0.250000  1
  W  W26  1  0.000000  0.000000  0.499584  1
  W  W27  1  0.000000  0.000000  0.000416  1
