# generated using pymatgen
data_KZr2Br9
_symmetry_space_group_name_H-M   'P 1'
_cell_length_a   8.09709800
_cell_length_b   10.76269352
_cell_length_c   12.92614873
_cell_angle_alpha   62.26352559
_cell_angle_beta   90.00000000
_cell_angle_gamma   90.00000000
_symmetry_Int_Tables_number   1
_chemical_formula_structural   KZr2Br9
_chemical_formula_sum   'K2 Zr4 Br18'
_cell_volume   997.03555459
_cell_formula_units_Z   2
loop_
 _symmetry_equiv_pos_site_id
 _symmetry_equiv_pos_as_xyz
  1  'x, y, z'
loop_
 _atom_site_type_symbol
 _atom_site_label
 _atom_site_symmetry_multiplicity
 _atom_site_fract_x
 _atom_site_fract_y
 _atom_site_fract_z
 _atom_site_occupancy
  K  K0  1  0.516416  0.500000  0.750000  1
  K  K1  1  0.483584  0.500000  0.250000  1
  Zr  Zr2  1  0.290110  0.813973  0.869356  1
  Zr  Zr3  1  0.709890  0.186027  0.130644  1
  Zr  Zr4  1  0.290110  0.186027  0.630644  1
  Zr  Zr5  1  0.709890  0.813973  0.369356  1
  Br  Br6  1  0.172975  0.740873  0.072183  1
  Br  Br7  1  0.827025  0.259127  0.927817  1
  Br  Br8  1  0.172975  0.259127  0.427817  1
  Br  Br9  1  0.827025  0.740873  0.572183  1
  Br  Br10  1  0.160675  0.621239  0.833570  1
  Br  Br11  1  0.839325  0.378761  0.166430  1
  Br  Br12  1  0.160675  0.378761  0.666430  1
  Br  Br13  1  0.839325  0.621239  0.333570  1
  Br  Br14  1  0.035684  0.000000  0.750000  1
  Br  Br15  1  0.964316  0.000000  0.250000  1
  Br  Br16  1  0.412355  0.059861  0.857881  1
  Br  Br17  1  0.587645  0.940139  0.142119  1
  Br  Br18  1  0.412355  0.940139  0.642119  1
  Br  Br19  1  0.587645  0.059861  0.357881  1
  Br  Br20  1  0.575653  0.699517  0.934728  1
  Br  Br21  1  0.424347  0.300483  0.065272  1
  Br  Br22  1  0.575653  0.300483  0.565272  1
  Br  Br23  1  0.424347  0.699517  0.434728  1
