# generated using pymatgen
data_SrAc(PIr)2
_symmetry_space_group_name_H-M   'P 1'
_cell_length_a   6.41795500
_cell_length_b   6.42084296
_cell_length_c   6.41037333
_cell_angle_alpha   90.21566792
_cell_angle_beta   90.00000000
_cell_angle_gamma   90.00000000
_symmetry_Int_Tables_number   1
_chemical_formula_structural   SrAc(PIr)2
_chemical_formula_sum   'Sr2 Ac2 P4 Ir4'
_cell_volume   264.16115917
_cell_formula_units_Z   2
loop_
 _symmetry_equiv_pos_site_id
 _symmetry_equiv_pos_as_xyz
  1  'x, y, z'
loop_
 _atom_site_type_symbol
 _atom_site_label
 _atom_site_symmetry_multiplicity
 _atom_site_fract_x
 _atom_site_fract_y
 _atom_site_fract_z
 _atom_site_occupancy
  Sr  Sr0  1  0.391857  0.888147  0.607967  1
  Sr  Sr1  1  0.891857  0.611853  0.392033  1
  Ac  Ac2  1  0.613479  0.390539  0.884660  1
  Ac  Ac3  1  0.113479  0.109461  0.115340  1
  P  P4  1  0.663786  0.167324  0.335306  1
  P  P5  1  0.163786  0.332676  0.664694  1
  P  P6  1  0.333629  0.664918  0.166610  1
  P  P7  1  0.833629  0.835082  0.833390  1
  Ir  Ir8  1  0.086352  0.585490  0.912710  1
  Ir  Ir9  1  0.586352  0.914510  0.087290  1
  Ir  Ir10  1  0.910896  0.088746  0.587079  1
  Ir  Ir11  1  0.410896  0.411254  0.412921  1
