# generated using pymatgen
data_LaEu3(Ni5C3)2
_symmetry_space_group_name_H-M   'P 1'
_cell_length_a   8.31296303
_cell_length_b   8.31296303
_cell_length_c   4.01495900
_cell_angle_alpha   90.00000000
_cell_angle_beta   90.00000000
_cell_angle_gamma   90.00996633
_symmetry_Int_Tables_number   1
_chemical_formula_structural   LaEu3(Ni5C3)2
_chemical_formula_sum   'La1 Eu3 Ni10 C6'
_cell_volume   277.45516025
_cell_formula_units_Z   1
loop_
 _symmetry_equiv_pos_site_id
 _symmetry_equiv_pos_as_xyz
  1  'x, y, z'
loop_
 _atom_site_type_symbol
 _atom_site_label
 _atom_site_symmetry_multiplicity
 _atom_site_fract_x
 _atom_site_fract_y
 _atom_site_fract_z
 _atom_site_occupancy
  La  La0  1  0.840056  0.340056  0.000000  1
  Eu  Eu1  1  0.342175  0.156581  0.000000  1
  Eu  Eu2  1  0.656581  0.842175  0.000000  1
  Eu  Eu3  1  0.158837  0.658837  0.000000  1
  Ni  Ni4  1  0.923005  0.787496  0.500000  1
  Ni  Ni5  1  0.712559  0.574663  0.500000  1
  Ni  Ni6  1  0.423596  0.713061  0.500000  1
  Ni  Ni7  1  0.287496  0.423005  0.500000  1
  Ni  Ni8  1  0.576552  0.288055  0.500000  1
  Ni  Ni9  1  0.788055  0.076552  0.500000  1
  Ni  Ni10  1  0.074663  0.212559  0.500000  1
  Ni  Ni11  1  0.213061  0.923596  0.500000  1
  Ni  Ni12  1  0.500356  0.499562  0.000000  1
  Ni  Ni13  1  0.999562  0.000356  0.000000  1
  C  C14  1  0.443003  0.943003  0.500000  1
  C  C15  1  0.058925  0.443892  0.500000  1
  C  C16  1  0.943892  0.558925  0.500000  1
  C  C17  1  0.498887  0.500768  0.500000  1
  C  C18  1  0.557971  0.057971  0.500000  1
  C  C19  1  0.000768  0.998887  0.500000  1
