# generated using pymatgen
data_Cs6AlBi3
_symmetry_space_group_name_H-M   'P 1'
_cell_length_a   6.66621000
_cell_length_b   11.39187602
_cell_length_c   13.55438306
_cell_angle_alpha   78.58442765
_cell_angle_beta   90.00000000
_cell_angle_gamma   90.00000000
_symmetry_Int_Tables_number   1
_chemical_formula_structural   Cs6AlBi3
_chemical_formula_sum   'Cs12 Al2 Bi6'
_cell_volume   1008.96571884
_cell_formula_units_Z   2
loop_
 _symmetry_equiv_pos_site_id
 _symmetry_equiv_pos_as_xyz
  1  'x, y, z'
loop_
 _atom_site_type_symbol
 _atom_site_label
 _atom_site_symmetry_multiplicity
 _atom_site_fract_x
 _atom_site_fract_y
 _atom_site_fract_z
 _atom_site_occupancy
  Cs  Cs0  1  0.750000  0.457414  0.079097  1
  Cs  Cs1  1  0.250000  0.542586  0.920903  1
  Cs  Cs2  1  0.750000  0.741106  0.227656  1
  Cs  Cs3  1  0.250000  0.258894  0.772344  1
  Cs  Cs4  1  0.250000  0.561290  0.544674  1
  Cs  Cs5  1  0.750000  0.438710  0.455326  1
  Cs  Cs6  1  0.250000  0.863228  0.021732  1
  Cs  Cs7  1  0.750000  0.136772  0.978268  1
  Cs  Cs8  1  0.250000  0.872973  0.678153  1
  Cs  Cs9  1  0.750000  0.127027  0.321847  1
  Cs  Cs10  1  0.250000  0.916792  0.369480  1
  Cs  Cs11  1  0.750000  0.083208  0.630520  1
  Al  Al12  1  0.750000  0.679432  0.719186  1
  Al  Al13  1  0.250000  0.320568  0.280814  1
  Bi  Bi14  1  0.250000  0.214368  0.482157  1
  Bi  Bi15  1  0.750000  0.785632  0.517843  1
  Bi  Bi16  1  0.250000  0.566140  0.229520  1
  Bi  Bi17  1  0.750000  0.433860  0.770480  1
  Bi  Bi18  1  0.750000  0.813115  0.873269  1
  Bi  Bi19  1  0.250000  0.186885  0.126731  1
