# generated using pymatgen
data_Hf7Zr3Sn6Se
_symmetry_space_group_name_H-M   'P 1'
_cell_length_a   5.83332300
_cell_length_b   8.55924621
_cell_length_c   8.55925000
_cell_angle_alpha   120.00010254
_cell_angle_beta   89.99992818
_cell_angle_gamma   90.00018985
_symmetry_Int_Tables_number   1
_chemical_formula_structural   Hf7Zr3Sn6Se
_chemical_formula_sum   'Hf7 Zr3 Sn6 Se1'
_cell_volume   370.09859684
_cell_formula_units_Z   1
loop_
 _symmetry_equiv_pos_site_id
 _symmetry_equiv_pos_as_xyz
  1  'x, y, z'
loop_
 _atom_site_type_symbol
 _atom_site_label
 _atom_site_symmetry_multiplicity
 _atom_site_fract_x
 _atom_site_fract_y
 _atom_site_fract_z
 _atom_site_occupancy
  Hf  Hf0  1  0.500244  0.333334  0.666668  1
  Hf  Hf1  1  0.500245  0.666668  0.333332  1
  Hf  Hf2  1  0.999372  0.666668  0.333333  1
  Hf  Hf3  1  0.999372  0.333336  0.666667  1
  Hf  Hf4  1  0.764757  0.257567  0.000002  1
  Hf  Hf5  1  0.764760  0.742434  0.742433  1
  Hf  Hf6  1  0.764759  0.999997  0.257564  1
  Zr  Zr7  1  0.234508  0.744228  0.000001  1
  Zr  Zr8  1  0.234510  0.255772  0.255770  1
  Zr  Zr9  1  0.234510  0.999999  0.744228  1
  Sn  Sn10  1  0.747221  0.607581  0.999998  1
  Sn  Sn11  1  0.747218  0.392412  0.392415  1
  Sn  Sn12  1  0.747218  0.000004  0.607588  1
  Sn  Sn13  1  0.252336  0.392909  0.999998  1
  Sn  Sn14  1  0.252339  0.607090  0.607091  1
  Sn  Sn15  1  0.252337  0.000004  0.392911  1
  Se  Se16  1  0.504292  0.999999  0.000000  1
