# generated using pymatgen
data_NaSr3AgO6
_symmetry_space_group_name_H-M   'P 1'
_cell_length_a   6.86897433
_cell_length_b   6.86897429
_cell_length_c   6.86897475
_cell_angle_alpha   90.53758235
_cell_angle_beta   90.53758745
_cell_angle_gamma   90.53758525
_symmetry_Int_Tables_number   1
_chemical_formula_structural   NaSr3AgO6
_chemical_formula_sum   'Na2 Sr6 Ag2 O12'
_cell_volume   324.05445108
_cell_formula_units_Z   2
loop_
 _symmetry_equiv_pos_site_id
 _symmetry_equiv_pos_as_xyz
  1  'x, y, z'
loop_
 _atom_site_type_symbol
 _atom_site_label
 _atom_site_symmetry_multiplicity
 _atom_site_fract_x
 _atom_site_fract_y
 _atom_site_fract_z
 _atom_site_occupancy
  Na  Na0  1  0.250000  0.250000  0.250000  1
  Na  Na1  1  0.750000  0.750000  0.750000  1
  Sr  Sr2  1  0.750000  0.388018  0.111982  1
  Sr  Sr3  1  0.111982  0.750000  0.388018  1
  Sr  Sr4  1  0.388018  0.111982  0.750000  1
  Sr  Sr5  1  0.250000  0.611982  0.888018  1
  Sr  Sr6  1  0.888018  0.250000  0.611982  1
  Sr  Sr7  1  0.611982  0.888018  0.250000  1
  Ag  Ag8  1  0.000000  0.000000  0.000000  1
  Ag  Ag9  1  0.500000  0.500000  0.500000  1
  O  O10  1  0.442903  0.784811  0.576157  1
  O  O11  1  0.576157  0.442903  0.784811  1
  O  O12  1  0.784811  0.576157  0.442903  1
  O  O13  1  0.057097  0.923843  0.715189  1
  O  O14  1  0.715189  0.057097  0.923843  1
  O  O15  1  0.923843  0.715189  0.057097  1
  O  O16  1  0.557097  0.215189  0.423843  1
  O  O17  1  0.423843  0.557097  0.215189  1
  O  O18  1  0.215189  0.423843  0.557097  1
  O  O19  1  0.942903  0.076157  0.284811  1
  O  O20  1  0.076157  0.284811  0.942903  1
  O  O21  1  0.284811  0.942903  0.076157  1
