# generated using pymatgen
data_Ta4Zn2FeCo9B4
_symmetry_space_group_name_H-M   'P 1'
_cell_length_a   8.54684493
_cell_length_b   8.54684493
_cell_length_c   3.03975500
_cell_angle_alpha   90.00000000
_cell_angle_beta   90.00000000
_cell_angle_gamma   89.62845157
_symmetry_Int_Tables_number   1
_chemical_formula_structural   Ta4Zn2FeCo9B4
_chemical_formula_sum   'Ta4 Zn2 Fe1 Co9 B4'
_cell_volume   222.04505123
_cell_formula_units_Z   1
loop_
 _symmetry_equiv_pos_site_id
 _symmetry_equiv_pos_as_xyz
  1  'x, y, z'
loop_
 _atom_site_type_symbol
 _atom_site_label
 _atom_site_symmetry_multiplicity
 _atom_site_fract_x
 _atom_site_fract_y
 _atom_site_fract_z
 _atom_site_occupancy
  Ta  Ta0  1  0.823871  0.323871  0.000000  1
  Ta  Ta1  1  0.176129  0.676129  0.000000  1
  Ta  Ta2  1  0.325491  0.174509  0.000000  1
  Ta  Ta3  1  0.674509  0.825491  0.000000  1
  Zn  Zn4  1  0.500000  0.500000  0.000000  1
  Zn  Zn5  1  0.000000  0.000000  0.000000  1
  Fe  Fe6  1  0.500000  0.000000  0.500000  1
  Co  Co7  1  0.000000  0.500000  0.500000  1
  Co  Co8  1  0.721920  0.569848  0.500000  1
  Co  Co9  1  0.278080  0.430152  0.500000  1
  Co  Co10  1  0.220865  0.929483  0.500000  1
  Co  Co11  1  0.779135  0.070517  0.500000  1
  Co  Co12  1  0.429483  0.720865  0.500000  1
  Co  Co13  1  0.570517  0.279135  0.500000  1
  Co  Co14  1  0.069848  0.221920  0.500000  1
  Co  Co15  1  0.930152  0.778080  0.500000  1
  B  B16  1  0.621513  0.121513  0.000000  1
  B  B17  1  0.378487  0.878487  0.000000  1
  B  B18  1  0.120600  0.379400  0.000000  1
  B  B19  1  0.879400  0.620600  0.000000  1
