# generated using pymatgen
data_Y5Fe4Co10P12Ru5
_symmetry_space_group_name_H-M   'P 1'
_cell_length_a   12.14363425
_cell_length_b   12.11160314
_cell_length_c   3.72883700
_cell_angle_alpha   90.00000000
_cell_angle_beta   90.00000000
_cell_angle_gamma   119.95365383
_symmetry_Int_Tables_number   1
_chemical_formula_structural   Y5Fe4Co10P12Ru5
_chemical_formula_sum   'Y5 Fe4 Co10 P12 Ru5'
_cell_volume   475.17870975
_cell_formula_units_Z   1
loop_
 _symmetry_equiv_pos_site_id
 _symmetry_equiv_pos_as_xyz
  1  'x, y, z'
loop_
 _atom_site_type_symbol
 _atom_site_label
 _atom_site_symmetry_multiplicity
 _atom_site_fract_x
 _atom_site_fract_y
 _atom_site_fract_z
 _atom_site_occupancy
  Y  Y0  1  0.332962  0.666682  0.500000  1
  Y  Y1  1  0.662435  0.332064  0.500000  1
  Y  Y2  1  0.003518  0.185092  0.000000  1
  Y  Y3  1  0.814187  0.815808  0.000000  1
  Y  Y4  1  0.186801  0.001879  0.000000  1
  Fe  Fe5  1  0.620343  0.819766  0.500000  1
  Fe  Fe6  1  0.181443  0.804016  0.500000  1
  Fe  Fe7  1  0.200395  0.378166  0.500000  1
  Fe  Fe8  1  0.376755  0.198119  0.500000  1
  Co  Co9  1  0.513110  0.639897  0.000000  1
  Co  Co10  1  0.358900  0.873725  0.000000  1
  Co  Co11  1  0.128390  0.486035  0.000000  1
  Co  Co12  1  0.482279  0.123517  0.000000  1
  Co  Co13  1  0.634887  0.511308  0.000000  1
  Co  Co14  1  0.877959  0.364015  0.000000  1
  Co  Co15  1  0.003901  0.718023  0.000000  1
  Co  Co16  1  0.284303  0.284309  0.000000  1
  Co  Co17  1  0.713061  0.996260  0.000000  1
  Co  Co18  1  0.000490  0.000660  0.500000  1
  P  P19  1  0.008419  0.367541  0.500000  1
  P  P20  1  0.631210  0.638426  0.500000  1
  P  P21  1  0.361019  0.000017  0.500000  1
  P  P22  1  0.520825  0.831803  0.000000  1
  P  P23  1  0.168890  0.690951  0.000000  1
  P  P24  1  0.310649  0.477595  0.000000  1
  P  P25  1  0.475714  0.308927  0.000000  1
  P  P26  1  0.834942  0.518950  0.000000  1
  P  P27  1  0.682806  0.164409  0.000000  1
  P  P28  1  0.006628  0.823395  0.500000  1
  P  P29  1  0.182363  0.182140  0.500000  1
  P  P30  1  0.816519  0.994101  0.500000  1
  Ru  Ru31  1  0.818820  0.622249  0.500000  1
  Ru  Ru32  1  0.803698  0.181578  0.500000  1
  Ru  Ru33  1  0.007901  0.555598  0.500000  1
  Ru  Ru34  1  0.445890  0.447104  0.500000  1
  Ru  Ru35  1  0.547588  0.995874  0.500000  1
