# generated using pymatgen
data_Zr6TiAl14VSiIr7
_symmetry_space_group_name_H-M   'P 1'
_cell_length_a   8.81351501
_cell_length_b   8.81351417
_cell_length_c   8.81351500
_cell_angle_alpha   120.14670421
_cell_angle_beta   119.78860253
_cell_angle_gamma   90.05631327
_symmetry_Int_Tables_number   1
_chemical_formula_structural   Zr6TiAl14VSiIr7
_chemical_formula_sum   'Zr6 Ti1 Al14 V1 Si1 Ir7'
_cell_volume   484.32754778
_cell_formula_units_Z   1
loop_
 _symmetry_equiv_pos_site_id
 _symmetry_equiv_pos_as_xyz
  1  'x, y, z'
loop_
 _atom_site_type_symbol
 _atom_site_label
 _atom_site_symmetry_multiplicity
 _atom_site_fract_x
 _atom_site_fract_y
 _atom_site_fract_z
 _atom_site_occupancy
  Zr  Zr0  1  0.793668  0.293053  0.084085  1
  Zr  Zr1  1  0.208968  0.293053  0.499385  1
  Zr  Zr2  1  0.205799  0.708660  0.502860  1
  Zr  Zr3  1  0.206611  0.709823  0.909941  1
  Zr  Zr4  1  0.799881  0.709823  0.503211  1
  Zr  Zr5  1  0.792531  0.291988  0.499457  1
  Ti  Ti6  1  0.380505  0.637203  0.256698  1
  Al  Al7  1  0.162047  0.337691  0.175643  1
  Al  Al8  1  0.165250  0.993427  0.828176  1
  Al  Al9  1  0.159567  0.336804  0.821416  1
  Al  Al10  1  0.515386  0.336804  0.177238  1
  Al  Al11  1  0.836137  0.662271  0.826135  1
  Al  Al12  1  0.835937  0.009067  0.173132  1
  Al  Al13  1  0.835031  0.662949  0.171706  1
  Al  Al14  1  0.491243  0.662949  0.827917  1
  Al  Al15  1  0.380580  0.119888  0.260480  1
  Al  Al16  1  0.859409  0.119888  0.739307  1
  Al  Al17  1  0.618623  0.879154  0.260532  1
  Al  Al18  1  0.619533  0.360346  0.740812  1
  Al  Al19  1  0.620056  0.878599  0.741061  1
  Al  Al20  1  0.137537  0.878599  0.258544  1
  V  V21  1  0.379507  0.125500  0.745993  1
  Si  Si22  1  0.999285  0.496218  0.496933  1
  Ir  Ir23  1  0.004575  0.000395  0.501475  1
  Ir  Ir24  1  0.498920  0.000395  0.995819  1
  Ir  Ir25  1  0.496782  0.494880  0.998098  1
  Ir  Ir26  1  0.498695  0.500662  0.497890  1
  Ir  Ir27  1  0.002772  0.500662  0.001967  1
  Ir  Ir28  1  0.001315  0.000904  0.999590  1
  Ir  Ir29  1  0.493847  0.998347  0.504500  1
