# generated using pymatgen
data_Yb7In(GeN)2
_symmetry_space_group_name_H-M   'P 1'
_cell_length_a   11.92429768
_cell_length_b   11.92429782
_cell_length_c   4.76833600
_cell_angle_alpha   90.00000000
_cell_angle_beta   90.00000000
_cell_angle_gamma   156.70130610
_symmetry_Int_Tables_number   1
_chemical_formula_structural   Yb7In(GeN)2
_chemical_formula_sum   'Yb7 In1 Ge2 N2'
_cell_volume   268.16737228
_cell_formula_units_Z   1
loop_
 _symmetry_equiv_pos_site_id
 _symmetry_equiv_pos_as_xyz
  1  'x, y, z'
loop_
 _atom_site_type_symbol
 _atom_site_label
 _atom_site_symmetry_multiplicity
 _atom_site_fract_x
 _atom_site_fract_y
 _atom_site_fract_z
 _atom_site_occupancy
  Yb  Yb0  1  0.000699  0.999301  0.000000  1
  Yb  Yb1  1  0.797961  0.202037  0.000000  1
  Yb  Yb2  1  0.596380  0.403618  0.000000  1
  Yb  Yb3  1  0.406972  0.593026  0.000000  1
  Yb  Yb4  1  0.197941  0.802057  0.000000  1
  Yb  Yb5  1  0.905734  0.094265  0.499999  1
  Yb  Yb6  1  0.097585  0.902414  0.499999  1
  In  In7  1  0.291091  0.708908  0.499999  1
  Ge  Ge8  1  0.708025  0.291974  0.499999  1
  Ge  Ge9  1  0.500101  0.499897  0.499999  1
  N  N10  1  0.894579  0.105420  0.000000  1
  N  N11  1  0.102924  0.897075  0.000000  1
