# generated using pymatgen
data_TaIn2Ni9
_symmetry_space_group_name_H-M   'P 1'
_cell_length_a   3.70754900
_cell_length_b   3.70754900
_cell_length_c   11.13897900
_cell_angle_alpha   90.00000000
_cell_angle_beta   90.00000000
_cell_angle_gamma   90.00000000
_symmetry_Int_Tables_number   1
_chemical_formula_structural   TaIn2Ni9
_chemical_formula_sum   'Ta1 In2 Ni9'
_cell_volume   153.11550962
_cell_formula_units_Z   1
loop_
 _symmetry_equiv_pos_site_id
 _symmetry_equiv_pos_as_xyz
  1  'x, y, z'
loop_
 _atom_site_type_symbol
 _atom_site_label
 _atom_site_symmetry_multiplicity
 _atom_site_fract_x
 _atom_site_fract_y
 _atom_site_fract_z
 _atom_site_occupancy
  Ta  Ta0  1  0.000000  0.000000  0.000000  1
  In  In1  1  0.000000  0.000000  0.332224  1
  In  In2  1  0.000000  0.000000  0.667776  1
  Ni  Ni3  1  0.500000  0.500000  0.000000  1
  Ni  Ni4  1  0.500000  0.500000  0.331855  1
  Ni  Ni5  1  0.500000  0.500000  0.668145  1
  Ni  Ni6  1  0.500000  0.000000  0.159011  1
  Ni  Ni7  1  0.500000  0.000000  0.500000  1
  Ni  Ni8  1  0.500000  0.000000  0.840989  1
  Ni  Ni9  1  0.000000  0.500000  0.159011  1
  Ni  Ni10  1  0.000000  0.500000  0.500000  1
  Ni  Ni11  1  0.000000  0.500000  0.840989  1
