# generated using pymatgen
data_TbCe3Y(SiB4)2
_symmetry_space_group_name_H-M   'P 1'
_cell_length_a   7.31623015
_cell_length_b   7.31623081
_cell_length_c   8.25934400
_cell_angle_alpha   90.00000000
_cell_angle_beta   90.00000000
_cell_angle_gamma   90.10385127
_symmetry_Int_Tables_number   1
_chemical_formula_structural   TbCe3Y(SiB4)2
_chemical_formula_sum   'Tb2 Ce6 Y2 Si4 B16'
_cell_volume   442.09906628
_cell_formula_units_Z   2
loop_
 _symmetry_equiv_pos_site_id
 _symmetry_equiv_pos_as_xyz
  1  'x, y, z'
loop_
 _atom_site_type_symbol
 _atom_site_label
 _atom_site_symmetry_multiplicity
 _atom_site_fract_x
 _atom_site_fract_y
 _atom_site_fract_z
 _atom_site_occupancy
  Tb  Tb0  1  0.180941  0.319059  0.779870  1
  Tb  Tb1  1  0.180941  0.319059  0.220130  1
  Ce  Ce2  1  0.682235  0.182574  0.227292  1
  Ce  Ce3  1  0.317426  0.817765  0.772708  1
  Ce  Ce4  1  0.317426  0.817765  0.227292  1
  Ce  Ce5  1  0.818458  0.681542  0.227336  1
  Ce  Ce6  1  0.818458  0.681542  0.772664  1
  Ce  Ce7  1  0.682235  0.182574  0.772708  1
  Y  Y8  1  0.001600  0.000881  0.500000  1
  Y  Y9  1  0.499119  0.498400  0.500000  1
  Si  Si10  1  0.116052  0.613922  0.500000  1
  Si  Si11  1  0.886078  0.383948  0.500000  1
  Si  Si12  1  0.383544  0.116456  0.500000  1
  Si  Si13  1  0.613947  0.886053  0.500000  1
  B  B14  1  0.173290  0.039198  0.000000  1
  B  B15  1  0.828006  0.961990  0.000000  1
  B  B16  1  0.960530  0.172671  0.000000  1
  B  B17  1  0.327329  0.539470  0.000000  1
  B  B18  1  0.039975  0.828038  0.000000  1
  B  B19  1  0.671962  0.460025  0.000000  1
  B  B20  1  0.538010  0.671994  0.000000  1
  B  B21  1  0.460802  0.326710  0.000000  1
  B  B22  1  0.091815  0.591361  0.000000  1
  B  B23  1  0.908639  0.408185  0.000000  1
  B  B24  1  0.409317  0.090683  0.000000  1
  B  B25  1  0.591056  0.908944  0.000000  1
  B  B26  1  0.000539  0.000135  0.159053  1
  B  B27  1  0.000539  0.000135  0.840947  1
  B  B28  1  0.499865  0.499461  0.840947  1
  B  B29  1  0.499865  0.499461  0.159053  1
