# generated using pymatgen
data_ErTm11Tc3Ru
_symmetry_space_group_name_H-M   'P 1'
_cell_length_a   6.19518241
_cell_length_b   7.32607701
_cell_length_c   8.98507400
_cell_angle_alpha   90.00000000
_cell_angle_beta   90.00000000
_cell_angle_gamma   90.02386835
_symmetry_Int_Tables_number   1
_chemical_formula_structural   ErTm11Tc3Ru
_chemical_formula_sum   'Er1 Tm11 Tc3 Ru1'
_cell_volume   407.79997825
_cell_formula_units_Z   1
loop_
 _symmetry_equiv_pos_site_id
 _symmetry_equiv_pos_as_xyz
  1  'x, y, z'
loop_
 _atom_site_type_symbol
 _atom_site_label
 _atom_site_symmetry_multiplicity
 _atom_site_fract_x
 _atom_site_fract_y
 _atom_site_fract_z
 _atom_site_occupancy
  Er  Er0  1  0.629888  0.041201  0.250000  1
  Tm  Tm1  1  0.374780  0.959836  0.750000  1
  Tm  Tm2  1  0.124952  0.460835  0.750000  1
  Tm  Tm3  1  0.874826  0.541746  0.250000  1
  Tm  Tm4  1  0.161150  0.175353  0.062324  1
  Tm  Tm5  1  0.836641  0.823554  0.937156  1
  Tm  Tm6  1  0.660483  0.324572  0.937799  1
  Tm  Tm7  1  0.836641  0.823554  0.562844  1
  Tm  Tm8  1  0.338132  0.675930  0.061911  1
  Tm  Tm9  1  0.161150  0.175353  0.437676  1
  Tm  Tm10  1  0.338132  0.675930  0.438089  1
  Tm  Tm11  1  0.660483  0.324572  0.562201  1
  Tc  Tc12  1  0.460938  0.384876  0.250000  1
  Tc  Tc13  1  0.540737  0.615499  0.750000  1
  Tc  Tc14  1  0.961489  0.113543  0.750000  1
  Ru  Ru15  1  0.039577  0.883649  0.250000  1
