# generated using pymatgen
data_TbGd7(Ho3Pb4)4
_symmetry_space_group_name_H-M   'P 1'
_cell_length_a   8.20823222
_cell_length_b   8.28692711
_cell_length_c   15.64140200
_cell_angle_alpha   90.00850421
_cell_angle_beta   89.98663974
_cell_angle_gamma   90.00353503
_symmetry_Int_Tables_number   1
_chemical_formula_structural   TbGd7(Ho3Pb4)4
_chemical_formula_sum   'Tb1 Gd7 Ho12 Pb16'
_cell_volume   1063.94410862
_cell_formula_units_Z   1
loop_
 _symmetry_equiv_pos_site_id
 _symmetry_equiv_pos_as_xyz
  1  'x, y, z'
loop_
 _atom_site_type_symbol
 _atom_site_label
 _atom_site_symmetry_multiplicity
 _atom_site_fract_x
 _atom_site_fract_y
 _atom_site_fract_z
 _atom_site_occupancy
  Tb  Tb0  1  0.033404  0.177269  0.900787  1
  Gd  Gd1  1  0.532201  0.321915  0.901520  1
  Gd  Gd2  1  0.033053  0.177465  0.598752  1
  Gd  Gd3  1  0.466893  0.677756  0.401400  1
  Gd  Gd4  1  0.967464  0.822527  0.098406  1
  Gd  Gd5  1  0.467081  0.677532  0.098553  1
  Gd  Gd6  1  0.967088  0.822201  0.401466  1
  Gd  Gd7  1  0.533047  0.322365  0.598958  1
  Ho  Ho8  1  0.375018  0.842109  0.879098  1
  Ho  Ho9  1  0.875112  0.658090  0.621272  1
  Ho  Ho10  1  0.624991  0.157985  0.379062  1
  Ho  Ho11  1  0.124949  0.342238  0.120908  1
  Ho  Ho12  1  0.625112  0.157724  0.120798  1
  Ho  Ho13  1  0.125107  0.342081  0.378921  1
  Ho  Ho14  1  0.374896  0.842051  0.621011  1
  Ho  Ho15  1  0.874938  0.657824  0.879084  1
  Ho  Ho16  1  0.207892  0.504136  0.750103  1
  Ho  Ho17  1  0.707735  0.995942  0.750116  1
  Ho  Ho18  1  0.792156  0.495761  0.249949  1
  Ho  Ho19  1  0.291959  0.004231  0.249885  1
  Pb  Pb20  1  0.283490  0.036221  0.042711  1
  Pb  Pb21  1  0.784454  0.464551  0.456894  1
  Pb  Pb22  1  0.715484  0.964331  0.543372  1
  Pb  Pb23  1  0.215183  0.535091  0.956581  1
  Pb  Pb24  1  0.716383  0.965386  0.956408  1
  Pb  Pb25  1  0.215416  0.535478  0.543282  1
  Pb  Pb26  1  0.284463  0.035570  0.456759  1
  Pb  Pb27  1  0.784747  0.464207  0.043062  1
  Pb  Pb28  1  0.570586  0.627128  0.750040  1
  Pb  Pb29  1  0.070448  0.873405  0.750459  1
  Pb  Pb30  1  0.429760  0.372768  0.249875  1
  Pb  Pb31  1  0.929649  0.127070  0.249913  1
  Pb  Pb32  1  0.344065  0.151654  0.750214  1
  Pb  Pb33  1  0.845113  0.347692  0.750444  1
  Pb  Pb34  1  0.655516  0.848393  0.249915  1
  Pb  Pb35  1  0.155151  0.651850  0.250023  1
