# generated using pymatgen
data_Nd17Sm2DySn16
_symmetry_space_group_name_H-M   'P 1'
_cell_length_a   8.29030400
_cell_length_b   8.43906509
_cell_length_c   15.98408300
_cell_angle_alpha   90.00000000
_cell_angle_beta   90.00000000
_cell_angle_gamma   89.99182562
_symmetry_Int_Tables_number   1
_chemical_formula_structural   Nd17Sm2DySn16
_chemical_formula_sum   'Nd17 Sm2 Dy1 Sn16'
_cell_volume   1118.28503746
_cell_formula_units_Z   1
loop_
 _symmetry_equiv_pos_site_id
 _symmetry_equiv_pos_as_xyz
  1  'x, y, z'
loop_
 _atom_site_type_symbol
 _atom_site_label
 _atom_site_symmetry_multiplicity
 _atom_site_fract_x
 _atom_site_fract_y
 _atom_site_fract_z
 _atom_site_occupancy
  Nd  Nd0  1  0.017851  0.181084  0.401059  1
  Nd  Nd1  1  0.368216  0.837041  0.120545  1
  Nd  Nd2  1  0.132206  0.336571  0.620598  1
  Nd  Nd3  1  0.481686  0.681467  0.901271  1
  Nd  Nd4  1  0.868108  0.663038  0.121107  1
  Nd  Nd5  1  0.132206  0.336571  0.879402  1
  Nd  Nd6  1  0.481686  0.681467  0.598729  1
  Nd  Nd7  1  0.631174  0.162891  0.620372  1
  Nd  Nd8  1  0.802336  0.497880  0.750000  1
  Nd  Nd9  1  0.868108  0.663038  0.378893  1
  Nd  Nd10  1  0.017851  0.181084  0.098941  1
  Nd  Nd11  1  0.982372  0.819440  0.901160  1
  Nd  Nd12  1  0.631174  0.162891  0.879628  1
  Nd  Nd13  1  0.517993  0.318971  0.099147  1
  Nd  Nd14  1  0.368216  0.837041  0.379455  1
  Nd  Nd15  1  0.982372  0.819440  0.598840  1
  Nd  Nd16  1  0.517993  0.318971  0.400853  1
  Sm  Sm17  1  0.198557  0.502209  0.250000  1
  Sm  Sm18  1  0.698735  0.997946  0.250000  1
  Dy  Dy19  1  0.300983  0.002324  0.750000  1
  Sn  Sn20  1  0.791606  0.463749  0.541784  1
  Sn  Sn21  1  0.708517  0.964430  0.456917  1
  Sn  Sn22  1  0.674716  0.857981  0.750000  1
  Sn  Sn23  1  0.208366  0.535276  0.457001  1
  Sn  Sn24  1  0.291613  0.035153  0.956496  1
  Sn  Sn25  1  0.824082  0.355066  0.250000  1
  Sn  Sn26  1  0.791606  0.463749  0.958216  1
  Sn  Sn27  1  0.566003  0.616766  0.250000  1
  Sn  Sn28  1  0.208366  0.535276  0.042999  1
  Sn  Sn29  1  0.431837  0.382227  0.750000  1
  Sn  Sn30  1  0.177651  0.646526  0.750000  1
  Sn  Sn31  1  0.935528  0.115163  0.750000  1
  Sn  Sn32  1  0.291613  0.035153  0.543504  1
  Sn  Sn33  1  0.708517  0.964430  0.043083  1
  Sn  Sn34  1  0.323756  0.144375  0.250000  1
  Sn  Sn35  1  0.066404  0.883317  0.250000  1
