# generated using pymatgen
data_Ho8Hg2PdPt
_symmetry_space_group_name_H-M   'P 1'
_cell_length_a   9.61466668
_cell_length_b   9.61466780
_cell_length_c   9.59410500
_cell_angle_alpha   60.07072556
_cell_angle_beta   60.07072174
_cell_angle_gamma   60.14374205
_symmetry_Int_Tables_number   1
_chemical_formula_structural   Ho8Hg2PdPt
_chemical_formula_sum   'Ho16 Hg4 Pd2 Pt2'
_cell_volume   628.48076540
_cell_formula_units_Z   2
loop_
 _symmetry_equiv_pos_site_id
 _symmetry_equiv_pos_as_xyz
  1  'x, y, z'
loop_
 _atom_site_type_symbol
 _atom_site_label
 _atom_site_symmetry_multiplicity
 _atom_site_fract_x
 _atom_site_fract_y
 _atom_site_fract_z
 _atom_site_occupancy
  Ho  Ho0  1  0.605687  0.605687  0.600681  1
  Ho  Ho1  1  0.605687  0.605687  0.187946  1
  Ho  Ho2  1  0.611822  0.175791  0.606193  1
  Ho  Ho3  1  0.175791  0.611822  0.606193  1
  Ho  Ho4  1  0.060402  0.439502  0.438806  1
  Ho  Ho5  1  0.439502  0.060402  0.061290  1
  Ho  Ho6  1  0.439502  0.060402  0.438806  1
  Ho  Ho7  1  0.060402  0.439502  0.061290  1
  Ho  Ho8  1  0.440765  0.440765  0.059235  1
  Ho  Ho9  1  0.062068  0.062068  0.437932  1
  Ho  Ho10  1  0.186491  0.815274  0.813501  1
  Ho  Ho11  1  0.815274  0.186491  0.184733  1
  Ho  Ho12  1  0.815274  0.186491  0.813501  1
  Ho  Ho13  1  0.186491  0.815274  0.184733  1
  Ho  Ho14  1  0.815896  0.815896  0.184104  1
  Ho  Ho15  1  0.186321  0.186321  0.813679  1
  Hg  Hg16  1  0.835960  0.835960  0.839601  1
  Hg  Hg17  1  0.835960  0.835960  0.488481  1
  Hg  Hg18  1  0.834403  0.488481  0.838558  1
  Hg  Hg19  1  0.488481  0.834403  0.838558  1
  Pd  Pd20  1  0.394444  0.394444  0.399708  1
  Pd  Pd21  1  0.394444  0.394444  0.811401  1
  Pt  Pt22  1  0.390570  0.818361  0.395534  1
  Pt  Pt23  1  0.818361  0.390570  0.395534  1
