# generated using pymatgen
data_HoTaMn4P3
_symmetry_space_group_name_H-M   'P 1'
_cell_length_a   3.59952700
_cell_length_b   10.91636200
_cell_length_c   12.46836800
_cell_angle_alpha   90.00000000
_cell_angle_beta   90.00000000
_cell_angle_gamma   90.00000000
_symmetry_Int_Tables_number   1
_chemical_formula_structural   HoTaMn4P3
_chemical_formula_sum   'Ho4 Ta4 Mn16 P12'
_cell_volume   489.92880743
_cell_formula_units_Z   4
loop_
 _symmetry_equiv_pos_site_id
 _symmetry_equiv_pos_as_xyz
  1  'x, y, z'
loop_
 _atom_site_type_symbol
 _atom_site_label
 _atom_site_symmetry_multiplicity
 _atom_site_fract_x
 _atom_site_fract_y
 _atom_site_fract_z
 _atom_site_occupancy
  Ho  Ho0  1  0.250000  0.587256  0.708128  1
  Ho  Ho1  1  0.250000  0.912744  0.208128  1
  Ho  Ho2  1  0.750000  0.412744  0.291872  1
  Ho  Ho3  1  0.750000  0.087256  0.791872  1
  Ta  Ta4  1  0.250000  0.709772  0.983373  1
  Ta  Ta5  1  0.250000  0.790228  0.483373  1
  Ta  Ta6  1  0.750000  0.290228  0.016627  1
  Ta  Ta7  1  0.750000  0.209772  0.516627  1
  Mn  Mn8  1  0.250000  0.410402  0.492664  1
  Mn  Mn9  1  0.250000  0.089598  0.992664  1
  Mn  Mn10  1  0.750000  0.589598  0.507336  1
  Mn  Mn11  1  0.750000  0.910402  0.007336  1
  Mn  Mn12  1  0.250000  0.212751  0.179360  1
  Mn  Mn13  1  0.250000  0.287249  0.679360  1
  Mn  Mn14  1  0.750000  0.787249  0.820640  1
  Mn  Mn15  1  0.750000  0.712751  0.320640  1
  Mn  Mn16  1  0.250000  0.883850  0.695632  1
  Mn  Mn17  1  0.250000  0.616150  0.195632  1
  Mn  Mn18  1  0.750000  0.116150  0.304368  1
  Mn  Mn19  1  0.750000  0.383850  0.804368  1
  Mn  Mn20  1  0.250000  0.463331  0.934478  1
  Mn  Mn21  1  0.250000  0.036669  0.434478  1
  Mn  Mn22  1  0.750000  0.536669  0.065522  1
  Mn  Mn23  1  0.750000  0.963331  0.565522  1
  P  P24  1  0.250000  0.416870  0.118787  1
  P  P25  1  0.250000  0.083130  0.618787  1
  P  P26  1  0.750000  0.583130  0.881213  1
  P  P27  1  0.750000  0.916870  0.381213  1
  P  P28  1  0.250000  0.264613  0.867445  1
  P  P29  1  0.250000  0.235387  0.367445  1
  P  P30  1  0.750000  0.735387  0.132555  1
  P  P31  1  0.750000  0.764613  0.632555  1
  P  P32  1  0.250000  0.584930  0.381797  1
  P  P33  1  0.250000  0.915070  0.881797  1
  P  P34  1  0.750000  0.415070  0.618203  1
  P  P35  1  0.750000  0.084930  0.118203  1
