# generated using pymatgen
data_ZnBi3IrRh3O14
_symmetry_space_group_name_H-M   'P 1'
_cell_length_a   7.34648455
_cell_length_b   7.16167855
_cell_length_c   7.34648452
_cell_angle_alpha   59.14608880
_cell_angle_beta   59.96103813
_cell_angle_gamma   59.14609599
_symmetry_Int_Tables_number   1
_chemical_formula_structural   ZnBi3IrRh3O14
_chemical_formula_sum   'Zn1 Bi3 Ir1 Rh3 O14'
_cell_volume   269.65389835
_cell_formula_units_Z   1
loop_
 _symmetry_equiv_pos_site_id
 _symmetry_equiv_pos_as_xyz
  1  'x, y, z'
loop_
 _atom_site_type_symbol
 _atom_site_label
 _atom_site_symmetry_multiplicity
 _atom_site_fract_x
 _atom_site_fract_y
 _atom_site_fract_z
 _atom_site_occupancy
  Zn  Zn0  1  0.125000  0.625000  0.125000  1
  Bi  Bi1  1  0.125000  0.125000  0.125000  1
  Bi  Bi2  1  0.625000  0.125000  0.125000  1
  Bi  Bi3  1  0.125000  0.125000  0.625000  1
  Ir  Ir4  1  0.625000  0.625000  0.625000  1
  Rh  Rh5  1  0.625000  0.625000  0.125000  1
  Rh  Rh6  1  0.125000  0.625000  0.625000  1
  Rh  Rh7  1  0.625000  0.125000  0.625000  1
  O  O8  1  0.238751  0.284343  0.238751  1
  O  O9  1  0.292811  0.704751  0.292811  1
  O  O10  1  0.959030  0.963011  0.540061  1
  O  O11  1  0.540658  0.959533  0.540658  1
  O  O12  1  0.705031  0.703995  0.298179  1
  O  O13  1  0.951821  0.546005  0.544969  1
  O  O14  1  0.709342  0.290467  0.709342  1
  O  O15  1  0.290970  0.286989  0.709939  1
  O  O16  1  0.709939  0.286989  0.290970  1
  O  O17  1  0.298179  0.703995  0.705031  1
  O  O18  1  0.957189  0.545249  0.957189  1
  O  O19  1  0.544969  0.546005  0.951821  1
  O  O20  1  0.011249  0.965657  0.011249  1
  O  O21  1  0.540061  0.963011  0.959030  1
