# generated using pymatgen
data_TbSm4Y3(B6Ru)4
_symmetry_space_group_name_H-M   'P 1'
_cell_length_a   3.70073300
_cell_length_b   9.21264102
_cell_length_c   11.60930303
_cell_angle_alpha   89.99219539
_cell_angle_beta   90.00000000
_cell_angle_gamma   90.00000000
_symmetry_Int_Tables_number   1
_chemical_formula_structural   TbSm4Y3(B6Ru)4
_chemical_formula_sum   'Tb1 Sm4 Y3 B24 Ru4'
_cell_volume   395.80205519
_cell_formula_units_Z   1
loop_
 _symmetry_equiv_pos_site_id
 _symmetry_equiv_pos_as_xyz
  1  'x, y, z'
loop_
 _atom_site_type_symbol
 _atom_site_label
 _atom_site_symmetry_multiplicity
 _atom_site_fract_x
 _atom_site_fract_y
 _atom_site_fract_z
 _atom_site_occupancy
  Tb  Tb0  1  0.000000  0.556101  0.872022  1
  Sm  Sm1  1  0.000000  0.323424  0.413897  1
  Sm  Sm2  1  0.000000  0.676549  0.586005  1
  Sm  Sm3  1  0.000000  0.823491  0.086125  1
  Sm  Sm4  1  0.000000  0.176483  0.913997  1
  Y  Y5  1  0.000000  0.944006  0.372266  1
  Y  Y6  1  0.000000  0.055969  0.627677  1
  Y  Y7  1  0.000000  0.443994  0.127850  1
  B  B8  1  0.500000  0.555174  0.431650  1
  B  B9  1  0.500000  0.444772  0.568289  1
  B  B10  1  0.500000  0.055216  0.068380  1
  B  B11  1  0.500000  0.944958  0.931658  1
  B  B12  1  0.500000  0.748276  0.418738  1
  B  B13  1  0.500000  0.251667  0.581255  1
  B  B14  1  0.500000  0.248249  0.081272  1
  B  B15  1  0.500000  0.752021  0.918678  1
  B  B16  1  0.500000  0.790525  0.266845  1
  B  B17  1  0.500000  0.209337  0.733098  1
  B  B18  1  0.500000  0.290512  0.233163  1
  B  B19  1  0.500000  0.709850  0.766867  1
  B  B20  1  0.500000  0.631845  0.185528  1
  B  B21  1  0.500000  0.367983  0.814324  1
  B  B22  1  0.500000  0.131795  0.314482  1
  B  B23  1  0.500000  0.868269  0.685485  1
  B  B24  1  0.500000  0.985254  0.213408  1
  B  B25  1  0.500000  0.014786  0.786604  1
  B  B26  1  0.500000  0.485292  0.286613  1
  B  B27  1  0.500000  0.514414  0.713193  1
  B  B28  1  0.500000  0.606994  0.029780  1
  B  B29  1  0.500000  0.392742  0.970760  1
  B  B30  1  0.500000  0.106776  0.470574  1
  B  B31  1  0.500000  0.893241  0.529412  1
  Ru  Ru32  1  0.000000  0.638706  0.320640  1
  Ru  Ru33  1  0.000000  0.361151  0.679389  1
  Ru  Ru34  1  0.000000  0.138672  0.179511  1
  Ru  Ru35  1  0.000000  0.861507  0.820564  1
