# generated using pymatgen
data_Tm4Re2OsRu5
_symmetry_space_group_name_H-M   'P 1'
_cell_length_a   5.39270292
_cell_length_b   5.12367350
_cell_length_c   8.96251500
_cell_angle_alpha   90.00000000
_cell_angle_beta   90.00000000
_cell_angle_gamma   119.64361170
_symmetry_Int_Tables_number   1
_chemical_formula_structural   Tm4Re2OsRu5
_chemical_formula_sum   'Tm4 Re2 Os1 Ru5'
_cell_volume   215.22709080
_cell_formula_units_Z   1
loop_
 _symmetry_equiv_pos_site_id
 _symmetry_equiv_pos_as_xyz
  1  'x, y, z'
loop_
 _atom_site_type_symbol
 _atom_site_label
 _atom_site_symmetry_multiplicity
 _atom_site_fract_x
 _atom_site_fract_y
 _atom_site_fract_z
 _atom_site_occupancy
  Tm  Tm0  1  0.672059  0.333924  0.565403  1
  Tm  Tm1  1  0.328334  0.661107  0.434586  1
  Tm  Tm2  1  0.328334  0.661107  0.065414  1
  Tm  Tm3  1  0.672059  0.333924  0.934597  1
  Re  Re4  1  0.162155  0.834117  0.750000  1
  Re  Re5  1  0.833772  0.673923  0.250000  1
  Os  Os6  1  0.164838  0.344497  0.750000  1
  Ru  Ru7  1  0.006185  0.984286  0.499662  1
  Ru  Ru8  1  0.006185  0.984286  0.000338  1
  Ru  Ru9  1  0.648942  0.827472  0.750000  1
  Ru  Ru10  1  0.831392  0.181413  0.250000  1
  Ru  Ru11  1  0.345745  0.179945  0.250000  1
