# generated using pymatgen
data_BaIn2(SeO3)4
_symmetry_space_group_name_H-M   'P 1'
_cell_length_a   5.45904300
_cell_length_b   10.55688755
_cell_length_c   14.68387613
_cell_angle_alpha   49.64429891
_cell_angle_beta   90.00000000
_cell_angle_gamma   90.00000000
_symmetry_Int_Tables_number   1
_chemical_formula_structural   BaIn2(SeO3)4
_chemical_formula_sum   'Ba2 In4 Se8 O24'
_cell_volume   644.86740377
_cell_formula_units_Z   2
loop_
 _symmetry_equiv_pos_site_id
 _symmetry_equiv_pos_as_xyz
  1  'x, y, z'
loop_
 _atom_site_type_symbol
 _atom_site_label
 _atom_site_symmetry_multiplicity
 _atom_site_fract_x
 _atom_site_fract_y
 _atom_site_fract_z
 _atom_site_occupancy
  Ba  Ba0  1  0.059264  0.000000  0.750000  1
  Ba  Ba1  1  0.940736  0.000000  0.250000  1
  In  In2  1  0.000000  0.500000  0.500000  1
  In  In3  1  0.500000  0.000000  0.000000  1
  In  In4  1  0.500000  0.000000  0.500000  1
  In  In5  1  0.000000  0.500000  0.000000  1
  Se  Se6  1  0.497699  0.331959  0.184810  1
  Se  Se7  1  0.008063  0.748795  0.591163  1
  Se  Se8  1  0.008063  0.251205  0.908837  1
  Se  Se9  1  0.991937  0.251205  0.408837  1
  Se  Se10  1  0.502301  0.331959  0.684810  1
  Se  Se11  1  0.502301  0.668041  0.815190  1
  Se  Se12  1  0.497699  0.668041  0.315190  1
  Se  Se13  1  0.991937  0.748795  0.091163  1
  O  O14  1  0.216834  0.713506  0.343646  1
  O  O15  1  0.284599  0.802591  0.031836  1
  O  O16  1  0.783166  0.713506  0.843646  1
  O  O17  1  0.824948  0.909554  0.964616  1
  O  O18  1  0.715401  0.802591  0.531836  1
  O  O19  1  0.314197  0.337709  0.587149  1
  O  O20  1  0.175052  0.090446  0.035384  1
  O  O21  1  0.685803  0.337709  0.087149  1
  O  O22  1  0.783166  0.286494  0.656354  1
  O  O23  1  0.590458  0.135287  0.311779  1
  O  O24  1  0.685803  0.662291  0.412851  1
  O  O25  1  0.284599  0.197409  0.468164  1
  O  O26  1  0.590458  0.864713  0.188221  1
  O  O27  1  0.824948  0.090446  0.535384  1
  O  O28  1  0.409542  0.135287  0.811779  1
  O  O29  1  0.063157  0.421410  0.897120  1
  O  O30  1  0.715401  0.197409  0.968164  1
  O  O31  1  0.936843  0.421410  0.397120  1
  O  O32  1  0.063157  0.578590  0.602880  1
  O  O33  1  0.409542  0.864713  0.688221  1
  O  O34  1  0.314197  0.662291  0.912851  1
  O  O35  1  0.175052  0.909554  0.464616  1
  O  O36  1  0.936843  0.578590  0.102880  1
  O  O37  1  0.216834  0.286494  0.156354  1
