# generated using pymatgen
data_Pr4YP12Ru17Pt2
_symmetry_space_group_name_H-M   'P 1'
_cell_length_a   12.74183041
_cell_length_b   12.63905541
_cell_length_c   4.03008300
_cell_angle_alpha   90.00000000
_cell_angle_beta   90.00000000
_cell_angle_gamma   120.19886272
_symmetry_Int_Tables_number   1
_chemical_formula_structural   Pr4YP12Ru17Pt2
_chemical_formula_sum   'Pr4 Y1 P12 Ru17 Pt2'
_cell_volume   560.94114562
_cell_formula_units_Z   1
loop_
 _symmetry_equiv_pos_site_id
 _symmetry_equiv_pos_as_xyz
  1  'x, y, z'
loop_
 _atom_site_type_symbol
 _atom_site_label
 _atom_site_symmetry_multiplicity
 _atom_site_fract_x
 _atom_site_fract_y
 _atom_site_fract_z
 _atom_site_occupancy
  Pr  Pr0  1  0.001633  0.183602  0.500000  1
  Pr  Pr1  1  0.818372  0.816456  0.500000  1
  Pr  Pr2  1  0.184504  0.999969  0.500000  1
  Pr  Pr3  1  0.664365  0.327912  0.000000  1
  Y  Y4  1  0.336788  0.672792  0.000000  1
  P  P5  1  0.999548  0.809641  0.000000  1
  P  P6  1  0.188728  0.191365  0.000000  1
  P  P7  1  0.813445  0.998528  0.000000  1
  P  P8  1  0.694213  0.168941  0.500000  1
  P  P9  1  0.817554  0.519094  0.500000  1
  P  P10  1  0.475174  0.297493  0.500000  1
  P  P11  1  0.181119  0.702207  0.500000  1
  P  P12  1  0.522052  0.827819  0.500000  1
  P  P13  1  0.299046  0.484869  0.500000  1
  P  P14  1  0.999436  0.367140  0.000000  1
  P  P15  1  0.632548  0.632123  0.000000  1
  P  P16  1  0.375758  0.999971  0.000000  1
  Ru  Ru17  1  0.554902  0.999680  0.000000  1
  Ru  Ru18  1  0.998873  0.707019  0.500000  1
  Ru  Ru19  1  0.290633  0.294495  0.500000  1
  Ru  Ru20  1  0.714534  0.998208  0.500000  1
  Ru  Ru21  1  0.806399  0.183437  0.000000  1
  Ru  Ru22  1  0.814007  0.617320  0.000000  1
  Ru  Ru23  1  0.377467  0.195112  0.000000  1
  Ru  Ru24  1  0.184585  0.803819  0.000000  1
  Ru  Ru25  1  0.619906  0.813717  0.000000  1
  Ru  Ru26  1  0.197630  0.386059  0.000000  1
  Ru  Ru27  1  0.873220  0.366319  0.500000  1
  Ru  Ru28  1  0.628487  0.507890  0.500000  1
  Ru  Ru29  1  0.490170  0.121757  0.500000  1
  Ru  Ru30  1  0.369427  0.875670  0.500000  1
  Ru  Ru31  1  0.503090  0.633137  0.500000  1
  Ru  Ru32  1  0.123432  0.496380  0.500000  1
  Ru  Ru33  1  0.002718  0.000146  0.000000  1
  Pt  Pt34  1  0.997777  0.549698  0.000000  1
  Pt  Pt35  1  0.448459  0.450216  0.000000  1
