# generated using pymatgen
data_Ca7Nd(As3Rh4)2
_symmetry_space_group_name_H-M   'P 1'
_cell_length_a   10.88542004
_cell_length_b   10.86220628
_cell_length_c   7.91224482
_cell_angle_alpha   71.05845739
_cell_angle_beta   71.08488635
_cell_angle_gamma   30.15624712
_symmetry_Int_Tables_number   1
_chemical_formula_structural   Ca7Nd(As3Rh4)2
_chemical_formula_sum   'Ca7 Nd1 As6 Rh8'
_cell_volume   442.66273023
_cell_formula_units_Z   1
loop_
 _symmetry_equiv_pos_site_id
 _symmetry_equiv_pos_as_xyz
  1  'x, y, z'
loop_
 _atom_site_type_symbol
 _atom_site_label
 _atom_site_symmetry_multiplicity
 _atom_site_fract_x
 _atom_site_fract_y
 _atom_site_fract_z
 _atom_site_occupancy
  Ca  Ca0  1  0.211541  0.449697  0.402539  1
  Ca  Ca1  1  0.546756  0.792667  0.096873  1
  Ca  Ca2  1  0.451688  0.205625  0.902519  1
  Ca  Ca3  1  0.927574  0.207993  0.327314  1
  Ca  Ca4  1  0.791153  0.071246  0.173947  1
  Ca  Ca5  1  0.074442  0.788385  0.670031  1
  Ca  Ca6  1  0.202062  0.932439  0.828546  1
  Nd  Nd7  1  0.789396  0.551964  0.596714  1
  As  As8  1  0.610190  0.390443  0.749277  1
  As  As9  1  0.391431  0.608115  0.250867  1
  As  As10  1  0.289432  0.048602  0.437729  1
  As  As11  1  0.961130  0.704083  0.058108  1
  As  As12  1  0.706796  0.954728  0.559965  1
  As  As13  1  0.044377  0.297364  0.939878  1
  Rh  Rh14  1  0.301634  0.580899  0.024101  1
  Rh  Rh15  1  0.584522  0.297030  0.525094  1
  Rh  Rh16  1  0.702937  0.417209  0.975214  1
  Rh  Rh17  1  0.072876  0.373971  0.180130  1
  Rh  Rh18  1  0.640858  0.912286  0.319645  1
  Rh  Rh19  1  0.418393  0.701036  0.475151  1
  Rh  Rh20  1  0.912065  0.641402  0.825218  1
  Rh  Rh21  1  0.368744  0.072817  0.681138  1
