# generated using pymatgen
data_Pr8Mo3WC8
_symmetry_space_group_name_H-M   'P 1'
_cell_length_a   5.85384605
_cell_length_b   5.85384605
_cell_length_c   10.53923800
_cell_angle_alpha   90.00000000
_cell_angle_beta   90.00000000
_cell_angle_gamma   89.93132938
_symmetry_Int_Tables_number   1
_chemical_formula_structural   Pr8Mo3WC8
_chemical_formula_sum   'Pr8 Mo3 W1 C8'
_cell_volume   361.15322200
_cell_formula_units_Z   1
loop_
 _symmetry_equiv_pos_site_id
 _symmetry_equiv_pos_as_xyz
  1  'x, y, z'
loop_
 _atom_site_type_symbol
 _atom_site_label
 _atom_site_symmetry_multiplicity
 _atom_site_fract_x
 _atom_site_fract_y
 _atom_site_fract_z
 _atom_site_occupancy
  Pr  Pr0  1  0.302505  0.696319  0.156044  1
  Pr  Pr1  1  0.696319  0.302505  0.843956  1
  Pr  Pr2  1  0.802716  0.802716  0.343929  1
  Pr  Pr3  1  0.197487  0.197487  0.655691  1
  Pr  Pr4  1  0.696319  0.302505  0.156044  1
  Pr  Pr5  1  0.302505  0.696319  0.843956  1
  Pr  Pr6  1  0.197487  0.197487  0.344309  1
  Pr  Pr7  1  0.802716  0.802716  0.656071  1
  Mo  Mo8  1  0.676034  0.324549  0.500000  1
  Mo  Mo9  1  0.324549  0.676034  0.500000  1
  Mo  Mo10  1  0.823463  0.823463  0.000000  1
  W  W11  1  0.175637  0.175637  0.000000  1
  C  C12  1  0.001581  0.001581  0.858785  1
  C  C13  1  0.500064  0.500064  0.641623  1
  C  C14  1  0.500064  0.500064  0.358377  1
  C  C15  1  0.497864  0.001423  0.000000  1
  C  C16  1  0.499940  0.999747  0.500000  1
  C  C17  1  0.001423  0.497864  0.000000  1
  C  C18  1  0.999747  0.499940  0.500000  1
  C  C19  1  0.001581  0.001581  0.141215  1
