# generated using pymatgen
data_YbY2Er(SiPd2)4
_symmetry_space_group_name_H-M   'P 1'
_cell_length_a   5.55432944
_cell_length_b   6.99428900
_cell_length_c   7.31259206
_cell_angle_alpha   90.00000000
_cell_angle_beta   90.03009566
_cell_angle_gamma   90.00000000
_symmetry_Int_Tables_number   1
_chemical_formula_structural   YbY2Er(SiPd2)4
_chemical_formula_sum   'Yb1 Y2 Er1 Si4 Pd8'
_cell_volume   284.08381736
_cell_formula_units_Z   1
loop_
 _symmetry_equiv_pos_site_id
 _symmetry_equiv_pos_as_xyz
  1  'x, y, z'
loop_
 _atom_site_type_symbol
 _atom_site_label
 _atom_site_symmetry_multiplicity
 _atom_site_fract_x
 _atom_site_fract_y
 _atom_site_fract_z
 _atom_site_occupancy
  Yb  Yb0  1  0.140693  0.750000  0.526193  1
  Y  Y1  1  0.639986  0.250000  0.973338  1
  Y  Y2  1  0.860422  0.250000  0.472814  1
  Er  Er3  1  0.358096  0.750000  0.026822  1
  Si  Si4  1  0.858223  0.750000  0.879095  1
  Si  Si5  1  0.361385  0.250000  0.621505  1
  Si  Si6  1  0.139678  0.250000  0.121987  1
  Si  Si7  1  0.639757  0.750000  0.377874  1
  Pd  Pd8  1  0.903859  0.947214  0.177965  1
  Pd  Pd9  1  0.406095  0.051045  0.321012  1
  Pd  Pd10  1  0.096516  0.447929  0.823351  1
  Pd  Pd11  1  0.594412  0.552359  0.677858  1
  Pd  Pd12  1  0.096516  0.052071  0.823351  1
  Pd  Pd13  1  0.594412  0.947641  0.677858  1
  Pd  Pd14  1  0.903859  0.552786  0.177965  1
  Pd  Pd15  1  0.406095  0.448955  0.321012  1
