# generated using pymatgen
data_Tb2Fe2P6Ir3Ru5
_symmetry_space_group_name_H-M   'P 1'
_cell_length_a   3.89356200
_cell_length_b   10.70873700
_cell_length_c   12.28636400
_cell_angle_alpha   90.00000000
_cell_angle_beta   90.00000000
_cell_angle_gamma   90.00000000
_symmetry_Int_Tables_number   1
_chemical_formula_structural   Tb2Fe2P6Ir3Ru5
_chemical_formula_sum   'Tb4 Fe4 P12 Ir6 Ru10'
_cell_volume   512.28156204
_cell_formula_units_Z   2
loop_
 _symmetry_equiv_pos_site_id
 _symmetry_equiv_pos_as_xyz
  1  'x, y, z'
loop_
 _atom_site_type_symbol
 _atom_site_label
 _atom_site_symmetry_multiplicity
 _atom_site_fract_x
 _atom_site_fract_y
 _atom_site_fract_z
 _atom_site_occupancy
  Tb  Tb0  1  0.250000  0.581851  0.705420  1
  Tb  Tb1  1  0.250000  0.918149  0.205420  1
  Tb  Tb2  1  0.750000  0.415174  0.293178  1
  Tb  Tb3  1  0.750000  0.084826  0.793178  1
  Fe  Fe4  1  0.250000  0.462337  0.937332  1
  Fe  Fe5  1  0.250000  0.037663  0.437332  1
  Fe  Fe6  1  0.750000  0.541547  0.064824  1
  Fe  Fe7  1  0.750000  0.958453  0.564824  1
  P  P8  1  0.250000  0.425418  0.109051  1
  P  P9  1  0.250000  0.074582  0.609051  1
  P  P10  1  0.750000  0.571240  0.892928  1
  P  P11  1  0.750000  0.928760  0.392928  1
  P  P12  1  0.250000  0.270301  0.871127  1
  P  P13  1  0.250000  0.229699  0.371127  1
  P  P14  1  0.750000  0.732803  0.126023  1
  P  P15  1  0.750000  0.767197  0.626023  1
  P  P16  1  0.250000  0.595137  0.395919  1
  P  P17  1  0.250000  0.904863  0.895919  1
  P  P18  1  0.750000  0.397495  0.605271  1
  P  P19  1  0.750000  0.102505  0.105271  1
  Ir  Ir20  1  0.750000  0.764778  0.819565  1
  Ir  Ir21  1  0.750000  0.735222  0.319565  1
  Ir  Ir22  1  0.250000  0.887424  0.703564  1
  Ir  Ir23  1  0.250000  0.612576  0.203564  1
  Ir  Ir24  1  0.750000  0.113328  0.298217  1
  Ir  Ir25  1  0.750000  0.386672  0.798217  1
  Ru  Ru26  1  0.250000  0.707565  0.984594  1
  Ru  Ru27  1  0.250000  0.792435  0.484594  1
  Ru  Ru28  1  0.750000  0.296365  0.015513  1
  Ru  Ru29  1  0.750000  0.203635  0.515513  1
  Ru  Ru30  1  0.250000  0.401755  0.487739  1
  Ru  Ru31  1  0.250000  0.098245  0.987739  1
  Ru  Ru32  1  0.750000  0.594524  0.510941  1
  Ru  Ru33  1  0.750000  0.905476  0.010941  1
  Ru  Ru34  1  0.250000  0.230878  0.178794  1
  Ru  Ru35  1  0.250000  0.269122  0.678794  1
