# generated using pymatgen
data_Sc22HgOs4Ru3
_symmetry_space_group_name_H-M   'P 1'
_cell_length_a   9.56718005
_cell_length_b   9.57482404
_cell_length_c   9.43868400
_cell_angle_alpha   60.46923457
_cell_angle_beta   60.44329873
_cell_angle_gamma   59.64936625
_symmetry_Int_Tables_number   1
_chemical_formula_structural   Sc22HgOs4Ru3
_chemical_formula_sum   'Sc22 Hg1 Os4 Ru3'
_cell_volume   613.89277905
_cell_formula_units_Z   1
loop_
 _symmetry_equiv_pos_site_id
 _symmetry_equiv_pos_as_xyz
  1  'x, y, z'
loop_
 _atom_site_type_symbol
 _atom_site_label
 _atom_site_symmetry_multiplicity
 _atom_site_fract_x
 _atom_site_fract_y
 _atom_site_fract_z
 _atom_site_occupancy
  Sc  Sc0  1  0.805919  0.801700  0.196190  1
  Sc  Sc1  1  0.193603  0.804198  0.198396  1
  Sc  Sc2  1  0.806397  0.195802  0.196198  1
  Sc  Sc3  1  0.194081  0.198300  0.803810  1
  Sc  Sc4  1  0.806397  0.195802  0.801604  1
  Sc  Sc5  1  0.193603  0.804198  0.803802  1
  Sc  Sc6  1  0.614379  0.610104  0.150845  1
  Sc  Sc7  1  0.600681  0.153523  0.622898  1
  Sc  Sc8  1  0.149835  0.601283  0.624442  1
  Sc  Sc9  1  0.614379  0.610104  0.624672  1
  Sc  Sc10  1  0.385621  0.389896  0.849155  1
  Sc  Sc11  1  0.399319  0.846477  0.377102  1
  Sc  Sc12  1  0.850165  0.398717  0.375558  1
  Sc  Sc13  1  0.385621  0.389896  0.375328  1
  Sc  Sc14  1  0.830252  0.833742  0.476507  1
  Sc  Sc15  1  0.842710  0.467676  0.844807  1
  Sc  Sc16  1  0.466083  0.844040  0.844938  1
  Sc  Sc17  1  0.830252  0.833742  0.859497  1
  Sc  Sc18  1  0.169748  0.166258  0.523493  1
  Sc  Sc19  1  0.157290  0.532324  0.155193  1
  Sc  Sc20  1  0.533917  0.155960  0.155062  1
  Sc  Sc21  1  0.169748  0.166258  0.140503  1
  Hg  Hg22  1  0.000000  0.000000  0.500000  1
  Os  Os23  1  0.500000  0.500000  0.500000  1
  Os  Os24  1  0.000000  0.500000  0.500000  1
  Os  Os25  1  0.500000  0.500000  0.000000  1
  Os  Os26  1  0.000000  0.500000  0.000000  1
  Ru  Ru27  1  0.000000  0.000000  0.000000  1
  Ru  Ru28  1  0.500000  0.000000  0.500000  1
  Ru  Ru29  1  0.500000  0.000000  0.000000  1
