# generated using pymatgen
data_Fe5Pt10Rh
_symmetry_space_group_name_H-M   'P 1'
_cell_length_a   3.88590700
_cell_length_b   5.49720718
_cell_length_c   11.00763292
_cell_angle_alpha   89.66636744
_cell_angle_beta   90.00000000
_cell_angle_gamma   90.00000000
_symmetry_Int_Tables_number   1
_chemical_formula_structural   Fe5Pt10Rh
_chemical_formula_sum   'Fe5 Pt10 Rh1'
_cell_volume   235.13705975
_cell_formula_units_Z   1
loop_
 _symmetry_equiv_pos_site_id
 _symmetry_equiv_pos_as_xyz
  1  'x, y, z'
loop_
 _atom_site_type_symbol
 _atom_site_label
 _atom_site_symmetry_multiplicity
 _atom_site_fract_x
 _atom_site_fract_y
 _atom_site_fract_z
 _atom_site_occupancy
  Fe  Fe0  1  0.500000  0.749880  0.373844  1
  Fe  Fe1  1  0.500000  0.747382  0.876600  1
  Fe  Fe2  1  0.500000  0.252618  0.123400  1
  Fe  Fe3  1  0.500000  0.250120  0.626156  1
  Fe  Fe4  1  0.000000  0.000000  0.000000  1
  Pt  Pt5  1  0.000000  0.006414  0.243497  1
  Pt  Pt6  1  0.000000  0.993586  0.756503  1
  Pt  Pt7  1  0.000000  0.500000  0.000000  1
  Pt  Pt8  1  0.000000  0.505749  0.250970  1
  Pt  Pt9  1  0.000000  0.494251  0.749030  1
  Pt  Pt10  1  0.500000  0.251001  0.375662  1
  Pt  Pt11  1  0.500000  0.236250  0.882948  1
  Pt  Pt12  1  0.500000  0.763750  0.117052  1
  Pt  Pt13  1  0.500000  0.748999  0.624338  1
  Pt  Pt14  1  0.000000  0.000000  0.500000  1
  Rh  Rh15  1  0.000000  0.500000  0.500000  1
