# generated using pymatgen
data_BaSr3Al13Au9
_symmetry_space_group_name_H-M   'P 1'
_cell_length_a   11.97018800
_cell_length_b   11.97018622
_cell_length_c   4.32989000
_cell_angle_alpha   90.00000000
_cell_angle_beta   90.00000000
_cell_angle_gamma   119.99999385
_symmetry_Int_Tables_number   1
_chemical_formula_structural   BaSr3Al13Au9
_chemical_formula_sum   'Ba1 Sr3 Al13 Au9'
_cell_volume   537.29079500
_cell_formula_units_Z   1
loop_
 _symmetry_equiv_pos_site_id
 _symmetry_equiv_pos_as_xyz
  1  'x, y, z'
loop_
 _atom_site_type_symbol
 _atom_site_label
 _atom_site_symmetry_multiplicity
 _atom_site_fract_x
 _atom_site_fract_y
 _atom_site_fract_z
 _atom_site_occupancy
  Ba  Ba0  1  0.666667  0.333333  0.000000  1
  Sr  Sr1  1  0.204453  0.795547  0.500000  1
  Sr  Sr2  1  0.591093  0.795547  0.500000  1
  Sr  Sr3  1  0.204453  0.408907  0.500000  1
  Al  Al4  1  0.947614  0.289307  0.000000  1
  Al  Al5  1  0.710693  0.658307  0.000000  1
  Al  Al6  1  0.947614  0.658307  0.000000  1
  Al  Al7  1  0.341693  0.052386  0.000000  1
  Al  Al8  1  0.159654  0.079827  0.500000  1
  Al  Al9  1  0.920173  0.840346  0.500000  1
  Al  Al10  1  0.710693  0.052386  0.000000  1
  Al  Al11  1  0.532038  0.064075  0.500000  1
  Al  Al12  1  0.920173  0.079827  0.500000  1
  Al  Al13  1  0.341693  0.289307  0.000000  1
  Al  Al14  1  0.532038  0.467962  0.500000  1
  Al  Al15  1  0.935925  0.467962  0.500000  1
  Al  Al16  1  0.333333  0.666667  0.000000  1
  Au  Au17  1  0.458479  0.541521  0.000000  1
  Au  Au18  1  0.829848  0.914924  0.000000  1
  Au  Au19  1  0.458479  0.916956  0.000000  1
  Au  Au20  1  0.085076  0.170152  0.000000  1
  Au  Au21  1  0.085076  0.914924  0.000000  1
  Au  Au22  1  0.795915  0.591830  0.500000  1
  Au  Au23  1  0.083044  0.541521  0.000000  1
  Au  Au24  1  0.795915  0.204085  0.500000  1
  Au  Au25  1  0.408170  0.204085  0.500000  1
