# generated using pymatgen
data_Hf4Zr12Ir5Pt3N4
_symmetry_space_group_name_H-M   'P 1'
_cell_length_a   8.82290994
_cell_length_b   8.82291095
_cell_length_c   8.82290915
_cell_angle_alpha   60.06529621
_cell_angle_beta   60.06529446
_cell_angle_gamma   60.06529092
_symmetry_Int_Tables_number   1
_chemical_formula_structural   Hf4Zr12Ir5Pt3N4
_chemical_formula_sum   'Hf4 Zr12 Ir5 Pt3 N4'
_cell_volume   486.36546504
_cell_formula_units_Z   1
loop_
 _symmetry_equiv_pos_site_id
 _symmetry_equiv_pos_as_xyz
  1  'x, y, z'
loop_
 _atom_site_type_symbol
 _atom_site_label
 _atom_site_symmetry_multiplicity
 _atom_site_fract_x
 _atom_site_fract_y
 _atom_site_fract_z
 _atom_site_occupancy
  Hf  Hf0  1  0.125668  0.623961  0.623961  1
  Hf  Hf1  1  0.623961  0.125668  0.623961  1
  Hf  Hf2  1  0.623961  0.623961  0.125668  1
  Hf  Hf3  1  0.625877  0.625877  0.625877  1
  Zr  Zr4  1  0.817774  0.817774  0.182225  1
  Zr  Zr5  1  0.182790  0.182790  0.816881  1
  Zr  Zr6  1  0.817774  0.182225  0.817774  1
  Zr  Zr7  1  0.182790  0.816881  0.182790  1
  Zr  Zr8  1  0.182225  0.817774  0.817774  1
  Zr  Zr9  1  0.816881  0.182790  0.182790  1
  Zr  Zr10  1  0.434613  0.434613  0.067949  1
  Zr  Zr11  1  0.065212  0.065212  0.435082  1
  Zr  Zr12  1  0.434613  0.067949  0.434613  1
  Zr  Zr13  1  0.065212  0.435082  0.065212  1
  Zr  Zr14  1  0.067949  0.434613  0.434613  1
  Zr  Zr15  1  0.435082  0.065212  0.065212  1
  Ir  Ir16  1  0.406428  0.406428  0.406428  1
  Ir  Ir17  1  0.484293  0.838914  0.838914  1
  Ir  Ir18  1  0.838914  0.484293  0.838914  1
  Ir  Ir19  1  0.838914  0.838914  0.484293  1
  Ir  Ir20  1  0.838243  0.838243  0.838243  1
  Pt  Pt21  1  0.774564  0.408395  0.408395  1
  Pt  Pt22  1  0.408395  0.774564  0.408395  1
  Pt  Pt23  1  0.408395  0.408395  0.774564  1
  N  N24  1  0.625681  0.124451  0.124451  1
  N  N25  1  0.124451  0.625681  0.124451  1
  N  N26  1  0.124451  0.124451  0.625681  1
  N  N27  1  0.124890  0.124890  0.124890  1
