# generated using pymatgen
data_KZn(Sb4Ru)3
_symmetry_space_group_name_H-M   'P 1'
_cell_length_a   8.21081573
_cell_length_b   8.23305002
_cell_length_c   8.23305016
_cell_angle_alpha   109.52586189
_cell_angle_beta   109.41651834
_cell_angle_gamma   109.41652669
_symmetry_Int_Tables_number   1
_chemical_formula_structural   KZn(Sb4Ru)3
_chemical_formula_sum   'K1 Zn1 Sb12 Ru3'
_cell_volume   428.72485549
_cell_formula_units_Z   1
loop_
 _symmetry_equiv_pos_site_id
 _symmetry_equiv_pos_as_xyz
  1  'x, y, z'
loop_
 _atom_site_type_symbol
 _atom_site_label
 _atom_site_symmetry_multiplicity
 _atom_site_fract_x
 _atom_site_fract_y
 _atom_site_fract_z
 _atom_site_occupancy
  K  K0  1  0.000000  0.000000  0.000000  1
  Zn  Zn1  1  0.500000  0.000000  0.000000  1
  Sb  Sb2  1  0.159061  0.497401  0.339492  1
  Sb  Sb3  1  0.498146  0.640838  0.836323  1
  Sb  Sb4  1  0.338177  0.836323  0.195486  1
  Sb  Sb5  1  0.819568  0.660508  0.157909  1
  Sb  Sb6  1  0.661660  0.842091  0.502599  1
  Sb  Sb7  1  0.180432  0.339492  0.842091  1
  Sb  Sb8  1  0.661823  0.163677  0.804514  1
  Sb  Sb9  1  0.338340  0.157909  0.497401  1
  Sb  Sb10  1  0.501854  0.359162  0.163677  1
  Sb  Sb11  1  0.840939  0.502599  0.660508  1
  Sb  Sb12  1  0.857308  0.195486  0.359162  1
  Sb  Sb13  1  0.142692  0.804514  0.640838  1
  Ru  Ru14  1  0.500000  0.500000  0.500000  1
  Ru  Ru15  1  0.000000  0.500000  0.000000  1
  Ru  Ru16  1  0.000000  0.000000  0.500000  1
