# generated using pymatgen
data_Dy8Be(Si4Ni)3
_symmetry_space_group_name_H-M   'P 1'
_cell_length_a   7.91894400
_cell_length_b   7.91896689
_cell_length_c   8.08495300
_cell_angle_alpha   89.99985385
_cell_angle_beta   90.00006348
_cell_angle_gamma   119.99975393
_symmetry_Int_Tables_number   1
_chemical_formula_structural   Dy8Be(Si4Ni)3
_chemical_formula_sum   'Dy8 Be1 Si12 Ni3'
_cell_volume   439.08136622
_cell_formula_units_Z   1
loop_
 _symmetry_equiv_pos_site_id
 _symmetry_equiv_pos_as_xyz
  1  'x, y, z'
loop_
 _atom_site_type_symbol
 _atom_site_label
 _atom_site_symmetry_multiplicity
 _atom_site_fract_x
 _atom_site_fract_y
 _atom_site_fract_z
 _atom_site_occupancy
  Dy  Dy0  1  0.999999  0.000000  0.248784  1
  Dy  Dy1  1  0.000001  0.000001  0.751161  1
  Dy  Dy2  1  0.000713  0.500356  0.249097  1
  Dy  Dy3  1  0.499644  0.500357  0.249097  1
  Dy  Dy4  1  0.500598  0.001198  0.750902  1
  Dy  Dy5  1  0.499644  0.999287  0.249100  1
  Dy  Dy6  1  0.500599  0.499401  0.750905  1
  Dy  Dy7  1  0.998804  0.499402  0.750905  1
  Be  Be8  1  0.666667  0.333338  0.497972  1
  Si  Si9  1  0.171141  0.342287  0.999499  1
  Si  Si10  1  0.657692  0.828850  0.999495  1
  Si  Si11  1  0.172223  0.344448  0.500728  1
  Si  Si12  1  0.342145  0.171069  0.000468  1
  Si  Si13  1  0.171157  0.828846  0.999496  1
  Si  Si14  1  0.655553  0.827778  0.500729  1
  Si  Si15  1  0.828933  0.657866  0.000466  1
  Si  Si16  1  0.342436  0.171217  0.499424  1
  Si  Si17  1  0.172229  0.827773  0.500728  1
  Si  Si18  1  0.828786  0.657567  0.499425  1
  Si  Si19  1  0.828919  0.171076  0.000467  1
  Si  Si20  1  0.828781  0.171220  0.499425  1
  Ni  Ni21  1  0.333330  0.666659  0.999261  1
  Ni  Ni22  1  0.333335  0.666662  0.501493  1
  Ni  Ni23  1  0.666669  0.333342  0.000970  1
