# generated using pymatgen
data_Hf3ZrTaRe24
_symmetry_space_group_name_H-M   'P 1'
_cell_length_a   8.46816966
_cell_length_b   8.46711323
_cell_length_c   8.46711301
_cell_angle_alpha   109.46869476
_cell_angle_beta   109.47374309
_cell_angle_gamma   109.47375089
_symmetry_Int_Tables_number   1
_chemical_formula_structural   Hf3ZrTaRe24
_chemical_formula_sum   'Hf3 Zr1 Ta1 Re24'
_cell_volume   467.33126688
_cell_formula_units_Z   1
loop_
 _symmetry_equiv_pos_site_id
 _symmetry_equiv_pos_as_xyz
  1  'x, y, z'
loop_
 _atom_site_type_symbol
 _atom_site_label
 _atom_site_symmetry_multiplicity
 _atom_site_fract_x
 _atom_site_fract_y
 _atom_site_fract_z
 _atom_site_occupancy
  Hf  Hf0  1  0.000178  0.628695  0.000000  1
  Hf  Hf1  1  0.000178  0.000000  0.628695  1
  Hf  Hf2  1  0.371482  0.371305  0.371305  1
  Zr  Zr3  1  0.999377  0.000000  0.000000  1
  Ta  Ta4  1  0.628877  0.000000  0.000000  1
  Re  Re5  1  0.398571  0.681599  0.000000  1
  Re  Re6  1  0.716973  0.318401  0.318401  1
  Re  Re7  1  0.398571  0.000000  0.681599  1
  Re  Re8  1  0.677120  0.395927  0.000000  1
  Re  Re9  1  0.000764  0.396000  0.677661  1
  Re  Re10  1  0.323103  0.718341  0.322339  1
  Re  Re11  1  0.323103  0.322339  0.718341  1
  Re  Re12  1  0.000764  0.677661  0.396000  1
  Re  Re13  1  0.677120  0.000000  0.395927  1
  Re  Re14  1  0.604764  0.604000  0.281659  1
  Re  Re15  1  0.281192  0.604073  0.604073  1
  Re  Re16  1  0.604764  0.281659  0.604000  1
  Re  Re17  1  0.376370  0.194137  0.000000  1
  Re  Re18  1  0.182234  0.805863  0.805863  1
  Re  Re19  1  0.376370  0.000000  0.194137  1
  Re  Re20  1  0.193112  0.375586  0.000000  1
  Re  Re21  1  0.999032  0.375416  0.194494  1
  Re  Re22  1  0.804538  0.180922  0.805506  1
  Re  Re23  1  0.804538  0.805506  0.180922  1
  Re  Re24  1  0.999032  0.194494  0.375416  1
  Re  Re25  1  0.193112  0.000000  0.375586  1
  Re  Re26  1  0.623616  0.624584  0.819078  1
  Re  Re27  1  0.817526  0.624414  0.624414  1
  Re  Re28  1  0.623616  0.819078  0.624584  1
