# generated using pymatgen
data_CaNdNi12As7
_symmetry_space_group_name_H-M   'P 1'
_cell_length_a   9.42458910
_cell_length_b   9.43038981
_cell_length_c   3.86017800
_cell_angle_alpha   90.00000000
_cell_angle_beta   90.00000000
_cell_angle_gamma   119.99925219
_symmetry_Int_Tables_number   1
_chemical_formula_structural   CaNdNi12As7
_chemical_formula_sum   'Ca1 Nd1 Ni12 As7'
_cell_volume   297.12097040
_cell_formula_units_Z   1
loop_
 _symmetry_equiv_pos_site_id
 _symmetry_equiv_pos_as_xyz
  1  'x, y, z'
loop_
 _atom_site_type_symbol
 _atom_site_label
 _atom_site_symmetry_multiplicity
 _atom_site_fract_x
 _atom_site_fract_y
 _atom_site_fract_z
 _atom_site_occupancy
  Ca  Ca0  1  0.666639  0.333281  0.500001  1
  Nd  Nd1  1  0.333484  0.666889  0.000000  1
  Ni  Ni2  1  0.436649  0.055947  0.000000  1
  Ni  Ni3  1  0.149509  0.278404  0.000000  1
  Ni  Ni4  1  0.944076  0.380761  0.000000  1
  Ni  Ni5  1  0.619276  0.563367  0.000000  1
  Ni  Ni6  1  0.128894  0.850481  0.000000  1
  Ni  Ni7  1  0.721577  0.871102  0.000000  1
  Ni  Ni8  1  0.207414  0.096685  0.500001  1
  Ni  Ni9  1  0.903103  0.110611  0.500001  1
  Ni  Ni10  1  0.374623  0.423084  0.500001  1
  Ni  Ni11  1  0.048464  0.625410  0.500001  1
  Ni  Ni12  1  0.889196  0.792464  0.500001  1
  Ni  Ni13  1  0.576942  0.951539  0.500001  1
  As  As14  1  0.000026  0.000014  0.000000  1
  As  As15  1  0.711260  0.114487  0.000000  1
  As  As16  1  0.403268  0.288725  0.000000  1
  As  As17  1  0.885529  0.596750  0.000000  1
  As  As18  1  0.102680  0.401220  0.500001  1
  As  As19  1  0.598791  0.701421  0.500001  1
  As  As20  1  0.298602  0.897359  0.500001  1
