# generated using pymatgen
data_Y2Er3Co19(Si5P)2
_symmetry_space_group_name_H-M   'P 1'
_cell_length_a   12.13250800
_cell_length_b   12.10812997
_cell_length_c   3.70857500
_cell_angle_alpha   90.00000000
_cell_angle_beta   90.00000000
_cell_angle_gamma   119.93355475
_symmetry_Int_Tables_number   1
_chemical_formula_structural   Y2Er3Co19(Si5P)2
_chemical_formula_sum   'Y2 Er3 Co19 Si10 P2'
_cell_volume   472.12364320
_cell_formula_units_Z   1
loop_
 _symmetry_equiv_pos_site_id
 _symmetry_equiv_pos_as_xyz
  1  'x, y, z'
loop_
 _atom_site_type_symbol
 _atom_site_label
 _atom_site_symmetry_multiplicity
 _atom_site_fract_x
 _atom_site_fract_y
 _atom_site_fract_z
 _atom_site_occupancy
  Y  Y0  1  0.333804  0.666472  0.500000  1
  Y  Y1  1  0.666196  0.332666  0.500000  1
  Er  Er2  1  0.000000  0.185110  0.000000  1
  Er  Er3  1  0.814264  0.815266  0.000000  1
  Er  Er4  1  0.185736  0.001002  0.000000  1
  Co  Co5  1  0.627241  0.824165  0.500000  1
  Co  Co6  1  0.179798  0.803366  0.500000  1
  Co  Co7  1  0.196646  0.372648  0.500000  1
  Co  Co8  1  0.372759  0.196923  0.500000  1
  Co  Co9  1  0.820202  0.623567  0.500000  1
  Co  Co10  1  0.803354  0.176002  0.500000  1
  Co  Co11  1  0.000000  0.558704  0.500000  1
  Co  Co12  1  0.441199  0.441793  0.500000  1
  Co  Co13  1  0.558801  0.000593  0.500000  1
  Co  Co14  1  0.521391  0.644628  0.000000  1
  Co  Co15  1  0.356786  0.877776  0.000000  1
  Co  Co16  1  0.123060  0.478170  0.000000  1
  Co  Co17  1  0.478609  0.123237  0.000000  1
  Co  Co18  1  0.643214  0.520990  0.000000  1
  Co  Co19  1  0.876940  0.355110  0.000000  1
  Co  Co20  1  0.000000  0.719205  0.000000  1
  Co  Co21  1  0.277237  0.277136  0.000000  1
  Co  Co22  1  0.722763  0.999899  0.000000  1
  Co  Co23  1  0.000000  0.004457  0.500000  1
  Si  Si24  1  0.000000  0.370480  0.500000  1
  Si  Si25  1  0.629463  0.629793  0.500000  1
  Si  Si26  1  0.370537  0.000330  0.500000  1
  Si  Si27  1  0.522679  0.840731  0.000000  1
  Si  Si28  1  0.160485  0.682527  0.000000  1
  Si  Si29  1  0.318099  0.477615  0.000000  1
  Si  Si30  1  0.477321  0.318054  0.000000  1
  Si  Si31  1  0.839515  0.522042  0.000000  1
  Si  Si32  1  0.681901  0.159515  0.000000  1
  Si  Si33  1  0.000000  0.818344  0.500000  1
  P  P34  1  0.181823  0.181753  0.500000  1
  P  P35  1  0.818177  0.999929  0.500000  1
