# generated using pymatgen
data_Yb6Ti4Al12Ir7
_symmetry_space_group_name_H-M   'P 1'
_cell_length_a   9.00153663
_cell_length_b   9.00153766
_cell_length_c   9.00153700
_cell_angle_alpha   59.99999873
_cell_angle_beta   59.99999497
_cell_angle_gamma   60.00000465
_symmetry_Int_Tables_number   1
_chemical_formula_structural   Yb6Ti4Al12Ir7
_chemical_formula_sum   'Yb6 Ti4 Al12 Ir7'
_cell_volume   515.74499659
_cell_formula_units_Z   1
loop_
 _symmetry_equiv_pos_site_id
 _symmetry_equiv_pos_as_xyz
  1  'x, y, z'
loop_
 _atom_site_type_symbol
 _atom_site_label
 _atom_site_symmetry_multiplicity
 _atom_site_fract_x
 _atom_site_fract_y
 _atom_site_fract_z
 _atom_site_occupancy
  Yb  Yb0  1  0.706433  0.706433  0.293567  1
  Yb  Yb1  1  0.293567  0.706433  0.293567  1
  Yb  Yb2  1  0.706433  0.293567  0.293567  1
  Yb  Yb3  1  0.293567  0.293567  0.706433  1
  Yb  Yb4  1  0.706433  0.293567  0.706433  1
  Yb  Yb5  1  0.293567  0.706433  0.706433  1
  Ti  Ti6  1  0.881348  0.881348  0.355957  1
  Ti  Ti7  1  0.881348  0.355957  0.881348  1
  Ti  Ti8  1  0.355957  0.881348  0.881348  1
  Ti  Ti9  1  0.881348  0.881348  0.881348  1
  Al  Al10  1  0.119046  0.119046  0.642862  1
  Al  Al11  1  0.119046  0.642862  0.119046  1
  Al  Al12  1  0.642862  0.119046  0.119046  1
  Al  Al13  1  0.119046  0.119046  0.119046  1
  Al  Al14  1  0.671491  0.671491  0.985527  1
  Al  Al15  1  0.671491  0.985527  0.671491  1
  Al  Al16  1  0.985527  0.671491  0.671491  1
  Al  Al17  1  0.671491  0.671491  0.671491  1
  Al  Al18  1  0.327262  0.327262  0.018215  1
  Al  Al19  1  0.327262  0.018215  0.327262  1
  Al  Al20  1  0.018215  0.327262  0.327262  1
  Al  Al21  1  0.327262  0.327262  0.327262  1
  Ir  Ir22  1  0.000000  0.000000  0.000000  1
  Ir  Ir23  1  0.998633  0.998633  0.501367  1
  Ir  Ir24  1  0.501367  0.998633  0.501367  1
  Ir  Ir25  1  0.998633  0.501367  0.501367  1
  Ir  Ir26  1  0.501367  0.501367  0.998633  1
  Ir  Ir27  1  0.998633  0.501367  0.998633  1
  Ir  Ir28  1  0.501367  0.998633  0.998633  1
