# generated using pymatgen
data_Zr2SiAsIr2
_symmetry_space_group_name_H-M   'P 1'
_cell_length_a   3.98146100
_cell_length_b   6.62893800
_cell_length_c   7.58321700
_cell_angle_alpha   90.00000000
_cell_angle_beta   90.00000000
_cell_angle_gamma   90.00000000
_symmetry_Int_Tables_number   1
_chemical_formula_structural   Zr2SiAsIr2
_chemical_formula_sum   'Zr4 Si2 As2 Ir4'
_cell_volume   200.14277036
_cell_formula_units_Z   2
loop_
 _symmetry_equiv_pos_site_id
 _symmetry_equiv_pos_as_xyz
  1  'x, y, z'
loop_
 _atom_site_type_symbol
 _atom_site_label
 _atom_site_symmetry_multiplicity
 _atom_site_fract_x
 _atom_site_fract_y
 _atom_site_fract_z
 _atom_site_occupancy
  Zr  Zr0  1  0.250000  0.022608  0.322291  1
  Zr  Zr1  1  0.250000  0.522608  0.177709  1
  Zr  Zr2  1  0.750000  0.974474  0.684362  1
  Zr  Zr3  1  0.750000  0.474474  0.815638  1
  Si  Si4  1  0.750000  0.726994  0.378923  1
  Si  Si5  1  0.750000  0.226994  0.121077  1
  As  As6  1  0.250000  0.265425  0.622166  1
  As  As7  1  0.250000  0.765425  0.877834  1
  Ir  Ir8  1  0.250000  0.154214  0.949853  1
  Ir  Ir9  1  0.250000  0.654214  0.550147  1
  Ir  Ir10  1  0.750000  0.856285  0.076879  1
  Ir  Ir11  1  0.750000  0.356285  0.423121  1
