# generated using pymatgen
data_La3Nd5GaPd24
_symmetry_space_group_name_H-M   'P 1'
_cell_length_a   8.51916114
_cell_length_b   8.51916114
_cell_length_c   8.51916114
_cell_angle_alpha   90.01444550
_cell_angle_beta   90.01444550
_cell_angle_gamma   90.01444550
_symmetry_Int_Tables_number   1
_chemical_formula_structural   La3Nd5GaPd24
_chemical_formula_sum   'La3 Nd5 Ga1 Pd24'
_cell_volume   618.28748647
_cell_formula_units_Z   1
loop_
 _symmetry_equiv_pos_site_id
 _symmetry_equiv_pos_as_xyz
  1  'x, y, z'
loop_
 _atom_site_type_symbol
 _atom_site_label
 _atom_site_symmetry_multiplicity
 _atom_site_fract_x
 _atom_site_fract_y
 _atom_site_fract_z
 _atom_site_occupancy
  La  La0  1  0.252340  0.252340  0.747770  1
  La  La1  1  0.252340  0.747770  0.252340  1
  La  La2  1  0.747770  0.252340  0.252340  1
  Nd  Nd3  1  0.748185  0.748185  0.748185  1
  Nd  Nd4  1  0.748211  0.748211  0.251835  1
  Nd  Nd5  1  0.748211  0.251835  0.748211  1
  Nd  Nd6  1  0.251835  0.748211  0.748211  1
  Nd  Nd7  1  0.251665  0.251665  0.251665  1
  Ga  Ga8  1  0.999724  0.999724  0.999724  1
  Pd  Pd9  1  0.500667  0.500667  0.746645  1
  Pd  Pd10  1  0.499853  0.253371  0.499853  1
  Pd  Pd11  1  0.253371  0.499853  0.499853  1
  Pd  Pd12  1  0.499853  0.499853  0.253371  1
  Pd  Pd13  1  0.500667  0.746645  0.500667  1
  Pd  Pd14  1  0.746645  0.500667  0.500667  1
  Pd  Pd15  1  0.999310  0.999310  0.706426  1
  Pd  Pd16  1  0.000071  0.293688  0.000071  1
  Pd  Pd17  1  0.293688  0.000071  0.000071  1
  Pd  Pd18  1  0.000071  0.000071  0.293688  1
  Pd  Pd19  1  0.999310  0.706426  0.999310  1
  Pd  Pd20  1  0.706426  0.999310  0.999310  1
  Pd  Pd21  1  0.999325  0.500620  0.739231  1
  Pd  Pd22  1  0.499885  0.260718  0.000114  1
  Pd  Pd23  1  0.260718  0.000114  0.499885  1
  Pd  Pd24  1  0.000114  0.260718  0.499885  1
  Pd  Pd25  1  0.500620  0.999325  0.739231  1
  Pd  Pd26  1  0.260718  0.499885  0.000114  1
  Pd  Pd27  1  0.000114  0.499885  0.260718  1
  Pd  Pd28  1  0.500620  0.739231  0.999325  1
  Pd  Pd29  1  0.999325  0.739231  0.500620  1
  Pd  Pd30  1  0.499885  0.000114  0.260718  1
  Pd  Pd31  1  0.739231  0.999325  0.500620  1
  Pd  Pd32  1  0.739231  0.500620  0.999325  1
