# generated using pymatgen
data_CeCu7O12
_symmetry_space_group_name_H-M   'P 1'
_cell_length_a   6.38090401
_cell_length_b   6.38090294
_cell_length_c   6.38090400
_cell_angle_alpha   109.47122399
_cell_angle_beta   109.47122059
_cell_angle_gamma   109.47122408
_symmetry_Int_Tables_number   1
_chemical_formula_structural   CeCu7O12
_chemical_formula_sum   'Ce1 Cu7 O12'
_cell_volume   199.99753103
_cell_formula_units_Z   1
loop_
 _symmetry_equiv_pos_site_id
 _symmetry_equiv_pos_as_xyz
  1  'x, y, z'
loop_
 _atom_site_type_symbol
 _atom_site_label
 _atom_site_symmetry_multiplicity
 _atom_site_fract_x
 _atom_site_fract_y
 _atom_site_fract_z
 _atom_site_occupancy
  Ce  Ce0  1  0.000000  0.000000  0.000000  1
  Cu  Cu1  1  0.000000  0.500000  0.500000  1
  Cu  Cu2  1  0.500000  0.000000  0.500000  1
  Cu  Cu3  1  0.500000  0.500000  0.000000  1
  Cu  Cu4  1  0.000000  0.000000  0.500000  1
  Cu  Cu5  1  0.000000  0.500000  0.000000  1
  Cu  Cu6  1  0.500000  0.000000  0.000000  1
  Cu  Cu7  1  0.500000  0.500000  0.500000  1
  O  O8  1  0.305596  0.137454  0.831859  1
  O  O9  1  0.694404  0.862546  0.168141  1
  O  O10  1  0.694404  0.526263  0.831859  1
  O  O11  1  0.473737  0.168141  0.305596  1
  O  O12  1  0.168141  0.305596  0.473737  1
  O  O13  1  0.831859  0.305596  0.137454  1
  O  O14  1  0.862546  0.168141  0.694404  1
  O  O15  1  0.831859  0.694404  0.526263  1
  O  O16  1  0.305596  0.473737  0.168141  1
  O  O17  1  0.526263  0.831859  0.694404  1
  O  O18  1  0.168141  0.694404  0.862546  1
  O  O19  1  0.137454  0.831859  0.305596  1
