# generated using pymatgen
data_CdHg3Pd8
_symmetry_space_group_name_H-M   'P 1'
_cell_length_a   5.72844085
_cell_length_b   4.23698100
_cell_length_c   8.45836577
_cell_angle_alpha   90.00000000
_cell_angle_beta   89.90756378
_cell_angle_gamma   90.00000000
_symmetry_Int_Tables_number   1
_chemical_formula_structural   CdHg3Pd8
_chemical_formula_sum   'Cd1 Hg3 Pd8'
_cell_volume   205.29522405
_cell_formula_units_Z   1
loop_
 _symmetry_equiv_pos_site_id
 _symmetry_equiv_pos_as_xyz
  1  'x, y, z'
loop_
 _atom_site_type_symbol
 _atom_site_label
 _atom_site_symmetry_multiplicity
 _atom_site_fract_x
 _atom_site_fract_y
 _atom_site_fract_z
 _atom_site_occupancy
  Cd  Cd0  1  0.148514  0.750000  0.907623  1
  Hg  Hg1  1  0.853371  0.250001  0.091038  1
  Hg  Hg2  1  0.351359  0.250001  0.407742  1
  Hg  Hg3  1  0.648418  0.750000  0.592516  1
  Pd  Pd4  1  0.359661  0.250001  0.077905  1
  Pd  Pd5  1  0.096980  0.750000  0.245902  1
  Pd  Pd6  1  0.597537  0.750000  0.252628  1
  Pd  Pd7  1  0.860552  0.250001  0.421045  1
  Pd  Pd8  1  0.139561  0.750000  0.580172  1
  Pd  Pd9  1  0.401703  0.250001  0.748143  1
  Pd  Pd10  1  0.904061  0.250001  0.754068  1
  Pd  Pd11  1  0.638286  0.750000  0.921220  1
