# generated using pymatgen
data_SrYbMnN3
_symmetry_space_group_name_H-M   'P 1'
_cell_length_a   5.97883562
_cell_length_b   5.97883649
_cell_length_c   11.84735300
_cell_angle_alpha   90.00000000
_cell_angle_beta   90.00000000
_cell_angle_gamma   125.38424447
_symmetry_Int_Tables_number   1
_chemical_formula_structural   SrYbMnN3
_chemical_formula_sum   'Sr4 Yb4 Mn4 N12'
_cell_volume   345.27502701
_cell_formula_units_Z   4
loop_
 _symmetry_equiv_pos_site_id
 _symmetry_equiv_pos_as_xyz
  1  'x, y, z'
loop_
 _atom_site_type_symbol
 _atom_site_label
 _atom_site_symmetry_multiplicity
 _atom_site_fract_x
 _atom_site_fract_y
 _atom_site_fract_z
 _atom_site_occupancy
  Sr  Sr0  1  0.450466  0.549534  0.353286  1
  Sr  Sr1  1  0.549534  0.450466  0.646714  1
  Sr  Sr2  1  0.049534  0.950466  0.853286  1
  Sr  Sr3  1  0.950466  0.049534  0.146714  1
  Yb  Yb4  1  0.142743  0.857257  0.423012  1
  Yb  Yb5  1  0.857257  0.142743  0.576988  1
  Yb  Yb6  1  0.357257  0.642743  0.923012  1
  Yb  Yb7  1  0.642743  0.357257  0.076988  1
  Mn  Mn8  1  0.257571  0.742429  0.160221  1
  Mn  Mn9  1  0.742429  0.257571  0.839779  1
  Mn  Mn10  1  0.242429  0.757571  0.660221  1
  Mn  Mn11  1  0.757571  0.242429  0.339779  1
  N  N12  1  0.165192  0.834808  0.039796  1
  N  N13  1  0.834808  0.165192  0.960204  1
  N  N14  1  0.334808  0.665192  0.539796  1
  N  N15  1  0.665192  0.334808  0.460204  1
  N  N16  1  0.420832  0.579169  0.126510  1
  N  N17  1  0.579168  0.420831  0.873490  1
  N  N18  1  0.079168  0.920831  0.626510  1
  N  N19  1  0.920832  0.079169  0.373490  1
  N  N20  1  0.966164  0.533836  0.250000  1
  N  N21  1  0.533836  0.966164  0.750000  1
  N  N22  1  0.033836  0.466164  0.750000  1
  N  N23  1  0.466164  0.033836  0.250000  1
