# generated using pymatgen
data_SrSc2(P2O7)2
_symmetry_space_group_name_H-M   'P 1'
_cell_length_a   5.01163508
_cell_length_b   7.28935701
_cell_length_c   8.24141997
_cell_angle_alpha   89.79384173
_cell_angle_beta   92.54884908
_cell_angle_gamma   106.44269747
_symmetry_Int_Tables_number   1
_chemical_formula_structural   SrSc2(P2O7)2
_chemical_formula_sum   'Sr1 Sc2 P4 O14'
_cell_volume   288.46100067
_cell_formula_units_Z   1
loop_
 _symmetry_equiv_pos_site_id
 _symmetry_equiv_pos_as_xyz
  1  'x, y, z'
loop_
 _atom_site_type_symbol
 _atom_site_label
 _atom_site_symmetry_multiplicity
 _atom_site_fract_x
 _atom_site_fract_y
 _atom_site_fract_z
 _atom_site_occupancy
  Sr  Sr0  1  0.000000  0.000000  0.000000  1
  Sc  Sc1  1  0.500000  0.500000  0.000000  1
  Sc  Sc2  1  0.000000  0.000000  0.500000  1
  P  P3  1  0.981092  0.387321  0.248139  1
  P  P4  1  0.018908  0.612679  0.751861  1
  P  P5  1  0.379706  0.776475  0.289178  1
  P  P6  1  0.620294  0.223525  0.710822  1
  O  O7  1  0.071099  0.783203  0.640344  1
  O  O8  1  0.928901  0.216797  0.359656  1
  O  O9  1  0.278663  0.553216  0.797298  1
  O  O10  1  0.721337  0.446784  0.202702  1
  O  O11  1  0.122866  0.342660  0.094622  1
  O  O12  1  0.877134  0.657340  0.905378  1
  O  O13  1  0.204938  0.562419  0.340239  1
  O  O14  1  0.516318  0.235981  0.884840  1
  O  O15  1  0.483682  0.764019  0.115160  1
  O  O16  1  0.821506  0.097419  0.715420  1
  O  O17  1  0.178494  0.902581  0.284580  1
  O  O18  1  0.386956  0.166389  0.582994  1
  O  O19  1  0.613044  0.833611  0.417006  1
  O  O20  1  0.795062  0.437581  0.659761  1
