# generated using pymatgen
data_PrTh2Mg2AlIr3
_symmetry_space_group_name_H-M   'P 1'
_cell_length_a   7.40860746
_cell_length_b   7.54827560
_cell_length_c   4.08092400
_cell_angle_alpha   90.00000000
_cell_angle_beta   90.00000000
_cell_angle_gamma   119.85489830
_symmetry_Int_Tables_number   1
_chemical_formula_structural   PrTh2Mg2AlIr3
_chemical_formula_sum   'Pr1 Th2 Mg2 Al1 Ir3'
_cell_volume   197.92771747
_cell_formula_units_Z   1
loop_
 _symmetry_equiv_pos_site_id
 _symmetry_equiv_pos_as_xyz
  1  'x, y, z'
loop_
 _atom_site_type_symbol
 _atom_site_label
 _atom_site_symmetry_multiplicity
 _atom_site_fract_x
 _atom_site_fract_y
 _atom_site_fract_z
 _atom_site_occupancy
  Pr  Pr0  1  0.411468  0.008418  0.500000  1
  Th  Th1  1  0.005472  0.416047  0.500000  1
  Th  Th2  1  0.573507  0.569402  0.500000  1
  Mg  Mg3  1  0.751484  0.996653  0.000000  1
  Mg  Mg4  1  0.003351  0.767712  0.000000  1
  Al  Al5  1  0.231545  0.232709  0.000000  1
  Ir  Ir6  1  0.329763  0.628513  0.000000  1
  Ir  Ir7  1  0.676594  0.352754  0.000000  1
  Ir  Ir8  1  0.016817  0.027792  0.500000  1
