# generated using pymatgen
data_TbHo4Er5(In2Pd)4
_symmetry_space_group_name_H-M   'P 1'
_cell_length_a   3.60758000
_cell_length_b   8.13116206
_cell_length_c   18.21780713
_cell_angle_alpha   90.01356290
_cell_angle_beta   90.00000000
_cell_angle_gamma   90.00000000
_symmetry_Int_Tables_number   1
_chemical_formula_structural   TbHo4Er5(In2Pd)4
_chemical_formula_sum   'Tb1 Ho4 Er5 In8 Pd4'
_cell_volume   534.39781663
_cell_formula_units_Z   1
loop_
 _symmetry_equiv_pos_site_id
 _symmetry_equiv_pos_as_xyz
  1  'x, y, z'
loop_
 _atom_site_type_symbol
 _atom_site_label
 _atom_site_symmetry_multiplicity
 _atom_site_fract_x
 _atom_site_fract_y
 _atom_site_fract_z
 _atom_site_occupancy
  Tb  Tb0  1  0.000000  0.499663  0.500170  1
  Ho  Ho1  1  0.000000  0.999979  0.000085  1
  Ho  Ho2  1  0.000000  0.739439  0.280878  1
  Ho  Ho3  1  0.000000  0.261162  0.718975  1
  Ho  Ho4  1  0.000000  0.761461  0.781052  1
  Er  Er5  1  0.000000  0.238708  0.219109  1
  Er  Er6  1  0.000000  0.616104  0.083731  1
  Er  Er7  1  0.000000  0.383658  0.916380  1
  Er  Er8  1  0.000000  0.883294  0.583422  1
  Er  Er9  1  0.000000  0.116643  0.416387  1
  In  In10  1  0.500000  0.709450  0.932725  1
  In  In11  1  0.500000  0.290839  0.067209  1
  In  In12  1  0.500000  0.790723  0.432651  1
  In  In13  1  0.500000  0.208120  0.567341  1
  In  In14  1  0.500000  0.583011  0.650514  1
  In  In15  1  0.500000  0.418155  0.349574  1
  In  In16  1  0.500000  0.917810  0.149889  1
  In  In17  1  0.500000  0.081806  0.850120  1
  Pd  Pd18  1  0.500000  0.521576  0.195593  1
  Pd  Pd19  1  0.500000  0.476783  0.804482  1
  Pd  Pd20  1  0.500000  0.976826  0.695570  1
  Pd  Pd21  1  0.500000  0.024792  0.304144  1
