# generated using pymatgen
data_Cs4Ba2ZrSb4
_symmetry_space_group_name_H-M   'P 1'
_cell_length_a   11.82690261
_cell_length_b   11.82690294
_cell_length_c   8.76953913
_cell_angle_alpha   87.54165588
_cell_angle_beta   87.54164350
_cell_angle_gamma   119.28117491
_symmetry_Int_Tables_number   1
_chemical_formula_structural   Cs4Ba2ZrSb4
_chemical_formula_sum   'Cs8 Ba4 Zr2 Sb8'
_cell_volume   1066.05656962
_cell_formula_units_Z   2
loop_
 _symmetry_equiv_pos_site_id
 _symmetry_equiv_pos_as_xyz
  1  'x, y, z'
loop_
 _atom_site_type_symbol
 _atom_site_label
 _atom_site_symmetry_multiplicity
 _atom_site_fract_x
 _atom_site_fract_y
 _atom_site_fract_z
 _atom_site_occupancy
  Cs  Cs0  1  0.476790  0.944352  0.388739  1
  Cs  Cs1  1  0.944352  0.476790  0.888739  1
  Cs  Cs2  1  0.866899  0.720636  0.157003  1
  Cs  Cs3  1  0.260460  0.123288  0.242174  1
  Cs  Cs4  1  0.855052  0.143410  0.190214  1
  Cs  Cs5  1  0.123288  0.260460  0.742174  1
  Cs  Cs6  1  0.720636  0.866899  0.657003  1
  Cs  Cs7  1  0.143410  0.855052  0.690214  1
  Ba  Ba8  1  0.071990  0.532825  0.399075  1
  Ba  Ba9  1  0.478259  0.527438  0.376346  1
  Ba  Ba10  1  0.532825  0.071990  0.899075  1
  Ba  Ba11  1  0.527438  0.478259  0.876346  1
  Zr  Zr12  1  0.664046  0.337605  0.490734  1
  Zr  Zr13  1  0.337605  0.664046  0.990734  1
  Sb  Sb14  1  0.632722  0.328583  0.167489  1
  Sb  Sb15  1  0.328583  0.632722  0.667489  1
  Sb  Sb16  1  0.214625  0.409413  0.138263  1
  Sb  Sb17  1  0.599021  0.793750  0.071220  1
  Sb  Sb18  1  0.215945  0.802700  0.096410  1
  Sb  Sb19  1  0.793750  0.599021  0.571220  1
  Sb  Sb20  1  0.409413  0.214625  0.638263  1
  Sb  Sb21  1  0.802700  0.215945  0.596410  1
