# generated using pymatgen
data_Pr2Dy4IrBr10
_symmetry_space_group_name_H-M   'P 1'
_cell_length_a   7.46908254
_cell_length_b   9.38720114
_cell_length_c   9.46726779
_cell_angle_alpha   107.61912562
_cell_angle_beta   95.64782239
_cell_angle_gamma   106.22082859
_symmetry_Int_Tables_number   1
_chemical_formula_structural   Pr2Dy4IrBr10
_chemical_formula_sum   'Pr2 Dy4 Ir1 Br10'
_cell_volume   595.19855480
_cell_formula_units_Z   1
loop_
 _symmetry_equiv_pos_site_id
 _symmetry_equiv_pos_as_xyz
  1  'x, y, z'
loop_
 _atom_site_type_symbol
 _atom_site_label
 _atom_site_symmetry_multiplicity
 _atom_site_fract_x
 _atom_site_fract_y
 _atom_site_fract_z
 _atom_site_occupancy
  Pr  Pr0  1  0.130914  0.050748  0.755247  1
  Pr  Pr1  1  0.869086  0.949252  0.244753  1
  Dy  Dy2  1  0.973725  0.299900  0.095990  1
  Dy  Dy3  1  0.026275  0.700100  0.904010  1
  Dy  Dy4  1  0.640156  0.864426  0.823491  1
  Dy  Dy5  1  0.359844  0.135574  0.176509  1
  Ir  Ir6  1  0.000000  0.000000  0.000000  1
  Br  Br7  1  0.555962  0.176765  0.922122  1
  Br  Br8  1  0.444038  0.823235  0.077878  1
  Br  Br9  1  0.739747  0.913898  0.550771  1
  Br  Br10  1  0.260253  0.086102  0.449229  1
  Br  Br11  1  0.084339  0.378939  0.836308  1
  Br  Br12  1  0.915661  0.621061  0.163692  1
  Br  Br13  1  0.221853  0.739170  0.659760  1
  Br  Br14  1  0.778147  0.260830  0.340240  1
  Br  Br15  1  0.651638  0.552091  0.729700  1
  Br  Br16  1  0.348362  0.447909  0.270300  1
