# generated using pymatgen
data_La10TcRu3
_symmetry_space_group_name_H-M   'P 1'
_cell_length_a   9.08729777
_cell_length_b   9.07342871
_cell_length_c   7.40546089
_cell_angle_alpha   85.65369461
_cell_angle_beta   85.53341975
_cell_angle_gamma   43.56022819
_symmetry_Int_Tables_number   1
_chemical_formula_structural   La10TcRu3
_chemical_formula_sum   'La10 Tc1 Ru3'
_cell_volume   419.33173381
_cell_formula_units_Z   1
loop_
 _symmetry_equiv_pos_site_id
 _symmetry_equiv_pos_as_xyz
  1  'x, y, z'
loop_
 _atom_site_type_symbol
 _atom_site_label
 _atom_site_symmetry_multiplicity
 _atom_site_fract_x
 _atom_site_fract_y
 _atom_site_fract_z
 _atom_site_occupancy
  La  La0  1  0.014448  0.798697  0.902828  1
  La  La1  1  0.197076  0.986827  0.595409  1
  La  La2  1  0.988332  0.197294  0.094867  1
  La  La3  1  0.801066  0.012414  0.403206  1
  La  La4  1  0.358444  0.213948  0.825312  1
  La  La5  1  0.789903  0.639385  0.678139  1
  La  La6  1  0.639004  0.787324  0.177548  1
  La  La7  1  0.211956  0.360075  0.324727  1
  La  La8  1  0.577193  0.423758  0.749499  1
  La  La9  1  0.424116  0.574936  0.248778  1
  Tc  Tc10  1  0.170732  0.609641  0.581808  1
  Ru  Ru11  1  0.393551  0.829444  0.918926  1
  Ru  Ru12  1  0.825731  0.397283  0.415618  1
  Ru  Ru13  1  0.608448  0.168973  0.083333  1
