# generated using pymatgen
data_Tb3Nd2(LuS4)3
_symmetry_space_group_name_H-M   'P 1'
_cell_length_a   3.94552400
_cell_length_b   10.97844934
_cell_length_c   11.24942500
_cell_angle_alpha   71.27200504
_cell_angle_beta   90.00000000
_cell_angle_gamma   90.00000000
_symmetry_Int_Tables_number   1
_chemical_formula_structural   Tb3Nd2(LuS4)3
_chemical_formula_sum   'Tb3 Nd2 Lu3 S12'
_cell_volume   461.47750403
_cell_formula_units_Z   1
loop_
 _symmetry_equiv_pos_site_id
 _symmetry_equiv_pos_as_xyz
  1  'x, y, z'
loop_
 _atom_site_type_symbol
 _atom_site_label
 _atom_site_symmetry_multiplicity
 _atom_site_fract_x
 _atom_site_fract_y
 _atom_site_fract_z
 _atom_site_occupancy
  Tb  Tb0  1  0.750000  0.180293  0.998179  1
  Tb  Tb1  1  0.250000  0.819002  0.004146  1
  Tb  Tb2  1  0.750000  0.943056  0.665032  1
  Nd  Nd3  1  0.750000  0.549380  0.803893  1
  Nd  Nd4  1  0.250000  0.449120  0.197134  1
  Lu  Lu5  1  0.250000  0.058069  0.333344  1
  Lu  Lu6  1  0.750000  0.659897  0.413991  1
  Lu  Lu7  1  0.250000  0.341060  0.585594  1
  S  S8  1  0.750000  0.980840  0.887669  1
  S  S9  1  0.250000  0.019131  0.116754  1
  S  S10  1  0.750000  0.304558  0.744853  1
  S  S11  1  0.250000  0.694468  0.255414  1
  S  S12  1  0.750000  0.894136  0.437423  1
  S  S13  1  0.250000  0.111203  0.553178  1
  S  S14  1  0.750000  0.418737  0.407678  1
  S  S15  1  0.250000  0.581950  0.592151  1
  S  S16  1  0.750000  0.232532  0.231535  1
  S  S17  1  0.250000  0.763266  0.771207  1
  S  S18  1  0.750000  0.616420  0.037592  1
  S  S19  1  0.250000  0.382885  0.963236  1
