# generated using pymatgen
data_Tb7Er2Tm3Ru4
_symmetry_space_group_name_H-M   'P 1'
_cell_length_a   6.30869633
_cell_length_b   7.29229115
_cell_length_c   9.15530007
_cell_angle_alpha   89.93714602
_cell_angle_beta   89.84022695
_cell_angle_gamma   89.93549814
_symmetry_Int_Tables_number   1
_chemical_formula_structural   Tb7Er2Tm3Ru4
_chemical_formula_sum   'Tb7 Er2 Tm3 Ru4'
_cell_volume   421.18605349
_cell_formula_units_Z   1
loop_
 _symmetry_equiv_pos_site_id
 _symmetry_equiv_pos_as_xyz
  1  'x, y, z'
loop_
 _atom_site_type_symbol
 _atom_site_label
 _atom_site_symmetry_multiplicity
 _atom_site_fract_x
 _atom_site_fract_y
 _atom_site_fract_z
 _atom_site_occupancy
  Tb  Tb0  1  0.633057  0.040282  0.252817  1
  Tb  Tb1  1  0.365701  0.959282  0.747394  1
  Tb  Tb2  1  0.133962  0.459412  0.747424  1
  Tb  Tb3  1  0.867160  0.541161  0.252229  1
  Tb  Tb4  1  0.170691  0.177408  0.066347  1
  Tb  Tb5  1  0.829846  0.822693  0.934391  1
  Tb  Tb6  1  0.669328  0.323220  0.934440  1
  Er  Er7  1  0.830285  0.823385  0.563459  1
  Er  Er8  1  0.330698  0.676779  0.066599  1
  Tm  Tm9  1  0.169272  0.175804  0.436347  1
  Tm  Tm10  1  0.331125  0.676323  0.435368  1
  Tm  Tm11  1  0.668538  0.324245  0.563885  1
  Ru  Ru12  1  0.459025  0.385921  0.252903  1
  Ru  Ru13  1  0.539999  0.614362  0.748043  1
  Ru  Ru14  1  0.958658  0.114442  0.745490  1
  Ru  Ru15  1  0.042654  0.885282  0.252864  1
