# generated using pymatgen
data_NaEu9Se10
_symmetry_space_group_name_H-M   'P 1'
_cell_length_a   7.53791716
_cell_length_b   8.72842950
_cell_length_c   9.73908437
_cell_angle_alpha   102.93562453
_cell_angle_beta   97.48325072
_cell_angle_gamma   106.77745808
_symmetry_Int_Tables_number   1
_chemical_formula_structural   NaEu9Se10
_chemical_formula_sum   'Na1 Eu9 Se10'
_cell_volume   584.74861684
_cell_formula_units_Z   1
loop_
 _symmetry_equiv_pos_site_id
 _symmetry_equiv_pos_as_xyz
  1  'x, y, z'
loop_
 _atom_site_type_symbol
 _atom_site_label
 _atom_site_symmetry_multiplicity
 _atom_site_fract_x
 _atom_site_fract_y
 _atom_site_fract_z
 _atom_site_occupancy
  Na  Na0  1  0.000000  0.500000  0.000000  1
  Eu  Eu1  1  0.801709  0.599269  0.602364  1
  Eu  Eu2  1  0.601244  0.201417  0.198334  1
  Eu  Eu3  1  0.398756  0.798583  0.801666  1
  Eu  Eu4  1  0.598196  0.697416  0.197798  1
  Eu  Eu5  1  0.198291  0.400731  0.397636  1
  Eu  Eu6  1  0.401804  0.302584  0.802202  1
  Eu  Eu7  1  0.000000  0.000000  0.000000  1
  Eu  Eu8  1  0.198792  0.897253  0.397211  1
  Eu  Eu9  1  0.801208  0.102747  0.602789  1
  Se  Se10  1  0.696318  0.652183  0.898955  1
  Se  Se11  1  0.499686  0.249447  0.500851  1
  Se  Se12  1  0.696429  0.145092  0.897810  1
  Se  Se13  1  0.303571  0.854908  0.102190  1
  Se  Se14  1  0.500314  0.750553  0.499149  1
  Se  Se15  1  0.101791  0.448562  0.694944  1
  Se  Se16  1  0.303682  0.347817  0.101045  1
  Se  Se17  1  0.900224  0.049328  0.300283  1
  Se  Se18  1  0.099776  0.950672  0.699717  1
  Se  Se19  1  0.898209  0.551438  0.305056  1
