# generated using pymatgen
data_Lu3Mg3Sn2Rh
_symmetry_space_group_name_H-M   'P 1'
_cell_length_a   7.33658000
_cell_length_b   7.33657943
_cell_length_c   4.43245600
_cell_angle_alpha   90.00000000
_cell_angle_beta   90.00000000
_cell_angle_gamma   120.00000257
_symmetry_Int_Tables_number   1
_chemical_formula_structural   Lu3Mg3Sn2Rh
_chemical_formula_sum   'Lu3 Mg3 Sn2 Rh1'
_cell_volume   206.61523192
_cell_formula_units_Z   1
loop_
 _symmetry_equiv_pos_site_id
 _symmetry_equiv_pos_as_xyz
  1  'x, y, z'
loop_
 _atom_site_type_symbol
 _atom_site_label
 _atom_site_symmetry_multiplicity
 _atom_site_fract_x
 _atom_site_fract_y
 _atom_site_fract_z
 _atom_site_occupancy
  Lu  Lu0  1  0.395961  0.000000  0.000000  1
  Lu  Lu1  1  0.000000  0.395961  0.000000  1
  Lu  Lu2  1  0.604038  0.604039  0.000000  1
  Mg  Mg3  1  0.770732  0.000000  0.500001  1
  Mg  Mg4  1  0.229268  0.229269  0.500001  1
  Mg  Mg5  1  0.000000  0.770731  0.500001  1
  Sn  Sn6  1  0.666667  0.333334  0.500001  1
  Sn  Sn7  1  0.333333  0.666666  0.500001  1
  Rh  Rh8  1  0.000000  0.000000  0.000000  1
