# generated using pymatgen
data_CsRb7Cr2(Mo3N8)2
_symmetry_space_group_name_H-M   'P 1'
_cell_length_a   6.04091086
_cell_length_b   8.41904700
_cell_length_c   12.15208656
_cell_angle_alpha   90.00000000
_cell_angle_beta   90.34568879
_cell_angle_gamma   90.00000000
_symmetry_Int_Tables_number   1
_chemical_formula_structural   CsRb7Cr2(Mo3N8)2
_chemical_formula_sum   'Cs1 Rb7 Cr2 Mo6 N16'
_cell_volume   618.02822669
_cell_formula_units_Z   1
loop_
 _symmetry_equiv_pos_site_id
 _symmetry_equiv_pos_as_xyz
  1  'x, y, z'
loop_
 _atom_site_type_symbol
 _atom_site_label
 _atom_site_symmetry_multiplicity
 _atom_site_fract_x
 _atom_site_fract_y
 _atom_site_fract_z
 _atom_site_occupancy
  Cs  Cs0  1  0.250000  0.854774  0.500000  1
  Rb  Rb1  1  0.750000  0.157867  0.000000  1
  Rb  Rb2  1  0.250000  0.885878  0.000000  1
  Rb  Rb3  1  0.750000  0.119874  0.500000  1
  Rb  Rb4  1  0.691780  0.388996  0.266620  1
  Rb  Rb5  1  0.192975  0.610863  0.232695  1
  Rb  Rb6  1  0.307025  0.610863  0.767305  1
  Rb  Rb7  1  0.808220  0.388996  0.733380  1
  Cr  Cr8  1  0.250000  0.366117  0.000000  1
  Cr  Cr9  1  0.750000  0.632163  0.500000  1
  Mo  Mo10  1  0.750000  0.614733  0.000000  1
  Mo  Mo11  1  0.250000  0.383558  0.500000  1
  Mo  Mo12  1  0.204389  0.122482  0.247816  1
  Mo  Mo13  1  0.704530  0.876823  0.250989  1
  Mo  Mo14  1  0.795470  0.876823  0.749011  1
  Mo  Mo15  1  0.295611  0.122482  0.752184  1
  N  N16  1  0.902744  0.052347  0.254380  1
  N  N17  1  0.403286  0.947151  0.242232  1
  N  N18  1  0.096714  0.947151  0.757768  1
  N  N19  1  0.597256  0.052347  0.745620  1
  N  N20  1  0.265954  0.252787  0.371258  1
  N  N21  1  0.765658  0.744864  0.128914  1
  N  N22  1  0.734342  0.744864  0.871086  1
  N  N23  1  0.234046  0.252787  0.628742  1
  N  N24  1  0.762265  0.755520  0.620683  1
  N  N25  1  0.261063  0.243574  0.880135  1
  N  N26  1  0.238937  0.243574  0.119865  1
  N  N27  1  0.737735  0.755520  0.379317  1
  N  N28  1  0.506014  0.508949  0.506865  1
  N  N29  1  0.005357  0.488163  0.993434  1
  N  N30  1  0.494643  0.488163  0.006566  1
  N  N31  1  0.993986  0.508949  0.493135  1
