# generated using pymatgen
data_Tb4Yb7In9Pd4
_symmetry_space_group_name_H-M   'P 1'
_cell_length_a   13.43442422
_cell_length_b   13.43443989
_cell_length_c   3.66639000
_cell_angle_alpha   90.00000000
_cell_angle_beta   90.00000000
_cell_angle_gamma   112.17895982
_symmetry_Int_Tables_number   1
_chemical_formula_structural   Tb4Yb7In9Pd4
_chemical_formula_sum   'Tb4 Yb7 In9 Pd4'
_cell_volume   612.76311883
_cell_formula_units_Z   1
loop_
 _symmetry_equiv_pos_site_id
 _symmetry_equiv_pos_as_xyz
  1  'x, y, z'
loop_
 _atom_site_type_symbol
 _atom_site_label
 _atom_site_symmetry_multiplicity
 _atom_site_fract_x
 _atom_site_fract_y
 _atom_site_fract_z
 _atom_site_occupancy
  Tb  Tb0  1  0.379564  0.620436  0.000000  1
  Tb  Tb1  1  0.620436  0.379564  0.000000  1
  Tb  Tb2  1  0.311585  0.311585  0.000000  1
  Tb  Tb3  1  0.688415  0.688415  0.000000  1
  Yb  Yb4  1  0.413235  0.070269  0.000000  1
  Yb  Yb5  1  0.586765  0.929731  0.000000  1
  Yb  Yb6  1  0.070269  0.413235  0.000000  1
  Yb  Yb7  1  0.929731  0.586765  0.000000  1
  Yb  Yb8  1  0.158214  0.841786  0.000000  1
  Yb  Yb9  1  0.841786  0.158214  0.000000  1
  Yb  Yb10  1  0.000000  0.000000  0.000000  1
  In  In11  1  0.369201  0.834795  0.500000  1
  In  In12  1  0.630799  0.165205  0.500000  1
  In  In13  1  0.834795  0.369201  0.500000  1
  In  In14  1  0.165205  0.630799  0.500000  1
  In  In15  1  0.218814  0.080706  0.500000  1
  In  In16  1  0.781186  0.919294  0.500000  1
  In  In17  1  0.080706  0.218814  0.500000  1
  In  In18  1  0.919294  0.781186  0.500000  1
  In  In19  1  0.500000  0.500000  0.500000  1
  Pd  Pd20  1  0.448023  0.245013  0.500000  1
  Pd  Pd21  1  0.551977  0.754987  0.500000  1
  Pd  Pd22  1  0.245013  0.448022  0.500000  1
  Pd  Pd23  1  0.754987  0.551978  0.500000  1
