# generated using pymatgen
data_ErTm7MoOs3C8
_symmetry_space_group_name_H-M   'P 1'
_cell_length_a   5.02886200
_cell_length_b   6.47818197
_cell_length_c   9.70399237
_cell_angle_alpha   89.58405731
_cell_angle_beta   90.00000000
_cell_angle_gamma   90.00000000
_symmetry_Int_Tables_number   1
_chemical_formula_structural   ErTm7MoOs3C8
_chemical_formula_sum   'Er1 Tm7 Mo1 Os3 C8'
_cell_volume   316.12719892
_cell_formula_units_Z   1
loop_
 _symmetry_equiv_pos_site_id
 _symmetry_equiv_pos_as_xyz
  1  'x, y, z'
loop_
 _atom_site_type_symbol
 _atom_site_label
 _atom_site_symmetry_multiplicity
 _atom_site_fract_x
 _atom_site_fract_y
 _atom_site_fract_z
 _atom_site_occupancy
  Er  Er0  1  0.750000  0.969327  0.715969  1
  Tm  Tm1  1  0.250000  0.676822  0.555683  1
  Tm  Tm2  1  0.750000  0.324124  0.443564  1
  Tm  Tm3  1  0.750000  0.826194  0.056777  1
  Tm  Tm4  1  0.250000  0.177878  0.943428  1
  Tm  Tm5  1  0.250000  0.533131  0.215117  1
  Tm  Tm6  1  0.750000  0.466124  0.780280  1
  Tm  Tm7  1  0.250000  0.031052  0.284862  1
  Mo  Mo8  1  0.250000  0.717569  0.870080  1
  Os  Os9  1  0.750000  0.282604  0.133329  1
  Os  Os10  1  0.750000  0.780477  0.365992  1
  Os  Os11  1  0.250000  0.220333  0.630458  1
  C  C12  1  0.250000  0.449116  0.758947  1
  C  C13  1  0.750000  0.546089  0.242166  1
  C  C14  1  0.750000  0.047474  0.259087  1
  C  C15  1  0.250000  0.954215  0.739742  1
  C  C16  1  0.250000  0.827556  0.059772  1
  C  C17  1  0.750000  0.173099  0.946852  1
  C  C18  1  0.750000  0.670467  0.553862  1
  C  C19  1  0.250000  0.326347  0.444035  1
