# generated using pymatgen
data_Th8Si12AgRh3
_symmetry_space_group_name_H-M   'P 1'
_cell_length_a   8.26812900
_cell_length_b   8.26812810
_cell_length_c   8.46084600
_cell_angle_alpha   90.00000000
_cell_angle_beta   90.00000000
_cell_angle_gamma   119.99999962
_symmetry_Int_Tables_number   1
_chemical_formula_structural   Th8Si12AgRh3
_chemical_formula_sum   'Th8 Si12 Ag1 Rh3'
_cell_volume   500.90903357
_cell_formula_units_Z   1
loop_
 _symmetry_equiv_pos_site_id
 _symmetry_equiv_pos_as_xyz
  1  'x, y, z'
loop_
 _atom_site_type_symbol
 _atom_site_label
 _atom_site_symmetry_multiplicity
 _atom_site_fract_x
 _atom_site_fract_y
 _atom_site_fract_z
 _atom_site_occupancy
  Th  Th0  1  0.000000  0.000000  0.749068  1
  Th  Th1  1  0.000000  0.000000  0.251018  1
  Th  Th2  1  0.495931  0.504069  0.746094  1
  Th  Th3  1  0.495931  0.991865  0.746094  1
  Th  Th4  1  0.008135  0.504069  0.746094  1
  Th  Th5  1  0.497309  0.502691  0.253714  1
  Th  Th6  1  0.005384  0.502691  0.253714  1
  Th  Th7  1  0.497309  0.994616  0.253714  1
  Si  Si8  1  0.837644  0.162356  0.999807  1
  Si  Si9  1  0.837644  0.675288  0.999807  1
  Si  Si10  1  0.324712  0.162356  0.999807  1
  Si  Si11  1  0.832757  0.167243  0.500506  1
  Si  Si12  1  0.832757  0.665515  0.500506  1
  Si  Si13  1  0.334485  0.167243  0.500506  1
  Si  Si14  1  0.165292  0.834708  0.499469  1
  Si  Si15  1  0.669418  0.834708  0.499469  1
  Si  Si16  1  0.165292  0.330582  0.499469  1
  Si  Si17  1  0.167725  0.832275  0.000395  1
  Si  Si18  1  0.664549  0.832275  0.000395  1
  Si  Si19  1  0.167725  0.335451  0.000395  1
  Ag  Ag20  1  0.666667  0.333333  0.996811  1
  Rh  Rh21  1  0.666667  0.333333  0.502871  1
  Rh  Rh22  1  0.333333  0.666667  0.498304  1
  Rh  Rh23  1  0.333333  0.666667  0.001968  1
