# generated using pymatgen
data_TbCe3Tm12(CdIr)4
_symmetry_space_group_name_H-M   'P 1'
_cell_length_a   9.55325686
_cell_length_b   9.55325725
_cell_length_c   9.55325678
_cell_angle_alpha   60.16455192
_cell_angle_beta   60.16455175
_cell_angle_gamma   60.16454522
_symmetry_Int_Tables_number   1
_chemical_formula_structural   TbCe3Tm12(CdIr)4
_chemical_formula_sum   'Tb1 Ce3 Tm12 Cd4 Ir4'
_cell_volume   618.80658687
_cell_formula_units_Z   1
loop_
 _symmetry_equiv_pos_site_id
 _symmetry_equiv_pos_as_xyz
  1  'x, y, z'
loop_
 _atom_site_type_symbol
 _atom_site_label
 _atom_site_symmetry_multiplicity
 _atom_site_fract_x
 _atom_site_fract_y
 _atom_site_fract_z
 _atom_site_occupancy
  Tb  Tb0  1  0.601117  0.601117  0.601117  1
  Ce  Ce1  1  0.601053  0.601053  0.199618  1
  Ce  Ce2  1  0.601053  0.199618  0.601053  1
  Ce  Ce3  1  0.199618  0.601053  0.601053  1
  Tm  Tm4  1  0.060527  0.438691  0.438691  1
  Tm  Tm5  1  0.436731  0.062080  0.062080  1
  Tm  Tm6  1  0.438691  0.060527  0.438691  1
  Tm  Tm7  1  0.062080  0.436731  0.062080  1
  Tm  Tm8  1  0.438691  0.438691  0.060527  1
  Tm  Tm9  1  0.062080  0.062080  0.436731  1
  Tm  Tm10  1  0.186725  0.813718  0.813718  1
  Tm  Tm11  1  0.813929  0.186794  0.186794  1
  Tm  Tm12  1  0.813718  0.186725  0.813718  1
  Tm  Tm13  1  0.186794  0.813929  0.186794  1
  Tm  Tm14  1  0.813718  0.813718  0.186725  1
  Tm  Tm15  1  0.186794  0.186794  0.813929  1
  Cd  Cd16  1  0.832090  0.832090  0.832090  1
  Cd  Cd17  1  0.832126  0.832126  0.502711  1
  Cd  Cd18  1  0.832126  0.502711  0.832126  1
  Cd  Cd19  1  0.502711  0.832126  0.832126  1
  Ir  Ir20  1  0.392399  0.392399  0.392399  1
  Ir  Ir21  1  0.390568  0.390568  0.824093  1
  Ir  Ir22  1  0.390568  0.824093  0.390568  1
  Ir  Ir23  1  0.824093  0.390568  0.390568  1
