# generated using pymatgen
data_Tm4Ni13Ge
_symmetry_space_group_name_H-M   'P 1'
_cell_length_a   4.93164141
_cell_length_b   4.86025208
_cell_length_c   12.34800152
_cell_angle_alpha   78.76816467
_cell_angle_beta   78.48096181
_cell_angle_gamma   59.51291494
_symmetry_Int_Tables_number   1
_chemical_formula_structural   Tm4Ni13Ge
_chemical_formula_sum   'Tm4 Ni13 Ge1'
_cell_volume   248.37694872
_cell_formula_units_Z   1
loop_
 _symmetry_equiv_pos_site_id
 _symmetry_equiv_pos_as_xyz
  1  'x, y, z'
loop_
 _atom_site_type_symbol
 _atom_site_label
 _atom_site_symmetry_multiplicity
 _atom_site_fract_x
 _atom_site_fract_y
 _atom_site_fract_z
 _atom_site_occupancy
  Tm  Tm0  1  0.946886  0.948685  0.157541  1
  Tm  Tm1  1  0.053114  0.051315  0.842459  1
  Tm  Tm2  1  0.851751  0.854149  0.442349  1
  Tm  Tm3  1  0.148249  0.145851  0.557651  1
  Ni  Ni4  1  0.500000  0.500000  0.500000  1
  Ni  Ni5  1  0.721594  0.724270  0.832542  1
  Ni  Ni6  1  0.278406  0.275730  0.167458  1
  Ni  Ni7  1  0.608359  0.615988  0.167294  1
  Ni  Ni8  1  0.391641  0.384012  0.832706  1
  Ni  Ni9  1  0.000000  0.500000  0.000000  1
  Ni  Ni10  1  0.500000  0.500000  0.000000  1
  Ni  Ni11  1  0.388404  0.392224  0.329962  1
  Ni  Ni12  1  0.889411  0.392224  0.329962  1
  Ni  Ni13  1  0.386555  0.893928  0.332961  1
  Ni  Ni14  1  0.611596  0.607776  0.670038  1
  Ni  Ni15  1  0.110589  0.607776  0.670038  1
  Ni  Ni16  1  0.613445  0.106072  0.667039  1
  Ge  Ge17  1  0.500000  0.000000  0.000000  1
