# generated using pymatgen
data_Ba2CaMnCr2F14
_symmetry_space_group_name_H-M   'P 1'
_cell_length_a   7.52726242
_cell_length_b   7.52726234
_cell_length_c   15.20032277
_cell_angle_alpha   88.52165268
_cell_angle_beta   88.52165338
_cell_angle_gamma   42.44691935
_symmetry_Int_Tables_number   1
_chemical_formula_structural   Ba2CaMnCr2F14
_chemical_formula_sum   'Ba4 Ca2 Mn2 Cr4 F28'
_cell_volume   581.03779295
_cell_formula_units_Z   2
loop_
 _symmetry_equiv_pos_site_id
 _symmetry_equiv_pos_as_xyz
  1  'x, y, z'
loop_
 _atom_site_type_symbol
 _atom_site_label
 _atom_site_symmetry_multiplicity
 _atom_site_fract_x
 _atom_site_fract_y
 _atom_site_fract_z
 _atom_site_occupancy
  Ba  Ba0  1  0.642740  0.737331  0.878836  1
  Ba  Ba1  1  0.357260  0.262669  0.121164  1
  Ba  Ba2  1  0.262669  0.357260  0.621164  1
  Ba  Ba3  1  0.737331  0.642740  0.378836  1
  Ca  Ca4  1  0.943625  0.056375  0.750000  1
  Ca  Ca5  1  0.056375  0.943625  0.250000  1
  Mn  Mn6  1  0.000000  0.000000  0.500000  1
  Mn  Mn7  1  0.000000  0.000000  0.000000  1
  Cr  Cr8  1  0.618005  0.621667  0.623890  1
  Cr  Cr9  1  0.381995  0.378333  0.376110  1
  Cr  Cr10  1  0.378333  0.381995  0.876110  1
  Cr  Cr11  1  0.621667  0.618005  0.123890  1
  F  F12  1  0.339564  0.909533  0.701110  1
  F  F13  1  0.660436  0.090467  0.298890  1
  F  F14  1  0.090467  0.660436  0.798890  1
  F  F15  1  0.909533  0.339564  0.201110  1
  F  F16  1  0.405533  0.763908  0.518063  1
  F  F17  1  0.594467  0.236092  0.481937  1
  F  F18  1  0.236092  0.594467  0.981937  1
  F  F19  1  0.763908  0.405533  0.018063  1
  F  F20  1  0.690926  0.809932  0.587742  1
  F  F21  1  0.309074  0.190068  0.412258  1
  F  F22  1  0.190068  0.309074  0.912258  1
  F  F23  1  0.809932  0.690926  0.087742  1
  F  F24  1  0.855809  0.026085  0.123091  1
  F  F25  1  0.144191  0.973915  0.876909  1
  F  F26  1  0.973915  0.144191  0.376909  1
  F  F27  1  0.026085  0.855809  0.623091  1
  F  F28  1  0.581038  0.399420  0.657721  1
  F  F29  1  0.418962  0.600580  0.342279  1
  F  F30  1  0.600580  0.418962  0.842279  1
  F  F31  1  0.399420  0.581038  0.157721  1
  F  F32  1  0.544406  0.132237  0.778642  1
  F  F33  1  0.455594  0.867763  0.221358  1
  F  F34  1  0.867763  0.455594  0.721358  1
  F  F35  1  0.132237  0.544406  0.278642  1
  F  F36  1  0.666176  0.080806  0.951513  1
  F  F37  1  0.333824  0.919194  0.048487  1
  F  F38  1  0.919194  0.333824  0.548487  1
  F  F39  1  0.080806  0.666176  0.451513  1
