# generated using pymatgen
data_Tb9Ho11CoBi8Os3
_symmetry_space_group_name_H-M   'P 1'
_cell_length_a   7.97703059
_cell_length_b   9.02170700
_cell_length_c   12.43853496
_cell_angle_alpha   90.00000000
_cell_angle_beta   89.68143809
_cell_angle_gamma   90.00000000
_symmetry_Int_Tables_number   1
_chemical_formula_structural   Tb9Ho11CoBi8Os3
_chemical_formula_sum   'Tb9 Ho11 Co1 Bi8 Os3'
_cell_volume   895.14315274
_cell_formula_units_Z   1
loop_
 _symmetry_equiv_pos_site_id
 _symmetry_equiv_pos_as_xyz
  1  'x, y, z'
loop_
 _atom_site_type_symbol
 _atom_site_label
 _atom_site_symmetry_multiplicity
 _atom_site_fract_x
 _atom_site_fract_y
 _atom_site_fract_z
 _atom_site_occupancy
  Tb  Tb0  1  0.345068  0.750000  0.701247  1
  Tb  Tb1  1  0.657965  0.250000  0.292684  1
  Tb  Tb2  1  0.842666  0.250000  0.791403  1
  Tb  Tb3  1  0.156211  0.750000  0.206518  1
  Tb  Tb4  1  0.879128  0.750000  0.805744  1
  Tb  Tb5  1  0.119987  0.250000  0.193721  1
  Tb  Tb6  1  0.378705  0.250000  0.693089  1
  Tb  Tb7  1  0.616565  0.750000  0.312406  1
  Tb  Tb8  1  0.054910  0.750000  0.496818  1
  Ho  Ho9  1  0.675404  0.542034  0.563855  1
  Ho  Ho10  1  0.325414  0.460440  0.436951  1
  Ho  Ho11  1  0.174783  0.457990  0.935850  1
  Ho  Ho12  1  0.325414  0.039560  0.436951  1
  Ho  Ho13  1  0.824352  0.542949  0.064405  1
  Ho  Ho14  1  0.675404  0.957966  0.563855  1
  Ho  Ho15  1  0.824352  0.957051  0.064405  1
  Ho  Ho16  1  0.174783  0.042010  0.935850  1
  Ho  Ho17  1  0.944929  0.250000  0.503085  1
  Ho  Ho18  1  0.557950  0.250000  0.003576  1
  Ho  Ho19  1  0.442396  0.750000  0.995765  1
  Co  Co20  1  0.429923  0.750000  0.491387  1
  Bi  Bi21  1  0.570047  0.508557  0.827893  1
  Bi  Bi22  1  0.429678  0.492401  0.172383  1
  Bi  Bi23  1  0.071411  0.491803  0.671768  1
  Bi  Bi24  1  0.429678  0.007599  0.172383  1
  Bi  Bi25  1  0.929206  0.508477  0.328585  1
  Bi  Bi26  1  0.570047  0.991443  0.827893  1
  Bi  Bi27  1  0.929206  0.991523  0.328585  1
  Bi  Bi28  1  0.071411  0.008197  0.671768  1
  Os  Os29  1  0.075702  0.750000  0.989361  1
  Os  Os30  1  0.923831  0.250000  0.010139  1
  Os  Os31  1  0.573477  0.250000  0.509677  1
