# generated using pymatgen
data_Er5Mn3P12Ir15Rh
_symmetry_space_group_name_H-M   'P 1'
_cell_length_a   12.55579518
_cell_length_b   12.55919257
_cell_length_c   3.94203300
_cell_angle_alpha   90.00000000
_cell_angle_beta   90.00000000
_cell_angle_gamma   120.01044352
_symmetry_Int_Tables_number   1
_chemical_formula_structural   Er5Mn3P12Ir15Rh
_chemical_formula_sum   'Er5 Mn3 P12 Ir15 Rh1'
_cell_volume   538.28356058
_cell_formula_units_Z   1
loop_
 _symmetry_equiv_pos_site_id
 _symmetry_equiv_pos_as_xyz
  1  'x, y, z'
loop_
 _atom_site_type_symbol
 _atom_site_label
 _atom_site_symmetry_multiplicity
 _atom_site_fract_x
 _atom_site_fract_y
 _atom_site_fract_z
 _atom_site_occupancy
  Er  Er0  1  0.666726  0.333381  0.000000  1
  Er  Er1  1  0.333326  0.666695  0.000000  1
  Er  Er2  1  0.819698  0.819715  0.500000  1
  Er  Er3  1  0.180277  0.999945  0.500000  1
  Er  Er4  1  0.999985  0.180438  0.500000  1
  Mn  Mn5  1  0.289797  0.289768  0.500000  1
  Mn  Mn6  1  0.710189  0.999765  0.500000  1
  Mn  Mn7  1  0.000010  0.710230  0.500000  1
  P  P8  1  0.688882  0.164887  0.500000  1
  P  P9  1  0.835725  0.523528  0.500000  1
  P  P10  1  0.476279  0.311462  0.500000  1
  P  P11  1  0.164519  0.688181  0.500000  1
  P  P12  1  0.523709  0.835212  0.500000  1
  P  P13  1  0.311312  0.476186  0.500000  1
  P  P14  1  0.641126  0.641051  0.000000  1
  P  P15  1  0.359000  0.000023  0.000000  1
  P  P16  1  0.999730  0.359038  0.000000  1
  P  P17  1  0.182394  0.182434  0.000000  1
  P  P18  1  0.817624  0.000107  0.000000  1
  P  P19  1  0.000013  0.817608  0.000000  1
  Ir  Ir20  1  0.804639  0.179441  0.000000  1
  Ir  Ir21  1  0.820518  0.625758  0.000000  1
  Ir  Ir22  1  0.374381  0.194836  0.000000  1
  Ir  Ir23  1  0.179497  0.805151  0.000000  1
  Ir  Ir24  1  0.625690  0.820390  0.000000  1
  Ir  Ir25  1  0.194920  0.374287  0.000000  1
  Ir  Ir26  1  0.455037  0.455027  0.000000  1
  Ir  Ir27  1  0.545165  0.000214  0.000000  1
  Ir  Ir28  1  0.999676  0.545406  0.000000  1
  Ir  Ir29  1  0.638921  0.507302  0.500000  1
  Ir  Ir30  1  0.492669  0.131655  0.500000  1
  Ir  Ir31  1  0.361069  0.868286  0.500000  1
  Ir  Ir32  1  0.507184  0.638883  0.500000  1
  Ir  Ir33  1  0.131821  0.492727  0.500000  1
  Ir  Ir34  1  0.000013  0.999969  0.000000  1
  Rh  Rh35  1  0.868478  0.361014  0.500000  1
