# generated using pymatgen
data_LaPr7(Ho3Sn4)4
_symmetry_space_group_name_H-M   'P 1'
_cell_length_a   8.11733260
_cell_length_b   8.33924020
_cell_length_c   15.70258100
_cell_angle_alpha   90.02481669
_cell_angle_beta   90.22680974
_cell_angle_gamma   89.66154485
_symmetry_Int_Tables_number   1
_chemical_formula_structural   LaPr7(Ho3Sn4)4
_chemical_formula_sum   'La1 Pr7 Ho12 Sn16'
_cell_volume   1062.91821628
_cell_formula_units_Z   1
loop_
 _symmetry_equiv_pos_site_id
 _symmetry_equiv_pos_as_xyz
  1  'x, y, z'
loop_
 _atom_site_type_symbol
 _atom_site_label
 _atom_site_symmetry_multiplicity
 _atom_site_fract_x
 _atom_site_fract_y
 _atom_site_fract_z
 _atom_site_occupancy
  La  La0  1  0.509627  0.322681  0.903989  1
  Pr  Pr1  1  0.008331  0.177718  0.596315  1
  Pr  Pr2  1  0.491720  0.677297  0.403512  1
  Pr  Pr3  1  0.991028  0.821485  0.096376  1
  Pr  Pr4  1  0.490383  0.677403  0.096880  1
  Pr  Pr5  1  0.991748  0.822415  0.403625  1
  Pr  Pr6  1  0.507904  0.322977  0.596441  1
  Pr  Pr7  1  0.009442  0.178013  0.903398  1
  Ho  Ho8  1  0.352063  0.834725  0.875574  1
  Ho  Ho9  1  0.850319  0.665563  0.623960  1
  Ho  Ho10  1  0.649089  0.165838  0.375382  1
  Ho  Ho11  1  0.147601  0.335587  0.123605  1
  Ho  Ho12  1  0.647665  0.164958  0.124634  1
  Ho  Ho13  1  0.149075  0.334460  0.376005  1
  Ho  Ho14  1  0.351197  0.834245  0.624506  1
  Ho  Ho15  1  0.852894  0.664757  0.876408  1
  Ho  Ho16  1  0.184663  0.501551  0.749983  1
  Ho  Ho17  1  0.684475  0.997977  0.749974  1
  Ho  Ho18  1  0.815055  0.498532  0.249558  1
  Ho  Ho19  1  0.315512  0.001623  0.249793  1
  Sn  Sn20  1  0.311079  0.040062  0.041908  1
  Sn  Sn21  1  0.812403  0.458516  0.458333  1
  Sn  Sn22  1  0.686963  0.959892  0.541615  1
  Sn  Sn23  1  0.190153  0.542081  0.958229  1
  Sn  Sn24  1  0.689092  0.958789  0.958338  1
  Sn  Sn25  1  0.187379  0.541896  0.541617  1
  Sn  Sn26  1  0.313217  0.040430  0.458416  1
  Sn  Sn27  1  0.810300  0.458646  0.042357  1
  Sn  Sn28  1  0.550213  0.623486  0.749939  1
  Sn  Sn29  1  0.049150  0.875408  0.750158  1
  Sn  Sn30  1  0.449469  0.376650  0.250158  1
  Sn  Sn31  1  0.950767  0.124661  0.249727  1
  Sn  Sn32  1  0.316236  0.142565  0.749367  1
  Sn  Sn33  1  0.816990  0.357368  0.749516  1
  Sn  Sn34  1  0.683496  0.857136  0.250158  1
  Sn  Sn35  1  0.183300  0.642608  0.250247  1
