# generated using pymatgen
data_UInGaI6
_symmetry_space_group_name_H-M   'P 1'
_cell_length_a   8.67285225
_cell_length_b   8.67285098
_cell_length_c   8.67285284
_cell_angle_alpha   57.16917101
_cell_angle_beta   57.16917040
_cell_angle_gamma   57.16917212
_symmetry_Int_Tables_number   1
_chemical_formula_structural   UInGaI6
_chemical_formula_sum   'U1 In1 Ga1 I6'
_cell_volume   431.20266521
_cell_formula_units_Z   1
loop_
 _symmetry_equiv_pos_site_id
 _symmetry_equiv_pos_as_xyz
  1  'x, y, z'
loop_
 _atom_site_type_symbol
 _atom_site_label
 _atom_site_symmetry_multiplicity
 _atom_site_fract_x
 _atom_site_fract_y
 _atom_site_fract_z
 _atom_site_occupancy
  U  U0  1  0.000034  0.000034  0.000034  1
  In  In1  1  0.329845  0.329845  0.329845  1
  Ga  Ga2  1  0.669381  0.669381  0.669381  1
  I  I3  1  0.228961  0.630376  0.902730  1
  I  I4  1  0.630376  0.902730  0.228961  1
  I  I5  1  0.902730  0.228961  0.630376  1
  I  I6  1  0.780249  0.379341  0.079083  1
  I  I7  1  0.379341  0.079083  0.780249  1
  I  I8  1  0.079083  0.780249  0.379341  1
