# generated using pymatgen
data_TbThCdNi2
_symmetry_space_group_name_H-M   'P 1'
_cell_length_a   7.54408296
_cell_length_b   7.54408296
_cell_length_c   3.66151200
_cell_angle_alpha   90.00000000
_cell_angle_beta   90.00000000
_cell_angle_gamma   92.93060483
_symmetry_Int_Tables_number   1
_chemical_formula_structural   TbThCdNi2
_chemical_formula_sum   'Tb2 Th2 Cd2 Ni4'
_cell_volume   208.11578745
_cell_formula_units_Z   2
loop_
 _symmetry_equiv_pos_site_id
 _symmetry_equiv_pos_as_xyz
  1  'x, y, z'
loop_
 _atom_site_type_symbol
 _atom_site_label
 _atom_site_symmetry_multiplicity
 _atom_site_fract_x
 _atom_site_fract_y
 _atom_site_fract_z
 _atom_site_occupancy
  Tb  Tb0  1  0.172550  0.327450  0.500000  1
  Tb  Tb1  1  0.827450  0.672550  0.500000  1
  Th  Th2  1  0.675238  0.175238  0.500000  1
  Th  Th3  1  0.324762  0.824762  0.500000  1
  Cd  Cd4  1  0.000000  0.000000  0.000000  1
  Cd  Cd5  1  0.500000  0.500000  0.000000  1
  Ni  Ni6  1  0.122053  0.622053  0.000000  1
  Ni  Ni7  1  0.877947  0.377947  0.000000  1
  Ni  Ni8  1  0.617854  0.882146  0.000000  1
  Ni  Ni9  1  0.382146  0.117854  0.000000  1
