# generated using pymatgen
data_TbDy(HoNi7)2
_symmetry_space_group_name_H-M   'P 1'
_cell_length_a   4.94986762
_cell_length_b   4.94986876
_cell_length_c   12.39321133
_cell_angle_alpha   78.48054072
_cell_angle_beta   78.48053768
_cell_angle_gamma   60.00000082
_symmetry_Int_Tables_number   1
_chemical_formula_structural   TbDy(HoNi7)2
_chemical_formula_sum   'Tb1 Dy1 Ho2 Ni14'
_cell_volume   255.88031661
_cell_formula_units_Z   1
loop_
 _symmetry_equiv_pos_site_id
 _symmetry_equiv_pos_as_xyz
  1  'x, y, z'
loop_
 _atom_site_type_symbol
 _atom_site_label
 _atom_site_symmetry_multiplicity
 _atom_site_fract_x
 _atom_site_fract_y
 _atom_site_fract_z
 _atom_site_occupancy
  Tb  Tb0  1  0.050883  0.050883  0.847353  1
  Dy  Dy1  1  0.949107  0.949107  0.152679  1
  Ho  Ho2  1  0.852686  0.852686  0.441943  1
  Ho  Ho3  1  0.147344  0.147344  0.557966  1
  Ni  Ni4  1  0.499996  0.499996  0.500012  1
  Ni  Ni5  1  0.721932  0.721932  0.834205  1
  Ni  Ni6  1  0.278079  0.278079  0.165762  1
  Ni  Ni7  1  0.611625  0.611625  0.165126  1
  Ni  Ni8  1  0.388378  0.388378  0.834864  1
  Ni  Ni9  1  0.999960  0.499966  0.000108  1
  Ni  Ni10  1  0.499966  0.999960  0.000108  1
  Ni  Ni11  1  0.499966  0.499966  0.000108  1
  Ni  Ni12  1  0.389440  0.389440  0.329917  1
  Ni  Ni13  1  0.891203  0.389440  0.329917  1
  Ni  Ni14  1  0.389440  0.891203  0.329917  1
  Ni  Ni15  1  0.610582  0.610582  0.670005  1
  Ni  Ni16  1  0.108830  0.610582  0.670005  1
  Ni  Ni17  1  0.610582  0.108830  0.670005  1
