# generated using pymatgen
data_Rb3Na2NbP3
_symmetry_space_group_name_H-M   'P 1'
_cell_length_a   10.46773329
_cell_length_b   10.46773417
_cell_length_c   15.70760700
_cell_angle_alpha   90.00000000
_cell_angle_beta   90.00000000
_cell_angle_gamma   142.06620397
_symmetry_Int_Tables_number   1
_chemical_formula_structural   Rb3Na2NbP3
_chemical_formula_sum   'Rb12 Na8 Nb4 P12'
_cell_volume   1058.06969695
_cell_formula_units_Z   4
loop_
 _symmetry_equiv_pos_site_id
 _symmetry_equiv_pos_as_xyz
  1  'x, y, z'
loop_
 _atom_site_type_symbol
 _atom_site_label
 _atom_site_symmetry_multiplicity
 _atom_site_fract_x
 _atom_site_fract_y
 _atom_site_fract_z
 _atom_site_occupancy
  Rb  Rb0  1  0.942208  0.610107  0.826925  1
  Rb  Rb1  1  0.557792  0.889893  0.326925  1
  Rb  Rb2  1  0.389893  0.057792  0.173075  1
  Rb  Rb3  1  0.057792  0.389893  0.173075  1
  Rb  Rb4  1  0.889893  0.557792  0.326925  1
  Rb  Rb5  1  0.442208  0.110107  0.673075  1
  Rb  Rb6  1  0.610107  0.942208  0.826925  1
  Rb  Rb7  1  0.277965  0.277965  0.314228  1
  Rb  Rb8  1  0.777965  0.777965  0.185772  1
  Rb  Rb9  1  0.222035  0.222035  0.814228  1
  Rb  Rb10  1  0.722035  0.722035  0.685772  1
  Rb  Rb11  1  0.110107  0.442208  0.673075  1
  Na  Na12  1  0.921271  0.078729  0.000000  1
  Na  Na13  1  0.578729  0.421271  0.500000  1
  Na  Na14  1  0.078729  0.921271  0.000000  1
  Na  Na15  1  0.421271  0.578729  0.500000  1
  Na  Na16  1  0.755155  0.244845  0.000000  1
  Na  Na17  1  0.744845  0.255155  0.500000  1
  Na  Na18  1  0.244845  0.755155  0.000000  1
  Na  Na19  1  0.255155  0.744845  0.500000  1
  Nb  Nb20  1  0.581707  0.418293  0.000000  1
  Nb  Nb21  1  0.918293  0.081707  0.500000  1
  Nb  Nb22  1  0.418293  0.581707  0.000000  1
  Nb  Nb23  1  0.081707  0.918293  0.500000  1
  P  P24  1  0.859182  0.553909  0.092265  1
  P  P25  1  0.446091  0.140818  0.907735  1
  P  P26  1  0.640818  0.946091  0.592265  1
  P  P27  1  0.946091  0.640818  0.592265  1
  P  P28  1  0.140818  0.446091  0.907735  1
  P  P29  1  0.553909  0.859182  0.092265  1
  P  P30  1  0.359182  0.053909  0.407735  1
  P  P31  1  0.196108  0.196108  0.586391  1
  P  P32  1  0.696108  0.696108  0.913609  1
  P  P33  1  0.303892  0.303892  0.086391  1
  P  P34  1  0.053909  0.359182  0.407735  1
  P  P35  1  0.803892  0.803892  0.413609  1
