# generated using pymatgen
data_Mg4ScNb(SbPt)6
_symmetry_space_group_name_H-M   'P 1'
_cell_length_a   7.78213749
_cell_length_b   7.77876912
_cell_length_c   7.78805999
_cell_angle_alpha   120.07039922
_cell_angle_beta   99.48314590
_cell_angle_gamma   99.69438829
_symmetry_Int_Tables_number   1
_chemical_formula_structural   Mg4ScNb(SbPt)6
_chemical_formula_sum   'Mg4 Sc1 Nb1 Sb6 Pt6'
_cell_volume   384.64123032
_cell_formula_units_Z   1
loop_
 _symmetry_equiv_pos_site_id
 _symmetry_equiv_pos_as_xyz
  1  'x, y, z'
loop_
 _atom_site_type_symbol
 _atom_site_label
 _atom_site_symmetry_multiplicity
 _atom_site_fract_x
 _atom_site_fract_y
 _atom_site_fract_z
 _atom_site_occupancy
  Mg  Mg0  1  0.999489  0.501915  0.998889  1
  Mg  Mg1  1  0.499588  0.331830  0.166199  1
  Mg  Mg2  1  0.998650  0.164961  0.331063  1
  Mg  Mg3  1  0.500268  0.999208  0.500867  1
  Sc  Sc4  1  0.999826  0.832874  0.668693  1
  Nb  Nb5  1  0.500585  0.667251  0.833353  1
  Sb  Sb6  1  0.248251  0.919885  0.088995  1
  Sb  Sb7  1  0.749820  0.749717  0.255509  1
  Sb  Sb8  1  0.251219  0.581456  0.411717  1
  Sb  Sb9  1  0.754663  0.408756  0.577104  1
  Sb  Sb10  1  0.250061  0.250335  0.750178  1
  Sb  Sb11  1  0.748551  0.092685  0.917897  1
  Pt  Pt12  1  0.123085  0.206284  0.038217  1
  Pt  Pt13  1  0.620808  0.028910  0.196655  1
  Pt  Pt14  1  0.124224  0.874971  0.378464  1
  Pt  Pt15  1  0.624390  0.706701  0.551831  1
  Pt  Pt16  1  0.135307  0.547124  0.710991  1
  Pt  Pt17  1  0.621300  0.385114  0.873354  1
