# generated using pymatgen
data_Dy3Zn2Cd3Sn
_symmetry_space_group_name_H-M   'P 1'
_cell_length_a   7.51468200
_cell_length_b   7.51468119
_cell_length_c   4.28705900
_cell_angle_alpha   90.00000000
_cell_angle_beta   90.00000000
_cell_angle_gamma   120.00001237
_symmetry_Int_Tables_number   1
_chemical_formula_structural   Dy3Zn2Cd3Sn
_chemical_formula_sum   'Dy3 Zn2 Cd3 Sn1'
_cell_volume   209.65788751
_cell_formula_units_Z   1
loop_
 _symmetry_equiv_pos_site_id
 _symmetry_equiv_pos_as_xyz
  1  'x, y, z'
loop_
 _atom_site_type_symbol
 _atom_site_label
 _atom_site_symmetry_multiplicity
 _atom_site_fract_x
 _atom_site_fract_y
 _atom_site_fract_z
 _atom_site_occupancy
  Dy  Dy0  1  0.988052  0.411432  0.500000  1
  Dy  Dy1  1  0.588568  0.576620  0.500000  1
  Dy  Dy2  1  0.423380  0.011948  0.500000  1
  Zn  Zn3  1  0.666667  0.333333  0.000000  1
  Zn  Zn4  1  0.000000  0.000000  0.500000  1
  Cd  Cd5  1  0.982925  0.745894  0.000000  1
  Cd  Cd6  1  0.254106  0.237030  0.000000  1
  Cd  Cd7  1  0.762970  0.017075  0.000000  1
  Sn  Sn8  1  0.333333  0.666667  0.000000  1
