# generated using pymatgen
data_Mg4Mn(AsRu)6
_symmetry_space_group_name_H-M   'P 1'
_cell_length_a   7.04494158
_cell_length_b   7.04494122
_cell_length_c   7.04494049
_cell_angle_alpha   109.28326301
_cell_angle_beta   109.84780344
_cell_angle_gamma   109.28325368
_symmetry_Int_Tables_number   1
_chemical_formula_structural   Mg4Mn(AsRu)6
_chemical_formula_sum   'Mg4 Mn1 As6 Ru6'
_cell_volume   269.15107748
_cell_formula_units_Z   1
loop_
 _symmetry_equiv_pos_site_id
 _symmetry_equiv_pos_as_xyz
  1  'x, y, z'
loop_
 _atom_site_type_symbol
 _atom_site_label
 _atom_site_symmetry_multiplicity
 _atom_site_fract_x
 _atom_site_fract_y
 _atom_site_fract_z
 _atom_site_occupancy
  Mg  Mg0  1  0.007147  0.014295  0.507147  1
  Mg  Mg1  1  0.492853  0.985705  0.992853  1
  Mg  Mg2  1  0.007147  0.500000  0.992853  1
  Mg  Mg3  1  0.492853  0.500000  0.507147  1
  Mn  Mn4  1  0.750000  0.500000  0.250000  1
  As  As5  1  0.313990  0.000000  0.313990  1
  As  As6  1  0.006268  0.307166  0.313435  1
  As  As7  1  0.006268  0.692834  0.699102  1
  As  As8  1  0.300898  0.307166  0.993732  1
  As  As9  1  0.686565  0.692834  0.993732  1
  As  As10  1  0.686010  0.000000  0.686010  1
  Ru  Ru11  1  0.518895  0.742726  0.261621  1
  Ru  Ru12  1  0.518895  0.257274  0.776168  1
  Ru  Ru13  1  0.738379  0.257274  0.481105  1
  Ru  Ru14  1  0.223832  0.742726  0.481105  1
  Ru  Ru15  1  0.250000  0.500000  0.750000  1
  Ru  Ru16  1  0.000000  0.000000  0.000000  1
