# generated using pymatgen
data_LiCd2Pd3
_symmetry_space_group_name_H-M   'P 1'
_cell_length_a   4.78830217
_cell_length_b   4.78830091
_cell_length_c   5.59554219
_cell_angle_alpha   101.03711514
_cell_angle_beta   101.03711086
_cell_angle_gamma   52.66706761
_symmetry_Int_Tables_number   1
_chemical_formula_structural   LiCd2Pd3
_chemical_formula_sum   'Li1 Cd2 Pd3'
_cell_volume   99.65496995
_cell_formula_units_Z   1
loop_
 _symmetry_equiv_pos_site_id
 _symmetry_equiv_pos_as_xyz
  1  'x, y, z'
loop_
 _atom_site_type_symbol
 _atom_site_label
 _atom_site_symmetry_multiplicity
 _atom_site_fract_x
 _atom_site_fract_y
 _atom_site_fract_z
 _atom_site_occupancy
  Li  Li0  1  0.500000  0.500000  0.500000  1
  Cd  Cd1  1  0.838023  0.838023  0.178502  1
  Cd  Cd2  1  0.161977  0.161977  0.821499  1
  Pd  Pd3  1  0.500000  0.500000  0.000000  1
  Pd  Pd4  1  0.169088  0.169088  0.332448  1
  Pd  Pd5  1  0.830912  0.830912  0.667550  1
