# generated using pymatgen
data_Li2Mn3Co5Ni4As7
_symmetry_space_group_name_H-M   'P 1'
_cell_length_a   9.46627896
_cell_length_b   9.45638672
_cell_length_c   3.62168200
_cell_angle_alpha   90.00000000
_cell_angle_beta   90.00000000
_cell_angle_gamma   120.15173132
_symmetry_Int_Tables_number   1
_chemical_formula_structural   Li2Mn3Co5Ni4As7
_chemical_formula_sum   'Li2 Mn3 Co5 Ni4 As7'
_cell_volume   280.33635594
_cell_formula_units_Z   1
loop_
 _symmetry_equiv_pos_site_id
 _symmetry_equiv_pos_as_xyz
  1  'x, y, z'
loop_
 _atom_site_type_symbol
 _atom_site_label
 _atom_site_symmetry_multiplicity
 _atom_site_fract_x
 _atom_site_fract_y
 _atom_site_fract_z
 _atom_site_occupancy
  Li  Li0  1  0.334151  0.666072  0.000000  1
  Li  Li1  1  0.998844  0.000365  0.500000  1
  Mn  Mn2  1  0.763062  0.559392  0.500000  1
  Mn  Mn3  1  0.443696  0.207358  0.500000  1
  Mn  Mn4  1  0.793754  0.236361  0.500000  1
  Co  Co5  1  0.277805  0.379346  0.500000  1
  Co  Co6  1  0.618610  0.896721  0.500000  1
  Co  Co7  1  0.504859  0.447228  0.000000  1
  Co  Co8  1  0.551739  0.057353  0.000000  1
  Co  Co9  1  0.946968  0.498190  0.000000  1
  Ni  Ni10  1  0.105238  0.722166  0.500000  1
  Ni  Ni11  1  0.721289  0.759502  0.000000  1
  Ni  Ni12  1  0.238630  0.962321  0.000000  1
  Ni  Ni13  1  0.035208  0.275193  0.000000  1
  As  As14  1  0.963967  0.756673  0.000000  1
  As  As15  1  0.242826  0.210381  0.000000  1
  As  As16  1  0.787712  0.031876  0.000000  1
  As  As17  1  0.669051  0.335305  0.000000  1
  As  As18  1  0.529027  0.619740  0.500000  1
  As  As19  1  0.382874  0.912236  0.500000  1
  As  As20  1  0.090691  0.466220  0.500000  1
