# generated using pymatgen
data_Sr4Eu2MnAl3As8
_symmetry_space_group_name_H-M   'P 1'
_cell_length_a   8.52958128
_cell_length_b   8.52765617
_cell_length_c   6.85802613
_cell_angle_alpha   90.32891739
_cell_angle_beta   90.44022404
_cell_angle_gamma   76.23821284
_symmetry_Int_Tables_number   1
_chemical_formula_structural   Sr4Eu2MnAl3As8
_chemical_formula_sum   'Sr4 Eu2 Mn1 Al3 As8'
_cell_volume   484.49635290
_cell_formula_units_Z   1
loop_
 _symmetry_equiv_pos_site_id
 _symmetry_equiv_pos_as_xyz
  1  'x, y, z'
loop_
 _atom_site_type_symbol
 _atom_site_label
 _atom_site_symmetry_multiplicity
 _atom_site_fract_x
 _atom_site_fract_y
 _atom_site_fract_z
 _atom_site_occupancy
  Sr  Sr0  1  0.746534  0.002081  0.958823  1
  Sr  Sr1  1  0.994982  0.253273  0.546019  1
  Sr  Sr2  1  0.253738  0.993901  0.042764  1
  Sr  Sr3  1  0.003304  0.749352  0.458219  1
  Eu  Eu4  1  0.602463  0.400580  0.251879  1
  Eu  Eu5  1  0.402798  0.601221  0.747142  1
  Mn  Mn6  1  0.575977  0.833596  0.420532  1
  Al  Al7  1  0.173424  0.420682  0.081290  1
  Al  Al8  1  0.422198  0.168057  0.578285  1
  Al  Al9  1  0.826139  0.576123  0.914714  1
  As  As10  1  0.711054  0.066135  0.470160  1
  As  As11  1  0.939065  0.289692  0.033785  1
  As  As12  1  0.284287  0.940263  0.533388  1
  As  As13  1  0.061281  0.707562  0.966087  1
  As  As14  1  0.573814  0.730435  0.077043  1
  As  As15  1  0.266245  0.426342  0.425908  1
  As  As16  1  0.427793  0.264888  0.924849  1
  As  As17  1  0.734904  0.575820  0.569110  1
