# generated using pymatgen
data_Nd2YHoIn4
_symmetry_space_group_name_H-M   'P 1'
_cell_length_a   6.66806900
_cell_length_b   6.66806958
_cell_length_c   10.02505900
_cell_angle_alpha   90.00000000
_cell_angle_beta   90.00000000
_cell_angle_gamma   97.62679744
_symmetry_Int_Tables_number   1
_chemical_formula_structural   Nd2YHoIn4
_chemical_formula_sum   'Nd4 Y2 Ho2 In8'
_cell_volume   441.80242667
_cell_formula_units_Z   2
loop_
 _symmetry_equiv_pos_site_id
 _symmetry_equiv_pos_as_xyz
  1  'x, y, z'
loop_
 _atom_site_type_symbol
 _atom_site_label
 _atom_site_symmetry_multiplicity
 _atom_site_fract_x
 _atom_site_fract_y
 _atom_site_fract_z
 _atom_site_occupancy
  Nd  Nd0  1  0.248528  0.751472  0.500000  1
  Nd  Nd1  1  0.248528  0.751472  0.000000  1
  Nd  Nd2  1  0.751472  0.248528  0.500000  1
  Nd  Nd3  1  0.751472  0.248528  0.000000  1
  Y  Y4  1  0.532257  0.532257  0.250000  1
  Y  Y5  1  0.467743  0.467743  0.750000  1
  Ho  Ho6  1  0.973880  0.973879  0.250000  1
  Ho  Ho7  1  0.026121  0.026120  0.750000  1
  In  In8  1  0.251097  0.251097  0.022531  1
  In  In9  1  0.748903  0.748903  0.977469  1
  In  In10  1  0.251097  0.251097  0.477469  1
  In  In11  1  0.748903  0.748903  0.522531  1
  In  In12  1  0.478783  0.024626  0.250000  1
  In  In13  1  0.975374  0.521217  0.750000  1
  In  In14  1  0.521217  0.975374  0.750000  1
  In  In15  1  0.024626  0.478783  0.250000  1
