# generated using pymatgen
data_Sc6Nb6OsRu11
_symmetry_space_group_name_H-M   'P 1'
_cell_length_a   4.50702000
_cell_length_b   6.35883400
_cell_length_c   13.62517500
_cell_angle_alpha   90.00000000
_cell_angle_beta   90.00024917
_cell_angle_gamma   90.00000000
_symmetry_Int_Tables_number   1
_chemical_formula_structural   Sc6Nb6OsRu11
_chemical_formula_sum   'Sc6 Nb6 Os1 Ru11'
_cell_volume   390.48923159
_cell_formula_units_Z   1
loop_
 _symmetry_equiv_pos_site_id
 _symmetry_equiv_pos_as_xyz
  1  'x, y, z'
loop_
 _atom_site_type_symbol
 _atom_site_label
 _atom_site_symmetry_multiplicity
 _atom_site_fract_x
 _atom_site_fract_y
 _atom_site_fract_z
 _atom_site_occupancy
  Sc  Sc0  1  0.000000  0.502361  0.000000  1
  Sc  Sc1  1  0.499991  0.998763  0.167182  1
  Sc  Sc2  1  0.000003  0.500112  0.333322  1
  Sc  Sc3  1  0.500000  0.000026  0.500000  1
  Sc  Sc4  1  0.999997  0.500112  0.666678  1
  Sc  Sc5  1  0.500008  0.998763  0.832818  1
  Nb  Nb6  1  0.000000  0.002026  0.000000  1
  Nb  Nb7  1  0.499996  0.499205  0.166286  1
  Nb  Nb8  1  0.999996  0.999775  0.333527  1
  Nb  Nb9  1  0.500000  0.500067  0.500000  1
  Nb  Nb10  1  0.000004  0.999775  0.666473  1
  Nb  Nb11  1  0.500003  0.499205  0.833715  1
  Os  Os12  1  0.500000  0.249440  0.000000  1
  Ru  Ru13  1  0.500000  0.750628  0.000000  1
  Ru  Ru14  1  0.999993  0.250691  0.166832  1
  Ru  Ru15  1  0.999997  0.749085  0.166958  1
  Ru  Ru16  1  0.499998  0.249156  0.333303  1
  Ru  Ru17  1  0.499998  0.750872  0.333721  1
  Ru  Ru18  1  0.000000  0.250974  0.500000  1
  Ru  Ru19  1  0.000000  0.749158  0.500000  1
  Ru  Ru20  1  0.500001  0.249156  0.666696  1
  Ru  Ru21  1  0.500001  0.750872  0.666278  1
  Ru  Ru22  1  0.000007  0.250691  0.833168  1
  Ru  Ru23  1  0.000003  0.749085  0.833042  1
