# generated using pymatgen
data_DyLu13Th2(CdNi)4
_symmetry_space_group_name_H-M   'P 1'
_cell_length_a   9.41954329
_cell_length_b   9.41954289
_cell_length_c   9.44305200
_cell_angle_alpha   59.91739882
_cell_angle_beta   59.91740021
_cell_angle_gamma   60.02080867
_symmetry_Int_Tables_number   1
_chemical_formula_structural   DyLu13Th2(CdNi)4
_chemical_formula_sum   'Dy1 Lu13 Th2 Cd4 Ni4'
_cell_volume   591.80930400
_cell_formula_units_Z   1
loop_
 _symmetry_equiv_pos_site_id
 _symmetry_equiv_pos_as_xyz
  1  'x, y, z'
loop_
 _atom_site_type_symbol
 _atom_site_label
 _atom_site_symmetry_multiplicity
 _atom_site_fract_x
 _atom_site_fract_y
 _atom_site_fract_z
 _atom_site_occupancy
  Dy  Dy0  1  0.184877  0.184877  0.815123  1
  Lu  Lu1  1  0.599557  0.199407  0.600519  1
  Lu  Lu2  1  0.199407  0.599557  0.600519  1
  Lu  Lu3  1  0.063091  0.439656  0.436070  1
  Lu  Lu4  1  0.439656  0.063091  0.061184  1
  Lu  Lu5  1  0.439656  0.063091  0.436070  1
  Lu  Lu6  1  0.063091  0.439656  0.061184  1
  Lu  Lu7  1  0.437145  0.437145  0.062855  1
  Lu  Lu8  1  0.061743  0.061743  0.438257  1
  Lu  Lu9  1  0.185321  0.813985  0.816411  1
  Lu  Lu10  1  0.813985  0.185321  0.184283  1
  Lu  Lu11  1  0.813985  0.185321  0.816411  1
  Lu  Lu12  1  0.185321  0.813985  0.184283  1
  Lu  Lu13  1  0.815234  0.815234  0.184766  1
  Th  Th14  1  0.594690  0.594690  0.601733  1
  Th  Th15  1  0.594690  0.594690  0.208887  1
  Cd  Cd16  1  0.833735  0.833735  0.829626  1
  Cd  Cd17  1  0.833735  0.833735  0.502904  1
  Cd  Cd18  1  0.834485  0.503876  0.830819  1
  Cd  Cd19  1  0.503876  0.834485  0.830819  1
  Ni  Ni20  1  0.392835  0.392835  0.391171  1
  Ni  Ni21  1  0.392835  0.392835  0.823160  1
  Ni  Ni22  1  0.395305  0.821750  0.391473  1
  Ni  Ni23  1  0.821750  0.395305  0.391473  1
