# generated using pymatgen
data_Sc10In8Ga2PtRh
_symmetry_space_group_name_H-M   'P 1'
_cell_length_a   3.40515000
_cell_length_b   7.81067328
_cell_length_c   17.62027990
_cell_angle_alpha   89.28859682
_cell_angle_beta   90.00000000
_cell_angle_gamma   90.00000000
_symmetry_Int_Tables_number   1
_chemical_formula_structural   Sc10In8Ga2PtRh
_chemical_formula_sum   'Sc10 In8 Ga2 Pt1 Rh1'
_cell_volume   468.60189948
_cell_formula_units_Z   1
loop_
 _symmetry_equiv_pos_site_id
 _symmetry_equiv_pos_as_xyz
  1  'x, y, z'
loop_
 _atom_site_type_symbol
 _atom_site_label
 _atom_site_symmetry_multiplicity
 _atom_site_fract_x
 _atom_site_fract_y
 _atom_site_fract_z
 _atom_site_occupancy
  Sc  Sc0  1  0.000000  0.000993  0.999776  1
  Sc  Sc1  1  0.000000  0.500171  0.499957  1
  Sc  Sc2  1  0.000000  0.740375  0.783278  1
  Sc  Sc3  1  0.000000  0.264269  0.216610  1
  Sc  Sc4  1  0.000000  0.273640  0.721820  1
  Sc  Sc5  1  0.000000  0.723992  0.276952  1
  Sc  Sc6  1  0.000000  0.873685  0.576608  1
  Sc  Sc7  1  0.000000  0.126238  0.423598  1
  Sc  Sc8  1  0.000000  0.374359  0.918608  1
  Sc  Sc9  1  0.000000  0.623593  0.082438  1
  In  In10  1  0.500000  0.793852  0.431053  1
  In  In11  1  0.500000  0.206083  0.569028  1
  In  In12  1  0.500000  0.297696  0.065589  1
  In  In13  1  0.500000  0.703725  0.935800  1
  In  In14  1  0.500000  0.921703  0.148288  1
  In  In15  1  0.500000  0.074907  0.852004  1
  In  In16  1  0.500000  0.425409  0.352413  1
  In  In17  1  0.500000  0.575732  0.646183  1
  Ga  Ga18  1  0.500000  0.968965  0.696247  1
  Ga  Ga19  1  0.500000  0.030853  0.303788  1
  Pt  Pt20  1  0.500000  0.466209  0.805655  1
  Rh  Rh21  1  0.500000  0.533551  0.194307  1
