# generated using pymatgen
data_Hf4In2NiPd2Pt
_symmetry_space_group_name_H-M   'P 1'
_cell_length_a   7.46902421
_cell_length_b   7.46902434
_cell_length_c   6.70800808
_cell_angle_alpha   90.13061573
_cell_angle_beta   90.13062099
_cell_angle_gamma   90.80720371
_symmetry_Int_Tables_number   1
_chemical_formula_structural   Hf4In2NiPd2Pt
_chemical_formula_sum   'Hf8 In4 Ni2 Pd4 Pt2'
_cell_volume   374.17599988
_cell_formula_units_Z   2
loop_
 _symmetry_equiv_pos_site_id
 _symmetry_equiv_pos_as_xyz
  1  'x, y, z'
loop_
 _atom_site_type_symbol
 _atom_site_label
 _atom_site_symmetry_multiplicity
 _atom_site_fract_x
 _atom_site_fract_y
 _atom_site_fract_z
 _atom_site_occupancy
  Hf  Hf0  1  0.159545  0.159545  0.997154  1
  Hf  Hf1  1  0.840455  0.840455  0.002846  1
  Hf  Hf2  1  0.650222  0.349778  0.500000  1
  Hf  Hf3  1  0.349778  0.650222  0.500000  1
  Hf  Hf4  1  0.675009  0.324991  0.000000  1
  Hf  Hf5  1  0.324991  0.675009  0.000000  1
  Hf  Hf6  1  0.812227  0.812227  0.495579  1
  Hf  Hf7  1  0.187773  0.187773  0.504421  1
  In  In8  1  0.501864  0.993100  0.251190  1
  In  In9  1  0.498136  0.006900  0.748810  1
  In  In10  1  0.993100  0.501864  0.251190  1
  In  In11  1  0.006900  0.498136  0.748810  1
  Ni  Ni12  1  0.631466  0.631466  0.217183  1
  Ni  Ni13  1  0.368534  0.368534  0.782817  1
  Pd  Pd14  1  0.869233  0.129351  0.723902  1
  Pd  Pd15  1  0.870649  0.130767  0.276098  1
  Pd  Pd16  1  0.130767  0.870649  0.276098  1
  Pd  Pd17  1  0.129351  0.869233  0.723902  1
  Pt  Pt18  1  0.375433  0.375433  0.223808  1
  Pt  Pt19  1  0.624567  0.624567  0.776192  1
