# generated using pymatgen
data_Tb2Ho3Er3(WO6)4
_symmetry_space_group_name_H-M   'P 1'
_cell_length_a   5.38727003
_cell_length_b   7.69393254
_cell_length_c   11.44137480
_cell_angle_alpha   75.39476705
_cell_angle_beta   89.99921514
_cell_angle_gamma   89.98801713
_symmetry_Int_Tables_number   1
_chemical_formula_structural   Tb2Ho3Er3(WO6)4
_chemical_formula_sum   'Tb2 Ho3 Er3 W4 O24'
_cell_volume   458.91245421
_cell_formula_units_Z   1
loop_
 _symmetry_equiv_pos_site_id
 _symmetry_equiv_pos_as_xyz
  1  'x, y, z'
loop_
 _atom_site_type_symbol
 _atom_site_label
 _atom_site_symmetry_multiplicity
 _atom_site_fract_x
 _atom_site_fract_y
 _atom_site_fract_z
 _atom_site_occupancy
  Tb  Tb0  1  0.684263  0.500174  0.249858  1
  Tb  Tb1  1  0.315800  0.500041  0.750020  1
  Ho  Ho2  1  0.183821  0.205080  0.422217  1
  Ho  Ho3  1  0.740979  0.999884  0.249822  1
  Ho  Ho4  1  0.259043  0.999902  0.750147  1
  Er  Er5  1  0.183687  0.794692  0.077996  1
  Er  Er6  1  0.816181  0.794500  0.578062  1
  Er  Er7  1  0.816267  0.205295  0.922043  1
  W  W8  1  0.255847  0.275614  0.114796  1
  W  W9  1  0.255767  0.724524  0.385053  1
  W  W10  1  0.744255  0.724438  0.885068  1
  W  W11  1  0.744325  0.275648  0.615126  1
  O  O12  1  0.458242  0.207946  0.273229  1
  O  O13  1  0.457466  0.792346  0.226241  1
  O  O14  1  0.542461  0.792205  0.726303  1
  O  O15  1  0.542506  0.207882  0.773841  1
  O  O16  1  0.044482  0.059399  0.103986  1
  O  O17  1  0.043634  0.939832  0.395953  1
  O  O18  1  0.955591  0.940555  0.896017  1
  O  O19  1  0.955347  0.059226  0.604279  1
  O  O20  1  0.981324  0.287438  0.228971  1
  O  O21  1  0.981645  0.712566  0.270503  1
  O  O22  1  0.018410  0.712699  0.770616  1
  O  O23  1  0.018577  0.287299  0.729431  1
  O  O24  1  0.849491  0.364791  0.451789  1
  O  O25  1  0.850592  0.635690  0.048284  1
  O  O26  1  0.149483  0.635595  0.548333  1
  O  O27  1  0.149416  0.364381  0.951607  1
  O  O28  1  0.641668  0.510478  0.614146  1
  O  O29  1  0.641847  0.489687  0.885980  1
  O  O30  1  0.358846  0.490126  0.385916  1
  O  O31  1  0.358120  0.510375  0.114012  1
  O  O32  1  0.464617  0.153587  0.569687  1
  O  O33  1  0.463840  0.845980  0.930862  1
  O  O34  1  0.535989  0.846207  0.430860  1
  O  O35  1  0.536171  0.153920  0.068947  1
