# generated using pymatgen
data_DyEr4Tm7Co4
_symmetry_space_group_name_H-M   'P 1'
_cell_length_a   6.15651309
_cell_length_b   6.89740691
_cell_length_c   9.24524733
_cell_angle_alpha   89.99990590
_cell_angle_beta   90.03089579
_cell_angle_gamma   89.97413540
_symmetry_Int_Tables_number   1
_chemical_formula_structural   DyEr4Tm7Co4
_chemical_formula_sum   'Dy1 Er4 Tm7 Co4'
_cell_volume   392.58986302
_cell_formula_units_Z   1
loop_
 _symmetry_equiv_pos_site_id
 _symmetry_equiv_pos_as_xyz
  1  'x, y, z'
loop_
 _atom_site_type_symbol
 _atom_site_label
 _atom_site_symmetry_multiplicity
 _atom_site_fract_x
 _atom_site_fract_y
 _atom_site_fract_z
 _atom_site_occupancy
  Dy  Dy0  1  0.636374  0.041202  0.250172  1
  Er  Er1  1  0.138647  0.459460  0.749755  1
  Er  Er2  1  0.676698  0.324292  0.932696  1
  Er  Er3  1  0.362242  0.958340  0.749944  1
  Er  Er4  1  0.862877  0.540655  0.250195  1
  Tm  Tm5  1  0.175569  0.176418  0.433476  1
  Tm  Tm6  1  0.823809  0.823255  0.567387  1
  Tm  Tm7  1  0.175511  0.176339  0.066755  1
  Tm  Tm8  1  0.824014  0.823288  0.932688  1
  Tm  Tm9  1  0.676484  0.324333  0.567116  1
  Tm  Tm10  1  0.323351  0.676095  0.067122  1
  Tm  Tm11  1  0.323450  0.675914  0.432969  1
  Co  Co12  1  0.546812  0.613137  0.749764  1
  Co  Co13  1  0.954417  0.112812  0.749752  1
  Co  Co14  1  0.047435  0.886643  0.249946  1
  Co  Co15  1  0.452311  0.387820  0.250263  1
