# generated using pymatgen
data_Cs2ZrU3O12
_symmetry_space_group_name_H-M   'P 1'
_cell_length_a   7.99075503
_cell_length_b   7.99075589
_cell_length_c   7.78664566
_cell_angle_alpha   59.13091553
_cell_angle_beta   59.13091283
_cell_angle_gamma   60.02296373
_symmetry_Int_Tables_number   1
_chemical_formula_structural   Cs2ZrU3O12
_chemical_formula_sum   'Cs2 Zr1 U3 O12'
_cell_volume   346.93863958
_cell_formula_units_Z   1
loop_
 _symmetry_equiv_pos_site_id
 _symmetry_equiv_pos_as_xyz
  1  'x, y, z'
loop_
 _atom_site_type_symbol
 _atom_site_label
 _atom_site_symmetry_multiplicity
 _atom_site_fract_x
 _atom_site_fract_y
 _atom_site_fract_z
 _atom_site_occupancy
  Cs  Cs0  1  0.890904  0.841953  0.883655  1
  Cs  Cs1  1  0.158047  0.109096  0.116345  1
  Zr  Zr2  1  0.502686  0.497314  0.000000  1
  U  U3  1  0.501229  0.998765  0.500075  1
  U  U4  1  0.001235  0.498771  0.499925  1
  U  U5  1  0.501232  0.498768  0.500000  1
  O  O6  1  0.186245  0.183073  0.565869  1
  O  O7  1  0.561590  0.564428  0.190226  1
  O  O8  1  0.561887  0.182476  0.190532  1
  O  O9  1  0.185812  0.564680  0.565843  1
  O  O10  1  0.185122  0.561688  0.191067  1
  O  O11  1  0.563770  0.183414  0.568433  1
  O  O12  1  0.816927  0.813755  0.434131  1
  O  O13  1  0.435572  0.438410  0.809774  1
  O  O14  1  0.438312  0.814878  0.808933  1
  O  O15  1  0.816586  0.436230  0.431567  1
  O  O16  1  0.817524  0.438113  0.809468  1
  O  O17  1  0.435320  0.814188  0.434157  1
