# generated using pymatgen
data_Sm4Ho4Sc12Si15Ag
_symmetry_space_group_name_H-M   'P 1'
_cell_length_a   7.16821734
_cell_length_b   7.40351867
_cell_length_c   14.13797352
_cell_angle_alpha   89.90029853
_cell_angle_beta   89.63146355
_cell_angle_gamma   90.23965491
_symmetry_Int_Tables_number   1
_chemical_formula_structural   Sm4Ho4Sc12Si15Ag
_chemical_formula_sum   'Sm4 Ho4 Sc12 Si15 Ag1'
_cell_volume   750.27943564
_cell_formula_units_Z   1
loop_
 _symmetry_equiv_pos_site_id
 _symmetry_equiv_pos_as_xyz
  1  'x, y, z'
loop_
 _atom_site_type_symbol
 _atom_site_label
 _atom_site_symmetry_multiplicity
 _atom_site_fract_x
 _atom_site_fract_y
 _atom_site_fract_z
 _atom_site_occupancy
  Sm  Sm0  1  0.011218  0.173797  0.098700  1
  Sm  Sm1  1  0.988002  0.828620  0.903741  1
  Sm  Sm2  1  0.488564  0.675192  0.904977  1
  Sm  Sm3  1  0.990138  0.832015  0.596089  1
  Ho  Ho4  1  0.511309  0.323639  0.098850  1
  Ho  Ho5  1  0.007884  0.171529  0.397137  1
  Ho  Ho6  1  0.511356  0.321993  0.399703  1
  Ho  Ho7  1  0.494405  0.678588  0.599590  1
  Sc  Sc8  1  0.164446  0.501700  0.752574  1
  Sc  Sc9  1  0.836504  0.497828  0.251403  1
  Sc  Sc10  1  0.336822  0.998872  0.249518  1
  Sc  Sc11  1  0.666774  0.998482  0.751106  1
  Sc  Sc12  1  0.344492  0.174409  0.626350  1
  Sc  Sc13  1  0.663828  0.821563  0.373680  1
  Sc  Sc14  1  0.167367  0.673686  0.371819  1
  Sc  Sc15  1  0.668514  0.824136  0.126108  1
  Sc  Sc16  1  0.825504  0.325900  0.623736  1
  Sc  Sc17  1  0.330296  0.176562  0.876160  1
  Sc  Sc18  1  0.830025  0.324198  0.875944  1
  Sc  Sc19  1  0.169041  0.674586  0.125869  1
  Si  Si20  1  0.038700  0.126695  0.749132  1
  Si  Si21  1  0.963907  0.879759  0.250165  1
  Si  Si22  1  0.465964  0.614448  0.248778  1
  Si  Si23  1  0.536291  0.384843  0.751285  1
  Si  Si24  1  0.288773  0.877545  0.749586  1
  Si  Si25  1  0.709303  0.125928  0.250011  1
  Si  Si26  1  0.214565  0.371429  0.249858  1
  Si  Si27  1  0.788263  0.625178  0.750664  1
  Si  Si28  1  0.834494  0.534180  0.457667  1
  Si  Si29  1  0.338195  0.962468  0.460117  1
  Si  Si30  1  0.842074  0.535294  0.040223  1
  Si  Si31  1  0.656703  0.037044  0.536160  1
  Si  Si32  1  0.152861  0.463908  0.962355  1
  Si  Si33  1  0.654735  0.039438  0.962495  1
  Si  Si34  1  0.345350  0.965774  0.041107  1
  Ag  Ag35  1  0.163334  0.458777  0.537341  1
