# generated using pymatgen
data_YHo12Lu3(InRh)4
_symmetry_space_group_name_H-M   'P 1'
_cell_length_a   9.61204656
_cell_length_b   9.60025953
_cell_length_c   9.59925977
_cell_angle_alpha   60.03841945
_cell_angle_beta   59.98273428
_cell_angle_gamma   59.95906703
_symmetry_Int_Tables_number   1
_chemical_formula_structural   YHo12Lu3(InRh)4
_chemical_formula_sum   'Y1 Ho12 Lu3 In4 Rh4'
_cell_volume   626.26223001
_cell_formula_units_Z   1
loop_
 _symmetry_equiv_pos_site_id
 _symmetry_equiv_pos_as_xyz
  1  'x, y, z'
loop_
 _atom_site_type_symbol
 _atom_site_label
 _atom_site_symmetry_multiplicity
 _atom_site_fract_x
 _atom_site_fract_y
 _atom_site_fract_z
 _atom_site_occupancy
  Y  Y0  1  0.188336  0.187799  0.811889  1
  Ho  Ho1  1  0.811255  0.188396  0.812462  1
  Ho  Ho2  1  0.189036  0.811248  0.188088  1
  Ho  Ho3  1  0.439353  0.060700  0.061449  1
  Ho  Ho4  1  0.188675  0.811815  0.812078  1
  Ho  Ho5  1  0.060716  0.439271  0.060970  1
  Ho  Ho6  1  0.811595  0.812565  0.188004  1
  Ho  Ho7  1  0.200875  0.600637  0.600081  1
  Ho  Ho8  1  0.061095  0.438927  0.438354  1
  Ho  Ho9  1  0.061503  0.060910  0.438672  1
  Ho  Ho10  1  0.810466  0.189041  0.188684  1
  Ho  Ho11  1  0.600499  0.200415  0.600127  1
  Ho  Ho12  1  0.598587  0.599500  0.599246  1
  Lu  Lu13  1  0.599794  0.599985  0.202095  1
  Lu  Lu14  1  0.439403  0.060577  0.438064  1
  Lu  Lu15  1  0.439560  0.438862  0.060470  1
  In  In16  1  0.832959  0.832978  0.833637  1
  In  In17  1  0.832897  0.833032  0.500544  1
  In  In18  1  0.500917  0.832487  0.833285  1
  In  In19  1  0.832441  0.500973  0.833383  1
  Rh  Rh20  1  0.392562  0.822813  0.392109  1
  Rh  Rh21  1  0.393065  0.392164  0.390843  1
  Rh  Rh22  1  0.822120  0.392545  0.391844  1
  Rh  Rh23  1  0.392294  0.392361  0.823620  1
