# generated using pymatgen
data_Tb5Dy7(BBr3)4
_symmetry_space_group_name_H-M   'P 1'
_cell_length_a   9.77065558
_cell_length_b   9.77047135
_cell_length_c   9.77050016
_cell_angle_alpha   109.45950111
_cell_angle_beta   109.46170335
_cell_angle_gamma   109.49092314
_symmetry_Int_Tables_number   1
_chemical_formula_structural   Tb5Dy7(BBr3)4
_chemical_formula_sum   'Tb5 Dy7 B4 Br12'
_cell_volume   718.02955065
_cell_formula_units_Z   1
loop_
 _symmetry_equiv_pos_site_id
 _symmetry_equiv_pos_as_xyz
  1  'x, y, z'
loop_
 _atom_site_type_symbol
 _atom_site_label
 _atom_site_symmetry_multiplicity
 _atom_site_fract_x
 _atom_site_fract_y
 _atom_site_fract_z
 _atom_site_occupancy
  Tb  Tb0  1  0.480336  0.749922  0.019678  1
  Tb  Tb1  1  0.480328  0.230443  0.460818  1
  Tb  Tb2  1  0.019627  0.480368  0.750021  1
  Tb  Tb3  1  0.269609  0.019588  0.039284  1
  Tb  Tb4  1  0.230338  0.269606  0.749943  1
  Dy  Dy5  1  0.459879  0.479994  0.230062  1
  Dy  Dy6  1  0.749967  0.229877  0.269996  1
  Dy  Dy7  1  0.750055  0.020051  0.479938  1
  Dy  Dy8  1  0.229872  0.459896  0.479952  1
  Dy  Dy9  1  0.270036  0.750090  0.230144  1
  Dy  Dy10  1  0.040023  0.270059  0.020098  1
  Dy  Dy11  1  0.020041  0.040100  0.269956  1
  B  B12  1  0.249681  0.250314  0.250002  1
  B  B13  1  0.500338  0.000019  0.250319  1
  B  B14  1  0.999682  0.249687  0.499378  1
  B  B15  1  0.249997  0.499980  0.000604  1
  Br  Br16  1  0.250031  0.757667  0.741840  1
  Br  Br17  1  0.515514  0.507950  0.757585  1
  Br  Br18  1  0.984457  0.742330  0.992687  1
  Br  Br19  1  0.742316  0.249633  0.757856  1
  Br  Br20  1  0.991788  0.984474  0.742161  1
  Br  Br21  1  0.249644  0.991784  0.507314  1
  Br  Br22  1  0.757663  0.515520  0.507307  1
  Br  Br23  1  0.508207  0.250360  0.992690  1
  Br  Br24  1  0.757941  0.742392  0.250349  1
  Br  Br25  1  0.742630  0.992647  0.984753  1
  Br  Br26  1  0.992381  0.507630  0.250000  1
  Br  Br27  1  0.507617  0.757620  0.515266  1
