# generated using pymatgen
data_TbPrAs2Cl2O5
_symmetry_space_group_name_H-M   'P 1'
_cell_length_a   6.87527117
_cell_length_b   7.23031588
_cell_length_c   9.66606320
_cell_angle_alpha   111.29379646
_cell_angle_beta   98.01580902
_cell_angle_gamma   99.88245532
_symmetry_Int_Tables_number   1
_chemical_formula_structural   TbPrAs2Cl2O5
_chemical_formula_sum   'Tb2 Pr2 As4 Cl4 O10'
_cell_volume   430.26903192
_cell_formula_units_Z   2
loop_
 _symmetry_equiv_pos_site_id
 _symmetry_equiv_pos_as_xyz
  1  'x, y, z'
loop_
 _atom_site_type_symbol
 _atom_site_label
 _atom_site_symmetry_multiplicity
 _atom_site_fract_x
 _atom_site_fract_y
 _atom_site_fract_z
 _atom_site_occupancy
  Tb  Tb0  1  0.840415  0.745880  0.345773  1
  Tb  Tb1  1  0.159585  0.254120  0.654227  1
  Pr  Pr2  1  0.383284  0.754054  0.552079  1
  Pr  Pr3  1  0.616716  0.245946  0.447921  1
  As  As4  1  0.896380  0.812334  0.713123  1
  As  As5  1  0.103620  0.187666  0.286877  1
  As  As6  1  0.699818  0.245827  0.798163  1
  As  As7  1  0.300182  0.754173  0.201837  1
  Cl  Cl8  1  0.309065  0.666351  0.803149  1
  Cl  Cl9  1  0.690935  0.333649  0.196851  1
  Cl  Cl10  1  0.832806  0.757105  0.071942  1
  Cl  Cl11  1  0.167194  0.242895  0.928058  1
  O  O12  1  0.849063  0.314420  0.678630  1
  O  O13  1  0.150937  0.685580  0.321370  1
  O  O14  1  0.537183  0.835095  0.351266  1
  O  O15  1  0.462817  0.164905  0.648734  1
  O  O16  1  0.705327  0.969554  0.726385  1
  O  O17  1  0.294673  0.030446  0.273615  1
  O  O18  1  0.713587  0.619701  0.538643  1
  O  O19  1  0.286413  0.380299  0.461357  1
  O  O20  1  0.048737  0.896495  0.595163  1
  O  O21  1  0.951263  0.103505  0.404837  1
