# generated using pymatgen
data_ErTa4Nb(ReSi)6
_symmetry_space_group_name_H-M   'P 1'
_cell_length_a   7.63339126
_cell_length_b   7.59552012
_cell_length_c   7.63339062
_cell_angle_alpha   127.06982039
_cell_angle_beta   124.73634274
_cell_angle_gamma   80.18637875
_symmetry_Int_Tables_number   1
_chemical_formula_structural   ErTa4Nb(ReSi)6
_chemical_formula_sum   'Er1 Ta4 Nb1 Re6 Si6'
_cell_volume   279.91511542
_cell_formula_units_Z   1
loop_
 _symmetry_equiv_pos_site_id
 _symmetry_equiv_pos_as_xyz
  1  'x, y, z'
loop_
 _atom_site_type_symbol
 _atom_site_label
 _atom_site_symmetry_multiplicity
 _atom_site_fract_x
 _atom_site_fract_y
 _atom_site_fract_z
 _atom_site_occupancy
  Er  Er0  1  0.534570  0.060976  0.026408  1
  Ta  Ta1  1  0.944267  0.483439  0.039172  1
  Ta  Ta2  1  0.054643  0.102785  0.548142  1
  Ta  Ta3  1  0.744680  0.906686  0.662006  1
  Ta  Ta4  1  0.252944  0.910923  0.157979  1
  Nb  Nb5  1  0.463154  0.496506  0.533353  1
  Re  Re6  1  0.484155  0.247020  0.729437  1
  Re  Re7  1  0.017583  0.247020  0.262864  1
  Re  Re8  1  0.081963  0.748940  0.581674  1
  Re  Re9  1  0.902771  0.498397  0.651655  1
  Re  Re10  1  0.667266  0.748940  0.166977  1
  Re  Re11  1  0.346742  0.498397  0.095627  1
  Si  Si12  1  0.731014  0.475108  0.244094  1
  Si  Si13  1  0.280358  0.549680  0.769322  1
  Si  Si14  1  0.319816  0.822250  0.477859  1
  Si  Si15  1  0.673834  0.161440  0.505589  1
  Si  Si16  1  0.844391  0.822250  0.002434  1
  Si  Si17  1  0.155851  0.161440  0.987606  1
