# generated using pymatgen
data_La(TcO4)3
_symmetry_space_group_name_H-M   'P 1'
_cell_length_a   10.08958200
_cell_length_b   10.08958332
_cell_length_c   6.50848700
_cell_angle_alpha   90.00000000
_cell_angle_beta   90.00000000
_cell_angle_gamma   119.99999393
_symmetry_Int_Tables_number   1
_chemical_formula_structural   La(TcO4)3
_chemical_formula_sum   'La2 Tc6 O24'
_cell_volume   573.79545672
_cell_formula_units_Z   2
loop_
 _symmetry_equiv_pos_site_id
 _symmetry_equiv_pos_as_xyz
  1  'x, y, z'
loop_
 _atom_site_type_symbol
 _atom_site_label
 _atom_site_symmetry_multiplicity
 _atom_site_fract_x
 _atom_site_fract_y
 _atom_site_fract_z
 _atom_site_occupancy
  La  La0  1  0.666667  0.333333  0.750000  1
  La  La1  1  0.333333  0.666667  0.250000  1
  Tc  Tc2  1  0.609381  0.705641  0.750000  1
  Tc  Tc3  1  0.390619  0.294359  0.250000  1
  Tc  Tc4  1  0.096260  0.390619  0.750000  1
  Tc  Tc5  1  0.903740  0.609381  0.250000  1
  Tc  Tc6  1  0.294359  0.903740  0.750000  1
  Tc  Tc7  1  0.705641  0.096260  0.250000  1
  O  O8  1  0.957246  0.445927  0.750000  1
  O  O9  1  0.042754  0.554073  0.250000  1
  O  O10  1  0.488682  0.042754  0.750000  1
  O  O11  1  0.511318  0.957246  0.250000  1
  O  O12  1  0.554073  0.511318  0.750000  1
  O  O13  1  0.445927  0.488682  0.250000  1
  O  O14  1  0.804114  0.813365  0.750000  1
  O  O15  1  0.195886  0.186635  0.250000  1
  O  O16  1  0.009252  0.195886  0.750000  1
  O  O17  1  0.990748  0.804114  0.250000  1
  O  O18  1  0.186635  0.990748  0.750000  1
  O  O19  1  0.813365  0.009252  0.250000  1
  O  O20  1  0.535906  0.747733  0.969378  1
  O  O21  1  0.464094  0.252267  0.030622  1
  O  O22  1  0.211827  0.464094  0.969378  1
  O  O23  1  0.464094  0.252267  0.469378  1
  O  O24  1  0.788173  0.535906  0.030622  1
  O  O25  1  0.535906  0.747733  0.530622  1
  O  O26  1  0.252267  0.788173  0.969378  1
  O  O27  1  0.788173  0.535906  0.469378  1
  O  O28  1  0.747733  0.211827  0.030622  1
  O  O29  1  0.211827  0.464094  0.530622  1
  O  O30  1  0.747733  0.211827  0.469378  1
  O  O31  1  0.252267  0.788173  0.530622  1
