# generated using pymatgen
data_AcEu(Si2Ir3)2
_symmetry_space_group_name_H-M   'P 1'
_cell_length_a   6.79361106
_cell_length_b   6.79361123
_cell_length_c   6.79361151
_cell_angle_alpha   130.19418397
_cell_angle_beta   115.54475076
_cell_angle_gamma   85.60705836
_symmetry_Int_Tables_number   1
_chemical_formula_structural   AcEu(Si2Ir3)2
_chemical_formula_sum   'Ac1 Eu1 Si4 Ir6'
_cell_volume   206.63254716
_cell_formula_units_Z   1
loop_
 _symmetry_equiv_pos_site_id
 _symmetry_equiv_pos_as_xyz
  1  'x, y, z'
loop_
 _atom_site_type_symbol
 _atom_site_label
 _atom_site_symmetry_multiplicity
 _atom_site_fract_x
 _atom_site_fract_y
 _atom_site_fract_z
 _atom_site_occupancy
  Ac  Ac0  1  0.250000  0.975274  0.725274  1
  Eu  Eu1  1  0.750000  0.025242  0.275242  1
  Si  Si2  1  0.076235  0.281984  0.205749  1
  Si  Si3  1  0.918102  0.715034  0.796932  1
  Si  Si4  1  0.423765  0.629513  0.205749  1
  Si  Si5  1  0.581898  0.378831  0.796932  1
  Ir  Ir6  1  0.500915  0.500230  0.501145  1
  Ir  Ir7  1  0.999085  0.500230  0.999315  1
  Ir  Ir8  1  0.280758  0.000504  0.277085  1
  Ir  Ir9  1  0.723419  0.000504  0.719746  1
  Ir  Ir10  1  0.219242  0.496327  0.719746  1
  Ir  Ir11  1  0.776581  0.496327  0.277085  1
