# generated using pymatgen
data_Tm3Co2Ni6P6Ru
_symmetry_space_group_name_H-M   'P 1'
_cell_length_a   3.73493700
_cell_length_b   10.46555900
_cell_length_c   12.28819100
_cell_angle_alpha   90.00000000
_cell_angle_beta   90.00000000
_cell_angle_gamma   90.00000000
_symmetry_Int_Tables_number   1
_chemical_formula_structural   Tm3Co2Ni6P6Ru
_chemical_formula_sum   'Tm6 Co4 Ni12 P12 Ru2'
_cell_volume   480.32331088
_cell_formula_units_Z   2
loop_
 _symmetry_equiv_pos_site_id
 _symmetry_equiv_pos_as_xyz
  1  'x, y, z'
loop_
 _atom_site_type_symbol
 _atom_site_label
 _atom_site_symmetry_multiplicity
 _atom_site_fract_x
 _atom_site_fract_y
 _atom_site_fract_z
 _atom_site_occupancy
  Tm  Tm0  1  0.000000  0.500000  0.523308  1
  Tm  Tm1  1  0.500000  0.000000  0.475225  1
  Tm  Tm2  1  0.500000  0.814689  0.208041  1
  Tm  Tm3  1  0.500000  0.185311  0.208041  1
  Tm  Tm4  1  0.000000  0.684351  0.792454  1
  Tm  Tm5  1  0.000000  0.315649  0.792454  1
  Co  Co6  1  0.000000  0.500000  0.983903  1
  Co  Co7  1  0.500000  0.000000  0.017887  1
  Co  Co8  1  0.000000  0.620406  0.290176  1
  Co  Co9  1  0.000000  0.379594  0.290176  1
  Ni  Ni10  1  0.500000  0.500000  0.702693  1
  Ni  Ni11  1  0.000000  0.000000  0.299297  1
  Ni  Ni12  1  0.500000  0.330643  0.988360  1
  Ni  Ni13  1  0.500000  0.669357  0.988360  1
  Ni  Ni14  1  0.000000  0.169224  0.012985  1
  Ni  Ni15  1  0.000000  0.830776  0.012985  1
  Ni  Ni16  1  0.500000  0.304224  0.429284  1
  Ni  Ni17  1  0.500000  0.695776  0.429284  1
  Ni  Ni18  1  0.000000  0.198044  0.567856  1
  Ni  Ni19  1  0.000000  0.801956  0.567856  1
  Ni  Ni20  1  0.500000  0.878558  0.709213  1
  Ni  Ni21  1  0.500000  0.121442  0.709213  1
  P  P22  1  0.500000  0.500000  0.878637  1
  P  P23  1  0.000000  0.000000  0.123192  1
  P  P24  1  0.500000  0.500000  0.347476  1
  P  P25  1  0.000000  0.000000  0.649688  1
  P  P26  1  0.500000  0.315099  0.615906  1
  P  P27  1  0.500000  0.684901  0.615906  1
  P  P28  1  0.000000  0.187737  0.382756  1
  P  P29  1  0.000000  0.812263  0.382756  1
  P  P30  1  0.500000  0.850780  0.892040  1
  P  P31  1  0.500000  0.149220  0.892040  1
  P  P32  1  0.000000  0.649371  0.109877  1
  P  P33  1  0.000000  0.350629  0.109877  1
  Ru  Ru34  1  0.500000  0.500000  0.157208  1
  Ru  Ru35  1  0.000000  0.000000  0.843588  1
