# generated using pymatgen
data_ZnAg3Au16
_symmetry_space_group_name_H-M   'P 1'
_cell_length_a   5.06965072
_cell_length_b   4.84773800
_cell_length_c   14.64150709
_cell_angle_alpha   90.00000000
_cell_angle_beta   90.06123662
_cell_angle_gamma   90.00000000
_symmetry_Int_Tables_number   1
_chemical_formula_structural   ZnAg3Au16
_chemical_formula_sum   'Zn1 Ag3 Au16'
_cell_volume   359.83442832
_cell_formula_units_Z   1
loop_
 _symmetry_equiv_pos_site_id
 _symmetry_equiv_pos_as_xyz
  1  'x, y, z'
loop_
 _atom_site_type_symbol
 _atom_site_label
 _atom_site_symmetry_multiplicity
 _atom_site_fract_x
 _atom_site_fract_y
 _atom_site_fract_z
 _atom_site_occupancy
  Zn  Zn0  1  0.838855  0.250000  0.901307  1
  Ag  Ag1  1  0.164889  0.749999  0.099795  1
  Ag  Ag2  1  0.664212  0.749999  0.400203  1
  Ag  Ag3  1  0.337071  0.250000  0.600134  1
  Au  Au4  1  0.666819  0.749999  0.998519  1
  Au  Au5  1  0.833963  0.250000  0.095768  1
  Au  Au6  1  0.336087  0.250000  0.199687  1
  Au  Au7  1  0.666286  0.749999  0.199566  1
  Au  Au8  1  0.165290  0.749999  0.300155  1
  Au  Au9  1  0.836183  0.250000  0.298790  1
  Au  Au10  1  0.333961  0.250000  0.400072  1
  Au  Au11  1  0.166189  0.749999  0.500363  1
  Au  Au12  1  0.834242  0.250000  0.500511  1
  Au  Au13  1  0.666206  0.749999  0.600059  1
  Au  Au14  1  0.166433  0.749999  0.700151  1
  Au  Au15  1  0.833337  0.250000  0.703930  1
  Au  Au16  1  0.333246  0.250000  0.802478  1
  Au  Au17  1  0.664722  0.749999  0.800749  1
  Au  Au18  1  0.159195  0.749999  0.899774  1
  Au  Au19  1  0.332806  0.250000  0.997990  1
