# generated using pymatgen
data_Zr12Ga9Rh3N4
_symmetry_space_group_name_H-M   'P 1'
_cell_length_a   8.64998108
_cell_length_b   8.64998297
_cell_length_c   8.64998235
_cell_angle_alpha   60.07684067
_cell_angle_beta   60.07683663
_cell_angle_gamma   60.07683391
_symmetry_Int_Tables_number   1
_chemical_formula_structural   Zr12Ga9Rh3N4
_chemical_formula_sum   'Zr12 Ga9 Rh3 N4'
_cell_volume   458.44388901
_cell_formula_units_Z   1
loop_
 _symmetry_equiv_pos_site_id
 _symmetry_equiv_pos_as_xyz
  1  'x, y, z'
loop_
 _atom_site_type_symbol
 _atom_site_label
 _atom_site_symmetry_multiplicity
 _atom_site_fract_x
 _atom_site_fract_y
 _atom_site_fract_z
 _atom_site_occupancy
  Zr  Zr0  1  0.810074  0.189731  0.189731  1
  Zr  Zr1  1  0.189731  0.810074  0.189731  1
  Zr  Zr2  1  0.810974  0.810974  0.186062  1
  Zr  Zr3  1  0.186062  0.810974  0.810974  1
  Zr  Zr4  1  0.810974  0.186062  0.810974  1
  Zr  Zr5  1  0.189731  0.189731  0.810074  1
  Zr  Zr6  1  0.439926  0.060269  0.060269  1
  Zr  Zr7  1  0.060269  0.439926  0.060269  1
  Zr  Zr8  1  0.439026  0.439026  0.063938  1
  Zr  Zr9  1  0.063938  0.439026  0.439026  1
  Zr  Zr10  1  0.439026  0.063938  0.439026  1
  Zr  Zr11  1  0.060269  0.060269  0.439926  1
  Ga  Ga12  1  0.411398  0.411398  0.749763  1
  Ga  Ga13  1  0.416263  0.416263  0.416263  1
  Ga  Ga14  1  0.749763  0.411398  0.411398  1
  Ga  Ga15  1  0.411398  0.749763  0.411398  1
  Ga  Ga16  1  0.838602  0.838602  0.500237  1
  Ga  Ga17  1  0.833737  0.833737  0.833737  1
  Ga  Ga18  1  0.500237  0.838602  0.838602  1
  Ga  Ga19  1  0.838602  0.500237  0.838602  1
  Ga  Ga20  1  0.625000  0.625000  0.625000  1
  Rh  Rh21  1  0.625000  0.625000  0.125000  1
  Rh  Rh22  1  0.125000  0.625000  0.625000  1
  Rh  Rh23  1  0.625000  0.125000  0.625000  1
  N  N24  1  0.125000  0.125000  0.625000  1
  N  N25  1  0.125000  0.125000  0.125000  1
  N  N26  1  0.625000  0.125000  0.125000  1
  N  N27  1  0.125000  0.625000  0.125000  1
