# generated using pymatgen
data_Sm2Dy(YRh6)3
_symmetry_space_group_name_H-M   'P 1'
_cell_length_a   5.29546311
_cell_length_b   5.29669022
_cell_length_c   17.56684800
_cell_angle_alpha   90.00013056
_cell_angle_beta   89.99989373
_cell_angle_gamma   120.04201721
_symmetry_Int_Tables_number   1
_chemical_formula_structural   Sm2Dy(YRh6)3
_chemical_formula_sum   'Sm2 Dy1 Y3 Rh18'
_cell_volume   426.52939097
_cell_formula_units_Z   1
loop_
 _symmetry_equiv_pos_site_id
 _symmetry_equiv_pos_as_xyz
  1  'x, y, z'
loop_
 _atom_site_type_symbol
 _atom_site_label
 _atom_site_symmetry_multiplicity
 _atom_site_fract_x
 _atom_site_fract_y
 _atom_site_fract_z
 _atom_site_occupancy
  Sm  Sm0  1  0.333334  0.666666  0.749989  1
  Sm  Sm1  1  0.666665  0.333333  0.250002  1
  Dy  Dy2  1  0.333331  0.666667  0.542170  1
  Y  Y3  1  0.333328  0.666667  0.957857  1
  Y  Y4  1  0.666671  0.333332  0.042145  1
  Y  Y5  1  0.666673  0.333333  0.457874  1
  Rh  Rh6  1  0.167321  0.832677  0.374332  1
  Rh  Rh7  1  0.167316  0.334638  0.374344  1
  Rh  Rh8  1  0.665362  0.832683  0.374351  1
  Rh  Rh9  1  0.832680  0.167321  0.625646  1
  Rh  Rh10  1  0.832684  0.665361  0.625634  1
  Rh  Rh11  1  0.334638  0.167316  0.625627  1
  Rh  Rh12  1  0.832681  0.167319  0.874310  1
  Rh  Rh13  1  0.832685  0.665365  0.874322  1
  Rh  Rh14  1  0.334632  0.167314  0.874330  1
  Rh  Rh15  1  0.167312  0.832687  0.125691  1
  Rh  Rh16  1  0.167307  0.334621  0.125678  1
  Rh  Rh17  1  0.665382  0.832693  0.125671  1
  Rh  Rh18  1  0.333375  0.666659  0.249989  1
  Rh  Rh19  1  0.666626  0.333340  0.750012  1
  Rh  Rh20  1  0.000001  0.999998  0.249994  1
  Rh  Rh21  1  0.999998  0.000006  0.750012  1
  Rh  Rh22  1  0.999997  0.000002  0.500015  1
  Rh  Rh23  1  0.000000  0.000002  0.000003  1
