# generated using pymatgen
data_Y8Bi(Pd7Pt5)2
_symmetry_space_group_name_H-M   'P 1'
_cell_length_a   8.42319723
_cell_length_b   8.42295100
_cell_length_c   8.42009800
_cell_angle_alpha   90.00000000
_cell_angle_beta   89.94981379
_cell_angle_gamma   90.00000000
_symmetry_Int_Tables_number   1
_chemical_formula_structural   Y8Bi(Pd7Pt5)2
_chemical_formula_sum   'Y8 Bi1 Pd14 Pt10'
_cell_volume   597.39037866
_cell_formula_units_Z   1
loop_
 _symmetry_equiv_pos_site_id
 _symmetry_equiv_pos_as_xyz
  1  'x, y, z'
loop_
 _atom_site_type_symbol
 _atom_site_label
 _atom_site_symmetry_multiplicity
 _atom_site_fract_x
 _atom_site_fract_y
 _atom_site_fract_z
 _atom_site_occupancy
  Y  Y0  1  0.746560  0.745924  0.253666  1
  Y  Y1  1  0.745008  0.254457  0.746400  1
  Y  Y2  1  0.255272  0.745252  0.745680  1
  Y  Y3  1  0.745008  0.745543  0.746400  1
  Y  Y4  1  0.746560  0.254076  0.253666  1
  Y  Y5  1  0.255272  0.254748  0.745680  1
  Y  Y6  1  0.253482  0.745624  0.254504  1
  Y  Y7  1  0.253482  0.254376  0.254504  1
  Bi  Bi8  1  0.998906  0.000000  0.001937  1
  Pd  Pd9  1  0.000052  0.732148  0.500541  1
  Pd  Pd10  1  0.499610  0.000000  0.265331  1
  Pd  Pd11  1  0.000052  0.267852  0.500541  1
  Pd  Pd12  1  0.499440  0.733822  0.000425  1
  Pd  Pd13  1  0.313426  0.000000  0.999048  1
  Pd  Pd14  1  0.000406  0.000000  0.686517  1
  Pd  Pd15  1  0.000018  0.500000  0.265770  1
  Pd  Pd16  1  0.000471  0.314539  0.998502  1
  Pd  Pd17  1  0.000471  0.685461  0.998502  1
  Pd  Pd18  1  0.684933  0.000000  0.998999  1
  Pd  Pd19  1  0.266528  0.500000  0.000501  1
  Pd  Pd20  1  0.266959  0.000000  0.499778  1
  Pd  Pd21  1  0.999877  0.500000  0.732491  1
  Pd  Pd22  1  0.499440  0.266178  0.000425  1
  Pt  Pt23  1  0.000085  0.000000  0.317513  1
  Pt  Pt24  1  0.733060  0.000000  0.499891  1
  Pt  Pt25  1  0.733594  0.500000  0.000290  1
  Pt  Pt26  1  0.499762  0.000000  0.733066  1
  Pt  Pt27  1  0.255249  0.500000  0.499804  1
  Pt  Pt28  1  0.500241  0.500000  0.746444  1
  Pt  Pt29  1  0.500333  0.500000  0.254335  1
  Pt  Pt30  1  0.500262  0.254274  0.499595  1
  Pt  Pt31  1  0.500262  0.745726  0.499595  1
  Pt  Pt32  1  0.745923  0.500000  0.499663  1
