# generated using pymatgen
data_TbY9Cd3Os
_symmetry_space_group_name_H-M   'P 1'
_cell_length_a   9.64110865
_cell_length_b   9.64154260
_cell_length_c   9.90651489
_cell_angle_alpha   89.99999813
_cell_angle_beta   89.95802706
_cell_angle_gamma   120.00148737
_symmetry_Int_Tables_number   1
_chemical_formula_structural   TbY9Cd3Os
_chemical_formula_sum   'Tb2 Y18 Cd6 Os2'
_cell_volume   797.47736507
_cell_formula_units_Z   2
loop_
 _symmetry_equiv_pos_site_id
 _symmetry_equiv_pos_as_xyz
  1  'x, y, z'
loop_
 _atom_site_type_symbol
 _atom_site_label
 _atom_site_symmetry_multiplicity
 _atom_site_fract_x
 _atom_site_fract_y
 _atom_site_fract_z
 _atom_site_occupancy
  Tb  Tb0  1  0.209793  0.790245  0.440064  1
  Tb  Tb1  1  0.209793  0.419549  0.440064  1
  Y  Y2  1  0.000072  0.000036  0.499902  1
  Y  Y3  1  0.999974  0.999987  0.000135  1
  Y  Y4  1  0.581081  0.790541  0.440553  1
  Y  Y5  1  0.790356  0.209691  0.559680  1
  Y  Y6  1  0.790356  0.580665  0.559680  1
  Y  Y7  1  0.419396  0.209698  0.559673  1
  Y  Y8  1  0.790328  0.209692  0.940300  1
  Y  Y9  1  0.790328  0.580635  0.940300  1
  Y  Y10  1  0.419351  0.209675  0.940343  1
  Y  Y11  1  0.209650  0.790487  0.059573  1
  Y  Y12  1  0.209650  0.419163  0.059573  1
  Y  Y13  1  0.580618  0.790309  0.059667  1
  Y  Y14  1  0.540247  0.459777  0.250003  1
  Y  Y15  1  0.540247  0.080470  0.250003  1
  Y  Y16  1  0.919482  0.459741  0.250016  1
  Y  Y17  1  0.459808  0.540277  0.750011  1
  Y  Y18  1  0.459808  0.919531  0.750011  1
  Y  Y19  1  0.080497  0.540249  0.749970  1
  Cd  Cd20  1  0.885427  0.114473  0.249954  1
  Cd  Cd21  1  0.885427  0.770956  0.249954  1
  Cd  Cd22  1  0.229046  0.114524  0.249882  1
  Cd  Cd23  1  0.114500  0.885475  0.750130  1
  Cd  Cd24  1  0.114500  0.229022  0.750130  1
  Cd  Cd25  1  0.770895  0.885446  0.750013  1
  Os  Os26  1  0.332767  0.666384  0.250547  1
  Os  Os27  1  0.666603  0.333301  0.749870  1
