# generated using pymatgen
data_SrPr5(HfBi5)2
_symmetry_space_group_name_H-M   'P 1'
_cell_length_a   9.82566800
_cell_length_b   9.83412500
_cell_length_c   6.58542500
_cell_angle_alpha   90.00000000
_cell_angle_beta   90.00000000
_cell_angle_gamma   119.97155667
_symmetry_Int_Tables_number   1
_chemical_formula_structural   SrPr5(HfBi5)2
_chemical_formula_sum   'Sr1 Pr5 Hf2 Bi10'
_cell_volume   551.23483281
_cell_formula_units_Z   1
loop_
 _symmetry_equiv_pos_site_id
 _symmetry_equiv_pos_as_xyz
  1  'x, y, z'
loop_
 _atom_site_type_symbol
 _atom_site_label
 _atom_site_symmetry_multiplicity
 _atom_site_fract_x
 _atom_site_fract_y
 _atom_site_fract_z
 _atom_site_occupancy
  Sr  Sr0  1  0.617502  0.000000  0.250000  1
  Pr  Pr1  1  0.382889  0.000000  0.750000  1
  Pr  Pr2  1  0.000352  0.617702  0.250000  1
  Pr  Pr3  1  0.998618  0.379419  0.750000  1
  Pr  Pr4  1  0.382650  0.382298  0.250000  1
  Pr  Pr5  1  0.619198  0.620581  0.750000  1
  Hf  Hf6  1  0.999742  0.000000  0.001340  1
  Hf  Hf7  1  0.999742  0.000000  0.498660  1
  Bi  Bi8  1  0.259831  0.000000  0.250000  1
  Bi  Bi9  1  0.741481  0.000000  0.750000  1
  Bi  Bi10  1  0.004637  0.263723  0.250000  1
  Bi  Bi11  1  0.000674  0.738954  0.750000  1
  Bi  Bi12  1  0.740914  0.736277  0.250000  1
  Bi  Bi13  1  0.261721  0.261046  0.750000  1
  Bi  Bi14  1  0.328898  0.662771  0.996739  1
  Bi  Bi15  1  0.666127  0.337229  0.996739  1
  Bi  Bi16  1  0.666127  0.337229  0.503261  1
  Bi  Bi17  1  0.328898  0.662771  0.503261  1
