# generated using pymatgen
data_Tb4Dy2ErFeI12
_symmetry_space_group_name_H-M   'P 1'
_cell_length_a   9.76632298
_cell_length_b   9.76027139
_cell_length_c   9.74936109
_cell_angle_alpha   106.95079310
_cell_angle_beta   106.97173977
_cell_angle_gamma   107.19329496
_symmetry_Int_Tables_number   1
_chemical_formula_structural   Tb4Dy2ErFeI12
_chemical_formula_sum   'Tb4 Dy2 Er1 Fe1 I12'
_cell_volume   773.13356874
_cell_formula_units_Z   1
loop_
 _symmetry_equiv_pos_site_id
 _symmetry_equiv_pos_as_xyz
  1  'x, y, z'
loop_
 _atom_site_type_symbol
 _atom_site_label
 _atom_site_symmetry_multiplicity
 _atom_site_fract_x
 _atom_site_fract_y
 _atom_site_fract_z
 _atom_site_occupancy
  Tb  Tb0  1  0.911118  0.978492  0.721079  1
  Tb  Tb1  1  0.705704  0.905018  0.978346  1
  Tb  Tb2  1  0.976773  0.705543  0.906131  1
  Tb  Tb3  1  0.089651  0.021357  0.279047  1
  Dy  Dy4  1  0.292778  0.094673  0.021794  1
  Dy  Dy5  1  0.022988  0.292107  0.093368  1
  Er  Er6  1  0.500157  0.500816  0.499425  1
  Fe  Fe7  1  0.000011  0.999525  0.999879  1
  I  I8  1  0.837042  0.614015  0.536322  1
  I  I9  1  0.537766  0.838036  0.613897  1
  I  I10  1  0.610094  0.532440  0.834613  1
  I  I11  1  0.162886  0.385870  0.462604  1
  I  I12  1  0.462482  0.163066  0.385358  1
  I  I13  1  0.388154  0.466436  0.163965  1
  I  I14  1  0.927431  0.318717  0.774686  1
  I  I15  1  0.776666  0.929802  0.320171  1
  I  I16  1  0.321237  0.774815  0.928614  1
  I  I17  1  0.072628  0.680764  0.226725  1
  I  I18  1  0.224798  0.071523  0.681752  1
  I  I19  1  0.679638  0.226984  0.072224  1
