# generated using pymatgen
data_Sn2ICl7
_symmetry_space_group_name_H-M   'P 1'
_cell_length_a   7.68120300
_cell_length_b   10.91844333
_cell_length_c   11.22242441
_cell_angle_alpha   78.30742405
_cell_angle_beta   90.00000000
_cell_angle_gamma   90.00000000
_symmetry_Int_Tables_number   1
_chemical_formula_structural   Sn2ICl7
_chemical_formula_sum   'Sn4 I2 Cl14'
_cell_volume   921.65806454
_cell_formula_units_Z   2
loop_
 _symmetry_equiv_pos_site_id
 _symmetry_equiv_pos_as_xyz
  1  'x, y, z'
loop_
 _atom_site_type_symbol
 _atom_site_label
 _atom_site_symmetry_multiplicity
 _atom_site_fract_x
 _atom_site_fract_y
 _atom_site_fract_z
 _atom_site_occupancy
  Sn  Sn0  1  0.071921  0.247329  0.637068  1
  Sn  Sn1  1  0.571921  0.752671  0.862932  1
  Sn  Sn2  1  0.924160  0.751878  0.364092  1
  Sn  Sn3  1  0.424160  0.248122  0.135908  1
  I  I4  1  0.399039  0.313599  0.576461  1
  I  I5  1  0.899039  0.686401  0.923539  1
  Cl  Cl6  1  0.639373  0.694260  0.416920  1
  Cl  Cl7  1  0.139373  0.305740  0.083080  1
  Cl  Cl8  1  0.920873  0.194377  0.474380  1
  Cl  Cl9  1  0.420873  0.805623  0.025620  1
  Cl  Cl10  1  0.068594  0.803745  0.528178  1
  Cl  Cl11  1  0.568594  0.196255  0.971822  1
  Cl  Cl12  1  0.917988  0.410839  0.693986  1
  Cl  Cl13  1  0.417988  0.589161  0.806014  1
  Cl  Cl14  1  0.070139  0.586516  0.307319  1
  Cl  Cl15  1  0.570139  0.413484  0.192681  1
  Cl  Cl16  1  0.063506  0.077154  0.799791  1
  Cl  Cl17  1  0.563506  0.922846  0.700209  1
  Cl  Cl18  1  0.924407  0.921552  0.202403  1
  Cl  Cl19  1  0.424407  0.078448  0.297597  1
