# generated using pymatgen
data_Dy7Ho(Tm3Pt4)4
_symmetry_space_group_name_H-M   'P 1'
_cell_length_a   7.43033300
_cell_length_b   7.52086000
_cell_length_c   14.63774100
_cell_angle_alpha   89.99883015
_cell_angle_beta   90.00143346
_cell_angle_gamma   90.00371723
_symmetry_Int_Tables_number   1
_chemical_formula_structural   Dy7Ho(Tm3Pt4)4
_chemical_formula_sum   'Dy7 Ho1 Tm12 Pt16'
_cell_volume   817.99347614
_cell_formula_units_Z   1
loop_
 _symmetry_equiv_pos_site_id
 _symmetry_equiv_pos_as_xyz
  1  'x, y, z'
loop_
 _atom_site_type_symbol
 _atom_site_label
 _atom_site_symmetry_multiplicity
 _atom_site_fract_x
 _atom_site_fract_y
 _atom_site_fract_z
 _atom_site_occupancy
  Dy  Dy0  1  0.501048  0.679679  0.592639  1
  Dy  Dy1  1  0.001027  0.820357  0.907357  1
  Dy  Dy2  1  0.498946  0.320369  0.092656  1
  Dy  Dy3  1  0.998972  0.179569  0.407382  1
  Dy  Dy4  1  0.498951  0.320357  0.407349  1
  Dy  Dy5  1  0.998960  0.179640  0.092652  1
  Dy  Dy6  1  0.501033  0.679635  0.907350  1
  Ho  Ho7  1  0.001171  0.820291  0.592640  1
  Tm  Tm8  1  0.656882  0.167688  0.622679  1
  Tm  Tm9  1  0.156788  0.332230  0.877297  1
  Tm  Tm10  1  0.343200  0.832234  0.122700  1
  Tm  Tm11  1  0.843263  0.667808  0.377350  1
  Tm  Tm12  1  0.343160  0.832258  0.377322  1
  Tm  Tm13  1  0.843195  0.667757  0.122705  1
  Tm  Tm14  1  0.656810  0.167748  0.877298  1
  Tm  Tm15  1  0.156772  0.332246  0.622686  1
  Tm  Tm16  1  0.819380  0.510957  0.749965  1
  Tm  Tm17  1  0.319272  0.989059  0.749956  1
  Tm  Tm18  1  0.180668  0.489091  0.250009  1
  Tm  Tm19  1  0.680653  0.010904  0.250007  1
  Pt  Pt20  1  0.683187  0.966456  0.458373  1
  Pt  Pt21  1  0.183142  0.533485  0.041687  1
  Pt  Pt22  1  0.316871  0.033487  0.958313  1
  Pt  Pt23  1  0.816938  0.466710  0.541726  1
  Pt  Pt24  1  0.316653  0.033324  0.541722  1
  Pt  Pt25  1  0.816882  0.466532  0.958315  1
  Pt  Pt26  1  0.683130  0.966520  0.041686  1
  Pt  Pt27  1  0.183091  0.533574  0.458356  1
  Pt  Pt28  1  0.454276  0.386076  0.749991  1
  Pt  Pt29  1  0.954311  0.113864  0.749942  1
  Pt  Pt30  1  0.545709  0.613942  0.250010  1
  Pt  Pt31  1  0.045709  0.886052  0.250010  1
  Pt  Pt32  1  0.682773  0.856939  0.749947  1
  Pt  Pt33  1  0.182584  0.643163  0.749894  1
  Pt  Pt34  1  0.317296  0.143050  0.250014  1
  Pt  Pt35  1  0.817298  0.356951  0.250014  1
