# generated using pymatgen
data_Ho8Sc12Sn15Au
_symmetry_space_group_name_H-M   'P 1'
_cell_length_a   7.61799777
_cell_length_b   7.95811898
_cell_length_c   14.80576200
_cell_angle_alpha   90.00000000
_cell_angle_beta   90.00000000
_cell_angle_gamma   89.81748969
_symmetry_Int_Tables_number   1
_chemical_formula_structural   Ho8Sc12Sn15Au
_chemical_formula_sum   'Ho8 Sc12 Sn15 Au1'
_cell_volume   897.59377031
_cell_formula_units_Z   1
loop_
 _symmetry_equiv_pos_site_id
 _symmetry_equiv_pos_as_xyz
  1  'x, y, z'
loop_
 _atom_site_type_symbol
 _atom_site_label
 _atom_site_symmetry_multiplicity
 _atom_site_fract_x
 _atom_site_fract_y
 _atom_site_fract_z
 _atom_site_occupancy
  Ho  Ho0  1  0.994226  0.178599  0.093387  1
  Ho  Ho1  1  0.004691  0.820813  0.907373  1
  Ho  Ho2  1  0.505800  0.679834  0.905896  1
  Ho  Ho3  1  0.004691  0.820813  0.592627  1
  Ho  Ho4  1  0.493110  0.322135  0.093826  1
  Ho  Ho5  1  0.994226  0.178599  0.406613  1
  Ho  Ho6  1  0.493110  0.322135  0.406174  1
  Ho  Ho7  1  0.505800  0.679834  0.594104  1
  Sc  Sc8  1  0.171960  0.496218  0.750000  1
  Sc  Sc9  1  0.832108  0.503292  0.250000  1
  Sc  Sc10  1  0.332757  0.996753  0.250000  1
  Sc  Sc11  1  0.679493  0.007990  0.750000  1
  Sc  Sc12  1  0.323433  0.161372  0.628120  1
  Sc  Sc13  1  0.663376  0.839130  0.373135  1
  Sc  Sc14  1  0.161381  0.661457  0.372845  1
  Sc  Sc15  1  0.663376  0.839130  0.126865  1
  Sc  Sc16  1  0.847542  0.332106  0.629780  1
  Sc  Sc17  1  0.323433  0.161372  0.871880  1
  Sc  Sc18  1  0.847542  0.332106  0.870220  1
  Sc  Sc19  1  0.161381  0.661457  0.127155  1
  Sn  Sn20  1  0.970085  0.876364  0.250000  1
  Sn  Sn21  1  0.469163  0.624513  0.250000  1
  Sn  Sn22  1  0.534627  0.374195  0.750000  1
  Sn  Sn23  1  0.300928  0.857922  0.750000  1
  Sn  Sn24  1  0.690458  0.152202  0.250000  1
  Sn  Sn25  1  0.189088  0.349157  0.250000  1
  Sn  Sn26  1  0.808496  0.647506  0.750000  1
  Sn  Sn27  1  0.184157  0.459913  0.541862  1
  Sn  Sn28  1  0.815814  0.541547  0.459118  1
  Sn  Sn29  1  0.319803  0.957281  0.458304  1
  Sn  Sn30  1  0.815814  0.541547  0.040882  1
  Sn  Sn31  1  0.680695  0.042362  0.543602  1
  Sn  Sn32  1  0.184157  0.459913  0.958138  1
  Sn  Sn33  1  0.680695  0.042362  0.956398  1
  Sn  Sn34  1  0.319803  0.957281  0.041696  1
  Au  Au35  1  0.032782  0.120789  0.750000  1
