# generated using pymatgen
data_Tm8Sc12Si15Ag
_symmetry_space_group_name_H-M   'P 1'
_cell_length_a   7.08659544
_cell_length_b   7.33161664
_cell_length_c   13.99994954
_cell_angle_alpha   89.86480695
_cell_angle_beta   89.51614994
_cell_angle_gamma   90.15183670
_symmetry_Int_Tables_number   1
_chemical_formula_structural   Tm8Sc12Si15Ag
_chemical_formula_sum   'Tm8 Sc12 Si15 Ag1'
_cell_volume   727.35363886
_cell_formula_units_Z   1
loop_
 _symmetry_equiv_pos_site_id
 _symmetry_equiv_pos_as_xyz
  1  'x, y, z'
loop_
 _atom_site_type_symbol
 _atom_site_label
 _atom_site_symmetry_multiplicity
 _atom_site_fract_x
 _atom_site_fract_y
 _atom_site_fract_z
 _atom_site_occupancy
  Tm  Tm0  1  0.012240  0.175887  0.097506  1
  Tm  Tm1  1  0.987854  0.825223  0.904196  1
  Tm  Tm2  1  0.487275  0.677814  0.904014  1
  Tm  Tm3  1  0.989348  0.830302  0.597544  1
  Tm  Tm4  1  0.512001  0.322684  0.096463  1
  Tm  Tm5  1  0.008336  0.172058  0.398856  1
  Tm  Tm6  1  0.511172  0.321955  0.400431  1
  Tm  Tm7  1  0.494434  0.679024  0.599601  1
  Sc  Sc8  1  0.163716  0.502673  0.753094  1
  Sc  Sc9  1  0.837343  0.497885  0.250973  1
  Sc  Sc10  1  0.337185  0.000875  0.248917  1
  Sc  Sc11  1  0.665417  0.995289  0.751189  1
  Sc  Sc12  1  0.342005  0.173333  0.626900  1
  Sc  Sc13  1  0.664057  0.823397  0.373532  1
  Sc  Sc14  1  0.166652  0.675291  0.371711  1
  Sc  Sc15  1  0.669479  0.824477  0.124816  1
  Sc  Sc16  1  0.826929  0.325488  0.625404  1
  Sc  Sc17  1  0.328775  0.175121  0.876271  1
  Sc  Sc18  1  0.830811  0.322910  0.875981  1
  Sc  Sc19  1  0.169093  0.676199  0.125204  1
  Si  Si20  1  0.036222  0.118960  0.750058  1
  Si  Si21  1  0.965191  0.885410  0.248499  1
  Si  Si22  1  0.466858  0.612733  0.248055  1
  Si  Si23  1  0.534237  0.388093  0.752364  1
  Si  Si24  1  0.285631  0.871905  0.751034  1
  Si  Si25  1  0.712464  0.129573  0.248398  1
  Si  Si26  1  0.214267  0.368333  0.248277  1
  Si  Si27  1  0.788441  0.629892  0.752633  1
  Si  Si28  1  0.832801  0.536999  0.459452  1
  Si  Si29  1  0.335167  0.962158  0.460971  1
  Si  Si30  1  0.842427  0.534774  0.039175  1
  Si  Si31  1  0.661750  0.035728  0.537615  1
  Si  Si32  1  0.156746  0.464892  0.962079  1
  Si  Si33  1  0.658618  0.034498  0.960792  1
  Si  Si34  1  0.341490  0.965075  0.039974  1
  Ag  Ag35  1  0.163566  0.463089  0.538021  1
