# generated using pymatgen
data_Ta4Al6CoOs
_symmetry_space_group_name_H-M   'P 1'
_cell_length_a   5.11693600
_cell_length_b   5.11693688
_cell_length_c   8.02428300
_cell_angle_alpha   90.00000000
_cell_angle_beta   90.00000000
_cell_angle_gamma   120.00000726
_symmetry_Int_Tables_number   1
_chemical_formula_structural   Ta4Al6CoOs
_chemical_formula_sum   'Ta4 Al6 Co1 Os1'
_cell_volume   181.95201999
_cell_formula_units_Z   1
loop_
 _symmetry_equiv_pos_site_id
 _symmetry_equiv_pos_as_xyz
  1  'x, y, z'
loop_
 _atom_site_type_symbol
 _atom_site_label
 _atom_site_symmetry_multiplicity
 _atom_site_fract_x
 _atom_site_fract_y
 _atom_site_fract_z
 _atom_site_occupancy
  Ta  Ta0  1  0.666666  0.333333  0.071601  1
  Ta  Ta1  1  0.666666  0.333333  0.431685  1
  Ta  Ta2  1  0.333334  0.666667  0.568313  1
  Ta  Ta3  1  0.333334  0.666667  0.928399  1
  Al  Al4  1  0.167379  0.334760  0.258921  1
  Al  Al5  1  0.167379  0.832620  0.258921  1
  Al  Al6  1  0.665239  0.832620  0.258921  1
  Al  Al7  1  0.334760  0.167378  0.741079  1
  Al  Al8  1  0.832619  0.167378  0.741079  1
  Al  Al9  1  0.832620  0.665240  0.741079  1
  Co  Co10  1  0.000000  0.000000  0.499999  1
  Os  Os11  1  0.000000  0.000000  0.000000  1
