# generated using pymatgen
data_Th2Ga18CoNi5
_symmetry_space_group_name_H-M   'P 1'
_cell_length_a   10.09661513
_cell_length_b   10.10374170
_cell_length_c   10.10025400
_cell_angle_alpha   42.66594113
_cell_angle_beta   42.68276625
_cell_angle_gamma   42.71167360
_symmetry_Int_Tables_number   1
_chemical_formula_structural   Th2Ga18CoNi5
_chemical_formula_sum   'Th2 Ga18 Co1 Ni5'
_cell_volume   429.02311348
_cell_formula_units_Z   1
loop_
 _symmetry_equiv_pos_site_id
 _symmetry_equiv_pos_as_xyz
  1  'x, y, z'
loop_
 _atom_site_type_symbol
 _atom_site_label
 _atom_site_symmetry_multiplicity
 _atom_site_fract_x
 _atom_site_fract_y
 _atom_site_fract_z
 _atom_site_occupancy
  Th  Th0  1  0.167278  0.166532  0.167932  1
  Th  Th1  1  0.834381  0.833264  0.833050  1
  Ga  Ga2  1  0.048740  0.049573  0.050042  1
  Ga  Ga3  1  0.703215  0.499071  0.297559  1
  Ga  Ga4  1  0.665277  0.333882  0.999642  1
  Ga  Ga5  1  0.106243  0.431074  0.756317  1
  Ga  Ga6  1  0.431172  0.756512  0.106077  1
  Ga  Ga7  1  0.384107  0.384895  0.383354  1
  Ga  Ga8  1  0.333529  0.998789  0.665359  1
  Ga  Ga9  1  0.612563  0.617593  0.615257  1
  Ga  Ga10  1  0.244132  0.571420  0.893331  1
  Ga  Ga11  1  0.567979  0.895203  0.245827  1
  Ga  Ga12  1  0.500493  0.296231  0.702548  1
  Ga  Ga13  1  0.756341  0.105780  0.430893  1
  Ga  Ga14  1  0.952226  0.950578  0.948091  1
  Ga  Ga15  1  0.297791  0.703762  0.500807  1
  Ga  Ga16  1  0.999789  0.665573  0.333958  1
  Ga  Ga17  1  0.715458  0.715340  0.716031  1
  Ga  Ga18  1  0.283804  0.282465  0.286195  1
  Ga  Ga19  1  0.896871  0.243116  0.570080  1
  Co  Co20  1  0.238954  0.924194  0.581416  1
  Ni  Ni21  1  0.923451  0.581606  0.238678  1
  Ni  Ni22  1  0.760273  0.418040  0.076386  1
  Ni  Ni23  1  0.077207  0.760064  0.418543  1
  Ni  Ni24  1  0.417513  0.076518  0.759326  1
  Ni  Ni25  1  0.581212  0.238927  0.923299  1
