# generated using pymatgen
data_Ho6Al24PdRu7
_symmetry_space_group_name_H-M   'P 1'
_cell_length_a   8.79066389
_cell_length_b   8.79066417
_cell_length_c   9.51475742
_cell_angle_alpha   89.78906388
_cell_angle_beta   90.21093515
_cell_angle_gamma   119.68663284
_symmetry_Int_Tables_number   1
_chemical_formula_structural   Ho6Al24PdRu7
_chemical_formula_sum   'Ho6 Al24 Pd1 Ru7'
_cell_volume   638.74940202
_cell_formula_units_Z   1
loop_
 _symmetry_equiv_pos_site_id
 _symmetry_equiv_pos_as_xyz
  1  'x, y, z'
loop_
 _atom_site_type_symbol
 _atom_site_label
 _atom_site_symmetry_multiplicity
 _atom_site_fract_x
 _atom_site_fract_y
 _atom_site_fract_z
 _atom_site_occupancy
  Ho  Ho0  1  0.191621  0.386865  0.250913  1
  Ho  Ho1  1  0.808379  0.613135  0.749087  1
  Ho  Ho2  1  0.613135  0.808379  0.250913  1
  Ho  Ho3  1  0.386865  0.191621  0.749087  1
  Ho  Ho4  1  0.194324  0.805676  0.251839  1
  Ho  Ho5  1  0.805676  0.194324  0.748161  1
  Al  Al6  1  0.330314  0.669686  0.019682  1
  Al  Al7  1  0.669686  0.330314  0.980318  1
  Al  Al8  1  0.666813  0.333187  0.516523  1
  Al  Al9  1  0.333187  0.666813  0.483477  1
  Al  Al10  1  0.162849  0.324017  0.578555  1
  Al  Al11  1  0.837151  0.675983  0.421445  1
  Al  Al12  1  0.675983  0.837151  0.578555  1
  Al  Al13  1  0.843779  0.677338  0.079363  1
  Al  Al14  1  0.324017  0.162849  0.421445  1
  Al  Al15  1  0.156221  0.322662  0.920637  1
  Al  Al16  1  0.162632  0.837368  0.578488  1
  Al  Al17  1  0.322662  0.156221  0.079363  1
  Al  Al18  1  0.837368  0.162632  0.421512  1
  Al  Al19  1  0.677338  0.843779  0.920637  1
  Al  Al20  1  0.837436  0.162564  0.077934  1
  Al  Al21  1  0.162564  0.837436  0.922066  1
  Al  Al22  1  0.560545  0.121667  0.248995  1
  Al  Al23  1  0.439455  0.878333  0.751005  1
  Al  Al24  1  0.878333  0.439455  0.248995  1
  Al  Al25  1  0.121667  0.560545  0.751005  1
  Al  Al26  1  0.561714  0.438286  0.252365  1
  Al  Al27  1  0.438286  0.561714  0.747635  1
  Al  Al28  1  0.999390  0.000610  0.250151  1
  Al  Al29  1  0.000610  0.999390  0.749849  1
  Pd  Pd30  1  0.500000  0.500000  0.000000  1
  Ru  Ru31  1  0.500000  0.000000  0.000000  1
  Ru  Ru32  1  0.000000  0.500000  0.000000  1
  Ru  Ru33  1  0.500000  0.000000  0.500000  1
  Ru  Ru34  1  0.000000  0.500000  0.500000  1
  Ru  Ru35  1  0.500000  0.500000  0.500000  1
  Ru  Ru36  1  0.000000  0.000000  0.000000  1
  Ru  Ru37  1  0.000000  0.000000  0.500000  1
