# generated using pymatgen
data_Er5CoRhO12
_symmetry_space_group_name_H-M   'P 1'
_cell_length_a   6.74555611
_cell_length_b   6.74555545
_cell_length_c   7.14709303
_cell_angle_alpha   74.48099479
_cell_angle_beta   74.48100158
_cell_angle_gamma   51.12278994
_symmetry_Int_Tables_number   1
_chemical_formula_structural   Er5CoRhO12
_chemical_formula_sum   'Er5 Co1 Rh1 O12'
_cell_volume   241.78290829
_cell_formula_units_Z   1
loop_
 _symmetry_equiv_pos_site_id
 _symmetry_equiv_pos_as_xyz
  1  'x, y, z'
loop_
 _atom_site_type_symbol
 _atom_site_label
 _atom_site_symmetry_multiplicity
 _atom_site_fract_x
 _atom_site_fract_y
 _atom_site_fract_z
 _atom_site_occupancy
  Er  Er0  1  0.297128  0.309283  0.358151  1
  Er  Er1  1  0.690717  0.702872  0.641849  1
  Er  Er2  1  0.307510  0.310146  0.831876  1
  Er  Er3  1  0.689854  0.692490  0.168124  1
  Er  Er4  1  0.005579  0.994421  0.500000  1
  Co  Co5  1  0.250742  0.749258  0.000000  1
  Rh  Rh6  1  0.758725  0.241275  0.000000  1
  O  O7  1  0.902690  0.429759  0.916768  1
  O  O8  1  0.420236  0.902504  0.918106  1
  O  O9  1  0.097496  0.579764  0.081894  1
  O  O10  1  0.570241  0.097310  0.083232  1
  O  O11  1  0.096118  0.596189  0.574980  1
  O  O12  1  0.600715  0.098051  0.573960  1
  O  O13  1  0.901949  0.399285  0.426040  1
  O  O14  1  0.403811  0.903882  0.425020  1
  O  O15  1  0.013337  0.986690  0.821180  1
  O  O16  1  0.013310  0.986663  0.178820  1
  O  O17  1  0.490332  0.510491  0.816130  1
  O  O18  1  0.489509  0.509668  0.183870  1
