# generated using pymatgen
data_Ac3NpO8
_symmetry_space_group_name_H-M   'P 1'
_cell_length_a   6.55853400
_cell_length_b   8.07070365
_cell_length_c   8.06679900
_cell_angle_alpha   70.14313877
_cell_angle_beta   90.00000000
_cell_angle_gamma   90.00000000
_symmetry_Int_Tables_number   1
_chemical_formula_structural   Ac3NpO8
_chemical_formula_sum   'Ac6 Np2 O16'
_cell_volume   401.60451928
_cell_formula_units_Z   2
loop_
 _symmetry_equiv_pos_site_id
 _symmetry_equiv_pos_as_xyz
  1  'x, y, z'
loop_
 _atom_site_type_symbol
 _atom_site_label
 _atom_site_symmetry_multiplicity
 _atom_site_fract_x
 _atom_site_fract_y
 _atom_site_fract_z
 _atom_site_occupancy
  Ac  Ac0  1  0.750000  0.108720  0.671729  1
  Ac  Ac1  1  0.250000  0.891280  0.328271  1
  Ac  Ac2  1  0.250000  0.398912  0.397606  1
  Ac  Ac3  1  0.750000  0.601088  0.602394  1
  Ac  Ac4  1  0.250000  0.326797  0.890840  1
  Ac  Ac5  1  0.750000  0.673203  0.109160  1
  Np  Np6  1  0.250000  0.815536  0.817294  1
  Np  Np7  1  0.750000  0.184464  0.182706  1
  O  O8  1  0.999827  0.340157  0.659299  1
  O  O9  1  0.499827  0.659843  0.340701  1
  O  O10  1  0.000173  0.659843  0.340701  1
  O  O11  1  0.500173  0.340157  0.659299  1
  O  O12  1  0.944125  0.809105  0.809694  1
  O  O13  1  0.444125  0.190895  0.190306  1
  O  O14  1  0.055875  0.190895  0.190306  1
  O  O15  1  0.555875  0.809105  0.809694  1
  O  O16  1  0.750000  0.972302  0.413356  1
  O  O17  1  0.250000  0.027698  0.586644  1
  O  O18  1  0.750000  0.337646  0.336214  1
  O  O19  1  0.250000  0.662354  0.663786  1
  O  O20  1  0.750000  0.415596  0.971072  1
  O  O21  1  0.250000  0.584404  0.028928  1
  O  O22  1  0.750000  0.031537  0.028181  1
  O  O23  1  0.250000  0.968463  0.971819  1
