# generated using pymatgen
data_Ho8Cu(Si4Ni)3
_symmetry_space_group_name_H-M   'P 1'
_cell_length_a   7.93778800
_cell_length_b   7.93778882
_cell_length_c   8.04947000
_cell_angle_alpha   90.00000000
_cell_angle_beta   90.00000000
_cell_angle_gamma   119.99999660
_symmetry_Int_Tables_number   1
_chemical_formula_structural   Ho8Cu(Si4Ni)3
_chemical_formula_sum   'Ho8 Cu1 Si12 Ni3'
_cell_volume   439.23502998
_cell_formula_units_Z   1
loop_
 _symmetry_equiv_pos_site_id
 _symmetry_equiv_pos_as_xyz
  1  'x, y, z'
loop_
 _atom_site_type_symbol
 _atom_site_label
 _atom_site_symmetry_multiplicity
 _atom_site_fract_x
 _atom_site_fract_y
 _atom_site_fract_z
 _atom_site_occupancy
  Ho  Ho0  1  0.500836  0.001672  0.251821  1
  Ho  Ho1  1  0.501561  0.003123  0.748181  1
  Ho  Ho2  1  0.998328  0.499164  0.251821  1
  Ho  Ho3  1  0.996877  0.498439  0.748181  1
  Ho  Ho4  1  0.500836  0.499164  0.251821  1
  Ho  Ho5  1  0.501561  0.498439  0.748181  1
  Ho  Ho6  1  0.000000  0.000000  0.250576  1
  Ho  Ho7  1  0.000000  0.000000  0.749496  1
  Cu  Cu8  1  0.333333  0.666667  0.997111  1
  Si  Si9  1  0.167842  0.335684  0.999501  1
  Si  Si10  1  0.828037  0.656077  0.000666  1
  Si  Si11  1  0.664316  0.832158  0.999501  1
  Si  Si12  1  0.829002  0.658005  0.500263  1
  Si  Si13  1  0.343923  0.171963  0.000666  1
  Si  Si14  1  0.170954  0.341908  0.499781  1
  Si  Si15  1  0.167842  0.832158  0.999501  1
  Si  Si16  1  0.341995  0.170998  0.500263  1
  Si  Si17  1  0.828037  0.171963  0.000666  1
  Si  Si18  1  0.658092  0.829046  0.499781  1
  Si  Si19  1  0.829002  0.170998  0.500263  1
  Si  Si20  1  0.170954  0.829046  0.499781  1
  Ni  Ni21  1  0.666667  0.333333  0.001914  1
  Ni  Ni22  1  0.666667  0.333333  0.499435  1
  Ni  Ni23  1  0.333333  0.666667  0.500830  1
