# generated using pymatgen
data_Nb6Ga4CuRuC2
_symmetry_space_group_name_H-M   'P 1'
_cell_length_a   8.31812093
_cell_length_b   8.31829040
_cell_length_c   8.30116700
_cell_angle_alpha   60.06726828
_cell_angle_beta   60.06686560
_cell_angle_gamma   60.24957645
_symmetry_Int_Tables_number   1
_chemical_formula_structural   Nb6Ga4CuRuC2
_chemical_formula_sum   'Nb12 Ga8 Cu2 Ru2 C4'
_cell_volume   407.32127901
_cell_formula_units_Z   2
loop_
 _symmetry_equiv_pos_site_id
 _symmetry_equiv_pos_as_xyz
  1  'x, y, z'
loop_
 _atom_site_type_symbol
 _atom_site_label
 _atom_site_symmetry_multiplicity
 _atom_site_fract_x
 _atom_site_fract_y
 _atom_site_fract_z
 _atom_site_occupancy
  Nb  Nb0  1  0.815237  0.815229  0.184769  1
  Nb  Nb1  1  0.188521  0.188570  0.811454  1
  Nb  Nb2  1  0.813312  0.182768  0.811173  1
  Nb  Nb3  1  0.182754  0.813283  0.192787  1
  Nb  Nb4  1  0.182757  0.813282  0.811175  1
  Nb  Nb5  1  0.813312  0.182765  0.192752  1
  Nb  Nb6  1  0.434763  0.434771  0.065231  1
  Nb  Nb7  1  0.061479  0.061430  0.438546  1
  Nb  Nb8  1  0.436688  0.067232  0.438827  1
  Nb  Nb9  1  0.067246  0.436717  0.057213  1
  Nb  Nb10  1  0.067243  0.436718  0.438825  1
  Nb  Nb11  1  0.436688  0.067235  0.057248  1
  Ga  Ga12  1  0.758829  0.417040  0.412066  1
  Ga  Ga13  1  0.417078  0.758746  0.412086  1
  Ga  Ga14  1  0.417658  0.417646  0.751903  1
  Ga  Ga15  1  0.417660  0.417645  0.412794  1
  Ga  Ga16  1  0.491171  0.832960  0.837934  1
  Ga  Ga17  1  0.832922  0.491254  0.837914  1
  Ga  Ga18  1  0.832342  0.832354  0.498097  1
  Ga  Ga19  1  0.832340  0.832355  0.837206  1
  Cu  Cu20  1  0.625000  0.625000  0.125000  1
  Cu  Cu21  1  0.625000  0.625000  0.625000  1
  Ru  Ru22  1  0.125000  0.625000  0.625000  1
  Ru  Ru23  1  0.625000  0.125000  0.625000  1
  C  C24  1  0.625000  0.125000  0.125000  1
  C  C25  1  0.125000  0.625000  0.125000  1
  C  C26  1  0.125000  0.125000  0.625000  1
  C  C27  1  0.125000  0.125000  0.125000  1
