# generated using pymatgen
data_Tm16MgTl2InPd4
_symmetry_space_group_name_H-M   'P 1'
_cell_length_a   9.61322031
_cell_length_b   9.61119431
_cell_length_c   9.63345400
_cell_angle_alpha   59.92335026
_cell_angle_beta   59.93034318
_cell_angle_gamma   59.92072330
_symmetry_Int_Tables_number   1
_chemical_formula_structural   Tm16MgTl2InPd4
_chemical_formula_sum   'Tm16 Mg1 Tl2 In1 Pd4'
_cell_volume   628.30698736
_cell_formula_units_Z   1
loop_
 _symmetry_equiv_pos_site_id
 _symmetry_equiv_pos_as_xyz
  1  'x, y, z'
loop_
 _atom_site_type_symbol
 _atom_site_label
 _atom_site_symmetry_multiplicity
 _atom_site_fract_x
 _atom_site_fract_y
 _atom_site_fract_z
 _atom_site_occupancy
  Tm  Tm0  1  0.351710  0.351203  0.351929  1
  Tm  Tm1  1  0.351710  0.351203  0.945159  1
  Tm  Tm2  1  0.352078  0.943772  0.352076  1
  Tm  Tm3  1  0.938911  0.353114  0.353988  1
  Tm  Tm4  1  0.809028  0.190247  0.191265  1
  Tm  Tm5  1  0.186980  0.811990  0.811536  1
  Tm  Tm6  1  0.186980  0.811990  0.189494  1
  Tm  Tm7  1  0.809028  0.190247  0.809461  1
  Tm  Tm8  1  0.188253  0.188910  0.811420  1
  Tm  Tm9  1  0.809411  0.809535  0.190527  1
  Tm  Tm10  1  0.936956  0.564446  0.564758  1
  Tm  Tm11  1  0.564221  0.936102  0.935599  1
  Tm  Tm12  1  0.564221  0.936102  0.564076  1
  Tm  Tm13  1  0.936956  0.564446  0.933839  1
  Tm  Tm14  1  0.564568  0.563930  0.935751  1
  Tm  Tm15  1  0.935546  0.935321  0.564566  1
  Mg  Mg16  1  0.268067  0.576950  0.577491  1
  Tl  Tl17  1  0.582998  0.586006  0.587831  1
  Tl  Tl18  1  0.582998  0.586006  0.243163  1
  In  In19  1  0.581918  0.248196  0.584942  1
  Pd  Pd20  1  0.143043  0.144376  0.144609  1
  Pd  Pd21  1  0.143043  0.144376  0.567972  1
  Pd  Pd22  1  0.142534  0.568147  0.144660  1
  Pd  Pd23  1  0.568838  0.143385  0.143888  1
