# generated using pymatgen
data_Pa3Al2ZnIr3
_symmetry_space_group_name_H-M   'P 1'
_cell_length_a   7.05728466
_cell_length_b   7.05728668
_cell_length_c   4.03279900
_cell_angle_alpha   90.00000000
_cell_angle_beta   90.00000000
_cell_angle_gamma   119.39856408
_symmetry_Int_Tables_number   1
_chemical_formula_structural   Pa3Al2ZnIr3
_chemical_formula_sum   'Pa3 Al2 Zn1 Ir3'
_cell_volume   174.98984880
_cell_formula_units_Z   1
loop_
 _symmetry_equiv_pos_site_id
 _symmetry_equiv_pos_as_xyz
  1  'x, y, z'
loop_
 _atom_site_type_symbol
 _atom_site_label
 _atom_site_symmetry_multiplicity
 _atom_site_fract_x
 _atom_site_fract_y
 _atom_site_fract_z
 _atom_site_occupancy
  Pa  Pa0  1  0.419863  0.419863  0.500000  1
  Pa  Pa1  1  0.584538  0.996775  0.500000  1
  Pa  Pa2  1  0.996775  0.584538  0.500000  1
  Al  Al3  1  0.236379  0.999938  0.000000  1
  Al  Al4  1  0.999938  0.236379  0.000000  1
  Zn  Zn5  1  0.760622  0.760622  0.000000  1
  Ir  Ir6  1  0.663559  0.321752  0.000000  1
  Ir  Ir7  1  0.321752  0.663559  0.000000  1
  Ir  Ir8  1  0.016572  0.016572  0.500000  1
