# generated using pymatgen
data_Dy4Y16Ir7Rh5
_symmetry_space_group_name_H-M   'P 1'
_cell_length_a   10.91684421
_cell_length_b   10.91684438
_cell_length_c   6.40806700
_cell_angle_alpha   89.98810871
_cell_angle_beta   89.98810951
_cell_angle_gamma   89.94163060
_symmetry_Int_Tables_number   1
_chemical_formula_structural   Dy4Y16Ir7Rh5
_chemical_formula_sum   'Dy4 Y16 Ir7 Rh5'
_cell_volume   763.69690821
_cell_formula_units_Z   1
loop_
 _symmetry_equiv_pos_site_id
 _symmetry_equiv_pos_as_xyz
  1  'x, y, z'
loop_
 _atom_site_type_symbol
 _atom_site_label
 _atom_site_symmetry_multiplicity
 _atom_site_fract_x
 _atom_site_fract_y
 _atom_site_fract_z
 _atom_site_occupancy
  Dy  Dy0  1  0.000011  0.999761  0.499881  1
  Dy  Dy1  1  0.000239  0.999989  0.000119  1
  Dy  Dy2  1  0.499923  0.499791  0.999867  1
  Dy  Dy3  1  0.500209  0.500077  0.500133  1
  Y  Y4  1  0.290218  0.089098  0.380065  1
  Y  Y5  1  0.290443  0.910818  0.879469  1
  Y  Y6  1  0.708912  0.088714  0.878764  1
  Y  Y7  1  0.708973  0.909238  0.380187  1
  Y  Y8  1  0.589170  0.790300  0.879976  1
  Y  Y9  1  0.587681  0.209835  0.379793  1
  Y  Y10  1  0.410556  0.790393  0.379839  1
  Y  Y11  1  0.410737  0.209491  0.879667  1
  Y  Y12  1  0.209700  0.410830  0.620024  1
  Y  Y13  1  0.209607  0.589444  0.120161  1
  Y  Y14  1  0.790165  0.412319  0.120207  1
  Y  Y15  1  0.790509  0.589263  0.620333  1
  Y  Y16  1  0.910902  0.709782  0.119935  1
  Y  Y17  1  0.911286  0.291088  0.621236  1
  Y  Y18  1  0.089182  0.709557  0.620531  1
  Y  Y19  1  0.090762  0.291027  0.119813  1
  Ir  Ir20  1  0.846370  0.847005  0.749969  1
  Ir  Ir21  1  0.152995  0.153630  0.750031  1
  Ir  Ir22  1  0.153694  0.846306  0.250000  1
  Ir  Ir23  1  0.654304  0.345696  0.750000  1
  Ir  Ir24  1  0.653840  0.653434  0.249789  1
  Ir  Ir25  1  0.346566  0.346160  0.250211  1
  Ir  Ir26  1  0.346337  0.653663  0.750000  1
  Rh  Rh27  1  0.846157  0.153843  0.250000  1
  Rh  Rh28  1  0.500617  0.000257  0.124902  1
  Rh  Rh29  1  0.500425  0.000233  0.624306  1
  Rh  Rh30  1  0.999767  0.499575  0.875694  1
  Rh  Rh31  1  0.999743  0.499383  0.375098  1
