# generated using pymatgen
data_DyEr2Co8TcP6
_symmetry_space_group_name_H-M   'P 1'
_cell_length_a   3.70187200
_cell_length_b   10.49774000
_cell_length_c   12.19055600
_cell_angle_alpha   90.00000000
_cell_angle_beta   90.00000000
_cell_angle_gamma   90.00000000
_symmetry_Int_Tables_number   1
_chemical_formula_structural   DyEr2Co8TcP6
_chemical_formula_sum   'Dy2 Er4 Co16 Tc2 P12'
_cell_volume   473.74072916
_cell_formula_units_Z   2
loop_
 _symmetry_equiv_pos_site_id
 _symmetry_equiv_pos_as_xyz
  1  'x, y, z'
loop_
 _atom_site_type_symbol
 _atom_site_label
 _atom_site_symmetry_multiplicity
 _atom_site_fract_x
 _atom_site_fract_y
 _atom_site_fract_z
 _atom_site_occupancy
  Dy  Dy0  1  0.750000  0.250000  0.475452  1
  Dy  Dy1  1  0.250000  0.750000  0.524548  1
  Er  Er2  1  0.250000  0.931970  0.794163  1
  Er  Er3  1  0.250000  0.568030  0.794163  1
  Er  Er4  1  0.750000  0.068030  0.205837  1
  Er  Er5  1  0.750000  0.431970  0.205837  1
  Co  Co6  1  0.250000  0.250000  0.296991  1
  Co  Co7  1  0.750000  0.750000  0.703009  1
  Co  Co8  1  0.750000  0.250000  0.013045  1
  Co  Co9  1  0.250000  0.750000  0.986955  1
  Co  Co10  1  0.250000  0.417816  0.010333  1
  Co  Co11  1  0.250000  0.082184  0.010333  1
  Co  Co12  1  0.750000  0.582184  0.989667  1
  Co  Co13  1  0.750000  0.917816  0.989667  1
  Co  Co14  1  0.250000  0.453486  0.569049  1
  Co  Co15  1  0.250000  0.046514  0.569049  1
  Co  Co16  1  0.750000  0.546514  0.430951  1
  Co  Co17  1  0.750000  0.953486  0.430951  1
  Co  Co18  1  0.250000  0.871375  0.292062  1
  Co  Co19  1  0.250000  0.628625  0.292062  1
  Co  Co20  1  0.750000  0.128625  0.707938  1
  Co  Co21  1  0.750000  0.371375  0.707938  1
  Tc  Tc22  1  0.250000  0.250000  0.843432  1
  Tc  Tc23  1  0.750000  0.750000  0.156568  1
  P  P24  1  0.250000  0.250000  0.119457  1
  P  P25  1  0.750000  0.750000  0.880543  1
  P  P26  1  0.250000  0.250000  0.651178  1
  P  P27  1  0.750000  0.750000  0.348822  1
  P  P28  1  0.250000  0.438222  0.383357  1
  P  P29  1  0.250000  0.061778  0.383357  1
  P  P30  1  0.750000  0.561778  0.616643  1
  P  P31  1  0.750000  0.938222  0.616643  1
  P  P32  1  0.250000  0.904233  0.107671  1
  P  P33  1  0.250000  0.595767  0.107671  1
  P  P34  1  0.750000  0.095767  0.892329  1
  P  P35  1  0.750000  0.404233  0.892329  1
