# generated using pymatgen
data_YbSmDy4(CoSn6)2
_symmetry_space_group_name_H-M   'P 1'
_cell_length_a   8.48247640
_cell_length_b   8.48247679
_cell_length_c   13.16477943
_cell_angle_alpha   90.04702086
_cell_angle_beta   89.95297976
_cell_angle_gamma   148.53889269
_symmetry_Int_Tables_number   1
_chemical_formula_structural   YbSmDy4(CoSn6)2
_chemical_formula_sum   'Yb1 Sm1 Dy4 Co2 Sn12'
_cell_volume   494.38175188
_cell_formula_units_Z   1
loop_
 _symmetry_equiv_pos_site_id
 _symmetry_equiv_pos_as_xyz
  1  'x, y, z'
loop_
 _atom_site_type_symbol
 _atom_site_label
 _atom_site_symmetry_multiplicity
 _atom_site_fract_x
 _atom_site_fract_y
 _atom_site_fract_z
 _atom_site_occupancy
  Yb  Yb0  1  0.899169  0.100831  0.403909  1
  Sm  Sm1  1  0.899264  0.100736  0.093622  1
  Dy  Dy2  1  0.101720  0.898280  0.594760  1
  Dy  Dy3  1  0.900612  0.099388  0.751971  1
  Dy  Dy4  1  0.101187  0.898813  0.906143  1
  Dy  Dy5  1  0.100018  0.899982  0.249350  1
  Co  Co6  1  0.298709  0.701291  0.250836  1
  Co  Co7  1  0.699759  0.300241  0.749002  1
  Sn  Sn8  1  0.757851  0.242149  0.572207  1
  Sn  Sn9  1  0.428794  0.571206  0.576891  1
  Sn  Sn10  1  0.572933  0.427067  0.424185  1
  Sn  Sn11  1  0.733913  0.266087  0.249271  1
  Sn  Sn12  1  0.264963  0.735037  0.750488  1
  Sn  Sn13  1  0.242565  0.757435  0.071737  1
  Sn  Sn14  1  0.243358  0.756642  0.428975  1
  Sn  Sn15  1  0.572058  0.427942  0.075188  1
  Sn  Sn16  1  0.454527  0.545473  0.249991  1
  Sn  Sn17  1  0.545863  0.454137  0.750545  1
  Sn  Sn18  1  0.755363  0.244637  0.927344  1
  Sn  Sn19  1  0.427375  0.572625  0.923585  1
