# generated using pymatgen
data_Tb8Yb5Pr7Sn16
_symmetry_space_group_name_H-M   'P 1'
_cell_length_a   8.01205624
_cell_length_b   8.42442449
_cell_length_c   15.89083932
_cell_angle_alpha   90.07775669
_cell_angle_beta   89.76333006
_cell_angle_gamma   89.95853426
_symmetry_Int_Tables_number   1
_chemical_formula_structural   Tb8Yb5Pr7Sn16
_chemical_formula_sum   'Tb8 Yb5 Pr7 Sn16'
_cell_volume   1072.57296737
_cell_formula_units_Z   1
loop_
 _symmetry_equiv_pos_site_id
 _symmetry_equiv_pos_as_xyz
  1  'x, y, z'
loop_
 _atom_site_type_symbol
 _atom_site_label
 _atom_site_symmetry_multiplicity
 _atom_site_fract_x
 _atom_site_fract_y
 _atom_site_fract_z
 _atom_site_occupancy
  Tb  Tb0  1  0.668524  0.168143  0.624263  1
  Tb  Tb1  1  0.165287  0.328133  0.876279  1
  Tb  Tb2  1  0.334275  0.829687  0.124282  1
  Tb  Tb3  1  0.833967  0.670765  0.376312  1
  Tb  Tb4  1  0.333723  0.830125  0.375587  1
  Tb  Tb5  1  0.833833  0.671714  0.124229  1
  Tb  Tb6  1  0.665409  0.169917  0.875584  1
  Tb  Tb7  1  0.166047  0.330425  0.623865  1
  Yb  Yb8  1  0.003631  0.817177  0.594175  1
  Yb  Yb9  1  0.833716  0.506189  0.749645  1
  Yb  Yb10  1  0.331008  0.994167  0.749052  1
  Yb  Yb11  1  0.167457  0.495980  0.249663  1
  Yb  Yb12  1  0.667674  0.004370  0.249545  1
  Pr  Pr13  1  0.506563  0.681950  0.597010  1
  Pr  Pr14  1  0.007761  0.819074  0.906685  1
  Pr  Pr15  1  0.493111  0.319563  0.096885  1
  Pr  Pr16  1  0.993558  0.182561  0.403145  1
  Pr  Pr17  1  0.492226  0.318889  0.403271  1
  Pr  Pr18  1  0.993484  0.180536  0.096725  1
  Pr  Pr19  1  0.508065  0.681677  0.903538  1
  Sn  Sn20  1  0.670663  0.963160  0.460495  1
  Sn  Sn21  1  0.175153  0.539051  0.038216  1
  Sn  Sn22  1  0.325892  0.039196  0.962209  1
  Sn  Sn23  1  0.824909  0.459590  0.538084  1
  Sn  Sn24  1  0.327067  0.037018  0.538893  1
  Sn  Sn25  1  0.824880  0.460574  0.961804  1
  Sn  Sn26  1  0.675455  0.961581  0.038115  1
  Sn  Sn27  1  0.173599  0.537707  0.460253  1
  Sn  Sn28  1  0.467474  0.383724  0.750282  1
  Sn  Sn29  1  0.967062  0.119494  0.750516  1
  Sn  Sn30  1  0.533149  0.618251  0.250167  1
  Sn  Sn31  1  0.032955  0.880882  0.251158  1
  Sn  Sn32  1  0.708061  0.865584  0.750193  1
  Sn  Sn33  1  0.206683  0.632671  0.749856  1
  Sn  Sn34  1  0.293873  0.134915  0.249679  1
  Sn  Sn35  1  0.793808  0.365559  0.250344  1
