# generated using pymatgen
data_Ag2PPd3
_symmetry_space_group_name_H-M   'P 1'
_cell_length_a   7.30385400
_cell_length_b   7.30385400
_cell_length_c   7.30385400
_cell_angle_alpha   90.00000000
_cell_angle_beta   90.00000000
_cell_angle_gamma   90.00000000
_symmetry_Int_Tables_number   1
_chemical_formula_structural   Ag2PPd3
_chemical_formula_sum   'Ag8 P4 Pd12'
_cell_volume   389.63346432
_cell_formula_units_Z   4
loop_
 _symmetry_equiv_pos_site_id
 _symmetry_equiv_pos_as_xyz
  1  'x, y, z'
loop_
 _atom_site_type_symbol
 _atom_site_label
 _atom_site_symmetry_multiplicity
 _atom_site_fract_x
 _atom_site_fract_y
 _atom_site_fract_z
 _atom_site_occupancy
  Ag  Ag0  1  0.300662  0.300662  0.300662  1
  Ag  Ag1  1  0.050662  0.449338  0.550662  1
  Ag  Ag2  1  0.550662  0.050662  0.449338  1
  Ag  Ag3  1  0.449338  0.550662  0.050662  1
  Ag  Ag4  1  0.199338  0.699338  0.800662  1
  Ag  Ag5  1  0.949338  0.949338  0.949338  1
  Ag  Ag6  1  0.800662  0.199338  0.699338  1
  Ag  Ag7  1  0.699338  0.800662  0.199338  1
  P  P8  1  0.875000  0.375000  0.125000  1
  P  P9  1  0.375000  0.125000  0.875000  1
  P  P10  1  0.625000  0.625000  0.625000  1
  P  P11  1  0.125000  0.875000  0.375000  1
  Pd  Pd12  1  0.186387  0.063613  0.625000  1
  Pd  Pd13  1  0.436387  0.375000  0.686387  1
  Pd  Pd14  1  0.063613  0.625000  0.186387  1
  Pd  Pd15  1  0.936387  0.125000  0.313613  1
  Pd  Pd16  1  0.313613  0.936387  0.125000  1
  Pd  Pd17  1  0.686387  0.436387  0.375000  1
  Pd  Pd18  1  0.563613  0.875000  0.813613  1
  Pd  Pd19  1  0.625000  0.186387  0.063613  1
  Pd  Pd20  1  0.375000  0.686387  0.436387  1
  Pd  Pd21  1  0.875000  0.813613  0.563613  1
  Pd  Pd22  1  0.125000  0.313613  0.936387  1
  Pd  Pd23  1  0.813613  0.563613  0.875000  1
