# generated using pymatgen
data_SmCuAgPt3
_symmetry_space_group_name_H-M   'P 1'
_cell_length_a   5.42949956
_cell_length_b   5.42949945
_cell_length_c   5.22433227
_cell_angle_alpha   58.69219039
_cell_angle_beta   58.69218846
_cell_angle_gamma   60.00000215
_symmetry_Int_Tables_number   1
_chemical_formula_structural   SmCuAgPt3
_chemical_formula_sum   'Sm1 Cu1 Ag1 Pt3'
_cell_volume   106.69926951
_cell_formula_units_Z   1
loop_
 _symmetry_equiv_pos_site_id
 _symmetry_equiv_pos_as_xyz
  1  'x, y, z'
loop_
 _atom_site_type_symbol
 _atom_site_label
 _atom_site_symmetry_multiplicity
 _atom_site_fract_x
 _atom_site_fract_y
 _atom_site_fract_z
 _atom_site_occupancy
  Sm  Sm0  1  0.998433  0.998433  0.004701  1
  Cu  Cu1  1  0.375911  0.375911  0.872268  1
  Ag  Ag2  1  0.748908  0.748908  0.753277  1
  Pt  Pt3  1  0.376483  0.376483  0.373251  1
  Pt  Pt4  1  0.873784  0.376483  0.373251  1
  Pt  Pt5  1  0.376483  0.873784  0.373251  1
