# generated using pymatgen
data_LiPr4Si4Ag3Sn2
_symmetry_space_group_name_H-M   'P 1'
_cell_length_a   9.86771798
_cell_length_b   9.86771850
_cell_length_c   7.06057280
_cell_angle_alpha   90.05660139
_cell_angle_beta   89.94339752
_cell_angle_gamma   153.05345379
_symmetry_Int_Tables_number   1
_chemical_formula_structural   LiPr4Si4Ag3Sn2
_chemical_formula_sum   'Li1 Pr4 Si4 Ag3 Sn2'
_cell_volume   311.54719284
_cell_formula_units_Z   1
loop_
 _symmetry_equiv_pos_site_id
 _symmetry_equiv_pos_as_xyz
  1  'x, y, z'
loop_
 _atom_site_type_symbol
 _atom_site_label
 _atom_site_symmetry_multiplicity
 _atom_site_fract_x
 _atom_site_fract_y
 _atom_site_fract_z
 _atom_site_occupancy
  Li  Li0  1  0.819285  0.180715  0.940504  1
  Pr  Pr1  1  0.548875  0.451125  0.250409  1
  Pr  Pr2  1  0.452169  0.547831  0.749439  1
  Pr  Pr3  1  0.350375  0.649625  0.246838  1
  Pr  Pr4  1  0.648821  0.351179  0.747765  1
  Si  Si5  1  0.943463  0.056537  0.076613  1
  Si  Si6  1  0.054783  0.945217  0.922080  1
  Si  Si7  1  0.054170  0.945830  0.580283  1
  Si  Si8  1  0.944948  0.055052  0.418945  1
  Ag  Ag9  1  0.823197  0.176803  0.563248  1
  Ag  Ag10  1  0.177461  0.822539  0.448174  1
  Ag  Ag11  1  0.179186  0.820814  0.050731  1
  Sn  Sn12  1  0.723313  0.276687  0.251120  1
  Sn  Sn13  1  0.279954  0.720046  0.753851  1
