# generated using pymatgen
data_HoLu2Co9(GeB2)2
_symmetry_space_group_name_H-M   'P 1'
_cell_length_a   5.13096204
_cell_length_b   5.13109970
_cell_length_c   9.42626304
_cell_angle_alpha   89.99906383
_cell_angle_beta   90.00188356
_cell_angle_gamma   119.99909965
_symmetry_Int_Tables_number   1
_chemical_formula_structural   HoLu2Co9(GeB2)2
_chemical_formula_sum   'Ho1 Lu2 Co9 Ge2 B4'
_cell_volume   214.92324071
_cell_formula_units_Z   1
loop_
 _symmetry_equiv_pos_site_id
 _symmetry_equiv_pos_as_xyz
  1  'x, y, z'
loop_
 _atom_site_type_symbol
 _atom_site_label
 _atom_site_symmetry_multiplicity
 _atom_site_fract_x
 _atom_site_fract_y
 _atom_site_fract_z
 _atom_site_occupancy
  Ho  Ho0  1  0.999989  0.000000  0.000025  1
  Lu  Lu1  1  0.999980  0.000000  0.340094  1
  Lu  Lu2  1  0.999992  0.000000  0.659932  1
  Co  Co3  1  0.499996  0.000000  0.500035  1
  Co  Co4  1  0.499987  0.499996  0.500005  1
  Co  Co5  1  0.999991  0.500004  0.500005  1
  Co  Co6  1  0.499974  0.000000  0.203667  1
  Co  Co7  1  0.499976  0.500001  0.203667  1
  Co  Co8  1  0.999976  0.499999  0.203667  1
  Co  Co9  1  0.500037  0.000000  0.796302  1
  Co  Co10  1  0.500020  0.499998  0.796315  1
  Co  Co11  1  0.000022  0.500002  0.796315  1
  Ge  Ge12  1  0.333328  0.666670  0.999978  1
  Ge  Ge13  1  0.666657  0.333330  0.999978  1
  B  B14  1  0.333340  0.666712  0.348318  1
  B  B15  1  0.666628  0.333288  0.348318  1
  B  B16  1  0.666665  0.333327  0.651690  1
  B  B17  1  0.333338  0.666673  0.651690  1
