# generated using pymatgen
data_Dy19YCd6OsRu
_symmetry_space_group_name_H-M   'P 1'
_cell_length_a   9.60194012
_cell_length_b   9.59930166
_cell_length_c   9.86731800
_cell_angle_alpha   90.00000000
_cell_angle_beta   90.00000000
_cell_angle_gamma   119.99091327
_symmetry_Int_Tables_number   1
_chemical_formula_structural   Dy19YCd6OsRu
_chemical_formula_sum   'Dy19 Y1 Cd6 Os1 Ru1'
_cell_volume   787.71324488
_cell_formula_units_Z   1
loop_
 _symmetry_equiv_pos_site_id
 _symmetry_equiv_pos_as_xyz
  1  'x, y, z'
loop_
 _atom_site_type_symbol
 _atom_site_label
 _atom_site_symmetry_multiplicity
 _atom_site_fract_x
 _atom_site_fract_y
 _atom_site_fract_z
 _atom_site_occupancy
  Dy  Dy0  1  0.000005  0.000003  0.499699  1
  Dy  Dy1  1  0.000005  0.000003  0.000301  1
  Dy  Dy2  1  0.209902  0.790135  0.440571  1
  Dy  Dy3  1  0.209902  0.419767  0.440571  1
  Dy  Dy4  1  0.580348  0.790174  0.440455  1
  Dy  Dy5  1  0.790043  0.209952  0.559943  1
  Dy  Dy6  1  0.790043  0.580090  0.559943  1
  Dy  Dy7  1  0.419835  0.209917  0.559958  1
  Dy  Dy8  1  0.790043  0.209952  0.940057  1
  Dy  Dy9  1  0.790043  0.580090  0.940057  1
  Dy  Dy10  1  0.419835  0.209917  0.940042  1
  Dy  Dy11  1  0.209902  0.790135  0.059429  1
  Dy  Dy12  1  0.209902  0.419767  0.059429  1
  Dy  Dy13  1  0.580348  0.790174  0.059545  1
  Dy  Dy14  1  0.540096  0.460009  0.250000  1
  Dy  Dy15  1  0.540096  0.080087  0.250000  1
  Dy  Dy16  1  0.458617  0.541289  0.750000  1
  Dy  Dy17  1  0.458617  0.917327  0.750000  1
  Dy  Dy18  1  0.082587  0.541294  0.750000  1
  Y  Y19  1  0.919835  0.459918  0.250000  1
  Cd  Cd20  1  0.885210  0.114624  0.250000  1
  Cd  Cd21  1  0.885210  0.770587  0.250000  1
  Cd  Cd22  1  0.229493  0.114747  0.250000  1
  Cd  Cd23  1  0.114792  0.885302  0.750000  1
  Cd  Cd24  1  0.114792  0.229489  0.750000  1
  Cd  Cd25  1  0.770466  0.885232  0.750000  1
  Os  Os26  1  0.333262  0.666632  0.250000  1
  Ru  Ru27  1  0.666772  0.333385  0.750000  1
