# generated using pymatgen
data_CoIrCl6
_symmetry_space_group_name_H-M   'P 1'
_cell_length_a   5.97961684
_cell_length_b   5.97961773
_cell_length_c   6.60214840
_cell_angle_alpha   98.17439133
_cell_angle_beta   98.17439076
_cell_angle_gamma   119.99910412
_symmetry_Int_Tables_number   1
_chemical_formula_structural   CoIrCl6
_chemical_formula_sum   'Co1 Ir1 Cl6'
_cell_volume   195.99999645
_cell_formula_units_Z   1
loop_
 _symmetry_equiv_pos_site_id
 _symmetry_equiv_pos_as_xyz
  1  'x, y, z'
loop_
 _atom_site_type_symbol
 _atom_site_label
 _atom_site_symmetry_multiplicity
 _atom_site_fract_x
 _atom_site_fract_y
 _atom_site_fract_z
 _atom_site_occupancy
  Co  Co0  1  0.166657  0.833344  0.000000  1
  Ir  Ir1  1  0.833323  0.166678  0.000000  1
  Cl  Cl2  1  0.924747  0.574548  0.202746  1
  Cl  Cl3  1  0.552743  0.913826  0.202794  1
  Cl  Cl4  1  0.213484  0.202579  0.202936  1
  Cl  Cl5  1  0.797420  0.786515  0.797064  1
  Cl  Cl6  1  0.425452  0.075253  0.797254  1
  Cl  Cl7  1  0.086174  0.447257  0.797206  1
