# generated using pymatgen
data_Y2HoSn3HgIr2
_symmetry_space_group_name_H-M   'P 1'
_cell_length_a   7.59248207
_cell_length_b   7.61154078
_cell_length_c   4.04600800
_cell_angle_alpha   90.00000000
_cell_angle_beta   90.00000000
_cell_angle_gamma   119.93249018
_symmetry_Int_Tables_number   1
_chemical_formula_structural   Y2HoSn3HgIr2
_chemical_formula_sum   'Y2 Ho1 Sn3 Hg1 Ir2'
_cell_volume   202.63234004
_cell_formula_units_Z   1
loop_
 _symmetry_equiv_pos_site_id
 _symmetry_equiv_pos_as_xyz
  1  'x, y, z'
loop_
 _atom_site_type_symbol
 _atom_site_label
 _atom_site_symmetry_multiplicity
 _atom_site_fract_x
 _atom_site_fract_y
 _atom_site_fract_z
 _atom_site_occupancy
  Y  Y0  1  0.389755  0.410851  0.500000  1
  Y  Y1  1  0.588907  0.978727  0.500000  1
  Ho  Ho2  1  0.023004  0.611539  0.500000  1
  Sn  Sn3  1  0.745420  0.752355  0.000000  1
  Sn  Sn4  1  0.247166  0.992237  0.000000  1
  Sn  Sn5  1  0.007398  0.254790  0.000000  1
  Hg  Hg6  1  0.667607  0.334276  0.000000  1
  Ir  Ir7  1  0.330768  0.666218  0.000000  1
  Ir  Ir8  1  0.999975  0.999005  0.500000  1
