# generated using pymatgen
data_Dy7Ag(Sn11Os3)2
_symmetry_space_group_name_H-M   'P 1'
_cell_length_a   9.83660300
_cell_length_b   9.83660218
_cell_length_c   10.08518900
_cell_angle_alpha   90.00000000
_cell_angle_beta   90.00000000
_cell_angle_gamma   119.99999268
_symmetry_Int_Tables_number   1
_chemical_formula_structural   Dy7Ag(Sn11Os3)2
_chemical_formula_sum   'Dy7 Ag1 Sn22 Os6'
_cell_volume   845.09387977
_cell_formula_units_Z   1
loop_
 _symmetry_equiv_pos_site_id
 _symmetry_equiv_pos_as_xyz
  1  'x, y, z'
loop_
 _atom_site_type_symbol
 _atom_site_label
 _atom_site_symmetry_multiplicity
 _atom_site_fract_x
 _atom_site_fract_y
 _atom_site_fract_z
 _atom_site_occupancy
  Dy  Dy0  1  0.000000  0.000000  0.000000  1
  Dy  Dy1  1  0.483738  0.516262  0.304659  1
  Dy  Dy2  1  0.516262  0.483738  0.695341  1
  Dy  Dy3  1  0.483738  0.967477  0.304659  1
  Dy  Dy4  1  0.516262  0.032523  0.695341  1
  Dy  Dy5  1  0.032523  0.516262  0.304659  1
  Dy  Dy6  1  0.967477  0.483738  0.695341  1
  Ag  Ag7  1  0.000000  0.000000  0.500000  1
  Sn  Sn8  1  0.349741  0.000000  0.000000  1
  Sn  Sn9  1  0.650259  0.000000  0.000000  1
  Sn  Sn10  1  0.000000  0.349741  0.000000  1
  Sn  Sn11  1  0.000000  0.650259  0.000000  1
  Sn  Sn12  1  0.650259  0.650259  0.000000  1
  Sn  Sn13  1  0.349741  0.349741  0.000000  1
  Sn  Sn14  1  0.333333  0.666667  0.825762  1
  Sn  Sn15  1  0.666667  0.333333  0.174238  1
  Sn  Sn16  1  0.779647  0.220353  0.462568  1
  Sn  Sn17  1  0.220353  0.779647  0.537432  1
  Sn  Sn18  1  0.779647  0.559296  0.462568  1
  Sn  Sn19  1  0.220353  0.440704  0.537432  1
  Sn  Sn20  1  0.440704  0.220353  0.462568  1
  Sn  Sn21  1  0.559296  0.779647  0.537432  1
  Sn  Sn22  1  0.333333  0.666667  0.127407  1
  Sn  Sn23  1  0.666667  0.333333  0.872593  1
  Sn  Sn24  1  0.118711  0.881289  0.276784  1
  Sn  Sn25  1  0.881289  0.118711  0.723216  1
  Sn  Sn26  1  0.118711  0.237423  0.276784  1
  Sn  Sn27  1  0.881289  0.762577  0.723216  1
  Sn  Sn28  1  0.762577  0.881289  0.276784  1
  Sn  Sn29  1  0.237423  0.118711  0.723216  1
  Os  Os30  1  0.831339  0.168661  0.204194  1
  Os  Os31  1  0.168661  0.831339  0.795806  1
  Os  Os32  1  0.831339  0.662677  0.204194  1
  Os  Os33  1  0.168661  0.337323  0.795806  1
  Os  Os34  1  0.337323  0.168661  0.204194  1
  Os  Os35  1  0.662677  0.831339  0.795806  1
