# generated using pymatgen
data_ZnMo12Pt4Rh3N4
_symmetry_space_group_name_H-M   'P 1'
_cell_length_a   6.86749091
_cell_length_b   6.87019484
_cell_length_c   6.86800495
_cell_angle_alpha   89.64609402
_cell_angle_beta   89.85050096
_cell_angle_gamma   89.75234244
_symmetry_Int_Tables_number   1
_chemical_formula_structural   ZnMo12Pt4Rh3N4
_chemical_formula_sum   'Zn1 Mo12 Pt4 Rh3 N4'
_cell_volume   324.02905674
_cell_formula_units_Z   1
loop_
 _symmetry_equiv_pos_site_id
 _symmetry_equiv_pos_as_xyz
  1  'x, y, z'
loop_
 _atom_site_type_symbol
 _atom_site_label
 _atom_site_symmetry_multiplicity
 _atom_site_fract_x
 _atom_site_fract_y
 _atom_site_fract_z
 _atom_site_occupancy
  Zn  Zn0  1  0.191127  0.186419  0.186649  1
  Mo  Mo1  1  0.623119  0.702947  0.951738  1
  Mo  Mo2  1  0.459057  0.873028  0.304306  1
  Mo  Mo3  1  0.698134  0.950411  0.624242  1
  Mo  Mo4  1  0.550912  0.375620  0.203402  1
  Mo  Mo5  1  0.375114  0.200665  0.554009  1
  Mo  Mo6  1  0.200250  0.550740  0.374513  1
  Mo  Mo7  1  0.872320  0.305447  0.457975  1
  Mo  Mo8  1  0.048313  0.119822  0.795646  1
  Mo  Mo9  1  0.304972  0.459976  0.872229  1
  Mo  Mo10  1  0.122396  0.796235  0.044452  1
  Mo  Mo11  1  0.793129  0.045389  0.121004  1
  Mo  Mo12  1  0.953327  0.625388  0.697960  1
  Pt  Pt13  1  0.687439  0.305661  0.814290  1
  Pt  Pt14  1  0.556917  0.560607  0.557367  1
  Pt  Pt15  1  0.061591  0.946423  0.431149  1
  Pt  Pt16  1  0.948943  0.430964  0.063571  1
  Rh  Rh17  1  0.307785  0.814878  0.691031  1
  Rh  Rh18  1  0.431046  0.058781  0.946695  1
  Rh  Rh19  1  0.812308  0.688833  0.306329  1
  N  N20  1  0.376530  0.626468  0.125860  1
  N  N21  1  0.873379  0.872931  0.872635  1
  N  N22  1  0.125968  0.376437  0.626484  1
  N  N23  1  0.625925  0.125932  0.376465  1
