# generated using pymatgen
data_Gd6GaCuOs
_symmetry_space_group_name_H-M   'P 1'
_cell_length_a   8.47779195
_cell_length_b   8.47779205
_cell_length_c   8.47779300
_cell_angle_alpha   104.55352317
_cell_angle_beta   110.80122939
_cell_angle_gamma   113.17796837
_symmetry_Int_Tables_number   1
_chemical_formula_structural   Gd6GaCuOs
_chemical_formula_sum   'Gd12 Ga2 Cu2 Os2'
_cell_volume   466.27551883
_cell_formula_units_Z   2
loop_
 _symmetry_equiv_pos_site_id
 _symmetry_equiv_pos_as_xyz
  1  'x, y, z'
loop_
 _atom_site_type_symbol
 _atom_site_label
 _atom_site_symmetry_multiplicity
 _atom_site_fract_x
 _atom_site_fract_y
 _atom_site_fract_z
 _atom_site_occupancy
  Gd  Gd0  1  0.691276  0.260868  0.952073  1
  Gd  Gd1  1  0.308724  0.739132  0.047927  1
  Gd  Gd2  1  0.691204  0.739132  0.430409  1
  Gd  Gd3  1  0.308796  0.260868  0.569591  1
  Gd  Gd4  1  0.808964  0.144066  0.335100  1
  Gd  Gd5  1  0.809017  0.473900  0.664881  1
  Gd  Gd6  1  0.191036  0.855934  0.664900  1
  Gd  Gd7  1  0.190983  0.526100  0.335119  1
  Gd  Gd8  1  0.592882  0.774736  0.817867  1
  Gd  Gd9  1  0.956868  0.774736  0.181854  1
  Gd  Gd10  1  0.043132  0.225264  0.818146  1
  Gd  Gd11  1  0.407118  0.225264  0.182133  1
  Ga  Ga12  1  0.500000  0.500000  0.000000  1
  Ga  Ga13  1  0.500000  0.000000  0.500000  1
  Cu  Cu14  1  0.000031  0.119370  0.119339  1
  Cu  Cu15  1  0.999969  0.880630  0.880661  1
  Os  Os16  1  0.831368  0.500000  0.331368  1
  Os  Os17  1  0.168632  0.500000  0.668632  1
