# generated using pymatgen
data_NaPa(CuSb2)2
_symmetry_space_group_name_H-M   'P 1'
_cell_length_a   4.41216200
_cell_length_b   4.41216200
_cell_length_c   9.88469500
_cell_angle_alpha   90.00000000
_cell_angle_beta   90.00000000
_cell_angle_gamma   90.00000000
_symmetry_Int_Tables_number   1
_chemical_formula_structural   NaPa(CuSb2)2
_chemical_formula_sum   'Na1 Pa1 Cu2 Sb4'
_cell_volume   192.42707270
_cell_formula_units_Z   1
loop_
 _symmetry_equiv_pos_site_id
 _symmetry_equiv_pos_as_xyz
  1  'x, y, z'
loop_
 _atom_site_type_symbol
 _atom_site_label
 _atom_site_symmetry_multiplicity
 _atom_site_fract_x
 _atom_site_fract_y
 _atom_site_fract_z
 _atom_site_occupancy
  Na  Na0  1  0.500000  0.000000  0.250173  1
  Pa  Pa1  1  0.000000  0.500000  0.730186  1
  Cu  Cu2  1  0.500000  0.500000  0.508717  1
  Cu  Cu3  1  0.000000  0.000000  0.508717  1
  Sb  Sb4  1  0.500000  0.500000  0.977708  1
  Sb  Sb5  1  0.000000  0.000000  0.977708  1
  Sb  Sb6  1  0.000000  0.500000  0.371531  1
  Sb  Sb7  1  0.500000  0.000000  0.675263  1
