# generated using pymatgen
data_Y2Ho7Er(In2Pd)4
_symmetry_space_group_name_H-M   'P 1'
_cell_length_a   3.61630800
_cell_length_b   8.15213500
_cell_length_c   18.24822000
_cell_angle_alpha   89.99832844
_cell_angle_beta   90.00000000
_cell_angle_gamma   90.00000000
_symmetry_Int_Tables_number   1
_chemical_formula_structural   Y2Ho7Er(In2Pd)4
_chemical_formula_sum   'Y2 Ho7 Er1 In8 Pd4'
_cell_volume   537.96904043
_cell_formula_units_Z   1
loop_
 _symmetry_equiv_pos_site_id
 _symmetry_equiv_pos_as_xyz
  1  'x, y, z'
loop_
 _atom_site_type_symbol
 _atom_site_label
 _atom_site_symmetry_multiplicity
 _atom_site_fract_x
 _atom_site_fract_y
 _atom_site_fract_z
 _atom_site_occupancy
  Y  Y0  1  0.000000  0.499956  0.499995  1
  Y  Y1  1  0.000000  0.999994  0.000004  1
  Ho  Ho2  1  0.000000  0.739120  0.281128  1
  Ho  Ho3  1  0.000000  0.260921  0.718903  1
  Ho  Ho4  1  0.000000  0.760927  0.781116  1
  Ho  Ho5  1  0.000000  0.239029  0.218919  1
  Ho  Ho6  1  0.000000  0.617129  0.083734  1
  Ho  Ho7  1  0.000000  0.382868  0.916271  1
  Ho  Ho8  1  0.000000  0.882878  0.583707  1
  Er  Er9  1  0.000000  0.117065  0.416095  1
  In  In10  1  0.500000  0.707565  0.932607  1
  In  In11  1  0.500000  0.292411  0.067386  1
  In  In12  1  0.500000  0.792720  0.432601  1
  In  In13  1  0.500000  0.207537  0.567285  1
  In  In14  1  0.500000  0.581611  0.650490  1
  In  In15  1  0.500000  0.418156  0.349555  1
  In  In16  1  0.500000  0.918400  0.150519  1
  In  In17  1  0.500000  0.081596  0.849504  1
  Pd  Pd18  1  0.500000  0.523330  0.196078  1
  Pd  Pd19  1  0.500000  0.476637  0.803926  1
  Pd  Pd20  1  0.500000  0.976654  0.696059  1
  Pd  Pd21  1  0.500000  0.023495  0.304117  1
