# generated using pymatgen
data_NdDy15MgZn2AgRh4
_symmetry_space_group_name_H-M   'P 1'
_cell_length_a   9.53187664
_cell_length_b   9.57714873
_cell_length_c   9.57714900
_cell_angle_alpha   60.35885810
_cell_angle_beta   60.38295025
_cell_angle_gamma   60.38295666
_symmetry_Int_Tables_number   1
_chemical_formula_structural   NdDy15MgZn2AgRh4
_chemical_formula_sum   'Nd1 Dy15 Mg1 Zn2 Ag1 Rh4'
_cell_volume   623.45220606
_cell_formula_units_Z   1
loop_
 _symmetry_equiv_pos_site_id
 _symmetry_equiv_pos_as_xyz
  1  'x, y, z'
loop_
 _atom_site_type_symbol
 _atom_site_label
 _atom_site_symmetry_multiplicity
 _atom_site_fract_x
 _atom_site_fract_y
 _atom_site_fract_z
 _atom_site_occupancy
  Nd  Nd0  1  0.067122  0.433104  0.432358  1
  Dy  Dy1  1  0.646649  0.052548  0.652562  1
  Dy  Dy2  1  0.812665  0.814645  0.187274  1
  Dy  Dy3  1  0.435447  0.066174  0.063011  1
  Dy  Dy4  1  0.438264  0.434508  0.062383  1
  Dy  Dy5  1  0.191274  0.190337  0.809486  1
  Dy  Dy6  1  0.811809  0.189644  0.188519  1
  Dy  Dy7  1  0.069210  0.436997  0.056523  1
  Dy  Dy8  1  0.440014  0.062805  0.434834  1
  Dy  Dy9  1  0.063226  0.642765  0.646215  1
  Dy  Dy10  1  0.191658  0.808671  0.811114  1
  Dy  Dy11  1  0.648592  0.650802  0.049785  1
  Dy  Dy12  1  0.190193  0.811106  0.189169  1
  Dy  Dy13  1  0.066017  0.057820  0.437177  1
  Dy  Dy14  1  0.810954  0.188783  0.813461  1
  Dy  Dy15  1  0.649257  0.651549  0.652417  1
  Mg  Mg16  1  0.712162  0.428511  0.429197  1
  Zn  Zn17  1  0.415845  0.414123  0.752573  1
  Zn  Zn18  1  0.418872  0.415648  0.416516  1
  Ag  Ag19  1  0.417037  0.749360  0.415206  1
  Rh  Rh20  1  0.856358  0.428834  0.859038  1
  Rh  Rh21  1  0.428616  0.857225  0.856342  1
  Rh  Rh22  1  0.856829  0.858730  0.430074  1
  Rh  Rh23  1  0.861933  0.855308  0.854764  1
