# generated using pymatgen
data_Ho6Ga7Pd16
_symmetry_space_group_name_H-M   'P 1'
_cell_length_a   8.98461899
_cell_length_b   8.98461947
_cell_length_c   8.98461900
_cell_angle_alpha   59.99999805
_cell_angle_beta   59.99999629
_cell_angle_gamma   59.99999929
_symmetry_Int_Tables_number   1
_chemical_formula_structural   Ho6Ga7Pd16
_chemical_formula_sum   'Ho6 Ga7 Pd16'
_cell_volume   512.84248906
_cell_formula_units_Z   1
loop_
 _symmetry_equiv_pos_site_id
 _symmetry_equiv_pos_as_xyz
  1  'x, y, z'
loop_
 _atom_site_type_symbol
 _atom_site_label
 _atom_site_symmetry_multiplicity
 _atom_site_fract_x
 _atom_site_fract_y
 _atom_site_fract_z
 _atom_site_occupancy
  Ho  Ho0  1  0.715064  0.284936  0.284936  1
  Ho  Ho1  1  0.284936  0.715064  0.715064  1
  Ho  Ho2  1  0.284936  0.715064  0.284936  1
  Ho  Ho3  1  0.284936  0.284936  0.715064  1
  Ho  Ho4  1  0.715064  0.284936  0.715064  1
  Ho  Ho5  1  0.715064  0.715064  0.284936  1
  Ga  Ga6  1  0.500000  0.000000  0.000000  1
  Ga  Ga7  1  0.000000  0.500000  0.500000  1
  Ga  Ga8  1  0.000000  0.500000  0.000000  1
  Ga  Ga9  1  0.000000  0.000000  0.500000  1
  Ga  Ga10  1  0.500000  0.000000  0.500000  1
  Ga  Ga11  1  0.500000  0.500000  0.000000  1
  Ga  Ga12  1  0.000000  0.000000  0.000000  1
  Pd  Pd13  1  0.336100  0.336100  0.336100  1
  Pd  Pd14  1  0.336100  0.336100  0.991701  1
  Pd  Pd15  1  0.991701  0.336100  0.336100  1
  Pd  Pd16  1  0.336100  0.991701  0.336100  1
  Pd  Pd17  1  0.663900  0.663900  0.663900  1
  Pd  Pd18  1  0.663900  0.663900  0.008299  1
  Pd  Pd19  1  0.663900  0.008299  0.663900  1
  Pd  Pd20  1  0.008299  0.663900  0.663900  1
  Pd  Pd21  1  0.118974  0.118974  0.118974  1
  Pd  Pd22  1  0.118974  0.118974  0.643079  1
  Pd  Pd23  1  0.643079  0.118974  0.118974  1
  Pd  Pd24  1  0.118974  0.643079  0.118974  1
  Pd  Pd25  1  0.881026  0.881026  0.881026  1
  Pd  Pd26  1  0.881026  0.881026  0.356921  1
  Pd  Pd27  1  0.881026  0.356921  0.881026  1
  Pd  Pd28  1  0.356921  0.881026  0.881026  1
