# generated using pymatgen
data_Ca2SnSbPd2
_symmetry_space_group_name_H-M   'P 1'
_cell_length_a   4.68434900
_cell_length_b   7.44213717
_cell_length_c   8.01755618
_cell_angle_alpha   91.59170703
_cell_angle_beta   90.00000000
_cell_angle_gamma   90.00000000
_symmetry_Int_Tables_number   1
_chemical_formula_structural   Ca2SnSbPd2
_chemical_formula_sum   'Ca4 Sn2 Sb2 Pd4'
_cell_volume   279.39673045
_cell_formula_units_Z   2
loop_
 _symmetry_equiv_pos_site_id
 _symmetry_equiv_pos_as_xyz
  1  'x, y, z'
loop_
 _atom_site_type_symbol
 _atom_site_label
 _atom_site_symmetry_multiplicity
 _atom_site_fract_x
 _atom_site_fract_y
 _atom_site_fract_z
 _atom_site_occupancy
  Ca  Ca0  1  0.250000  0.485087  0.205772  1
  Ca  Ca1  1  0.750000  0.514913  0.794228  1
  Ca  Ca2  1  0.750000  0.009421  0.693989  1
  Ca  Ca3  1  0.250000  0.990579  0.306011  1
  Sn  Sn4  1  0.250000  0.814051  0.912504  1
  Sn  Sn5  1  0.750000  0.185949  0.087496  1
  Sb  Sb6  1  0.750000  0.692481  0.404774  1
  Sb  Sb7  1  0.250000  0.307519  0.595226  1
  Pd  Pd8  1  0.250000  0.694766  0.584854  1
  Pd  Pd9  1  0.750000  0.305234  0.415146  1
  Pd  Pd10  1  0.750000  0.805303  0.084520  1
  Pd  Pd11  1  0.250000  0.194697  0.915480  1
