# generated using pymatgen
data_Li4Pr16Si15Pb
_symmetry_space_group_name_H-M   'P 1'
_cell_length_a   7.40545544
_cell_length_b   7.99562554
_cell_length_c   15.29773500
_cell_angle_alpha   90.02904336
_cell_angle_beta   89.94476577
_cell_angle_gamma   90.02050094
_symmetry_Int_Tables_number   1
_chemical_formula_structural   Li4Pr16Si15Pb
_chemical_formula_sum   'Li4 Pr16 Si15 Pb1'
_cell_volume   905.79739566
_cell_formula_units_Z   1
loop_
 _symmetry_equiv_pos_site_id
 _symmetry_equiv_pos_as_xyz
  1  'x, y, z'
loop_
 _atom_site_type_symbol
 _atom_site_label
 _atom_site_symmetry_multiplicity
 _atom_site_fract_x
 _atom_site_fract_y
 _atom_site_fract_z
 _atom_site_occupancy
  Li  Li0  1  0.661273  0.966009  0.754117  1
  Li  Li1  1  0.157591  0.532724  0.751017  1
  Li  Li2  1  0.342074  0.034297  0.248562  1
  Li  Li3  1  0.841356  0.467573  0.250051  1
  Pr  Pr4  1  0.528920  0.309442  0.102376  1
  Pr  Pr5  1  0.025382  0.187032  0.393732  1
  Pr  Pr6  1  0.485707  0.699173  0.605262  1
  Pr  Pr7  1  0.970744  0.807860  0.898333  1
  Pr  Pr8  1  0.470419  0.690461  0.897844  1
  Pr  Pr9  1  0.969269  0.815912  0.604215  1
  Pr  Pr10  1  0.527680  0.308781  0.395110  1
  Pr  Pr11  1  0.029296  0.191995  0.102229  1
  Pr  Pr12  1  0.815785  0.315154  0.628811  1
  Pr  Pr13  1  0.322435  0.182468  0.872697  1
  Pr  Pr14  1  0.176945  0.682945  0.127428  1
  Pr  Pr15  1  0.672317  0.818798  0.368967  1
  Pr  Pr16  1  0.171742  0.688160  0.366911  1
  Pr  Pr17  1  0.676240  0.816745  0.127542  1
  Pr  Pr18  1  0.822705  0.316693  0.872015  1
  Pr  Pr19  1  0.333733  0.166487  0.635045  1
  Si  Si20  1  0.648136  0.032598  0.529835  1
  Si  Si21  1  0.147068  0.470107  0.966019  1
  Si  Si22  1  0.352911  0.970373  0.034131  1
  Si  Si23  1  0.836276  0.533012  0.463251  1
  Si  Si24  1  0.350740  0.969315  0.466266  1
  Si  Si25  1  0.852458  0.529469  0.033997  1
  Si  Si26  1  0.646963  0.029787  0.965869  1
  Si  Si27  1  0.518431  0.428295  0.751544  1
  Si  Si28  1  0.018545  0.074318  0.751424  1
  Si  Si29  1  0.479216  0.573744  0.248701  1
  Si  Si30  1  0.979289  0.927592  0.247649  1
  Si  Si31  1  0.766622  0.623287  0.751461  1
  Si  Si32  1  0.259265  0.870416  0.752662  1
  Si  Si33  1  0.235419  0.376055  0.249131  1
  Si  Si34  1  0.736204  0.126071  0.247776  1
  Pb  Pb35  1  0.170845  0.466851  0.538019  1
