# generated using pymatgen
data_Y2Er3Os2
_symmetry_space_group_name_H-M   'P 1'
_cell_length_a   6.34168617
_cell_length_b   7.35269617
_cell_length_c   8.38621487
_cell_angle_alpha   97.03288030
_cell_angle_beta   112.21615296
_cell_angle_gamma   90.00000238
_symmetry_Int_Tables_number   1
_chemical_formula_structural   Y2Er3Os2
_chemical_formula_sum   'Y4 Er6 Os4'
_cell_volume   358.82749167
_cell_formula_units_Z   2
loop_
 _symmetry_equiv_pos_site_id
 _symmetry_equiv_pos_as_xyz
  1  'x, y, z'
loop_
 _atom_site_type_symbol
 _atom_site_label
 _atom_site_symmetry_multiplicity
 _atom_site_fract_x
 _atom_site_fract_y
 _atom_site_fract_z
 _atom_site_occupancy
  Y  Y0  1  0.790981  0.583110  0.815331  1
  Y  Y1  1  0.975650  0.916890  0.184669  1
  Y  Y2  1  0.209019  0.416890  0.184669  1
  Y  Y3  1  0.024350  0.083110  0.815331  1
  Er  Er4  1  0.203135  0.683286  0.564590  1
  Er  Er5  1  0.638545  0.816714  0.435410  1
  Er  Er6  1  0.796865  0.316714  0.435410  1
  Er  Er7  1  0.361455  0.183286  0.564590  1
  Er  Er8  1  0.421137  0.750000  0.000000  1
  Er  Er9  1  0.578863  0.250000  0.000000  1
  Os  Os10  1  0.598371  0.923641  0.779786  1
  Os  Os11  1  0.818585  0.576359  0.220214  1
  Os  Os12  1  0.401629  0.076359  0.220214  1
  Os  Os13  1  0.181415  0.423641  0.779786  1
