# generated using pymatgen
data_PrNd15(YSn4)4
_symmetry_space_group_name_H-M   'P 1'
_cell_length_a   8.21695222
_cell_length_b   8.37635428
_cell_length_c   15.90650700
_cell_angle_alpha   90.00495913
_cell_angle_beta   89.98680732
_cell_angle_gamma   89.98594457
_symmetry_Int_Tables_number   1
_chemical_formula_structural   PrNd15(YSn4)4
_chemical_formula_sum   'Pr1 Nd15 Y4 Sn16'
_cell_volume   1094.81463461
_cell_formula_units_Z   1
loop_
 _symmetry_equiv_pos_site_id
 _symmetry_equiv_pos_as_xyz
  1  'x, y, z'
loop_
 _atom_site_type_symbol
 _atom_site_label
 _atom_site_symmetry_multiplicity
 _atom_site_fract_x
 _atom_site_fract_y
 _atom_site_fract_z
 _atom_site_occupancy
  Pr  Pr0  1  0.017861  0.180907  0.401787  1
  Nd  Nd1  1  0.367332  0.837635  0.120809  1
  Nd  Nd2  1  0.132719  0.337658  0.620951  1
  Nd  Nd3  1  0.482110  0.680845  0.901615  1
  Nd  Nd4  1  0.867345  0.662418  0.120789  1
  Nd  Nd5  1  0.132636  0.337624  0.879135  1
  Nd  Nd6  1  0.482118  0.680849  0.598433  1
  Nd  Nd7  1  0.632721  0.162338  0.620929  1
  Nd  Nd8  1  0.867276  0.662409  0.379118  1
  Nd  Nd9  1  0.017988  0.180812  0.098426  1
  Nd  Nd10  1  0.982044  0.819220  0.901608  1
  Nd  Nd11  1  0.632665  0.162328  0.879151  1
  Nd  Nd12  1  0.517908  0.319186  0.098319  1
  Nd  Nd13  1  0.367335  0.837589  0.379088  1
  Nd  Nd14  1  0.982064  0.819138  0.598456  1
  Nd  Nd15  1  0.517913  0.319264  0.401585  1
  Y  Y16  1  0.199329  0.501953  0.249909  1
  Y  Y17  1  0.699106  0.998048  0.249888  1
  Y  Y18  1  0.300836  0.001861  0.750030  1
  Y  Y19  1  0.800765  0.498160  0.750037  1
  Sn  Sn20  1  0.792327  0.464788  0.543860  1
  Sn  Sn21  1  0.706848  0.964242  0.456424  1
  Sn  Sn22  1  0.675499  0.853398  0.750028  1
  Sn  Sn23  1  0.207841  0.535698  0.456352  1
  Sn  Sn24  1  0.292396  0.035277  0.956187  1
  Sn  Sn25  1  0.824035  0.353814  0.249641  1
  Sn  Sn26  1  0.792403  0.464696  0.956185  1
  Sn  Sn27  1  0.564627  0.615953  0.249946  1
  Sn  Sn28  1  0.207586  0.535272  0.043699  1
  Sn  Sn29  1  0.435426  0.384028  0.750048  1
  Sn  Sn30  1  0.175495  0.646629  0.750027  1
  Sn  Sn31  1  0.935473  0.116002  0.750035  1
  Sn  Sn32  1  0.292950  0.034935  0.544081  1
  Sn  Sn33  1  0.707615  0.964794  0.043724  1
  Sn  Sn34  1  0.324779  0.146451  0.249843  1
  Sn  Sn35  1  0.064631  0.883785  0.249860  1
