# generated using pymatgen
data_Hf6TaTi(Fe2N)2
_symmetry_space_group_name_H-M   'P 1'
_cell_length_a   8.40534367
_cell_length_b   8.39528807
_cell_length_c   8.40534354
_cell_angle_alpha   60.03956338
_cell_angle_beta   60.06496026
_cell_angle_gamma   60.03956516
_symmetry_Int_Tables_number   1
_chemical_formula_structural   Hf6TaTi(Fe2N)2
_chemical_formula_sum   'Hf12 Ta2 Ti2 Fe8 N4'
_cell_volume   419.85953166
_cell_formula_units_Z   2
loop_
 _symmetry_equiv_pos_site_id
 _symmetry_equiv_pos_as_xyz
  1  'x, y, z'
loop_
 _atom_site_type_symbol
 _atom_site_label
 _atom_site_symmetry_multiplicity
 _atom_site_fract_x
 _atom_site_fract_y
 _atom_site_fract_z
 _atom_site_occupancy
  Hf  Hf0  1  0.811660  0.811509  0.187650  1
  Hf  Hf1  1  0.187650  0.189181  0.811660  1
  Hf  Hf2  1  0.812285  0.187715  0.812285  1
  Hf  Hf3  1  0.189137  0.810863  0.189137  1
  Hf  Hf4  1  0.187650  0.811509  0.811660  1
  Hf  Hf5  1  0.811660  0.189181  0.187650  1
  Hf  Hf6  1  0.438340  0.438491  0.062350  1
  Hf  Hf7  1  0.062350  0.060819  0.438340  1
  Hf  Hf8  1  0.437715  0.062285  0.437715  1
  Hf  Hf9  1  0.060863  0.439137  0.060863  1
  Hf  Hf10  1  0.062350  0.438491  0.438340  1
  Hf  Hf11  1  0.438340  0.060819  0.062350  1
  Ta  Ta12  1  0.625000  0.125000  0.625000  1
  Ta  Ta13  1  0.625000  0.625000  0.625000  1
  Ti  Ti14  1  0.125000  0.625000  0.625000  1
  Ti  Ti15  1  0.625000  0.625000  0.125000  1
  Fe  Fe16  1  0.743914  0.418960  0.418168  1
  Fe  Fe17  1  0.418519  0.743545  0.418519  1
  Fe  Fe18  1  0.418168  0.418960  0.743914  1
  Fe  Fe19  1  0.418519  0.419418  0.418519  1
  Fe  Fe20  1  0.506086  0.831040  0.831832  1
  Fe  Fe21  1  0.831481  0.506455  0.831481  1
  Fe  Fe22  1  0.831832  0.831040  0.506086  1
  Fe  Fe23  1  0.831481  0.830582  0.831481  1
  N  N24  1  0.625000  0.125000  0.125000  1
  N  N25  1  0.125000  0.625000  0.125000  1
  N  N26  1  0.125000  0.125000  0.625000  1
  N  N27  1  0.125000  0.125000  0.125000  1
