# generated using pymatgen
data_Yb3Mn5(BO4)4
_symmetry_space_group_name_H-M   'P 1'
_cell_length_a   3.38694645
_cell_length_b   9.29858470
_cell_length_c   9.99472773
_cell_angle_alpha   89.50249749
_cell_angle_beta   93.30591174
_cell_angle_gamma   89.63648960
_symmetry_Int_Tables_number   1
_chemical_formula_structural   Yb3Mn5(BO4)4
_chemical_formula_sum   'Yb3 Mn5 B4 O16'
_cell_volume   314.22898582
_cell_formula_units_Z   1
loop_
 _symmetry_equiv_pos_site_id
 _symmetry_equiv_pos_as_xyz
  1  'x, y, z'
loop_
 _atom_site_type_symbol
 _atom_site_label
 _atom_site_symmetry_multiplicity
 _atom_site_fract_x
 _atom_site_fract_y
 _atom_site_fract_z
 _atom_site_occupancy
  Yb  Yb0  1  0.747848  0.155024  0.405349  1
  Yb  Yb1  1  0.258964  0.844254  0.597498  1
  Yb  Yb2  1  0.753596  0.342261  0.901974  1
  Mn  Mn3  1  0.270306  0.663834  0.090734  1
  Mn  Mn4  1  0.242441  0.056475  0.115740  1
  Mn  Mn5  1  0.751643  0.555838  0.380851  1
  Mn  Mn6  1  0.232683  0.446769  0.609703  1
  Mn  Mn7  1  0.769339  0.943949  0.891032  1
  B  B8  1  0.277778  0.357685  0.178188  1
  B  B9  1  0.716995  0.858844  0.316578  1
  B  B10  1  0.279116  0.140256  0.683612  1
  B  B11  1  0.721157  0.642768  0.823218  1
  O  O12  1  0.221065  0.880915  0.010614  1
  O  O13  1  0.278688  0.367626  0.043262  1
  O  O14  1  0.232295  0.225773  0.243744  1
  O  O15  1  0.314131  0.485663  0.251421  1
  O  O16  1  0.684554  0.982218  0.236495  1
  O  O17  1  0.740914  0.724488  0.256340  1
  O  O18  1  0.735316  0.878525  0.451620  1
  O  O19  1  0.777352  0.386973  0.494820  1
  O  O20  1  0.203473  0.615294  0.498450  1
  O  O21  1  0.270662  0.112551  0.549908  1
  O  O22  1  0.233559  0.277515  0.735563  1
  O  O23  1  0.322510  0.021682  0.770182  1
  O  O24  1  0.643969  0.526001  0.739999  1
  O  O25  1  0.773619  0.777765  0.765789  1
  O  O26  1  0.755629  0.616597  0.959516  1
  O  O27  1  0.790401  0.112458  0.997800  1
