# generated using pymatgen
data_Tb3Mn7VCoP6
_symmetry_space_group_name_H-M   'P 1'
_cell_length_a   3.66407200
_cell_length_b   10.84501200
_cell_length_c   12.70787800
_cell_angle_alpha   90.00000000
_cell_angle_beta   90.00000000
_cell_angle_gamma   90.00000000
_symmetry_Int_Tables_number   1
_chemical_formula_structural   Tb3Mn7VCoP6
_chemical_formula_sum   'Tb6 Mn14 V2 Co2 P12'
_cell_volume   504.97173841
_cell_formula_units_Z   2
loop_
 _symmetry_equiv_pos_site_id
 _symmetry_equiv_pos_as_xyz
  1  'x, y, z'
loop_
 _atom_site_type_symbol
 _atom_site_label
 _atom_site_symmetry_multiplicity
 _atom_site_fract_x
 _atom_site_fract_y
 _atom_site_fract_z
 _atom_site_occupancy
  Tb  Tb0  1  0.000000  0.500000  0.532236  1
  Tb  Tb1  1  0.500000  0.000000  0.467764  1
  Tb  Tb2  1  0.500000  0.822576  0.205604  1
  Tb  Tb3  1  0.500000  0.177424  0.205604  1
  Tb  Tb4  1  0.000000  0.677424  0.794396  1
  Tb  Tb5  1  0.000000  0.322576  0.794396  1
  Mn  Mn6  1  0.000000  0.500000  0.991557  1
  Mn  Mn7  1  0.500000  0.000000  0.008443  1
  Mn  Mn8  1  0.500000  0.332218  0.997525  1
  Mn  Mn9  1  0.500000  0.667782  0.997525  1
  Mn  Mn10  1  0.000000  0.167782  0.002475  1
  Mn  Mn11  1  0.000000  0.832218  0.002475  1
  Mn  Mn12  1  0.500000  0.297010  0.433286  1
  Mn  Mn13  1  0.500000  0.702990  0.433286  1
  Mn  Mn14  1  0.000000  0.202990  0.566714  1
  Mn  Mn15  1  0.000000  0.797010  0.566714  1
  Mn  Mn16  1  0.500000  0.880391  0.700436  1
  Mn  Mn17  1  0.500000  0.119609  0.700436  1
  Mn  Mn18  1  0.000000  0.619609  0.299564  1
  Mn  Mn19  1  0.000000  0.380391  0.299564  1
  V  V20  1  0.500000  0.500000  0.162036  1
  V  V21  1  0.000000  0.000000  0.837964  1
  Co  Co22  1  0.500000  0.500000  0.705457  1
  Co  Co23  1  0.000000  0.000000  0.294543  1
  P  P24  1  0.500000  0.500000  0.880863  1
  P  P25  1  0.000000  0.000000  0.119137  1
  P  P26  1  0.500000  0.500000  0.358556  1
  P  P27  1  0.000000  0.000000  0.641444  1
  P  P28  1  0.500000  0.317698  0.617877  1
  P  P29  1  0.500000  0.682302  0.617877  1
  P  P30  1  0.000000  0.182302  0.382123  1
  P  P31  1  0.000000  0.817698  0.382123  1
  P  P32  1  0.500000  0.845021  0.885197  1
  P  P33  1  0.500000  0.154979  0.885197  1
  P  P34  1  0.000000  0.654979  0.114803  1
  P  P35  1  0.000000  0.345021  0.114803  1
