# generated using pymatgen
data_Np3NbI16
_symmetry_space_group_name_H-M   'P 1'
_cell_length_a   9.12487509
_cell_length_b   9.29051489
_cell_length_c   13.86035271
_cell_angle_alpha   72.63360838
_cell_angle_beta   71.26166229
_cell_angle_gamma   89.36302963
_symmetry_Int_Tables_number   1
_chemical_formula_structural   Np3NbI16
_chemical_formula_sum   'Np3 Nb1 I16'
_cell_volume   1057.32350132
_cell_formula_units_Z   1
loop_
 _symmetry_equiv_pos_site_id
 _symmetry_equiv_pos_as_xyz
  1  'x, y, z'
loop_
 _atom_site_type_symbol
 _atom_site_label
 _atom_site_symmetry_multiplicity
 _atom_site_fract_x
 _atom_site_fract_y
 _atom_site_fract_z
 _atom_site_occupancy
  Np  Np0  1  0.059496  0.804966  0.127780  1
  Np  Np1  1  0.806928  0.063039  0.619977  1
  Np  Np2  1  0.940061  0.193824  0.876326  1
  Nb  Nb3  1  0.199918  0.941043  0.376901  1
  I  I4  1  0.055236  0.827616  0.600554  1
  I  I5  1  0.054600  0.280177  0.630134  1
  I  I6  1  0.720628  0.950372  0.864877  1
  I  I7  1  0.583587  0.829868  0.634491  1
  I  I8  1  0.172089  0.415737  0.862528  1
  I  I9  1  0.957515  0.734089  0.371215  1
  I  I10  1  0.699037  0.399041  0.891962  1
  I  I11  1  0.180129  0.953175  0.883707  1
  I  I12  1  0.398821  0.154914  0.368484  1
  I  I13  1  0.826867  0.583383  0.141171  1
  I  I14  1  0.387145  0.718157  0.383511  1
  I  I15  1  0.598533  0.300041  0.604698  1
  I  I16  1  0.960799  0.156837  0.376647  1
  I  I17  1  0.303555  0.601629  0.113338  1
  I  I18  1  0.821324  0.048377  0.120948  1
  I  I19  1  0.273733  0.043713  0.150750  1
