# generated using pymatgen
data_CeTm7(Si4W3)4
_symmetry_space_group_name_H-M   'P 1'
_cell_length_a   6.74216206
_cell_length_b   6.91220124
_cell_length_c   12.86682700
_cell_angle_alpha   90.03696100
_cell_angle_beta   90.00768231
_cell_angle_gamma   90.02750650
_symmetry_Int_Tables_number   1
_chemical_formula_structural   CeTm7(Si4W3)4
_chemical_formula_sum   'Ce1 Tm7 Si16 W12'
_cell_volume   599.63486729
_cell_formula_units_Z   1
loop_
 _symmetry_equiv_pos_site_id
 _symmetry_equiv_pos_as_xyz
  1  'x, y, z'
loop_
 _atom_site_type_symbol
 _atom_site_label
 _atom_site_symmetry_multiplicity
 _atom_site_fract_x
 _atom_site_fract_y
 _atom_site_fract_z
 _atom_site_occupancy
  Ce  Ce0  1  0.997921  0.168764  0.093835  1
  Tm  Tm1  1  0.494733  0.331395  0.092981  1
  Tm  Tm2  1  0.994892  0.167578  0.407052  1
  Tm  Tm3  1  0.504576  0.667784  0.593452  1
  Tm  Tm4  1  0.005371  0.833490  0.905913  1
  Tm  Tm5  1  0.504753  0.668103  0.905462  1
  Tm  Tm6  1  0.004391  0.831960  0.593501  1
  Tm  Tm7  1  0.495577  0.332060  0.408020  1
  Si  Si8  1  0.803036  0.635612  0.749554  1
  Si  Si9  1  0.303636  0.865539  0.749459  1
  Si  Si10  1  0.199019  0.367392  0.252078  1
  Si  Si11  1  0.693829  0.133238  0.251623  1
  Si  Si12  1  0.536055  0.372410  0.749427  1
  Si  Si13  1  0.037061  0.128792  0.749532  1
  Si  Si14  1  0.463857  0.627145  0.249972  1
  Si  Si15  1  0.962236  0.869948  0.251503  1
  Si  Si16  1  0.662387  0.040338  0.546371  1
  Si  Si17  1  0.163685  0.460652  0.952905  1
  Si  Si18  1  0.340365  0.956202  0.045269  1
  Si  Si19  1  0.838266  0.540207  0.454088  1
  Si  Si20  1  0.336985  0.959451  0.454009  1
  Si  Si21  1  0.835373  0.544889  0.045085  1
  Si  Si22  1  0.661856  0.040731  0.952607  1
  Si  Si23  1  0.162247  0.459234  0.546222  1
  W  W24  1  0.667193  0.000101  0.749473  1
  W  W25  1  0.166333  0.501707  0.750087  1
  W  W26  1  0.332458  0.999994  0.249672  1
  W  W27  1  0.833080  0.497323  0.249547  1
  W  W28  1  0.832804  0.336088  0.624669  1
  W  W29  1  0.333960  0.163812  0.874377  1
  W  W30  1  0.166917  0.662637  0.125787  1
  W  W31  1  0.665776  0.833879  0.375884  1
  W  W32  1  0.167530  0.664432  0.375661  1
  W  W33  1  0.666588  0.835875  0.125916  1
  W  W34  1  0.832510  0.336570  0.874502  1
  W  W35  1  0.332744  0.164666  0.624503  1
