# generated using pymatgen
data_ErTmSn(AsRh2)6
_symmetry_space_group_name_H-M   'P 1'
_cell_length_a   10.07781300
_cell_length_b   10.07781182
_cell_length_c   3.93314800
_cell_angle_alpha   90.00000000
_cell_angle_beta   90.00000000
_cell_angle_gamma   120.00000059
_symmetry_Int_Tables_number   1
_chemical_formula_structural   ErTmSn(AsRh2)6
_chemical_formula_sum   'Er1 Tm1 Sn1 As6 Rh12'
_cell_volume   345.94213236
_cell_formula_units_Z   1
loop_
 _symmetry_equiv_pos_site_id
 _symmetry_equiv_pos_as_xyz
  1  'x, y, z'
loop_
 _atom_site_type_symbol
 _atom_site_label
 _atom_site_symmetry_multiplicity
 _atom_site_fract_x
 _atom_site_fract_y
 _atom_site_fract_z
 _atom_site_occupancy
  Er  Er0  1  0.333333  0.666667  0.247092  1
  Tm  Tm1  1  0.666667  0.333333  0.751554  1
  Sn  Sn2  1  0.000000  0.000000  0.607862  1
  As  As3  1  0.288534  0.881823  0.747332  1
  As  As4  1  0.118177  0.406712  0.747332  1
  As  As5  1  0.593288  0.711466  0.747332  1
  As  As6  1  0.710440  0.116325  0.252112  1
  As  As7  1  0.883675  0.594113  0.252112  1
  As  As8  1  0.405887  0.289560  0.252112  1
  Rh  Rh9  1  0.068804  0.618341  0.749407  1
  Rh  Rh10  1  0.381659  0.450463  0.749407  1
  Rh  Rh11  1  0.549537  0.931196  0.749407  1
  Rh  Rh12  1  0.933895  0.385175  0.251162  1
  Rh  Rh13  1  0.614825  0.548721  0.251162  1
  Rh  Rh14  1  0.451279  0.066105  0.251162  1
  Rh  Rh15  1  0.288769  0.126671  0.754563  1
  Rh  Rh16  1  0.873329  0.162098  0.754563  1
  Rh  Rh17  1  0.837902  0.711231  0.754563  1
  Rh  Rh18  1  0.728352  0.879274  0.244463  1
  Rh  Rh19  1  0.120726  0.849080  0.244463  1
  Rh  Rh20  1  0.150920  0.271648  0.244463  1
