# generated using pymatgen
data_Pr2NdPaBi5
_symmetry_space_group_name_H-M   'P 1'
_cell_length_a   9.96695227
_cell_length_b   9.97565196
_cell_length_c   6.51057000
_cell_angle_alpha   90.00000000
_cell_angle_beta   90.00000000
_cell_angle_gamma   120.02887524
_symmetry_Int_Tables_number   1
_chemical_formula_structural   Pr2NdPaBi5
_chemical_formula_sum   'Pr4 Nd2 Pa2 Bi10'
_cell_volume   560.43709420
_cell_formula_units_Z   2
loop_
 _symmetry_equiv_pos_site_id
 _symmetry_equiv_pos_as_xyz
  1  'x, y, z'
loop_
 _atom_site_type_symbol
 _atom_site_label
 _atom_site_symmetry_multiplicity
 _atom_site_fract_x
 _atom_site_fract_y
 _atom_site_fract_z
 _atom_site_occupancy
  Pr  Pr0  1  0.615141  0.999982  0.250000  1
  Pr  Pr1  1  0.000000  0.384416  0.750000  1
  Pr  Pr2  1  0.384859  0.384841  0.250000  1
  Pr  Pr3  1  0.000000  0.615298  0.250000  1
  Nd  Nd4  1  0.615515  0.615555  0.750000  1
  Nd  Nd5  1  0.384485  0.000040  0.750000  1
  Pa  Pa6  1  0.000000  0.999899  0.999050  1
  Pa  Pa7  1  0.000000  0.999899  0.500950  1
  Bi  Bi8  1  0.274570  0.000144  0.250000  1
  Bi  Bi9  1  0.000000  0.274088  0.250000  1
  Bi  Bi10  1  0.000000  0.725115  0.750000  1
  Bi  Bi11  1  0.333766  0.667087  0.502308  1
  Bi  Bi12  1  0.333766  0.667087  0.997692  1
  Bi  Bi13  1  0.275811  0.275072  0.750000  1
  Bi  Bi14  1  0.666234  0.333321  0.502308  1
  Bi  Bi15  1  0.725430  0.725574  0.250000  1
  Bi  Bi16  1  0.724189  0.999261  0.750000  1
  Bi  Bi17  1  0.666234  0.333321  0.997692  1
