# generated using pymatgen
data_Ca2PrMn2O7
_symmetry_space_group_name_H-M   'P 1'
_cell_length_a   5.56507800
_cell_length_b   5.50919065
_cell_length_c   10.06607119
_cell_angle_alpha   74.12746465
_cell_angle_beta   90.00015993
_cell_angle_gamma   89.99980648
_symmetry_Int_Tables_number   1
_chemical_formula_structural   Ca2PrMn2O7
_chemical_formula_sum   'Ca4 Pr2 Mn4 O14'
_cell_volume   296.84967169
_cell_formula_units_Z   2
loop_
 _symmetry_equiv_pos_site_id
 _symmetry_equiv_pos_as_xyz
  1  'x, y, z'
loop_
 _atom_site_type_symbol
 _atom_site_label
 _atom_site_symmetry_multiplicity
 _atom_site_fract_x
 _atom_site_fract_y
 _atom_site_fract_z
 _atom_site_occupancy
  Ca  Ca0  1  0.208474  0.576119  0.374430  1
  Ca  Ca1  1  0.708485  0.049473  0.374425  1
  Ca  Ca2  1  0.708472  0.423884  0.625567  1
  Ca  Ca3  1  0.208480  0.950524  0.625573  1
  Pr  Pr4  1  0.293570  0.755819  0.999995  1
  Pr  Pr5  1  0.793575  0.244182  0.000000  1
  Mn  Mn6  1  0.250599  0.150275  0.204614  1
  Mn  Mn7  1  0.750612  0.645129  0.204615  1
  Mn  Mn8  1  0.750610  0.849739  0.795411  1
  Mn  Mn9  1  0.250616  0.354856  0.795392  1
  O  O10  1  0.236710  0.319892  0.999962  1
  O  O11  1  0.736710  0.680111  0.000037  1
  O  O12  1  0.035250  0.049791  0.833184  1
  O  O13  1  0.535469  0.116751  0.833191  1
  O  O14  1  0.535242  0.950217  0.166810  1
  O  O15  1  0.035482  0.883263  0.166803  1
  O  O16  1  0.958412  0.569343  0.776784  1
  O  O17  1  0.458672  0.654106  0.776774  1
  O  O18  1  0.458407  0.430643  0.223215  1
  O  O19  1  0.958688  0.345882  0.223224  1
  O  O20  1  0.271853  0.386771  0.602908  1
  O  O21  1  0.771876  0.010354  0.602899  1
  O  O22  1  0.771856  0.613227  0.397087  1
  O  O23  1  0.271880  0.989645  0.397101  1
