# generated using pymatgen
data_YbHo4(In2Ir)2
_symmetry_space_group_name_H-M   'P 1'
_cell_length_a   3.66543200
_cell_length_b   7.99134700
_cell_length_c   18.26510200
_cell_angle_alpha   90.00000000
_cell_angle_beta   90.00000000
_cell_angle_gamma   90.00000000
_symmetry_Int_Tables_number   1
_chemical_formula_structural   YbHo4(In2Ir)2
_chemical_formula_sum   'Yb2 Ho8 In8 Ir4'
_cell_volume   535.01660090
_cell_formula_units_Z   2
loop_
 _symmetry_equiv_pos_site_id
 _symmetry_equiv_pos_as_xyz
  1  'x, y, z'
loop_
 _atom_site_type_symbol
 _atom_site_label
 _atom_site_symmetry_multiplicity
 _atom_site_fract_x
 _atom_site_fract_y
 _atom_site_fract_z
 _atom_site_occupancy
  Yb  Yb0  1  0.000000  0.000000  0.000000  1
  Yb  Yb1  1  0.000000  0.500000  0.500000  1
  Ho  Ho2  1  0.000000  0.116797  0.411224  1
  Ho  Ho3  1  0.000000  0.883203  0.588776  1
  Ho  Ho4  1  0.000000  0.383203  0.911224  1
  Ho  Ho5  1  0.000000  0.616797  0.088776  1
  Ho  Ho6  1  0.000000  0.244839  0.221232  1
  Ho  Ho7  1  0.000000  0.755161  0.778768  1
  Ho  Ho8  1  0.000000  0.255161  0.721232  1
  Ho  Ho9  1  0.000000  0.744839  0.278768  1
  In  In10  1  0.500000  0.427361  0.349506  1
  In  In11  1  0.500000  0.572639  0.650494  1
  In  In12  1  0.500000  0.072639  0.849506  1
  In  In13  1  0.500000  0.927361  0.150494  1
  In  In14  1  0.500000  0.294044  0.067494  1
  In  In15  1  0.500000  0.705956  0.932506  1
  In  In16  1  0.500000  0.205956  0.567494  1
  In  In17  1  0.500000  0.794044  0.432506  1
  Ir  Ir18  1  0.500000  0.021679  0.304706  1
  Ir  Ir19  1  0.500000  0.978321  0.695294  1
  Ir  Ir20  1  0.500000  0.478321  0.804706  1
  Ir  Ir21  1  0.500000  0.521679  0.195294  1
