# generated using pymatgen
data_Gd2Zr2IrRh
_symmetry_space_group_name_H-M   'P 1'
_cell_length_a   4.62628800
_cell_length_b   7.09351300
_cell_length_c   8.30463500
_cell_angle_alpha   90.00000000
_cell_angle_beta   90.00000000
_cell_angle_gamma   90.00000000
_symmetry_Int_Tables_number   1
_chemical_formula_structural   Gd2Zr2IrRh
_chemical_formula_sum   'Gd4 Zr4 Ir2 Rh2'
_cell_volume   272.53016788
_cell_formula_units_Z   2
loop_
 _symmetry_equiv_pos_site_id
 _symmetry_equiv_pos_as_xyz
  1  'x, y, z'
loop_
 _atom_site_type_symbol
 _atom_site_label
 _atom_site_symmetry_multiplicity
 _atom_site_fract_x
 _atom_site_fract_y
 _atom_site_fract_z
 _atom_site_occupancy
  Gd  Gd0  1  0.250000  0.016745  0.679898  1
  Gd  Gd1  1  0.250000  0.516745  0.820102  1
  Gd  Gd2  1  0.750000  0.984350  0.323785  1
  Gd  Gd3  1  0.750000  0.484350  0.176215  1
  Zr  Zr4  1  0.250000  0.141960  0.079720  1
  Zr  Zr5  1  0.250000  0.641960  0.420280  1
  Zr  Zr6  1  0.750000  0.857862  0.924494  1
  Zr  Zr7  1  0.750000  0.357862  0.575506  1
  Ir  Ir8  1  0.250000  0.268679  0.412551  1
  Ir  Ir9  1  0.250000  0.768679  0.087449  1
  Rh  Rh10  1  0.750000  0.730403  0.587068  1
  Rh  Rh11  1  0.750000  0.230403  0.912932  1
