# generated using pymatgen
data_LiBe4Ir2Rh
_symmetry_space_group_name_H-M   'P 1'
_cell_length_a   5.56103900
_cell_length_b   5.56154100
_cell_length_c   5.58725200
_cell_angle_alpha   90.00000000
_cell_angle_beta   90.00000000
_cell_angle_gamma   90.00000000
_symmetry_Int_Tables_number   1
_chemical_formula_structural   LiBe4Ir2Rh
_chemical_formula_sum   'Li2 Be8 Ir4 Rh2'
_cell_volume   172.80223039
_cell_formula_units_Z   2
loop_
 _symmetry_equiv_pos_site_id
 _symmetry_equiv_pos_as_xyz
  1  'x, y, z'
loop_
 _atom_site_type_symbol
 _atom_site_label
 _atom_site_symmetry_multiplicity
 _atom_site_fract_x
 _atom_site_fract_y
 _atom_site_fract_z
 _atom_site_occupancy
  Li  Li0  1  0.247738  0.250000  0.499996  1
  Li  Li1  1  0.752261  0.749999  0.500005  1
  Be  Be2  1  0.000000  0.000000  0.236363  1
  Be  Be3  1  0.000000  0.499999  0.236363  1
  Be  Be4  1  0.500001  0.000000  0.240318  1
  Be  Be5  1  0.500001  0.500001  0.240318  1
  Be  Be6  1  0.499999  0.000000  0.759683  1
  Be  Be7  1  0.499999  0.499999  0.759683  1
  Be  Be8  1  0.000000  0.000000  0.763637  1
  Be  Be9  1  0.000000  0.500001  0.763637  1
  Ir  Ir10  1  0.748520  0.250000  0.000000  1
  Ir  Ir11  1  0.251480  0.749999  0.000000  1
  Ir  Ir12  1  0.751310  0.250000  0.499999  1
  Ir  Ir13  1  0.248690  0.749999  0.499999  1
  Rh  Rh14  1  0.250115  0.250000  0.000000  1
  Rh  Rh15  1  0.749885  0.749999  0.000000  1
