# generated using pymatgen
data_Pu4TaNb3N8
_symmetry_space_group_name_H-M   'P 1'
_cell_length_a   3.28959400
_cell_length_b   5.69594406
_cell_length_c   10.99119473
_cell_angle_alpha   89.98722333
_cell_angle_beta   90.00000000
_cell_angle_gamma   90.00000000
_symmetry_Int_Tables_number   1
_chemical_formula_structural   Pu4TaNb3N8
_chemical_formula_sum   'Pu4 Ta1 Nb3 N8'
_cell_volume   205.94578493
_cell_formula_units_Z   1
loop_
 _symmetry_equiv_pos_site_id
 _symmetry_equiv_pos_as_xyz
  1  'x, y, z'
loop_
 _atom_site_type_symbol
 _atom_site_label
 _atom_site_symmetry_multiplicity
 _atom_site_fract_x
 _atom_site_fract_y
 _atom_site_fract_z
 _atom_site_occupancy
  Pu  Pu0  1  0.250000  0.579916  0.859018  1
  Pu  Pu1  1  0.750000  0.417400  0.140937  1
  Pu  Pu2  1  0.750000  0.920748  0.360449  1
  Pu  Pu3  1  0.250000  0.079361  0.640135  1
  Ta  Ta4  1  0.250000  0.917918  0.104572  1
  Nb  Nb5  1  0.750000  0.082343  0.895434  1
  Nb  Nb6  1  0.750000  0.579499  0.602803  1
  Nb  Nb7  1  0.250000  0.420393  0.396033  1
  N  N8  1  0.250000  0.660680  0.242428  1
  N  N9  1  0.750000  0.342711  0.755506  1
  N  N10  1  0.750000  0.841268  0.744895  1
  N  N11  1  0.250000  0.156849  0.253814  1
  N  N12  1  0.250000  0.756104  0.504990  1
  N  N13  1  0.750000  0.243767  0.494063  1
  N  N14  1  0.750000  0.751488  0.009995  1
  N  N15  1  0.250000  0.249556  0.994925  1
