# generated using pymatgen
data_Ac8HoTm11Sn16
_symmetry_space_group_name_H-M   'P 1'
_cell_length_a   8.29647209
_cell_length_b   8.37789426
_cell_length_c   15.82168600
_cell_angle_alpha   89.99791413
_cell_angle_beta   89.99167822
_cell_angle_gamma   89.98582945
_symmetry_Int_Tables_number   1
_chemical_formula_structural   Ac8HoTm11Sn16
_chemical_formula_sum   'Ac8 Ho1 Tm11 Sn16'
_cell_volume   1099.71734324
_cell_formula_units_Z   1
loop_
 _symmetry_equiv_pos_site_id
 _symmetry_equiv_pos_as_xyz
  1  'x, y, z'
loop_
 _atom_site_type_symbol
 _atom_site_label
 _atom_site_symmetry_multiplicity
 _atom_site_fract_x
 _atom_site_fract_y
 _atom_site_fract_z
 _atom_site_occupancy
  Ac  Ac0  1  0.514181  0.324093  0.904902  1
  Ac  Ac1  1  0.014088  0.176042  0.595028  1
  Ac  Ac2  1  0.485680  0.675922  0.404865  1
  Ac  Ac3  1  0.985829  0.824275  0.095308  1
  Ac  Ac4  1  0.485787  0.675796  0.095415  1
  Ac  Ac5  1  0.985688  0.824193  0.404855  1
  Ac  Ac6  1  0.514342  0.324237  0.594828  1
  Ac  Ac7  1  0.014320  0.175787  0.904786  1
  Ho  Ho8  1  0.357146  0.838524  0.875588  1
  Tm  Tm9  1  0.857082  0.660875  0.624508  1
  Tm  Tm10  1  0.643117  0.161055  0.375250  1
  Tm  Tm11  1  0.142980  0.338802  0.125092  1
  Tm  Tm12  1  0.643296  0.161017  0.124754  1
  Tm  Tm13  1  0.143125  0.339095  0.375293  1
  Tm  Tm14  1  0.356773  0.839275  0.624640  1
  Tm  Tm15  1  0.856787  0.661208  0.875105  1
  Tm  Tm16  1  0.191143  0.505973  0.749717  1
  Tm  Tm17  1  0.691669  0.993781  0.749744  1
  Tm  Tm18  1  0.808487  0.493760  0.250121  1
  Tm  Tm19  1  0.308603  0.006423  0.250091  1
  Sn  Sn20  1  0.312121  0.046570  0.045178  1
  Sn  Sn21  1  0.812369  0.453686  0.455167  1
  Sn  Sn22  1  0.687408  0.953897  0.544697  1
  Sn  Sn23  1  0.186825  0.544887  0.955668  1
  Sn  Sn24  1  0.689024  0.954094  0.955488  1
  Sn  Sn25  1  0.187630  0.546375  0.544747  1
  Sn  Sn26  1  0.312348  0.046216  0.455250  1
  Sn  Sn27  1  0.812553  0.453934  0.044604  1
  Sn  Sn28  1  0.554973  0.633039  0.749605  1
  Sn  Sn29  1  0.054241  0.866478  0.749695  1
  Sn  Sn30  1  0.445650  0.366721  0.250058  1
  Sn  Sn31  1  0.945311  0.132961  0.250159  1
  Sn  Sn32  1  0.322241  0.136889  0.749679  1
  Sn  Sn33  1  0.822091  0.364145  0.749942  1
  Sn  Sn34  1  0.677464  0.863772  0.250048  1
  Sn  Sn35  1  0.177629  0.636207  0.250121  1
