# generated using pymatgen
data_Ca3La8Pr9Si16
_symmetry_space_group_name_H-M   'P 1'
_cell_length_a   7.97960822
_cell_length_b   7.97960822
_cell_length_c   15.25832423
_cell_angle_alpha   90.11033340
_cell_angle_beta   89.88966660
_cell_angle_gamma   89.92883892
_symmetry_Int_Tables_number   1
_chemical_formula_structural   Ca3La8Pr9Si16
_chemical_formula_sum   'Ca3 La8 Pr9 Si16'
_cell_volume   971.55642920
_cell_formula_units_Z   1
loop_
 _symmetry_equiv_pos_site_id
 _symmetry_equiv_pos_as_xyz
  1  'x, y, z'
loop_
 _atom_site_type_symbol
 _atom_site_label
 _atom_site_symmetry_multiplicity
 _atom_site_fract_x
 _atom_site_fract_y
 _atom_site_fract_z
 _atom_site_occupancy
  Ca  Ca0  1  0.310117  0.310117  0.000000  1
  Ca  Ca1  1  0.190145  0.809779  0.250094  1
  Ca  Ca2  1  0.809779  0.190145  0.749906  1
  La  La3  1  0.375856  0.010783  0.449509  1
  La  La4  1  0.489958  0.874506  0.699329  1
  La  La5  1  0.510871  0.123067  0.198190  1
  La  La6  1  0.874506  0.489958  0.300671  1
  La  La7  1  0.123067  0.510871  0.801810  1
  La  La8  1  0.624582  0.989541  0.948983  1
  La  La9  1  0.010783  0.375856  0.550491  1
  La  La10  1  0.989541  0.624582  0.051017  1
  Pr  Pr11  1  0.691308  0.691308  0.500000  1
  Pr  Pr12  1  0.125618  0.984921  0.876339  1
  Pr  Pr13  1  0.514669  0.627248  0.126082  1
  Pr  Pr14  1  0.481887  0.373530  0.626485  1
  Pr  Pr15  1  0.627248  0.514669  0.873918  1
  Pr  Pr16  1  0.373530  0.481887  0.373515  1
  Pr  Pr17  1  0.874125  0.016657  0.375751  1
  Pr  Pr18  1  0.984921  0.125618  0.123661  1
  Pr  Pr19  1  0.016657  0.874125  0.624249  1
  Si  Si20  1  0.202236  0.166048  0.701070  1
  Si  Si21  1  0.332395  0.700408  0.951219  1
  Si  Si22  1  0.669080  0.303564  0.451739  1
  Si  Si23  1  0.700408  0.332395  0.048781  1
  Si  Si24  1  0.303564  0.669080  0.548261  1
  Si  Si25  1  0.797795  0.834553  0.199900  1
  Si  Si26  1  0.166048  0.202236  0.298930  1
  Si  Si27  1  0.834553  0.797795  0.800100  1
  Si  Si28  1  0.287945  0.918913  0.059659  1
  Si  Si29  1  0.581414  0.787823  0.310242  1
  Si  Si30  1  0.418369  0.212446  0.811056  1
  Si  Si31  1  0.787823  0.581414  0.689758  1
  Si  Si32  1  0.212446  0.418369  0.188944  1
  Si  Si33  1  0.709960  0.077884  0.559863  1
  Si  Si34  1  0.918913  0.287945  0.940341  1
  Si  Si35  1  0.077884  0.709960  0.440137  1
