# generated using pymatgen
data_TbTm5LuCo17P12
_symmetry_space_group_name_H-M   'P 1'
_cell_length_a   3.70866200
_cell_length_b   10.59335600
_cell_length_c   12.29382000
_cell_angle_alpha   90.00000000
_cell_angle_beta   90.00000000
_cell_angle_gamma   90.00000000
_symmetry_Int_Tables_number   1
_chemical_formula_structural   TbTm5LuCo17P12
_chemical_formula_sum   'Tb1 Tm5 Lu1 Co17 P12'
_cell_volume   482.98948050
_cell_formula_units_Z   1
loop_
 _symmetry_equiv_pos_site_id
 _symmetry_equiv_pos_as_xyz
  1  'x, y, z'
loop_
 _atom_site_type_symbol
 _atom_site_label
 _atom_site_symmetry_multiplicity
 _atom_site_fract_x
 _atom_site_fract_y
 _atom_site_fract_z
 _atom_site_occupancy
  Tb  Tb0  1  0.500000  0.000000  0.476949  1
  Tm  Tm1  1  0.000000  0.500000  0.531121  1
  Tm  Tm2  1  0.500000  0.823210  0.207714  1
  Tm  Tm3  1  0.500000  0.176790  0.207714  1
  Tm  Tm4  1  0.000000  0.682626  0.795331  1
  Tm  Tm5  1  0.000000  0.317374  0.795331  1
  Lu  Lu6  1  0.500000  0.500000  0.155184  1
  Co  Co7  1  0.000000  0.000000  0.835009  1
  Co  Co8  1  0.500000  0.500000  0.703339  1
  Co  Co9  1  0.000000  0.000000  0.293951  1
  Co  Co10  1  0.000000  0.500000  0.982221  1
  Co  Co11  1  0.500000  0.000000  0.013151  1
  Co  Co12  1  0.500000  0.324684  0.986920  1
  Co  Co13  1  0.500000  0.675316  0.986920  1
  Co  Co14  1  0.000000  0.160198  0.999353  1
  Co  Co15  1  0.000000  0.839802  0.999353  1
  Co  Co16  1  0.500000  0.294384  0.436057  1
  Co  Co17  1  0.500000  0.705616  0.436057  1
  Co  Co18  1  0.000000  0.202524  0.571323  1
  Co  Co19  1  0.000000  0.797476  0.571323  1
  Co  Co20  1  0.500000  0.879946  0.707648  1
  Co  Co21  1  0.500000  0.120054  0.707648  1
  Co  Co22  1  0.000000  0.623358  0.300895  1
  Co  Co23  1  0.000000  0.376642  0.300895  1
  P  P24  1  0.500000  0.500000  0.881585  1
  P  P25  1  0.000000  0.000000  0.115701  1
  P  P26  1  0.500000  0.500000  0.364996  1
  P  P27  1  0.000000  0.000000  0.654338  1
  P  P28  1  0.500000  0.309733  0.619209  1
  P  P29  1  0.500000  0.690267  0.619209  1
  P  P30  1  0.000000  0.188525  0.386073  1
  P  P31  1  0.000000  0.811475  0.386073  1
  P  P32  1  0.500000  0.852773  0.886946  1
  P  P33  1  0.500000  0.147227  0.886946  1
  P  P34  1  0.000000  0.668166  0.098757  1
  P  P35  1  0.000000  0.331834  0.098757  1
