# generated using pymatgen
data_Ho2Co9P6Ru
_symmetry_space_group_name_H-M   'P 1'
_cell_length_a   3.66633900
_cell_length_b   10.31394700
_cell_length_c   11.73504900
_cell_angle_alpha   90.00000000
_cell_angle_beta   90.00000000
_cell_angle_gamma   90.00000000
_symmetry_Int_Tables_number   1
_chemical_formula_structural   Ho2Co9P6Ru
_chemical_formula_sum   'Ho4 Co18 P12 Ru2'
_cell_volume   443.75414354
_cell_formula_units_Z   2
loop_
 _symmetry_equiv_pos_site_id
 _symmetry_equiv_pos_as_xyz
  1  'x, y, z'
loop_
 _atom_site_type_symbol
 _atom_site_label
 _atom_site_symmetry_multiplicity
 _atom_site_fract_x
 _atom_site_fract_y
 _atom_site_fract_z
 _atom_site_occupancy
  Ho  Ho0  1  0.250000  0.582304  0.702264  1
  Ho  Ho1  1  0.250000  0.917696  0.202264  1
  Ho  Ho2  1  0.750000  0.414096  0.295453  1
  Ho  Ho3  1  0.750000  0.085904  0.795453  1
  Co  Co4  1  0.750000  0.283433  0.008521  1
  Co  Co5  1  0.750000  0.216567  0.508521  1
  Co  Co6  1  0.250000  0.406257  0.487737  1
  Co  Co7  1  0.250000  0.093743  0.987737  1
  Co  Co8  1  0.750000  0.590897  0.510604  1
  Co  Co9  1  0.750000  0.909103  0.010604  1
  Co  Co10  1  0.250000  0.220730  0.176805  1
  Co  Co11  1  0.250000  0.279270  0.676805  1
  Co  Co12  1  0.750000  0.778295  0.822841  1
  Co  Co13  1  0.750000  0.721705  0.322841  1
  Co  Co14  1  0.250000  0.886595  0.701836  1
  Co  Co15  1  0.250000  0.613405  0.201836  1
  Co  Co16  1  0.750000  0.116511  0.300883  1
  Co  Co17  1  0.750000  0.383489  0.800883  1
  Co  Co18  1  0.250000  0.464304  0.932301  1
  Co  Co19  1  0.250000  0.035696  0.432301  1
  Co  Co20  1  0.750000  0.532762  0.069045  1
  Co  Co21  1  0.750000  0.967238  0.569045  1
  P  P22  1  0.250000  0.417088  0.112238  1
  P  P23  1  0.250000  0.082912  0.612238  1
  P  P24  1  0.750000  0.578474  0.886732  1
  P  P25  1  0.750000  0.921526  0.386732  1
  P  P26  1  0.250000  0.270011  0.869314  1
  P  P27  1  0.250000  0.229989  0.369314  1
  P  P28  1  0.750000  0.729096  0.132777  1
  P  P29  1  0.750000  0.770904  0.632777  1
  P  P30  1  0.250000  0.594600  0.390181  1
  P  P31  1  0.250000  0.905400  0.890181  1
  P  P32  1  0.750000  0.397256  0.608742  1
  P  P33  1  0.750000  0.102744  0.108742  1
  Ru  Ru34  1  0.250000  0.715144  0.991725  1
  Ru  Ru35  1  0.250000  0.784856  0.491725  1
