# generated using pymatgen
data_Dy4TmIr2
_symmetry_space_group_name_H-M   'P 1'
_cell_length_a   6.46875209
_cell_length_b   7.18652985
_cell_length_c   8.51027353
_cell_angle_alpha   96.48415821
_cell_angle_beta   112.33711395
_cell_angle_gamma   89.99999853
_symmetry_Int_Tables_number   1
_chemical_formula_structural   Dy4TmIr2
_chemical_formula_sum   'Dy8 Tm2 Ir4'
_cell_volume   363.20082418
_cell_formula_units_Z   2
loop_
 _symmetry_equiv_pos_site_id
 _symmetry_equiv_pos_as_xyz
  1  'x, y, z'
loop_
 _atom_site_type_symbol
 _atom_site_label
 _atom_site_symmetry_multiplicity
 _atom_site_fract_x
 _atom_site_fract_y
 _atom_site_fract_z
 _atom_site_occupancy
  Dy  Dy0  1  0.970850  0.918646  0.181629  1
  Dy  Dy1  1  0.789220  0.581354  0.818371  1
  Dy  Dy2  1  0.029150  0.081354  0.818371  1
  Dy  Dy3  1  0.210780  0.418646  0.181629  1
  Dy  Dy4  1  0.653253  0.816786  0.439957  1
  Dy  Dy5  1  0.213296  0.683214  0.560043  1
  Dy  Dy6  1  0.346747  0.183214  0.560043  1
  Dy  Dy7  1  0.786704  0.316786  0.439957  1
  Tm  Tm8  1  0.429582  0.750000  0.000000  1
  Tm  Tm9  1  0.570418  0.250000  0.000000  1
  Ir  Ir10  1  0.821329  0.572341  0.216797  1
  Ir  Ir11  1  0.604532  0.927659  0.783203  1
  Ir  Ir12  1  0.178672  0.427659  0.783203  1
  Ir  Ir13  1  0.395468  0.072341  0.216797  1
