# generated using pymatgen
data_Na6ScMnS4(O4F)4
_symmetry_space_group_name_H-M   'P 1'
_cell_length_a   6.78824600
_cell_length_b   9.19340400
_cell_length_c   13.91790100
_cell_angle_alpha   90.00000000
_cell_angle_beta   90.00000000
_cell_angle_gamma   90.00000000
_symmetry_Int_Tables_number   1
_chemical_formula_structural   Na6ScMnS4(O4F)4
_chemical_formula_sum   'Na12 Sc2 Mn2 S8 O32 F8'
_cell_volume   868.57567150
_cell_formula_units_Z   2
loop_
 _symmetry_equiv_pos_site_id
 _symmetry_equiv_pos_as_xyz
  1  'x, y, z'
loop_
 _atom_site_type_symbol
 _atom_site_label
 _atom_site_symmetry_multiplicity
 _atom_site_fract_x
 _atom_site_fract_y
 _atom_site_fract_z
 _atom_site_occupancy
  Na  Na0  1  0.522764  0.662746  0.910000  1
  Na  Na1  1  0.022764  0.837254  0.590000  1
  Na  Na2  1  0.477236  0.162746  0.590000  1
  Na  Na3  1  0.977236  0.337254  0.910000  1
  Na  Na4  1  0.471748  0.335549  0.099628  1
  Na  Na5  1  0.971748  0.164451  0.400372  1
  Na  Na6  1  0.528252  0.835549  0.400372  1
  Na  Na7  1  0.028252  0.664451  0.099628  1
  Na  Na8  1  0.750000  0.000000  0.062156  1
  Na  Na9  1  0.250000  0.500000  0.437844  1
  Na  Na10  1  0.250000  0.000000  0.951525  1
  Na  Na11  1  0.750000  0.500000  0.548475  1
  Sc  Sc12  1  0.750000  0.000000  0.811700  1
  Sc  Sc13  1  0.250000  0.500000  0.688300  1
  Mn  Mn14  1  0.250000  0.000000  0.197143  1
  Mn  Mn15  1  0.750000  0.500000  0.302857  1
  S  S16  1  0.006676  0.692440  0.861075  1
  S  S17  1  0.506676  0.807560  0.638925  1
  S  S18  1  0.993324  0.192440  0.638925  1
  S  S19  1  0.493324  0.307560  0.861075  1
  S  S20  1  0.987669  0.309955  0.145519  1
  S  S21  1  0.487669  0.190045  0.354481  1
  S  S22  1  0.012331  0.809955  0.354481  1
  S  S23  1  0.512331  0.690045  0.145519  1
  O  O24  1  0.449320  0.438185  0.799352  1
  O  O25  1  0.949320  0.061815  0.700648  1
  O  O26  1  0.550680  0.938185  0.700648  1
  O  O27  1  0.050680  0.561815  0.799352  1
  O  O28  1  0.559039  0.551091  0.202498  1
  O  O29  1  0.059039  0.948909  0.297502  1
  O  O30  1  0.440961  0.051091  0.297502  1
  O  O31  1  0.940961  0.448909  0.202498  1
  O  O32  1  0.189882  0.759724  0.895281  1
  O  O33  1  0.689882  0.740276  0.604719  1
  O  O34  1  0.810118  0.259724  0.604719  1
  O  O35  1  0.310118  0.240276  0.895281  1
  O  O36  1  0.805469  0.243677  0.109924  1
  O  O37  1  0.305469  0.256323  0.390076  1
  O  O38  1  0.194531  0.743677  0.390076  1
  O  O39  1  0.694531  0.756323  0.109924  1
  O  O40  1  0.879927  0.642818  0.940614  1
  O  O41  1  0.379927  0.857182  0.559386  1
  O  O42  1  0.120073  0.142818  0.559386  1
  O  O43  1  0.620073  0.357182  0.940614  1
  O  O44  1  0.116640  0.361291  0.067038  1
  O  O45  1  0.616640  0.138709  0.432962  1
  O  O46  1  0.883360  0.861291  0.432962  1
  O  O47  1  0.383360  0.638709  0.067038  1
  O  O48  1  0.394983  0.701652  0.701077  1
  O  O49  1  0.894983  0.798348  0.798923  1
  O  O50  1  0.605017  0.201652  0.798923  1
  O  O51  1  0.105017  0.298348  0.701077  1
  O  O52  1  0.595663  0.289665  0.289033  1
  O  O53  1  0.095663  0.210335  0.210967  1
  O  O54  1  0.404337  0.789665  0.210967  1
  O  O55  1  0.904337  0.710335  0.289033  1
  F  F56  1  0.574276  0.923188  0.915254  1
  F  F57  1  0.074276  0.576812  0.584746  1
  F  F58  1  0.425724  0.423188  0.584746  1
  F  F59  1  0.925724  0.076812  0.915254  1
  F  F60  1  0.416348  0.075114  0.098610  1
  F  F61  1  0.916348  0.424886  0.401390  1
  F  F62  1  0.583652  0.575114  0.401390  1
  F  F63  1  0.083652  0.924886  0.098610  1
