# generated using pymatgen
data_Sm2YGa6Ni4Rh5
_symmetry_space_group_name_H-M   'P 1'
_cell_length_a   9.49026343
_cell_length_b   9.49026294
_cell_length_c   3.88066300
_cell_angle_alpha   90.00000000
_cell_angle_beta   90.00000000
_cell_angle_gamma   120.81053539
_symmetry_Int_Tables_number   1
_chemical_formula_structural   Sm2YGa6Ni4Rh5
_chemical_formula_sum   'Sm2 Y1 Ga6 Ni4 Rh5'
_cell_volume   300.18412179
_cell_formula_units_Z   1
loop_
 _symmetry_equiv_pos_site_id
 _symmetry_equiv_pos_as_xyz
  1  'x, y, z'
loop_
 _atom_site_type_symbol
 _atom_site_label
 _atom_site_symmetry_multiplicity
 _atom_site_fract_x
 _atom_site_fract_y
 _atom_site_fract_z
 _atom_site_occupancy
  Sm  Sm0  1  0.002412  0.997588  0.000000  1
  Sm  Sm1  1  0.334408  0.665592  0.500000  1
  Y  Y2  1  0.664146  0.335854  0.500000  1
  Ga  Ga3  1  0.328959  0.331430  0.500000  1
  Ga  Ga4  1  0.680825  0.014233  0.500000  1
  Ga  Ga5  1  0.668570  0.671041  0.500000  1
  Ga  Ga6  1  0.985767  0.319175  0.500000  1
  Ga  Ga7  1  0.999196  0.663536  0.500000  1
  Ga  Ga8  1  0.336464  0.000804  0.500000  1
  Ni  Ni9  1  0.818022  0.181978  0.000000  1
  Ni  Ni10  1  0.511663  0.012103  0.000000  1
  Ni  Ni11  1  0.987897  0.488337  0.000000  1
  Ni  Ni12  1  0.496987  0.503013  0.000000  1
  Rh  Rh13  1  0.171914  0.354870  0.000000  1
  Rh  Rh14  1  0.817162  0.634658  0.000000  1
  Rh  Rh15  1  0.185135  0.814865  0.000000  1
  Rh  Rh16  1  0.645130  0.828086  0.000000  1
  Rh  Rh17  1  0.365342  0.182838  0.000000  1
