# generated using pymatgen
data_Pr3Sn3IrPdRh
_symmetry_space_group_name_H-M   'P 1'
_cell_length_a   7.62902000
_cell_length_b   7.62901989
_cell_length_c   4.15201400
_cell_angle_alpha   90.00000000
_cell_angle_beta   90.00000000
_cell_angle_gamma   120.00000047
_symmetry_Int_Tables_number   1
_chemical_formula_structural   Pr3Sn3IrPdRh
_chemical_formula_sum   'Pr3 Sn3 Ir1 Pd1 Rh1'
_cell_volume   209.27962069
_cell_formula_units_Z   1
loop_
 _symmetry_equiv_pos_site_id
 _symmetry_equiv_pos_as_xyz
  1  'x, y, z'
loop_
 _atom_site_type_symbol
 _atom_site_label
 _atom_site_symmetry_multiplicity
 _atom_site_fract_x
 _atom_site_fract_y
 _atom_site_fract_z
 _atom_site_occupancy
  Pr  Pr0  1  0.593579  0.008744  0.500000  1
  Pr  Pr1  1  0.415165  0.406421  0.500000  1
  Pr  Pr2  1  0.991256  0.584835  0.500000  1
  Sn  Sn3  1  0.250153  0.001177  0.000000  1
  Sn  Sn4  1  0.751024  0.749847  0.000000  1
  Sn  Sn5  1  0.998823  0.248976  0.000000  1
  Ir  Ir6  1  0.666667  0.333333  0.000000  1
  Pd  Pd7  1  0.333333  0.666667  0.000000  1
  Rh  Rh8  1  0.000000  0.000000  0.500000  1
