# generated using pymatgen
data_Ta8VRe(SiB2)2
_symmetry_space_group_name_H-M   'P 1'
_cell_length_a   7.22419744
_cell_length_b   7.22419761
_cell_length_c   7.22419751
_cell_angle_alpha   129.74565572
_cell_angle_beta   129.74566931
_cell_angle_gamma   73.81368469
_symmetry_Int_Tables_number   1
_chemical_formula_structural   Ta8VRe(SiB2)2
_chemical_formula_sum   'Ta8 V1 Re1 Si2 B4'
_cell_volume   217.43402230
_cell_formula_units_Z   1
loop_
 _symmetry_equiv_pos_site_id
 _symmetry_equiv_pos_as_xyz
  1  'x, y, z'
loop_
 _atom_site_type_symbol
 _atom_site_label
 _atom_site_symmetry_multiplicity
 _atom_site_fract_x
 _atom_site_fract_y
 _atom_site_fract_z
 _atom_site_occupancy
  Ta  Ta0  1  0.530807  0.694587  0.502211  1
  Ta  Ta1  1  0.028596  0.530807  0.836219  1
  Ta  Ta2  1  0.694587  0.192376  0.163781  1
  Ta  Ta3  1  0.971404  0.469193  0.163781  1
  Ta  Ta4  1  0.192376  0.028596  0.497789  1
  Ta  Ta5  1  0.469193  0.305413  0.497789  1
  Ta  Ta6  1  0.807624  0.971404  0.502211  1
  Ta  Ta7  1  0.305413  0.807624  0.836219  1
  V  V8  1  0.000000  0.000000  0.000000  1
  Re  Re9  1  0.500000  0.500000  0.000000  1
  Si  Si10  1  0.248991  0.248991  0.000000  1
  Si  Si11  1  0.751009  0.751009  0.000000  1
  B  B12  1  0.622329  0.119402  0.741729  1
  B  B13  1  0.119402  0.377671  0.497073  1
  B  B14  1  0.880598  0.622329  0.502927  1
  B  B15  1  0.377671  0.880598  0.258271  1
