# generated using pymatgen
data_Li4Dy15ErPb16
_symmetry_space_group_name_H-M   'P 1'
_cell_length_a   7.67404455
_cell_length_b   8.33111565
_cell_length_c   15.68302100
_cell_angle_alpha   90.10092478
_cell_angle_beta   90.02178631
_cell_angle_gamma   90.03678282
_symmetry_Int_Tables_number   1
_chemical_formula_structural   Li4Dy15ErPb16
_chemical_formula_sum   'Li4 Dy15 Er1 Pb16'
_cell_volume   1002.66627718
_cell_formula_units_Z   1
loop_
 _symmetry_equiv_pos_site_id
 _symmetry_equiv_pos_as_xyz
  1  'x, y, z'
loop_
 _atom_site_type_symbol
 _atom_site_label
 _atom_site_symmetry_multiplicity
 _atom_site_fract_x
 _atom_site_fract_y
 _atom_site_fract_z
 _atom_site_occupancy
  Li  Li0  1  0.159560  0.490824  0.749977  1
  Li  Li1  1  0.663660  0.009168  0.752742  1
  Li  Li2  1  0.838455  0.508829  0.248233  1
  Li  Li3  1  0.337645  0.989499  0.251064  1
  Dy  Dy4  1  0.830564  0.659834  0.628498  1
  Dy  Dy5  1  0.668982  0.159259  0.371937  1
  Dy  Dy6  1  0.169647  0.341589  0.126404  1
  Dy  Dy7  1  0.667135  0.159869  0.127600  1
  Dy  Dy8  1  0.167251  0.339798  0.371930  1
  Dy  Dy9  1  0.333143  0.839914  0.628518  1
  Dy  Dy10  1  0.831124  0.660045  0.872408  1
  Dy  Dy11  1  0.504237  0.310116  0.909222  1
  Dy  Dy12  1  0.004556  0.189335  0.592595  1
  Dy  Dy13  1  0.495863  0.689717  0.408949  1
  Dy  Dy14  1  0.995508  0.809601  0.090803  1
  Dy  Dy15  1  0.495715  0.690050  0.090163  1
  Dy  Dy16  1  0.996227  0.809464  0.408239  1
  Dy  Dy17  1  0.503907  0.309333  0.591848  1
  Dy  Dy18  1  0.004852  0.191055  0.907964  1
  Er  Er19  1  0.332556  0.842840  0.871981  1
  Pb  Pb20  1  0.311584  0.038407  0.042654  1
  Pb  Pb21  1  0.812330  0.460648  0.457096  1
  Pb  Pb22  1  0.688449  0.960985  0.543431  1
  Pb  Pb23  1  0.189293  0.541527  0.954640  1
  Pb  Pb24  1  0.686453  0.962117  0.955783  1
  Pb  Pb25  1  0.187133  0.538521  0.543857  1
  Pb  Pb26  1  0.312026  0.038873  0.457060  1
  Pb  Pb27  1  0.812995  0.461033  0.043113  1
  Pb  Pb28  1  0.509947  0.596068  0.751309  1
  Pb  Pb29  1  0.014582  0.901860  0.751012  1
  Pb  Pb30  1  0.487656  0.403923  0.250230  1
  Pb  Pb31  1  0.988080  0.096020  0.248583  1
  Pb  Pb32  1  0.305669  0.160386  0.750539  1
  Pb  Pb33  1  0.803113  0.340439  0.750422  1
  Pb  Pb34  1  0.694935  0.839359  0.249587  1
  Pb  Pb35  1  0.195164  0.659702  0.249607  1
