# generated using pymatgen
data_Tm4Al6TcRh
_symmetry_space_group_name_H-M   'P 1'
_cell_length_a   5.46481300
_cell_length_b   5.46481285
_cell_length_c   8.81885700
_cell_angle_alpha   90.00000000
_cell_angle_beta   90.00000000
_cell_angle_gamma   119.99999486
_symmetry_Int_Tables_number   1
_chemical_formula_structural   Tm4Al6TcRh
_chemical_formula_sum   'Tm4 Al6 Tc1 Rh1'
_cell_volume   228.08333452
_cell_formula_units_Z   1
loop_
 _symmetry_equiv_pos_site_id
 _symmetry_equiv_pos_as_xyz
  1  'x, y, z'
loop_
 _atom_site_type_symbol
 _atom_site_label
 _atom_site_symmetry_multiplicity
 _atom_site_fract_x
 _atom_site_fract_y
 _atom_site_fract_z
 _atom_site_occupancy
  Tm  Tm0  1  0.666665  0.333333  0.056318  1
  Tm  Tm1  1  0.666665  0.333333  0.446529  1
  Tm  Tm2  1  0.333334  0.666667  0.553472  1
  Tm  Tm3  1  0.333334  0.666667  0.943682  1
  Al  Al4  1  0.163686  0.327371  0.251892  1
  Al  Al5  1  0.163687  0.836314  0.251892  1
  Al  Al6  1  0.672628  0.836314  0.251892  1
  Al  Al7  1  0.327371  0.163686  0.748108  1
  Al  Al8  1  0.836314  0.163686  0.748108  1
  Al  Al9  1  0.836313  0.672629  0.748108  1
  Tc  Tc10  1  0.000000  0.000000  0.000000  1
  Rh  Rh11  1  0.000000  0.000000  0.500001  1
