# generated using pymatgen
data_Ac7Tb12SmPb16
_symmetry_space_group_name_H-M   'P 1'
_cell_length_a   8.36042832
_cell_length_b   8.43168241
_cell_length_c   16.02063100
_cell_angle_alpha   90.01031526
_cell_angle_beta   90.13531678
_cell_angle_gamma   90.35763379
_symmetry_Int_Tables_number   1
_chemical_formula_structural   Ac7Tb12SmPb16
_chemical_formula_sum   'Ac7 Tb12 Sm1 Pb16'
_cell_volume   1129.30878178
_cell_formula_units_Z   1
loop_
 _symmetry_equiv_pos_site_id
 _symmetry_equiv_pos_as_xyz
  1  'x, y, z'
loop_
 _atom_site_type_symbol
 _atom_site_label
 _atom_site_symmetry_multiplicity
 _atom_site_fract_x
 _atom_site_fract_y
 _atom_site_fract_z
 _atom_site_occupancy
  Ac  Ac0  1  0.515564  0.323368  0.904385  1
  Ac  Ac1  1  0.014294  0.174718  0.594821  1
  Ac  Ac2  1  0.484838  0.674572  0.404956  1
  Ac  Ac3  1  0.983551  0.825667  0.093314  1
  Ac  Ac4  1  0.486707  0.676571  0.093021  1
  Ac  Ac5  1  0.984841  0.824441  0.405698  1
  Ac  Ac6  1  0.516136  0.323941  0.597803  1
  Tb  Tb7  1  0.355716  0.842324  0.878118  1
  Tb  Tb8  1  0.855232  0.658083  0.626444  1
  Tb  Tb9  1  0.644723  0.159263  0.376794  1
  Tb  Tb10  1  0.143677  0.340302  0.123107  1
  Tb  Tb11  1  0.642394  0.157654  0.121277  1
  Tb  Tb12  1  0.145757  0.341414  0.375637  1
  Tb  Tb13  1  0.353968  0.841325  0.624387  1
  Tb  Tb14  1  0.854746  0.659480  0.876170  1
  Tb  Tb15  1  0.190781  0.503880  0.751592  1
  Tb  Tb16  1  0.691717  0.997917  0.751691  1
  Tb  Tb17  1  0.808272  0.495242  0.249368  1
  Tb  Tb18  1  0.307259  0.002779  0.248908  1
  Sm  Sm19  1  0.019821  0.177110  0.902390  1
  Pb  Pb20  1  0.300142  0.049160  0.040830  1
  Pb  Pb21  1  0.809404  0.454894  0.456587  1
  Pb  Pb22  1  0.689941  0.952288  0.545085  1
  Pb  Pb23  1  0.188288  0.538770  0.954909  1
  Pb  Pb24  1  0.702010  0.962481  0.953084  1
  Pb  Pb25  1  0.190543  0.544873  0.544997  1
  Pb  Pb26  1  0.309565  0.046544  0.455611  1
  Pb  Pb27  1  0.811765  0.451826  0.042197  1
  Pb  Pb28  1  0.551194  0.633863  0.750974  1
  Pb  Pb29  1  0.051372  0.869168  0.752158  1
  Pb  Pb30  1  0.448392  0.365338  0.248749  1
  Pb  Pb31  1  0.947190  0.133988  0.249806  1
  Pb  Pb32  1  0.320071  0.142822  0.751962  1
  Pb  Pb33  1  0.831791  0.351428  0.754248  1
  Pb  Pb34  1  0.674289  0.858055  0.249521  1
  Pb  Pb35  1  0.174052  0.644450  0.249407  1
