# generated using pymatgen
data_Tm3LuTc4F28
_symmetry_space_group_name_H-M   'P 1'
_cell_length_a   5.52334033
_cell_length_b   8.80456105
_cell_length_c   11.90472508
_cell_angle_alpha   62.67101434
_cell_angle_beta   89.96871867
_cell_angle_gamma   90.00700413
_symmetry_Int_Tables_number   1
_chemical_formula_structural   Tm3LuTc4F28
_chemical_formula_sum   'Tm3 Lu1 Tc4 F28'
_cell_volume   514.31600762
_cell_formula_units_Z   1
loop_
 _symmetry_equiv_pos_site_id
 _symmetry_equiv_pos_as_xyz
  1  'x, y, z'
loop_
 _atom_site_type_symbol
 _atom_site_label
 _atom_site_symmetry_multiplicity
 _atom_site_fract_x
 _atom_site_fract_y
 _atom_site_fract_z
 _atom_site_occupancy
  Tm  Tm0  1  0.258281  0.814726  0.264350  1
  Tm  Tm1  1  0.742125  0.183711  0.735774  1
  Tm  Tm2  1  0.758279  0.184962  0.235633  1
  Lu  Lu3  1  0.241483  0.814757  0.764210  1
  Tc  Tc4  1  0.758905  0.726750  0.042383  1
  Tc  Tc5  1  0.241371  0.274239  0.956335  1
  Tc  Tc6  1  0.258350  0.272772  0.457237  1
  Tc  Tc7  1  0.740809  0.726767  0.544087  1
  F  F8  1  0.946296  0.707464  0.417395  1
  F  F9  1  0.053270  0.292260  0.584129  1
  F  F10  1  0.446025  0.293123  0.083402  1
  F  F11  1  0.552923  0.707588  0.916015  1
  F  F12  1  0.473667  0.729483  0.140006  1
  F  F13  1  0.526700  0.270463  0.859029  1
  F  F14  1  0.972565  0.270399  0.359905  1
  F  F15  1  0.025641  0.730238  0.641774  1
  F  F16  1  0.958238  0.746193  0.172852  1
  F  F17  1  0.042206  0.254334  0.825927  1
  F  F18  1  0.457491  0.253598  0.326527  1
  F  F19  1  0.540078  0.747127  0.673871  1
  F  F20  1  0.774405  0.476749  0.141194  1
  F  F21  1  0.226769  0.524596  0.857850  1
  F  F22  1  0.273596  0.523093  0.358594  1
  F  F23  1  0.726085  0.476565  0.642280  1
  F  F24  1  0.943603  0.277117  0.047265  1
  F  F25  1  0.056228  0.724374  0.950881  1
  F  F26  1  0.444442  0.723310  0.452829  1
  F  F27  1  0.555972  0.276031  0.548058  1
  F  F28  1  0.741160  0.975725  0.445933  1
  F  F29  1  0.258398  0.023971  0.555107  1
  F  F30  1  0.241475  0.025327  0.054108  1
  F  F31  1  0.758267  0.976001  0.944985  1
  F  F32  1  0.580869  0.970891  0.231724  1
  F  F33  1  0.420494  0.025992  0.767906  1
  F  F34  1  0.080636  0.028946  0.268240  1
  F  F35  1  0.922899  0.970359  0.732203  1
