# generated using pymatgen
data_NaPr6AuBr12
_symmetry_space_group_name_H-M   'P 1'
_cell_length_a   9.69719646
_cell_length_b   9.69758391
_cell_length_c   9.69758012
_cell_angle_alpha   107.30117313
_cell_angle_beta   107.29230488
_cell_angle_gamma   107.29236220
_symmetry_Int_Tables_number   1
_chemical_formula_structural   NaPr6AuBr12
_chemical_formula_sum   'Na1 Pr6 Au1 Br12'
_cell_volume   753.28303554
_cell_formula_units_Z   1
loop_
 _symmetry_equiv_pos_site_id
 _symmetry_equiv_pos_as_xyz
  1  'x, y, z'
loop_
 _atom_site_type_symbol
 _atom_site_label
 _atom_site_symmetry_multiplicity
 _atom_site_fract_x
 _atom_site_fract_y
 _atom_site_fract_z
 _atom_site_occupancy
  Na  Na0  1  0.500000  0.500000  0.500000  1
  Pr  Pr1  1  0.117679  0.328619  0.032942  1
  Pr  Pr2  1  0.328607  0.032925  0.117681  1
  Pr  Pr3  1  0.032932  0.117676  0.328615  1
  Pr  Pr4  1  0.967069  0.882324  0.671386  1
  Pr  Pr5  1  0.671393  0.967076  0.882319  1
  Pr  Pr6  1  0.882321  0.671381  0.967058  1
  Au  Au7  1  0.000000  0.000000  0.000000  1
  Br  Br8  1  0.214032  0.685807  0.072418  1
  Br  Br9  1  0.454576  0.372241  0.158317  1
  Br  Br10  1  0.685798  0.072407  0.214002  1
  Br  Br11  1  0.927560  0.785977  0.314191  1
  Br  Br12  1  0.158335  0.454575  0.372260  1
  Br  Br13  1  0.372265  0.158344  0.454604  1
  Br  Br14  1  0.627735  0.841656  0.545397  1
  Br  Br15  1  0.841666  0.545425  0.627740  1
  Br  Br16  1  0.072441  0.214023  0.685810  1
  Br  Br17  1  0.314203  0.927594  0.785998  1
  Br  Br18  1  0.545424  0.627759  0.841684  1
  Br  Br19  1  0.785968  0.314193  0.927582  1
