# generated using pymatgen
data_Nd4Si10OsPt5
_symmetry_space_group_name_H-M   'P 1'
_cell_length_a   8.28577812
_cell_length_b   8.28577693
_cell_length_c   8.28575694
_cell_angle_alpha   137.32488276
_cell_angle_beta   105.01687938
_cell_angle_gamma   90.32599852
_symmetry_Int_Tables_number   1
_chemical_formula_structural   Nd4Si10OsPt5
_chemical_formula_sum   'Nd4 Si10 Os1 Pt5'
_cell_volume   355.30801870
_cell_formula_units_Z   1
loop_
 _symmetry_equiv_pos_site_id
 _symmetry_equiv_pos_as_xyz
  1  'x, y, z'
loop_
 _atom_site_type_symbol
 _atom_site_label
 _atom_site_symmetry_multiplicity
 _atom_site_fract_x
 _atom_site_fract_y
 _atom_site_fract_z
 _atom_site_occupancy
  Nd  Nd0  1  0.637812  0.870259  0.767412  1
  Nd  Nd1  1  0.362188  0.129601  0.232447  1
  Nd  Nd2  1  0.102847  0.370400  0.732589  1
  Nd  Nd3  1  0.897153  0.629741  0.267553  1
  Si  Si4  1  0.276005  0.026004  0.750000  1
  Si  Si5  1  0.729397  0.979397  0.250000  1
  Si  Si6  1  0.723996  0.473996  0.750000  1
  Si  Si7  1  0.270604  0.520604  0.250000  1
  Si  Si8  1  0.457850  0.602624  0.843589  1
  Si  Si9  1  0.542150  0.385740  0.144774  1
  Si  Si10  1  0.759035  0.114261  0.656411  1
  Si  Si11  1  0.240965  0.897375  0.355225  1
  Si  Si12  1  0.000000  0.750000  0.750000  1
  Si  Si13  1  0.000000  0.250000  0.250000  1
  Os  Os14  1  0.500000  0.250000  0.750000  1
  Pt  Pt15  1  0.248155  0.639113  0.613010  1
  Pt  Pt16  1  0.751844  0.364855  0.390958  1
  Pt  Pt17  1  0.026103  0.135146  0.886990  1
  Pt  Pt18  1  0.973897  0.860887  0.109043  1
  Pt  Pt19  1  0.499999  0.749999  0.249999  1
