# generated using pymatgen
data_Rb8La3PrF20
_symmetry_space_group_name_H-M   'P 1'
_cell_length_a   7.05482469
_cell_length_b   7.86069132
_cell_length_c   11.65059614
_cell_angle_alpha   90.04433143
_cell_angle_beta   90.10051422
_cell_angle_gamma   90.03435216
_symmetry_Int_Tables_number   1
_chemical_formula_structural   Rb8La3PrF20
_chemical_formula_sum   'Rb8 La3 Pr1 F20'
_cell_volume   646.09181551
_cell_formula_units_Z   1
loop_
 _symmetry_equiv_pos_site_id
 _symmetry_equiv_pos_as_xyz
  1  'x, y, z'
loop_
 _atom_site_type_symbol
 _atom_site_label
 _atom_site_symmetry_multiplicity
 _atom_site_fract_x
 _atom_site_fract_y
 _atom_site_fract_z
 _atom_site_occupancy
  Rb  Rb0  1  0.531018  0.022450  0.171405  1
  Rb  Rb1  1  0.468825  0.521954  0.828385  1
  Rb  Rb2  1  0.969866  0.023010  0.670614  1
  Rb  Rb3  1  0.031148  0.521726  0.329421  1
  Rb  Rb4  1  0.030590  0.016590  0.329320  1
  Rb  Rb5  1  0.970596  0.515291  0.670689  1
  Rb  Rb6  1  0.469469  0.016308  0.828518  1
  Rb  Rb7  1  0.530420  0.515859  0.171451  1
  La  La8  1  0.560381  0.768151  0.498324  1
  La  La9  1  0.061159  0.268401  0.002105  1
  La  La10  1  0.938589  0.768345  0.998082  1
  Pr  Pr11  1  0.439030  0.268040  0.501439  1
  F  F12  1  0.145354  0.986933  0.076719  1
  F  F13  1  0.854439  0.486545  0.923262  1
  F  F14  1  0.354936  0.988618  0.575147  1
  F  F15  1  0.644384  0.484124  0.424482  1
  F  F16  1  0.392526  0.269436  0.012179  1
  F  F17  1  0.607455  0.769441  0.988086  1
  F  F18  1  0.111146  0.269338  0.512580  1
  F  F19  1  0.890689  0.769473  0.487760  1
  F  F20  1  0.143392  0.549670  0.078086  1
  F  F21  1  0.856451  0.049371  0.921877  1
  F  F22  1  0.357226  0.547097  0.576734  1
  F  F23  1  0.642607  0.051703  0.423059  1
  F  F24  1  0.339953  0.268398  0.309582  1
  F  F25  1  0.660412  0.768776  0.691395  1
  F  F26  1  0.160192  0.268736  0.809197  1
  F  F27  1  0.839370  0.768662  0.191214  1
  F  F28  1  0.369318  0.766311  0.333819  1
  F  F29  1  0.628904  0.266572  0.664977  1
  F  F30  1  0.130914  0.766364  0.834136  1
  F  F31  1  0.869237  0.266316  0.165955  1
