# generated using pymatgen
data_Nd16Mg3CdOs3Pd
_symmetry_space_group_name_H-M   'P 1'
_cell_length_a   9.93194854
_cell_length_b   10.10091491
_cell_length_c   10.10091500
_cell_angle_alpha   60.00000300
_cell_angle_beta   59.43562313
_cell_angle_gamma   59.43562953
_symmetry_Int_Tables_number   1
_chemical_formula_structural   Nd16Mg3CdOs3Pd
_chemical_formula_sum   'Nd16 Mg3 Cd1 Os3 Pd1'
_cell_volume   710.36734939
_cell_formula_units_Z   1
loop_
 _symmetry_equiv_pos_site_id
 _symmetry_equiv_pos_as_xyz
  1  'x, y, z'
loop_
 _atom_site_type_symbol
 _atom_site_label
 _atom_site_symmetry_multiplicity
 _atom_site_fract_x
 _atom_site_fract_y
 _atom_site_fract_z
 _atom_site_occupancy
  Nd  Nd0  1  0.341127  0.349193  0.349193  1
  Nd  Nd1  1  0.341127  0.349193  0.960488  1
  Nd  Nd2  1  0.341127  0.960488  0.349193  1
  Nd  Nd3  1  0.973476  0.342174  0.342174  1
  Nd  Nd4  1  0.817666  0.188649  0.188649  1
  Nd  Nd5  1  0.187541  0.811303  0.811303  1
  Nd  Nd6  1  0.187541  0.811303  0.189853  1
  Nd  Nd7  1  0.817666  0.188649  0.805035  1
  Nd  Nd8  1  0.187541  0.189853  0.811303  1
  Nd  Nd9  1  0.817666  0.805035  0.188649  1
  Nd  Nd10  1  0.937600  0.562211  0.562211  1
  Nd  Nd11  1  0.556579  0.938439  0.938439  1
  Nd  Nd12  1  0.556579  0.938439  0.566543  1
  Nd  Nd13  1  0.937600  0.562211  0.937979  1
  Nd  Nd14  1  0.556579  0.566543  0.938439  1
  Nd  Nd15  1  0.937600  0.937979  0.562211  1
  Mg  Mg16  1  0.576436  0.578172  0.578172  1
  Mg  Mg17  1  0.576436  0.578172  0.267222  1
  Mg  Mg18  1  0.576436  0.267222  0.578172  1
  Cd  Cd19  1  0.259327  0.580225  0.580225  1
  Os  Os20  1  0.145908  0.136921  0.136921  1
  Os  Os21  1  0.145908  0.136921  0.580250  1
  Os  Os22  1  0.145908  0.580250  0.136921  1
  Pd  Pd23  1  0.578631  0.140456  0.140456  1
