# generated using pymatgen
data_BaDy3(ZnSn)4
_symmetry_space_group_name_H-M   'P 1'
_cell_length_a   4.55905400
_cell_length_b   4.55905350
_cell_length_c   16.90031700
_cell_angle_alpha   90.00000000
_cell_angle_beta   90.00000000
_cell_angle_gamma   120.00000365
_symmetry_Int_Tables_number   1
_chemical_formula_structural   BaDy3(ZnSn)4
_chemical_formula_sum   'Ba1 Dy3 Zn4 Sn4'
_cell_volume   304.21098414
_cell_formula_units_Z   1
loop_
 _symmetry_equiv_pos_site_id
 _symmetry_equiv_pos_as_xyz
  1  'x, y, z'
loop_
 _atom_site_type_symbol
 _atom_site_label
 _atom_site_symmetry_multiplicity
 _atom_site_fract_x
 _atom_site_fract_y
 _atom_site_fract_z
 _atom_site_occupancy
  Ba  Ba0  1  0.000000  0.000000  0.000000  1
  Dy  Dy1  1  0.000000  0.000000  0.265269  1
  Dy  Dy2  1  0.000000  0.000000  0.734731  1
  Dy  Dy3  1  0.000000  0.000000  0.500000  1
  Zn  Zn4  1  0.333333  0.666667  0.182426  1
  Zn  Zn5  1  0.666667  0.333333  0.817574  1
  Zn  Zn6  1  0.666667  0.333333  0.651694  1
  Zn  Zn7  1  0.333333  0.666667  0.348306  1
  Sn  Sn8  1  0.333333  0.666667  0.604746  1
  Sn  Sn9  1  0.666667  0.333333  0.395254  1
  Sn  Sn10  1  0.666667  0.333333  0.140851  1
  Sn  Sn11  1  0.333333  0.666667  0.859149  1
