# generated using pymatgen
data_Tb3In3AgIrRh
_symmetry_space_group_name_H-M   'P 1'
_cell_length_a   7.81853200
_cell_length_b   7.81853221
_cell_length_c   3.81795900
_cell_angle_alpha   90.00000000
_cell_angle_beta   90.00000000
_cell_angle_gamma   120.00000756
_symmetry_Int_Tables_number   1
_chemical_formula_structural   Tb3In3AgIrRh
_chemical_formula_sum   'Tb3 In3 Ag1 Ir1 Rh1'
_cell_volume   202.12140418
_cell_formula_units_Z   1
loop_
 _symmetry_equiv_pos_site_id
 _symmetry_equiv_pos_as_xyz
  1  'x, y, z'
loop_
 _atom_site_type_symbol
 _atom_site_label
 _atom_site_symmetry_multiplicity
 _atom_site_fract_x
 _atom_site_fract_y
 _atom_site_fract_z
 _atom_site_occupancy
  Tb  Tb0  1  0.970786  0.583893  0.500000  1
  Tb  Tb1  1  0.416107  0.386893  0.500000  1
  Tb  Tb2  1  0.613107  0.029214  0.500000  1
  In  In3  1  0.739916  0.744579  0.000000  1
  In  In4  1  0.004663  0.260084  0.000000  1
  In  In5  1  0.255421  0.995337  0.000000  1
  Ag  Ag6  1  0.333333  0.666667  0.000000  1
  Ir  Ir7  1  0.666667  0.333333  0.000000  1
  Rh  Rh8  1  0.000000  0.000000  0.500000  1
