# generated using pymatgen
data_Sc6TiNb(V3Si4)4
_symmetry_space_group_name_H-M   'P 1'
_cell_length_a   6.59338046
_cell_length_b   6.59512719
_cell_length_c   12.19204531
_cell_angle_alpha   90.04674149
_cell_angle_beta   89.83759469
_cell_angle_gamma   89.99151925
_symmetry_Int_Tables_number   1
_chemical_formula_structural   Sc6TiNb(V3Si4)4
_chemical_formula_sum   'Sc6 Ti1 Nb1 V12 Si16'
_cell_volume   530.15881370
_cell_formula_units_Z   1
loop_
 _symmetry_equiv_pos_site_id
 _symmetry_equiv_pos_as_xyz
  1  'x, y, z'
loop_
 _atom_site_type_symbol
 _atom_site_label
 _atom_site_symmetry_multiplicity
 _atom_site_fract_x
 _atom_site_fract_y
 _atom_site_fract_z
 _atom_site_occupancy
  Sc  Sc0  1  0.162822  0.498069  0.779546  1
  Sc  Sc1  1  0.502163  0.837107  0.720783  1
  Sc  Sc2  1  0.501004  0.164861  0.220305  1
  Sc  Sc3  1  0.999161  0.337265  0.529221  1
  Sc  Sc4  1  0.664462  0.000678  0.971609  1
  Sc  Sc5  1  0.338724  0.998962  0.469274  1
  Ti  Ti6  1  0.007563  0.657693  0.030384  1
  Nb  Nb7  1  0.841007  0.507190  0.280669  1
  V  V8  1  0.330150  0.336629  0.000932  1
  V  V9  1  0.163254  0.829320  0.248466  1
  V  V10  1  0.833454  0.167259  0.751427  1
  V  V11  1  0.669333  0.667450  0.498957  1
  V  V12  1  0.002616  0.156957  0.126835  1
  V  V13  1  0.342596  0.504004  0.374099  1
  V  V14  1  0.655858  0.495683  0.878836  1
  V  V15  1  0.508399  0.343038  0.622951  1
  V  V16  1  0.490733  0.656157  0.123801  1
  V  V17  1  0.993501  0.842021  0.626710  1
  V  V18  1  0.153189  0.007223  0.874942  1
  V  V19  1  0.841469  0.990363  0.370935  1
  Si  Si20  1  0.291131  0.960317  0.064803  1
  Si  Si21  1  0.539074  0.793292  0.313639  1
  Si  Si22  1  0.461175  0.206020  0.815295  1
  Si  Si23  1  0.794709  0.538717  0.686065  1
  Si  Si24  1  0.202145  0.459362  0.184013  1
  Si  Si25  1  0.706713  0.039376  0.564371  1
  Si  Si26  1  0.959875  0.299391  0.936320  1
  Si  Si27  1  0.041238  0.706560  0.435362  1
  Si  Si28  1  0.708481  0.375013  0.073464  1
  Si  Si29  1  0.126568  0.205633  0.320315  1
  Si  Si30  1  0.870860  0.793337  0.823333  1
  Si  Si31  1  0.204489  0.129142  0.679847  1
  Si  Si32  1  0.796189  0.864381  0.175660  1
  Si  Si33  1  0.297770  0.629047  0.569628  1
  Si  Si34  1  0.366107  0.705863  0.930014  1
  Si  Si35  1  0.632018  0.296621  0.427188  1
