# generated using pymatgen
data_Tb5Er7Tc3Pt
_symmetry_space_group_name_H-M   'P 1'
_cell_length_a   6.28506434
_cell_length_b   7.38276542
_cell_length_c   9.13802347
_cell_angle_alpha   89.93802925
_cell_angle_beta   90.14322933
_cell_angle_gamma   90.00717784
_symmetry_Int_Tables_number   1
_chemical_formula_structural   Tb5Er7Tc3Pt
_chemical_formula_sum   'Tb5 Er7 Tc3 Pt1'
_cell_volume   424.01327327
_cell_formula_units_Z   1
loop_
 _symmetry_equiv_pos_site_id
 _symmetry_equiv_pos_as_xyz
  1  'x, y, z'
loop_
 _atom_site_type_symbol
 _atom_site_label
 _atom_site_symmetry_multiplicity
 _atom_site_fract_x
 _atom_site_fract_y
 _atom_site_fract_z
 _atom_site_occupancy
  Tb  Tb0  1  0.328432  0.676325  0.067051  1
  Tb  Tb1  1  0.873959  0.541703  0.250766  1
  Tb  Tb2  1  0.622694  0.038798  0.250507  1
  Tb  Tb3  1  0.126618  0.455719  0.749243  1
  Tb  Tb4  1  0.372217  0.965950  0.749555  1
  Er  Er5  1  0.164373  0.178405  0.435981  1
  Er  Er6  1  0.667354  0.318722  0.558960  1
  Er  Er7  1  0.837338  0.827572  0.938777  1
  Er  Er8  1  0.668193  0.318081  0.940391  1
  Er  Er9  1  0.837791  0.827130  0.560668  1
  Er  Er10  1  0.328489  0.676122  0.433871  1
  Er  Er11  1  0.164311  0.178140  0.064052  1
  Tc  Tc12  1  0.038466  0.886415  0.250662  1
  Tc  Tc13  1  0.463182  0.386257  0.250631  1
  Tc  Tc14  1  0.956243  0.113182  0.750121  1
  Pt  Pt15  1  0.550340  0.611481  0.748764  1
