# generated using pymatgen
data_Ac(YbSb)3
_symmetry_space_group_name_H-M   'P 1'
_cell_length_a   8.35349826
_cell_length_b   8.37965157
_cell_length_c   8.37777901
_cell_angle_alpha   109.54891575
_cell_angle_beta   109.42256128
_cell_angle_gamma   109.38794471
_symmetry_Int_Tables_number   1
_chemical_formula_structural   Ac(YbSb)3
_chemical_formula_sum   'Ac2 Yb6 Sb6'
_cell_volume   451.74257110
_cell_formula_units_Z   2
loop_
 _symmetry_equiv_pos_site_id
 _symmetry_equiv_pos_as_xyz
  1  'x, y, z'
loop_
 _atom_site_type_symbol
 _atom_site_label
 _atom_site_symmetry_multiplicity
 _atom_site_fract_x
 _atom_site_fract_y
 _atom_site_fract_z
 _atom_site_occupancy
  Ac  Ac0  1  0.500002  0.999019  0.354218  1
  Ac  Ac1  1  0.645784  0.644801  0.645782  1
  Yb  Yb2  1  0.006164  0.359270  0.502940  1
  Yb  Yb3  1  0.352684  0.494158  0.995683  1
  Yb  Yb4  1  0.003223  0.856330  0.497060  1
  Yb  Yb5  1  0.857002  0.498476  0.004317  1
  Yb  Yb6  1  0.498153  0.004917  0.859242  1
  Yb  Yb7  1  0.138911  0.145674  0.140758  1
  Sb  Sb8  1  0.884173  0.131063  0.756323  1
  Sb  Sb9  1  0.368845  0.248632  0.630243  1
  Sb  Sb10  1  0.125441  0.748403  0.872275  1
  Sb  Sb11  1  0.753166  0.876129  0.127725  1
  Sb  Sb12  1  0.238602  0.618389  0.369757  1
  Sb  Sb13  1  0.627850  0.374740  0.243677  1
