# generated using pymatgen
data_Pu6MnVSb10
_symmetry_space_group_name_H-M   'P 1'
_cell_length_a   9.02769600
_cell_length_b   9.02769594
_cell_length_c   6.08321100
_cell_angle_alpha   90.00000000
_cell_angle_beta   90.00000000
_cell_angle_gamma   120.00000023
_symmetry_Int_Tables_number   1
_chemical_formula_structural   Pu6MnVSb10
_chemical_formula_sum   'Pu6 Mn1 V1 Sb10'
_cell_volume   429.35582612
_cell_formula_units_Z   1
loop_
 _symmetry_equiv_pos_site_id
 _symmetry_equiv_pos_as_xyz
  1  'x, y, z'
loop_
 _atom_site_type_symbol
 _atom_site_label
 _atom_site_symmetry_multiplicity
 _atom_site_fract_x
 _atom_site_fract_y
 _atom_site_fract_z
 _atom_site_occupancy
  Pu  Pu0  1  0.387288  0.000000  0.746244  1
  Pu  Pu1  1  0.387288  0.387288  0.253756  1
  Pu  Pu2  1  0.000000  0.612712  0.253756  1
  Pu  Pu3  1  0.000000  0.387288  0.746244  1
  Pu  Pu4  1  0.612712  0.612712  0.746244  1
  Pu  Pu5  1  0.612712  0.000000  0.253756  1
  Mn  Mn6  1  0.000000  0.000000  0.500000  1
  V  V7  1  0.000000  0.000000  0.000000  1
  Sb  Sb8  1  0.666667  0.333333  0.500000  1
  Sb  Sb9  1  0.333333  0.666667  0.000000  1
  Sb  Sb10  1  0.743284  0.000000  0.751557  1
  Sb  Sb11  1  0.743284  0.743284  0.248443  1
  Sb  Sb12  1  0.333333  0.666667  0.500000  1
  Sb  Sb13  1  0.666667  0.333333  0.000000  1
  Sb  Sb14  1  0.256716  0.000000  0.248443  1
  Sb  Sb15  1  0.256716  0.256716  0.751557  1
  Sb  Sb16  1  0.000000  0.743284  0.751557  1
  Sb  Sb17  1  0.000000  0.256716  0.248443  1
