# generated using pymatgen
data_KTe7W6
_symmetry_space_group_name_H-M   'P 1'
_cell_length_a   10.41998246
_cell_length_b   10.41998132
_cell_length_c   10.41998214
_cell_angle_alpha   59.95151903
_cell_angle_beta   59.95152088
_cell_angle_gamma   59.95151910
_symmetry_Int_Tables_number   1
_chemical_formula_structural   KTe7W6
_chemical_formula_sum   'K2 Te14 W12'
_cell_volume   799.11288607
_cell_formula_units_Z   2
loop_
 _symmetry_equiv_pos_site_id
 _symmetry_equiv_pos_as_xyz
  1  'x, y, z'
loop_
 _atom_site_type_symbol
 _atom_site_label
 _atom_site_symmetry_multiplicity
 _atom_site_fract_x
 _atom_site_fract_y
 _atom_site_fract_z
 _atom_site_occupancy
  K  K0  1  0.620204  0.620204  0.620204  1
  K  K1  1  0.379797  0.379797  0.379797  1
  Te  Te2  1  0.428340  0.796041  0.166579  1
  Te  Te3  1  0.166579  0.428340  0.796041  1
  Te  Te4  1  0.796041  0.166579  0.428340  1
  Te  Te5  1  0.571660  0.203959  0.833421  1
  Te  Te6  1  0.833421  0.571660  0.203959  1
  Te  Te7  1  0.203959  0.833421  0.571660  1
  Te  Te8  1  0.626255  0.977489  0.255149  1
  Te  Te9  1  0.255149  0.626255  0.977489  1
  Te  Te10  1  0.977489  0.255149  0.626255  1
  Te  Te11  1  0.373745  0.022511  0.744851  1
  Te  Te12  1  0.744851  0.373745  0.022511  1
  Te  Te13  1  0.022511  0.744851  0.373745  1
  Te  Te14  1  0.774105  0.774105  0.774105  1
  Te  Te15  1  0.225895  0.225895  0.225895  1
  W  W16  1  0.709626  0.881841  0.001346  1
  W  W17  1  0.001346  0.709626  0.881841  1
  W  W18  1  0.881841  0.001346  0.709626  1
  W  W19  1  0.290374  0.118159  0.998654  1
  W  W20  1  0.998654  0.290374  0.118159  1
  W  W21  1  0.118159  0.998654  0.290374  1
  W  W22  1  0.945045  0.811746  0.110234  1
  W  W23  1  0.110234  0.945045  0.811746  1
  W  W24  1  0.811746  0.110234  0.945045  1
  W  W25  1  0.054955  0.188254  0.889766  1
  W  W26  1  0.889766  0.054955  0.188254  1
  W  W27  1  0.188254  0.889766  0.054955  1
