# generated using pymatgen
data_Ca10In2Cu3Ir
_symmetry_space_group_name_H-M   'P 1'
_cell_length_a   9.19886608
_cell_length_b   9.19886589
_cell_length_c   9.21640387
_cell_angle_alpha   129.21705732
_cell_angle_beta   129.21705761
_cell_angle_gamma   74.51829746
_symmetry_Int_Tables_number   1
_chemical_formula_structural   Ca10In2Cu3Ir
_chemical_formula_sum   'Ca10 In2 Cu3 Ir1'
_cell_volume   456.51884101
_cell_formula_units_Z   1
loop_
 _symmetry_equiv_pos_site_id
 _symmetry_equiv_pos_as_xyz
  1  'x, y, z'
loop_
 _atom_site_type_symbol
 _atom_site_label
 _atom_site_symmetry_multiplicity
 _atom_site_fract_x
 _atom_site_fract_y
 _atom_site_fract_z
 _atom_site_occupancy
  Ca  Ca0  1  0.533746  0.022910  0.832254  1
  Ca  Ca1  1  0.201493  0.690656  0.167746  1
  Ca  Ca2  1  0.030855  0.190330  0.500000  1
  Ca  Ca3  1  0.682700  0.546676  0.500000  1
  Ca  Ca4  1  0.477090  0.966254  0.167746  1
  Ca  Ca5  1  0.809344  0.298507  0.832254  1
  Ca  Ca6  1  0.953324  0.817300  0.500000  1
  Ca  Ca7  1  0.309670  0.469145  0.500000  1
  Ca  Ca8  1  0.502953  0.506815  0.009769  1
  Ca  Ca9  1  0.993185  0.997047  0.990231  1
  In  In10  1  0.254392  0.245608  0.000000  1
  In  In11  1  0.754392  0.745608  0.000000  1
  Cu  Cu12  1  0.383722  0.116278  0.500000  1
  Cu  Cu13  1  0.111282  0.611584  0.722866  1
  Cu  Cu14  1  0.888416  0.388718  0.277134  1
  Ir  Ir15  1  0.613437  0.886563  0.500000  1
