# generated using pymatgen
data_Dy8Ta9Nb3Si16
_symmetry_space_group_name_H-M   'P 1'
_cell_length_a   7.04784485
_cell_length_b   7.04722703
_cell_length_c   13.00661111
_cell_angle_alpha   90.00304483
_cell_angle_beta   89.97176508
_cell_angle_gamma   90.01019271
_symmetry_Int_Tables_number   1
_chemical_formula_structural   Dy8Ta9Nb3Si16
_chemical_formula_sum   'Dy8 Ta9 Nb3 Si16'
_cell_volume   646.00918443
_cell_formula_units_Z   1
loop_
 _symmetry_equiv_pos_site_id
 _symmetry_equiv_pos_as_xyz
  1  'x, y, z'
loop_
 _atom_site_type_symbol
 _atom_site_label
 _atom_site_symmetry_multiplicity
 _atom_site_fract_x
 _atom_site_fract_y
 _atom_site_fract_z
 _atom_site_occupancy
  Dy  Dy0  1  0.997596  0.340870  0.218009  1
  Dy  Dy1  1  0.002228  0.659047  0.718053  1
  Dy  Dy2  1  0.159146  0.497481  0.468227  1
  Dy  Dy3  1  0.501367  0.840766  0.031824  1
  Dy  Dy4  1  0.840742  0.502506  0.968187  1
  Dy  Dy5  1  0.498498  0.159082  0.531921  1
  Dy  Dy6  1  0.341050  0.998274  0.781923  1
  Dy  Dy7  1  0.659068  0.001473  0.281937  1
  Ta  Ta8  1  0.170825  0.171388  0.999759  1
  Ta  Ta9  1  0.829530  0.828959  0.500145  1
  Ta  Ta10  1  0.329028  0.670523  0.249962  1
  Ta  Ta11  1  0.670748  0.329543  0.750250  1
  Ta  Ta12  1  0.154072  0.992095  0.376356  1
  Ta  Ta13  1  0.845855  0.007753  0.876379  1
  Ta  Ta14  1  0.507708  0.654349  0.626339  1
  Ta  Ta15  1  0.346190  0.493192  0.874090  1
  Ta  Ta16  1  0.491956  0.346236  0.125821  1
  Nb  Nb17  1  0.653779  0.506404  0.374085  1
  Nb  Nb18  1  0.993603  0.154025  0.623775  1
  Nb  Nb19  1  0.006428  0.846254  0.123377  1
  Si  Si20  1  0.293441  0.044613  0.186262  1
  Si  Si21  1  0.706426  0.955634  0.686320  1
  Si  Si22  1  0.455126  0.793192  0.436347  1
  Si  Si23  1  0.205797  0.544505  0.063871  1
  Si  Si24  1  0.544937  0.206451  0.936091  1
  Si  Si25  1  0.794196  0.455554  0.564102  1
  Si  Si26  1  0.044649  0.294505  0.813971  1
  Si  Si27  1  0.955691  0.705695  0.313908  1
  Si  Si28  1  0.366828  0.295326  0.317753  1
  Si  Si29  1  0.632924  0.704512  0.818234  1
  Si  Si30  1  0.204784  0.867075  0.567854  1
  Si  Si31  1  0.132784  0.795915  0.931344  1
  Si  Si32  1  0.795398  0.133167  0.067885  1
  Si  Si33  1  0.867389  0.203408  0.431726  1
  Si  Si34  1  0.296782  0.367767  0.682102  1
  Si  Si35  1  0.703431  0.632456  0.181808  1
