# generated using pymatgen
data_Nb6ZnGa4PdN2
_symmetry_space_group_name_H-M   'P 1'
_cell_length_a   8.33349668
_cell_length_b   8.32477546
_cell_length_c   8.33349620
_cell_angle_alpha   60.03460188
_cell_angle_beta   60.08861250
_cell_angle_gamma   60.03461170
_symmetry_Int_Tables_number   1
_chemical_formula_structural   Nb6ZnGa4PdN2
_chemical_formula_sum   'Nb12 Zn2 Ga8 Pd2 N4'
_cell_volume   409.28828596
_cell_formula_units_Z   2
loop_
 _symmetry_equiv_pos_site_id
 _symmetry_equiv_pos_as_xyz
  1  'x, y, z'
loop_
 _atom_site_type_symbol
 _atom_site_label
 _atom_site_symmetry_multiplicity
 _atom_site_fract_x
 _atom_site_fract_y
 _atom_site_fract_z
 _atom_site_occupancy
  Nb  Nb0  1  0.437404  0.434989  0.057732  1
  Nb  Nb1  1  0.071141  0.428859  0.071141  1
  Nb  Nb2  1  0.437404  0.069874  0.057732  1
  Nb  Nb3  1  0.057732  0.069874  0.437404  1
  Nb  Nb4  1  0.442949  0.057051  0.442949  1
  Nb  Nb5  1  0.057732  0.434989  0.437404  1
  Nb  Nb6  1  0.812596  0.815011  0.192268  1
  Nb  Nb7  1  0.178859  0.821141  0.178859  1
  Nb  Nb8  1  0.812596  0.180126  0.192268  1
  Nb  Nb9  1  0.192268  0.180126  0.812596  1
  Nb  Nb10  1  0.807051  0.192949  0.807051  1
  Nb  Nb11  1  0.192268  0.815011  0.812596  1
  Zn  Zn12  1  0.625000  0.125000  0.625000  1
  Zn  Zn13  1  0.625000  0.625000  0.625000  1
  Ga  Ga14  1  0.838954  0.834147  0.492754  1
  Ga  Ga15  1  0.840264  0.484504  0.840264  1
  Ga  Ga16  1  0.492754  0.834147  0.838954  1
  Ga  Ga17  1  0.840264  0.834970  0.840264  1
  Ga  Ga18  1  0.411046  0.415853  0.757246  1
  Ga  Ga19  1  0.409736  0.765496  0.409736  1
  Ga  Ga20  1  0.757246  0.415853  0.411046  1
  Ga  Ga21  1  0.409736  0.415030  0.409736  1
  Pd  Pd22  1  0.625000  0.625000  0.125000  1
  Pd  Pd23  1  0.125000  0.625000  0.625000  1
  N  N24  1  0.125000  0.125000  0.625000  1
  N  N25  1  0.125000  0.625000  0.125000  1
  N  N26  1  0.625000  0.125000  0.125000  1
  N  N27  1  0.125000  0.125000  0.125000  1
