# generated using pymatgen
data_Hf5GaSnSb2
_symmetry_space_group_name_H-M   'P 1'
_cell_length_a   8.61968429
_cell_length_b   8.61968557
_cell_length_c   5.81270100
_cell_angle_alpha   90.00000000
_cell_angle_beta   90.00000000
_cell_angle_gamma   119.91644867
_symmetry_Int_Tables_number   1
_chemical_formula_structural   Hf5GaSnSb2
_chemical_formula_sum   'Hf10 Ga2 Sn2 Sb4'
_cell_volume   374.33154265
_cell_formula_units_Z   2
loop_
 _symmetry_equiv_pos_site_id
 _symmetry_equiv_pos_as_xyz
  1  'x, y, z'
loop_
 _atom_site_type_symbol
 _atom_site_label
 _atom_site_symmetry_multiplicity
 _atom_site_fract_x
 _atom_site_fract_y
 _atom_site_fract_z
 _atom_site_occupancy
  Hf  Hf0  1  0.732829  0.732829  0.750000  1
  Hf  Hf1  1  0.266326  0.999724  0.750000  1
  Hf  Hf2  1  0.999724  0.266326  0.750000  1
  Hf  Hf3  1  0.270417  0.270417  0.250000  1
  Hf  Hf4  1  0.731031  0.999910  0.250000  1
  Hf  Hf5  1  0.999910  0.731031  0.250000  1
  Hf  Hf6  1  0.666673  0.333664  0.001284  1
  Hf  Hf7  1  0.333664  0.666673  0.001284  1
  Hf  Hf8  1  0.333664  0.666673  0.498716  1
  Hf  Hf9  1  0.666673  0.333664  0.498716  1
  Ga  Ga10  1  0.000583  0.000583  0.002974  1
  Ga  Ga11  1  0.000583  0.000583  0.497026  1
  Sn  Sn12  1  0.387658  0.000295  0.250000  1
  Sn  Sn13  1  0.000295  0.387658  0.250000  1
  Sb  Sb14  1  0.389619  0.389619  0.750000  1
  Sb  Sb15  1  0.608812  0.000342  0.750000  1
  Sb  Sb16  1  0.000342  0.608812  0.750000  1
  Sb  Sb17  1  0.611197  0.611197  0.250000  1
