# generated using pymatgen
data_TbHoTm2(Al3Rh)6
_symmetry_space_group_name_H-M   'P 1'
_cell_length_a   7.53761318
_cell_length_b   7.53812681
_cell_length_c   9.44072600
_cell_angle_alpha   90.00000000
_cell_angle_beta   90.00000000
_cell_angle_gamma   119.29349623
_symmetry_Int_Tables_number   1
_chemical_formula_structural   TbHoTm2(Al3Rh)6
_chemical_formula_sum   'Tb1 Ho1 Tm2 Al18 Rh6'
_cell_volume   467.82273513
_cell_formula_units_Z   1
loop_
 _symmetry_equiv_pos_site_id
 _symmetry_equiv_pos_as_xyz
  1  'x, y, z'
loop_
 _atom_site_type_symbol
 _atom_site_label
 _atom_site_symmetry_multiplicity
 _atom_site_fract_x
 _atom_site_fract_y
 _atom_site_fract_z
 _atom_site_occupancy
  Tb  Tb0  1  0.672215  0.994276  0.250000  1
  Ho  Ho1  1  0.994251  0.672113  0.250000  1
  Tm  Tm2  1  0.005788  0.327685  0.750000  1
  Tm  Tm3  1  0.327813  0.005839  0.750000  1
  Al  Al4  1  0.128646  0.128608  0.250000  1
  Al  Al5  1  0.871799  0.872028  0.750000  1
  Al  Al6  1  0.001049  0.335948  0.074780  1
  Al  Al7  1  0.999502  0.664013  0.923734  1
  Al  Al8  1  0.999502  0.664013  0.576266  1
  Al  Al9  1  0.335667  0.000859  0.425162  1
  Al  Al10  1  0.001049  0.335948  0.425220  1
  Al  Al11  1  0.663975  0.999534  0.576116  1
  Al  Al12  1  0.663975  0.999534  0.923884  1
  Al  Al13  1  0.335667  0.000859  0.074838  1
  Al  Al14  1  0.332501  0.332486  0.550758  1
  Al  Al15  1  0.667174  0.667069  0.451143  1
  Al  Al16  1  0.667174  0.667069  0.048857  1
  Al  Al17  1  0.332501  0.332486  0.949242  1
  Al  Al18  1  0.339785  0.550477  0.250000  1
  Al  Al19  1  0.660046  0.449274  0.750000  1
  Al  Al20  1  0.550521  0.339671  0.250000  1
  Al  Al21  1  0.449407  0.660250  0.750000  1
  Rh  Rh22  1  0.671951  0.327655  0.999361  1
  Rh  Rh23  1  0.327389  0.671826  0.999378  1
  Rh  Rh24  1  0.327389  0.671826  0.500622  1
  Rh  Rh25  1  0.671951  0.327655  0.500639  1
  Rh  Rh26  1  0.000658  0.000497  0.999094  1
  Rh  Rh27  1  0.000658  0.000497  0.500906  1
