# generated using pymatgen
data_La10Si4SnHg
_symmetry_space_group_name_H-M   'P 1'
_cell_length_a   7.93491183
_cell_length_b   7.93491137
_cell_length_c   9.29506700
_cell_angle_alpha   115.26685319
_cell_angle_beta   115.26685163
_cell_angle_gamma   89.99999514
_symmetry_Int_Tables_number   1
_chemical_formula_structural   La10Si4SnHg
_chemical_formula_sum   'La10 Si4 Sn1 Hg1'
_cell_volume   466.59161558
_cell_formula_units_Z   1
loop_
 _symmetry_equiv_pos_site_id
 _symmetry_equiv_pos_as_xyz
  1  'x, y, z'
loop_
 _atom_site_type_symbol
 _atom_site_label
 _atom_site_symmetry_multiplicity
 _atom_site_fract_x
 _atom_site_fract_y
 _atom_site_fract_z
 _atom_site_occupancy
  La  La0  1  0.520966  0.520966  0.041933  1
  La  La1  1  0.979034  0.979034  0.958067  1
  La  La2  1  0.967286  0.820520  0.279840  1
  La  La3  1  0.312554  0.459320  0.279840  1
  La  La4  1  0.820520  0.312554  0.279840  1
  La  La5  1  0.459320  0.967286  0.279840  1
  La  La6  1  0.040680  0.187446  0.720160  1
  La  La7  1  0.679480  0.532714  0.720160  1
  La  La8  1  0.187446  0.679480  0.720160  1
  La  La9  1  0.532714  0.040680  0.720160  1
  Si  Si10  1  0.613699  0.886301  0.000000  1
  Si  Si11  1  0.386301  0.113699  0.000000  1
  Si  Si12  1  0.886301  0.386301  0.000000  1
  Si  Si13  1  0.113699  0.613699  0.000000  1
  Sn  Sn14  1  0.750000  0.750000  0.500000  1
  Hg  Hg15  1  0.250000  0.250000  0.500000  1
