# generated using pymatgen
data_Ca3Ag3Sn2Pb
_symmetry_space_group_name_H-M   'P 1'
_cell_length_a   4.89432600
_cell_length_b   4.89432630
_cell_length_c   11.10269000
_cell_angle_alpha   90.00000000
_cell_angle_beta   90.00000000
_cell_angle_gamma   119.99999795
_symmetry_Int_Tables_number   1
_chemical_formula_structural   Ca3Ag3Sn2Pb
_chemical_formula_sum   'Ca3 Ag3 Sn2 Pb1'
_cell_volume   230.32690307
_cell_formula_units_Z   1
loop_
 _symmetry_equiv_pos_site_id
 _symmetry_equiv_pos_as_xyz
  1  'x, y, z'
loop_
 _atom_site_type_symbol
 _atom_site_label
 _atom_site_symmetry_multiplicity
 _atom_site_fract_x
 _atom_site_fract_y
 _atom_site_fract_z
 _atom_site_occupancy
  Ca  Ca0  1  0.666667  0.333333  0.830879  1
  Ca  Ca1  1  0.666667  0.333333  0.502007  1
  Ca  Ca2  1  0.666667  0.333333  0.162828  1
  Ag  Ag3  1  0.333333  0.666667  0.995096  1
  Ag  Ag4  1  0.000000  0.000000  0.686789  1
  Ag  Ag5  1  0.000000  0.000000  0.294700  1
  Sn  Sn6  1  0.333333  0.666667  0.650673  1
  Sn  Sn7  1  0.000000  0.000000  0.003106  1
  Pb  Pb8  1  0.333333  0.666667  0.351823  1
