# generated using pymatgen
data_Dy5Bi2Pt
_symmetry_space_group_name_H-M   'P 1'
_cell_length_a   8.07059100
_cell_length_b   9.04830200
_cell_length_c   12.42214500
_cell_angle_alpha   90.00000000
_cell_angle_beta   90.00000000
_cell_angle_gamma   90.00000000
_symmetry_Int_Tables_number   1
_chemical_formula_structural   Dy5Bi2Pt
_chemical_formula_sum   'Dy20 Bi8 Pt4'
_cell_volume   907.12893594
_cell_formula_units_Z   4
loop_
 _symmetry_equiv_pos_site_id
 _symmetry_equiv_pos_as_xyz
  1  'x, y, z'
loop_
 _atom_site_type_symbol
 _atom_site_label
 _atom_site_symmetry_multiplicity
 _atom_site_fract_x
 _atom_site_fract_y
 _atom_site_fract_z
 _atom_site_occupancy
  Dy  Dy0  1  0.838897  0.750000  0.790262  1
  Dy  Dy1  1  0.161103  0.250000  0.209738  1
  Dy  Dy2  1  0.338897  0.250000  0.709738  1
  Dy  Dy3  1  0.661103  0.750000  0.290262  1
  Dy  Dy4  1  0.370704  0.750000  0.697459  1
  Dy  Dy5  1  0.629296  0.250000  0.302541  1
  Dy  Dy6  1  0.870704  0.250000  0.802541  1
  Dy  Dy7  1  0.129296  0.750000  0.197459  1
  Dy  Dy8  1  0.949615  0.750000  0.499998  1
  Dy  Dy9  1  0.050385  0.250000  0.500002  1
  Dy  Dy10  1  0.449615  0.250000  0.000002  1
  Dy  Dy11  1  0.550385  0.750000  0.999998  1
  Dy  Dy12  1  0.679388  0.045661  0.566876  1
  Dy  Dy13  1  0.320612  0.954339  0.433124  1
  Dy  Dy14  1  0.179388  0.954339  0.933124  1
  Dy  Dy15  1  0.320612  0.545661  0.433124  1
  Dy  Dy16  1  0.820612  0.045661  0.066876  1
  Dy  Dy17  1  0.679388  0.454339  0.566876  1
  Dy  Dy18  1  0.820612  0.454339  0.066876  1
  Dy  Dy19  1  0.179388  0.545661  0.933124  1
  Bi  Bi20  1  0.568935  0.491387  0.827305  1
  Bi  Bi21  1  0.431065  0.508613  0.172695  1
  Bi  Bi22  1  0.068935  0.508613  0.672695  1
  Bi  Bi23  1  0.431065  0.991387  0.172695  1
  Bi  Bi24  1  0.931065  0.491387  0.327305  1
  Bi  Bi25  1  0.568935  0.008613  0.827305  1
  Bi  Bi26  1  0.931065  0.008613  0.327305  1
  Bi  Bi27  1  0.068935  0.991387  0.672695  1
  Pt  Pt28  1  0.574565  0.750000  0.511447  1
  Pt  Pt29  1  0.425435  0.250000  0.488553  1
  Pt  Pt30  1  0.074565  0.250000  0.988553  1
  Pt  Pt31  1  0.925435  0.750000  0.011447  1
