# generated using pymatgen
data_HoEr(ThPd6)2
_symmetry_space_group_name_H-M   'P 1'
_cell_length_a   5.88288100
_cell_length_b   5.88288041
_cell_length_c   9.64991000
_cell_angle_alpha   90.00000000
_cell_angle_beta   90.00000000
_cell_angle_gamma   119.99999770
_symmetry_Int_Tables_number   1
_chemical_formula_structural   HoEr(ThPd6)2
_chemical_formula_sum   'Ho1 Er1 Th2 Pd12'
_cell_volume   289.22377349
_cell_formula_units_Z   1
loop_
 _symmetry_equiv_pos_site_id
 _symmetry_equiv_pos_as_xyz
  1  'x, y, z'
loop_
 _atom_site_type_symbol
 _atom_site_label
 _atom_site_symmetry_multiplicity
 _atom_site_fract_x
 _atom_site_fract_y
 _atom_site_fract_z
 _atom_site_occupancy
  Ho  Ho0  1  0.333333  0.666667  0.250000  1
  Er  Er1  1  0.666667  0.333333  0.750000  1
  Th  Th2  1  0.000000  0.000000  0.500034  1
  Th  Th3  1  0.000000  0.000000  0.999966  1
  Pd  Pd4  1  0.500059  0.499941  0.500062  1
  Pd  Pd5  1  0.500059  0.000118  0.500062  1
  Pd  Pd6  1  0.999882  0.499941  0.500062  1
  Pd  Pd7  1  0.500059  0.499941  0.999938  1
  Pd  Pd8  1  0.500059  0.000118  0.999938  1
  Pd  Pd9  1  0.999882  0.499941  0.999938  1
  Pd  Pd10  1  0.826119  0.652237  0.250000  1
  Pd  Pd11  1  0.347763  0.173881  0.250000  1
  Pd  Pd12  1  0.826119  0.173881  0.250000  1
  Pd  Pd13  1  0.173827  0.347655  0.750000  1
  Pd  Pd14  1  0.652345  0.826173  0.750000  1
  Pd  Pd15  1  0.173827  0.826173  0.750000  1
