# generated using pymatgen
data_Nb12Al2GaAu5N4
_symmetry_space_group_name_H-M   'P 1'
_cell_length_a   7.14092963
_cell_length_b   7.14060845
_cell_length_c   7.14118340
_cell_angle_alpha   90.01916208
_cell_angle_beta   89.82277916
_cell_angle_gamma   89.97304832
_symmetry_Int_Tables_number   1
_chemical_formula_structural   Nb12Al2GaAu5N4
_chemical_formula_sum   'Nb12 Al2 Ga1 Au5 N4'
_cell_volume   364.13129815
_cell_formula_units_Z   1
loop_
 _symmetry_equiv_pos_site_id
 _symmetry_equiv_pos_as_xyz
  1  'x, y, z'
loop_
 _atom_site_type_symbol
 _atom_site_label
 _atom_site_symmetry_multiplicity
 _atom_site_fract_x
 _atom_site_fract_y
 _atom_site_fract_z
 _atom_site_occupancy
  Nb  Nb0  1  0.785639  0.956443  0.375710  1
  Nb  Nb1  1  0.712971  0.044436  0.879131  1
  Nb  Nb2  1  0.213325  0.457079  0.126842  1
  Nb  Nb3  1  0.291419  0.541438  0.625925  1
  Nb  Nb4  1  0.955241  0.378714  0.786659  1
  Nb  Nb5  1  0.043800  0.876142  0.713968  1
  Nb  Nb6  1  0.458774  0.126567  0.208860  1
  Nb  Nb7  1  0.542599  0.626805  0.287209  1
  Nb  Nb8  1  0.373232  0.787173  0.957178  1
  Nb  Nb9  1  0.873689  0.709138  0.041331  1
  Nb  Nb10  1  0.123881  0.213966  0.456617  1
  Nb  Nb11  1  0.621642  0.286943  0.544506  1
  Al  Al12  1  0.930849  0.573082  0.427856  1
  Al  Al13  1  0.071954  0.069100  0.073293  1
  Ga  Ga14  1  0.427451  0.928716  0.568095  1
  Au  Au15  1  0.176764  0.820966  0.319986  1
  Au  Au16  1  0.310051  0.170619  0.818811  1
  Au  Au17  1  0.830967  0.317266  0.188943  1
  Au  Au18  1  0.684726  0.687495  0.669614  1
  Au  Au19  1  0.568813  0.431245  0.931565  1
  N  N20  1  0.874312  0.124956  0.625372  1
  N  N21  1  0.622792  0.874548  0.121048  1
  N  N22  1  0.125607  0.620706  0.876766  1
  N  N23  1  0.379501  0.376459  0.374715  1
