# generated using pymatgen
data_Rb2Ag(PO3)4
_symmetry_space_group_name_H-M   'P 1'
_cell_length_a   8.63630691
_cell_length_b   8.63630651
_cell_length_c   8.44276703
_cell_angle_alpha   83.61869485
_cell_angle_beta   83.61869657
_cell_angle_gamma   97.71227090
_symmetry_Int_Tables_number   1
_chemical_formula_structural   Rb2Ag(PO3)4
_chemical_formula_sum   'Rb4 Ag2 P8 O24'
_cell_volume   615.04663256
_cell_formula_units_Z   2
loop_
 _symmetry_equiv_pos_site_id
 _symmetry_equiv_pos_as_xyz
  1  'x, y, z'
loop_
 _atom_site_type_symbol
 _atom_site_label
 _atom_site_symmetry_multiplicity
 _atom_site_fract_x
 _atom_site_fract_y
 _atom_site_fract_z
 _atom_site_occupancy
  Rb  Rb0  1  0.795964  0.543780  0.900633  1
  Rb  Rb1  1  0.543780  0.795964  0.400633  1
  Rb  Rb2  1  0.498751  0.232281  0.601630  1
  Rb  Rb3  1  0.232281  0.498751  0.101630  1
  Ag  Ag4  1  0.873151  0.185918  0.254357  1
  Ag  Ag5  1  0.185918  0.873151  0.754357  1
  P  P6  1  0.226111  0.068893  0.303258  1
  P  P7  1  0.068893  0.226111  0.803258  1
  P  P8  1  0.530245  0.156695  0.083792  1
  P  P9  1  0.156695  0.530245  0.583792  1
  P  P10  1  0.540685  0.862971  0.919996  1
  P  P11  1  0.862971  0.540685  0.419996  1
  P  P12  1  0.837667  0.987952  0.683312  1
  P  P13  1  0.987952  0.837667  0.183312  1
  O  O14  1  0.959356  0.877805  0.663703  1
  O  O15  1  0.877805  0.959356  0.163703  1
  O  O16  1  0.744022  0.020311  0.548386  1
  O  O17  1  0.020311  0.744022  0.048386  1
  O  O18  1  0.155738  0.914390  0.228257  1
  O  O19  1  0.914390  0.155738  0.728257  1
  O  O20  1  0.103248  0.175931  0.332711  1
  O  O21  1  0.175931  0.103248  0.832711  1
  O  O22  1  0.313054  0.017617  0.438150  1
  O  O23  1  0.017617  0.313054  0.938150  1
  O  O24  1  0.347812  0.164481  0.151424  1
  O  O25  1  0.164481  0.347812  0.651424  1
  O  O26  1  0.569115  0.259674  0.927177  1
  O  O27  1  0.259674  0.569115  0.427177  1
  O  O28  1  0.697532  0.522741  0.499998  1
  O  O29  1  0.522741  0.697532  0.999998  1
  O  O30  1  0.908496  0.440521  0.290962  1
  O  O31  1  0.440521  0.908496  0.790962  1
  O  O32  1  0.915486  0.724168  0.347750  1
  O  O33  1  0.724168  0.915486  0.847750  1
  O  O34  1  0.970742  0.523683  0.565561  1
  O  O35  1  0.523683  0.970742  0.065561  1
  O  O36  1  0.187102  0.624907  0.721843  1
  O  O37  1  0.624907  0.187102  0.221843  1
