# generated using pymatgen
data_Ho7Ag(Sn11Ru3)2
_symmetry_space_group_name_H-M   'P 1'
_cell_length_a   9.81990700
_cell_length_b   9.81990595
_cell_length_c   10.04832200
_cell_angle_alpha   90.00000000
_cell_angle_beta   90.00000000
_cell_angle_gamma   120.00000017
_symmetry_Int_Tables_number   1
_chemical_formula_structural   Ho7Ag(Sn11Ru3)2
_chemical_formula_sum   'Ho7 Ag1 Sn22 Ru6'
_cell_volume   839.14860648
_cell_formula_units_Z   1
loop_
 _symmetry_equiv_pos_site_id
 _symmetry_equiv_pos_as_xyz
  1  'x, y, z'
loop_
 _atom_site_type_symbol
 _atom_site_label
 _atom_site_symmetry_multiplicity
 _atom_site_fract_x
 _atom_site_fract_y
 _atom_site_fract_z
 _atom_site_occupancy
  Ho  Ho0  1  0.000000  0.000000  0.000000  1
  Ho  Ho1  1  0.516011  0.483989  0.695815  1
  Ho  Ho2  1  0.516011  0.032021  0.695815  1
  Ho  Ho3  1  0.967979  0.483989  0.695815  1
  Ho  Ho4  1  0.032021  0.516011  0.304185  1
  Ho  Ho5  1  0.483989  0.967979  0.304185  1
  Ho  Ho6  1  0.483989  0.516011  0.304185  1
  Ag  Ag7  1  0.000000  0.000000  0.500000  1
  Sn  Sn8  1  0.666667  0.333333  0.176193  1
  Sn  Sn9  1  0.666667  0.333333  0.871869  1
  Sn  Sn10  1  0.333333  0.666667  0.128131  1
  Sn  Sn11  1  0.349298  0.349298  0.000000  1
  Sn  Sn12  1  0.000000  0.650702  0.000000  1
  Sn  Sn13  1  0.650702  0.000000  0.000000  1
  Sn  Sn14  1  0.650702  0.650702  0.000000  1
  Sn  Sn15  1  0.333333  0.666667  0.823807  1
  Sn  Sn16  1  0.440011  0.220006  0.463334  1
  Sn  Sn17  1  0.220006  0.779994  0.536666  1
  Sn  Sn18  1  0.220006  0.440011  0.536666  1
  Sn  Sn19  1  0.559989  0.779994  0.536666  1
  Sn  Sn20  1  0.119005  0.880995  0.274950  1
  Sn  Sn21  1  0.779994  0.559989  0.463334  1
  Sn  Sn22  1  0.779994  0.220006  0.463334  1
  Sn  Sn23  1  0.349298  0.000000  0.000000  1
  Sn  Sn24  1  0.119005  0.238009  0.274950  1
  Sn  Sn25  1  0.761991  0.880995  0.274950  1
  Sn  Sn26  1  0.238009  0.119005  0.725050  1
  Sn  Sn27  1  0.880995  0.761991  0.725050  1
  Sn  Sn28  1  0.880995  0.119005  0.725050  1
  Sn  Sn29  1  0.000000  0.349298  0.000000  1
  Ru  Ru30  1  0.169045  0.830955  0.795874  1
  Ru  Ru31  1  0.169045  0.338088  0.795874  1
  Ru  Ru32  1  0.661912  0.830955  0.795874  1
  Ru  Ru33  1  0.338088  0.169045  0.204126  1
  Ru  Ru34  1  0.830955  0.661912  0.204126  1
  Ru  Ru35  1  0.830955  0.169045  0.204126  1
