# generated using pymatgen
data_DyY2MgIr8
_symmetry_space_group_name_H-M   'P 1'
_cell_length_a   5.33089600
_cell_length_b   5.33089519
_cell_length_c   8.66846900
_cell_angle_alpha   90.00000000
_cell_angle_beta   90.00000000
_cell_angle_gamma   119.99999263
_symmetry_Int_Tables_number   1
_chemical_formula_structural   DyY2MgIr8
_chemical_formula_sum   'Dy1 Y2 Mg1 Ir8'
_cell_volume   213.34055381
_cell_formula_units_Z   1
loop_
 _symmetry_equiv_pos_site_id
 _symmetry_equiv_pos_as_xyz
  1  'x, y, z'
loop_
 _atom_site_type_symbol
 _atom_site_label
 _atom_site_symmetry_multiplicity
 _atom_site_fract_x
 _atom_site_fract_y
 _atom_site_fract_z
 _atom_site_occupancy
  Dy  Dy0  1  0.666667  0.333333  0.930244  1
  Y  Y1  1  0.333333  0.666667  0.078576  1
  Y  Y2  1  0.666667  0.333333  0.558990  1
  Mg  Mg3  1  0.333333  0.666667  0.438876  1
  Ir  Ir4  1  0.000000  0.000000  0.997387  1
  Ir  Ir5  1  0.000000  0.000000  0.497784  1
  Ir  Ir6  1  0.830472  0.660944  0.251035  1
  Ir  Ir7  1  0.170573  0.829427  0.748346  1
  Ir  Ir8  1  0.658855  0.829427  0.748346  1
  Ir  Ir9  1  0.339056  0.169528  0.251035  1
  Ir  Ir10  1  0.830472  0.169528  0.251035  1
  Ir  Ir11  1  0.170573  0.341145  0.748346  1
