# generated using pymatgen
data_LaSmUCo2Si7
_symmetry_space_group_name_H-M   'P 1'
_cell_length_a   4.06495035
_cell_length_b   4.09956400
_cell_length_c   12.45206806
_cell_angle_alpha   90.00000000
_cell_angle_beta   99.39407426
_cell_angle_gamma   90.00000000
_symmetry_Int_Tables_number   1
_chemical_formula_structural   LaSmUCo2Si7
_chemical_formula_sum   'La1 Sm1 U1 Co2 Si7'
_cell_volume   204.72491163
_cell_formula_units_Z   1
loop_
 _symmetry_equiv_pos_site_id
 _symmetry_equiv_pos_as_xyz
  1  'x, y, z'
loop_
 _atom_site_type_symbol
 _atom_site_label
 _atom_site_symmetry_multiplicity
 _atom_site_fract_x
 _atom_site_fract_y
 _atom_site_fract_z
 _atom_site_occupancy
  La  La0  1  0.683125  0.000000  0.366249  1
  Sm  Sm1  1  0.318217  0.000000  0.636434  1
  U  U2  1  0.999442  0.500000  0.998883  1
  Co  Co3  1  0.124324  0.500000  0.248647  1
  Co  Co4  1  0.875163  0.500000  0.750328  1
  Si  Si5  1  0.499690  0.000000  0.999380  1
  Si  Si6  1  0.414841  0.500000  0.829682  1
  Si  Si7  1  0.583591  0.500000  0.167181  1
  Si  Si8  1  0.083478  0.000000  0.166955  1
  Si  Si9  1  0.914977  0.000000  0.829954  1
  Si  Si10  1  0.222406  0.500000  0.444811  1
  Si  Si11  1  0.780747  0.500000  0.561495  1
