# generated using pymatgen
data_Y2Ho2ReB12Rh
_symmetry_space_group_name_H-M   'P 1'
_cell_length_a   3.68159300
_cell_length_b   9.15391397
_cell_length_c   11.55246203
_cell_angle_alpha   90.43079222
_cell_angle_beta   90.00000000
_cell_angle_gamma   90.00000000
_symmetry_Int_Tables_number   1
_chemical_formula_structural   Y2Ho2ReB12Rh
_chemical_formula_sum   'Y4 Ho4 Re2 B24 Rh2'
_cell_volume   389.31835184
_cell_formula_units_Z   2
loop_
 _symmetry_equiv_pos_site_id
 _symmetry_equiv_pos_as_xyz
  1  'x, y, z'
loop_
 _atom_site_type_symbol
 _atom_site_label
 _atom_site_symmetry_multiplicity
 _atom_site_fract_x
 _atom_site_fract_y
 _atom_site_fract_z
 _atom_site_occupancy
  Y  Y0  1  0.000000  0.318542  0.410973  1
  Y  Y1  1  0.000000  0.681458  0.589027  1
  Y  Y2  1  0.000000  0.825984  0.082858  1
  Y  Y3  1  0.000000  0.174016  0.917142  1
  Ho  Ho4  1  0.000000  0.945283  0.371802  1
  Ho  Ho5  1  0.000000  0.054717  0.628198  1
  Ho  Ho6  1  0.000000  0.442385  0.126825  1
  Ho  Ho7  1  0.000000  0.557615  0.873175  1
  Re  Re8  1  0.000000  0.138776  0.179847  1
  Re  Re9  1  0.000000  0.861224  0.820153  1
  B  B10  1  0.500000  0.554535  0.433908  1
  B  B11  1  0.500000  0.445465  0.566092  1
  B  B12  1  0.500000  0.053156  0.067712  1
  B  B13  1  0.500000  0.946844  0.932288  1
  B  B14  1  0.500000  0.749028  0.421028  1
  B  B15  1  0.500000  0.250972  0.578972  1
  B  B16  1  0.500000  0.248515  0.081694  1
  B  B17  1  0.500000  0.751485  0.918306  1
  B  B18  1  0.500000  0.791100  0.265511  1
  B  B19  1  0.500000  0.208900  0.734489  1
  B  B20  1  0.500000  0.292745  0.234675  1
  B  B21  1  0.500000  0.707255  0.765325  1
  B  B22  1  0.500000  0.632289  0.183610  1
  B  B23  1  0.500000  0.367711  0.816390  1
  B  B24  1  0.500000  0.131859  0.314809  1
  B  B25  1  0.500000  0.868141  0.685191  1
  B  B26  1  0.500000  0.983308  0.213284  1
  B  B27  1  0.500000  0.016692  0.786716  1
  B  B28  1  0.500000  0.483761  0.287601  1
  B  B29  1  0.500000  0.516239  0.712399  1
  B  B30  1  0.500000  0.605652  0.029323  1
  B  B31  1  0.500000  0.394348  0.970677  1
  B  B32  1  0.500000  0.107408  0.471032  1
  B  B33  1  0.500000  0.892592  0.528968  1
  Rh  Rh34  1  0.000000  0.637805  0.321037  1
  Rh  Rh35  1  0.000000  0.362195  0.678963  1
