# generated using pymatgen
data_NaLuH9W
_symmetry_space_group_name_H-M   'P 1'
_cell_length_a   8.37646800
_cell_length_b   8.37646706
_cell_length_c   4.97919800
_cell_angle_alpha   90.00000000
_cell_angle_beta   90.00000000
_cell_angle_gamma   120.00000370
_symmetry_Int_Tables_number   1
_chemical_formula_structural   NaLuH9W
_chemical_formula_sum   'Na3 Lu3 H27 W3'
_cell_volume   302.56022252
_cell_formula_units_Z   3
loop_
 _symmetry_equiv_pos_site_id
 _symmetry_equiv_pos_as_xyz
  1  'x, y, z'
loop_
 _atom_site_type_symbol
 _atom_site_label
 _atom_site_symmetry_multiplicity
 _atom_site_fract_x
 _atom_site_fract_y
 _atom_site_fract_z
 _atom_site_occupancy
  Na  Na0  1  0.000000  0.596842  0.000000  1
  Na  Na1  1  0.403158  0.403158  0.000000  1
  Na  Na2  1  0.596842  0.000000  0.000000  1
  Lu  Lu3  1  0.000000  0.261544  0.500000  1
  Lu  Lu4  1  0.738456  0.738456  0.500000  1
  Lu  Lu5  1  0.261544  0.000000  0.500000  1
  H  H6  1  0.824957  0.342126  0.748148  1
  H  H7  1  0.657874  0.482830  0.748148  1
  H  H8  1  0.517170  0.175043  0.748148  1
  H  H9  1  0.175043  0.517170  0.251852  1
  H  H10  1  0.517170  0.175043  0.251852  1
  H  H11  1  0.824957  0.342126  0.251852  1
  H  H12  1  0.657874  0.482830  0.251852  1
  H  H13  1  0.342126  0.824957  0.748148  1
  H  H14  1  0.482830  0.657874  0.748148  1
  H  H15  1  0.212949  0.000000  0.000000  1
  H  H16  1  0.787051  0.787051  0.000000  1
  H  H17  1  0.000000  0.212949  0.000000  1
  H  H18  1  0.843701  0.000000  0.266647  1
  H  H19  1  0.156299  0.156299  0.733353  1
  H  H20  1  0.000000  0.843701  0.733353  1
  H  H21  1  0.000000  0.843701  0.266647  1
  H  H22  1  0.156299  0.156299  0.266647  1
  H  H23  1  0.843701  0.000000  0.733353  1
  H  H24  1  0.133974  0.691547  0.500000  1
  H  H25  1  0.557572  0.866026  0.500000  1
  H  H26  1  0.308453  0.442428  0.500000  1
  H  H27  1  0.442428  0.308453  0.500000  1
  H  H28  1  0.866026  0.557572  0.500000  1
  H  H29  1  0.691547  0.133974  0.500000  1
  H  H30  1  0.175043  0.517170  0.748148  1
  H  H31  1  0.342126  0.824957  0.251852  1
  H  H32  1  0.482830  0.657874  0.251852  1
  W  W33  1  0.666667  0.333333  0.500000  1
  W  W34  1  0.333333  0.666667  0.500000  1
  W  W35  1  0.000000  0.000000  0.000000  1
