# generated using pymatgen
data_DyBi3(PSe4)4
_symmetry_space_group_name_H-M   'P 1'
_cell_length_a   7.08271147
_cell_length_b   9.50030958
_cell_length_c   13.76097200
_cell_angle_alpha   59.21542249
_cell_angle_beta   89.94324388
_cell_angle_gamma   89.96548150
_symmetry_Int_Tables_number   1
_chemical_formula_structural   DyBi3(PSe4)4
_chemical_formula_sum   'Dy1 Bi3 P4 Se16'
_cell_volume   795.47906883
_cell_formula_units_Z   1
loop_
 _symmetry_equiv_pos_site_id
 _symmetry_equiv_pos_as_xyz
  1  'x, y, z'
loop_
 _atom_site_type_symbol
 _atom_site_label
 _atom_site_symmetry_multiplicity
 _atom_site_fract_x
 _atom_site_fract_y
 _atom_site_fract_z
 _atom_site_occupancy
  Dy  Dy0  1  0.178183  0.555620  0.335666  1
  Bi  Bi1  1  0.337554  0.565878  0.831542  1
  Bi  Bi2  1  0.835394  0.436602  0.665739  1
  Bi  Bi3  1  0.661229  0.439040  0.164012  1
  P  P4  1  0.229258  0.683945  0.044863  1
  P  P5  1  0.735228  0.322425  0.456136  1
  P  P6  1  0.766278  0.314340  0.957334  1
  P  P7  1  0.264398  0.682721  0.540379  1
  Se  Se8  1  0.230540  0.418885  0.586821  1
  Se  Se9  1  0.731054  0.579326  0.910466  1
  Se  Se10  1  0.778855  0.584479  0.408411  1
  Se  Se11  1  0.269807  0.420433  0.090148  1
  Se  Se12  1  0.253703  0.837886  0.355878  1
  Se  Se13  1  0.755926  0.156679  0.142541  1
  Se  Se14  1  0.741240  0.157955  0.640641  1
  Se  Se15  1  0.245223  0.843645  0.859601  1
  Se  Se16  1  0.531743  0.723104  0.610750  1
  Se  Se17  1  0.033704  0.276207  0.887150  1
  Se  Se18  1  0.461156  0.285127  0.386816  1
  Se  Se19  1  0.965565  0.716023  0.119727  1
  Se  Se20  1  0.045212  0.737256  0.633817  1
  Se  Se21  1  0.545264  0.261323  0.864733  1
  Se  Se22  1  0.956568  0.266796  0.365093  1
  Se  Se23  1  0.446915  0.734307  0.141735  1
