# generated using pymatgen
data_Pr10Bi6PBr
_symmetry_space_group_name_H-M   'P 1'
_cell_length_a   9.64323500
_cell_length_b   9.64323433
_cell_length_c   6.86947800
_cell_angle_alpha   90.00000000
_cell_angle_beta   90.00000000
_cell_angle_gamma   119.99999887
_symmetry_Int_Tables_number   1
_chemical_formula_structural   Pr10Bi6PBr
_chemical_formula_sum   'Pr10 Bi6 P1 Br1'
_cell_volume   553.22251196
_cell_formula_units_Z   1
loop_
 _symmetry_equiv_pos_site_id
 _symmetry_equiv_pos_as_xyz
  1  'x, y, z'
loop_
 _atom_site_type_symbol
 _atom_site_label
 _atom_site_symmetry_multiplicity
 _atom_site_fract_x
 _atom_site_fract_y
 _atom_site_fract_z
 _atom_site_occupancy
  Pr  Pr0  1  0.253683  0.000000  0.732528  1
  Pr  Pr1  1  0.746317  0.000000  0.267472  1
  Pr  Pr2  1  0.000000  0.253683  0.732528  1
  Pr  Pr3  1  0.000000  0.746317  0.267472  1
  Pr  Pr4  1  0.746317  0.746317  0.732528  1
  Pr  Pr5  1  0.253683  0.253683  0.267472  1
  Pr  Pr6  1  0.333333  0.666667  0.500000  1
  Pr  Pr7  1  0.666667  0.333333  0.500000  1
  Pr  Pr8  1  0.666667  0.333333  0.000000  1
  Pr  Pr9  1  0.333333  0.666667  0.000000  1
  Bi  Bi10  1  0.607951  0.000000  0.750899  1
  Bi  Bi11  1  0.392049  0.000000  0.249101  1
  Bi  Bi12  1  0.000000  0.607951  0.750899  1
  Bi  Bi13  1  0.000000  0.392049  0.249101  1
  Bi  Bi14  1  0.392049  0.392049  0.750899  1
  Bi  Bi15  1  0.607951  0.607951  0.249101  1
  P  P16  1  0.000000  0.000000  0.500000  1
  Br  Br17  1  0.000000  0.000000  0.000000  1
