# generated using pymatgen
data_Ta7Nb11(NiP2)4
_symmetry_space_group_name_H-M   'P 1'
_cell_length_a   11.53881308
_cell_length_b   11.53011107
_cell_length_c   3.48050700
_cell_angle_alpha   90.00000000
_cell_angle_beta   90.00000000
_cell_angle_gamma   90.01323794
_symmetry_Int_Tables_number   1
_chemical_formula_structural   Ta7Nb11(NiP2)4
_chemical_formula_sum   'Ta7 Nb11 Ni4 P8'
_cell_volume   463.05985258
_cell_formula_units_Z   1
loop_
 _symmetry_equiv_pos_site_id
 _symmetry_equiv_pos_as_xyz
  1  'x, y, z'
loop_
 _atom_site_type_symbol
 _atom_site_label
 _atom_site_symmetry_multiplicity
 _atom_site_fract_x
 _atom_site_fract_y
 _atom_site_fract_z
 _atom_site_occupancy
  Ta  Ta0  1  0.603527  0.316010  0.500000  1
  Ta  Ta1  1  0.683732  0.603320  0.500000  1
  Ta  Ta2  1  0.316337  0.396676  0.500000  1
  Ta  Ta3  1  0.101864  0.398424  0.000000  1
  Ta  Ta4  1  0.398108  0.897982  0.000000  1
  Ta  Ta5  1  0.601487  0.101771  0.000000  1
  Ta  Ta6  1  0.898090  0.601528  0.000000  1
  Nb  Nb7  1  0.999836  0.000205  0.000000  1
  Nb  Nb8  1  0.500268  0.499651  0.000000  1
  Nb  Nb9  1  0.102365  0.184006  0.500000  1
  Nb  Nb10  1  0.183275  0.897694  0.500000  1
  Nb  Nb11  1  0.816177  0.102433  0.500000  1
  Nb  Nb12  1  0.897630  0.816281  0.500000  1
  Nb  Nb13  1  0.397779  0.683416  0.500000  1
  Nb  Nb14  1  0.394118  0.106803  0.500000  1
  Nb  Nb15  1  0.106743  0.606026  0.500000  1
  Nb  Nb16  1  0.892904  0.393989  0.500000  1
  Nb  Nb17  1  0.606257  0.893003  0.500000  1
  Ni  Ni18  1  0.265261  0.236652  0.000000  1
  Ni  Ni19  1  0.235739  0.735153  0.000000  1
  Ni  Ni20  1  0.763301  0.265166  0.000000  1
  Ni  Ni21  1  0.735215  0.763364  0.000000  1
  P  P22  1  0.226729  0.053219  0.000000  1
  P  P23  1  0.052900  0.773306  0.000000  1
  P  P24  1  0.946726  0.226849  0.000000  1
  P  P25  1  0.773292  0.946814  0.000000  1
  P  P26  1  0.273734  0.551958  0.000000  1
  P  P27  1  0.725961  0.448105  0.000000  1
  P  P28  1  0.552505  0.726170  0.000000  1
  P  P29  1  0.448140  0.274027  0.000000  1
