# generated using pymatgen
data_Er2Al9CuRh2
_symmetry_space_group_name_H-M   'P 1'
_cell_length_a   7.56578800
_cell_length_b   7.56579800
_cell_length_c   9.39388600
_cell_angle_alpha   90.00000000
_cell_angle_beta   90.00000000
_cell_angle_gamma   119.76147242
_symmetry_Int_Tables_number   1
_chemical_formula_structural   Er2Al9CuRh2
_chemical_formula_sum   'Er4 Al18 Cu2 Rh4'
_cell_volume   466.79228628
_cell_formula_units_Z   2
loop_
 _symmetry_equiv_pos_site_id
 _symmetry_equiv_pos_as_xyz
  1  'x, y, z'
loop_
 _atom_site_type_symbol
 _atom_site_label
 _atom_site_symmetry_multiplicity
 _atom_site_fract_x
 _atom_site_fract_y
 _atom_site_fract_z
 _atom_site_occupancy
  Er  Er0  1  0.326443  0.006295  0.750000  1
  Er  Er1  1  0.993614  0.673272  0.250000  1
  Er  Er2  1  0.006409  0.326637  0.750000  1
  Er  Er3  1  0.673537  0.993801  0.250000  1
  Al  Al4  1  0.127284  0.127436  0.250000  1
  Al  Al5  1  0.872440  0.872573  0.750000  1
  Al  Al6  1  0.999020  0.337855  0.076021  1
  Al  Al7  1  0.000695  0.662060  0.924656  1
  Al  Al8  1  0.000695  0.662060  0.575344  1
  Al  Al9  1  0.337854  0.998878  0.423792  1
  Al  Al10  1  0.999020  0.337855  0.423979  1
  Al  Al11  1  0.662013  0.000743  0.575522  1
  Al  Al12  1  0.662013  0.000743  0.924478  1
  Al  Al13  1  0.337854  0.998878  0.076208  1
  Al  Al14  1  0.334880  0.334832  0.552836  1
  Al  Al15  1  0.665506  0.665564  0.445837  1
  Al  Al16  1  0.665506  0.665564  0.054163  1
  Al  Al17  1  0.334880  0.334832  0.947164  1
  Al  Al18  1  0.337692  0.549347  0.250000  1
  Al  Al19  1  0.662307  0.450553  0.750000  1
  Al  Al20  1  0.549440  0.337737  0.250000  1
  Al  Al21  1  0.450573  0.661792  0.750000  1
  Cu  Cu22  1  0.999961  0.000843  0.000461  1
  Cu  Cu23  1  0.999961  0.000843  0.499539  1
  Rh  Rh24  1  0.671724  0.328552  0.000283  1
  Rh  Rh25  1  0.328477  0.670951  0.000284  1
  Rh  Rh26  1  0.328477  0.670951  0.499716  1
  Rh  Rh27  1  0.671724  0.328552  0.499717  1
