# generated using pymatgen
data_LiTm5(Rh2Pb)6
_symmetry_space_group_name_H-M   'P 1'
_cell_length_a   4.55147100
_cell_length_b   7.09601300
_cell_length_c   13.62839001
_cell_angle_alpha   90.00000000
_cell_angle_beta   90.00335169
_cell_angle_gamma   90.00000000
_symmetry_Int_Tables_number   1
_chemical_formula_structural   LiTm5(Rh2Pb)6
_chemical_formula_sum   'Li1 Tm5 Rh12 Pb6'
_cell_volume   440.16016433
_cell_formula_units_Z   1
loop_
 _symmetry_equiv_pos_site_id
 _symmetry_equiv_pos_as_xyz
  1  'x, y, z'
loop_
 _atom_site_type_symbol
 _atom_site_label
 _atom_site_symmetry_multiplicity
 _atom_site_fract_x
 _atom_site_fract_y
 _atom_site_fract_z
 _atom_site_occupancy
  Li  Li0  1  0.500153  0.500000  0.833326  1
  Tm  Tm1  1  0.999994  0.000000  0.998007  1
  Tm  Tm2  1  0.499882  0.500000  0.163491  1
  Tm  Tm3  1  0.999888  0.000000  0.333339  1
  Tm  Tm4  1  0.499992  0.500000  0.503176  1
  Tm  Tm5  1  0.000094  0.000000  0.668657  1
  Rh  Rh6  1  0.499991  0.253935  0.997279  1
  Rh  Rh7  1  0.499991  0.746064  0.997279  1
  Rh  Rh8  1  0.999880  0.251194  0.165505  1
  Rh  Rh9  1  0.999880  0.748805  0.165505  1
  Rh  Rh10  1  0.499881  0.250563  0.333337  1
  Rh  Rh11  1  0.499881  0.749437  0.333337  1
  Rh  Rh12  1  0.999998  0.251195  0.501170  1
  Rh  Rh13  1  0.999998  0.748804  0.501170  1
  Rh  Rh14  1  0.500118  0.253936  0.669382  1
  Rh  Rh15  1  0.500118  0.746064  0.669382  1
  Rh  Rh16  1  0.000132  0.246132  0.833331  1
  Rh  Rh17  1  0.000132  0.753867  0.833331  1
  Pb  Pb18  1  0.999973  0.500000  0.990659  1
  Pb  Pb19  1  0.499912  0.000000  0.163556  1
  Pb  Pb20  1  0.999888  0.500000  0.333334  1
  Pb  Pb21  1  0.500002  0.000000  0.503118  1
  Pb  Pb22  1  0.000104  0.500000  0.675999  1
  Pb  Pb23  1  0.500115  0.000000  0.833332  1
