# generated using pymatgen
data_CaLaPr2(RhO3)4
_symmetry_space_group_name_H-M   'P 1'
_cell_length_a   5.45938671
_cell_length_b   5.85109237
_cell_length_c   7.84450800
_cell_angle_alpha   90.00000000
_cell_angle_beta   90.00000000
_cell_angle_gamma   89.86321439
_symmetry_Int_Tables_number   1
_chemical_formula_structural   CaLaPr2(RhO3)4
_chemical_formula_sum   'Ca1 La1 Pr2 Rh4 O12'
_cell_volume   250.57935405
_cell_formula_units_Z   1
loop_
 _symmetry_equiv_pos_site_id
 _symmetry_equiv_pos_as_xyz
  1  'x, y, z'
loop_
 _atom_site_type_symbol
 _atom_site_label
 _atom_site_symmetry_multiplicity
 _atom_site_fract_x
 _atom_site_fract_y
 _atom_site_fract_z
 _atom_site_occupancy
  Ca  Ca0  1  0.021349  0.932642  0.750000  1
  La  La1  1  0.478702  0.431852  0.750000  1
  Pr  Pr2  1  0.520879  0.571653  0.250000  1
  Pr  Pr3  1  0.977999  0.069358  0.250000  1
  Rh  Rh4  1  0.499092  0.000620  0.996128  1
  Rh  Rh5  1  0.001055  0.502144  0.503497  1
  Rh  Rh6  1  0.499092  0.000620  0.503872  1
  Rh  Rh7  1  0.001055  0.502144  0.996503  1
  O  O8  1  0.395333  0.969098  0.250000  1
  O  O9  1  0.102112  0.465314  0.250000  1
  O  O10  1  0.612645  0.033969  0.750000  1
  O  O11  1  0.898663  0.547510  0.750000  1
  O  O12  1  0.804246  0.797878  0.056935  1
  O  O13  1  0.692222  0.300643  0.447439  1
  O  O14  1  0.183995  0.192702  0.552329  1
  O  O15  1  0.315548  0.695316  0.954084  1
  O  O16  1  0.183995  0.192702  0.947671  1
  O  O17  1  0.315548  0.695316  0.545916  1
  O  O18  1  0.804246  0.797878  0.443065  1
  O  O19  1  0.692222  0.300643  0.052561  1
