# generated using pymatgen
data_Sr9TlZn12Te8(PbO24)2
_symmetry_space_group_name_H-M   'P 1'
_cell_length_a   11.33737696
_cell_length_b   11.29931218
_cell_length_c   11.29446900
_cell_angle_alpha   109.33999743
_cell_angle_beta   109.49775799
_cell_angle_gamma   109.67683953
_symmetry_Int_Tables_number   1
_chemical_formula_structural   Sr9TlZn12Te8(PbO24)2
_chemical_formula_sum   'Sr9 Tl1 Zn12 Te8 Pb2 O48'
_cell_volume   1112.40656599
_cell_formula_units_Z   1
loop_
 _symmetry_equiv_pos_site_id
 _symmetry_equiv_pos_as_xyz
  1  'x, y, z'
loop_
 _atom_site_type_symbol
 _atom_site_label
 _atom_site_symmetry_multiplicity
 _atom_site_fract_x
 _atom_site_fract_y
 _atom_site_fract_z
 _atom_site_occupancy
  Sr  Sr0  1  0.374848  0.124802  0.249631  1
  Sr  Sr1  1  0.125872  0.250250  0.374937  1
  Sr  Sr2  1  0.749010  0.124647  0.374940  1
  Sr  Sr3  1  0.875626  0.749704  0.624160  1
  Sr  Sr4  1  0.248521  0.874439  0.624124  1
  Sr  Sr5  1  0.125608  0.375641  0.751283  1
  Sr  Sr6  1  0.625078  0.875075  0.750188  1
  Sr  Sr7  1  0.625599  0.251440  0.875839  1
  Sr  Sr8  1  0.750224  0.624407  0.875839  1
  Tl  Tl9  1  0.875327  0.625291  0.250568  1
  Zn  Zn10  1  0.751552  0.877131  0.125840  1
  Zn  Zn11  1  0.874323  0.248730  0.125886  1
  Zn  Zn12  1  0.626877  0.375728  0.250040  1
  Zn  Zn13  1  0.123145  0.874344  0.250064  1
  Zn  Zn14  1  0.623614  0.750357  0.375587  1
  Zn  Zn15  1  0.251937  0.625237  0.375562  1
  Zn  Zn16  1  0.374715  0.249705  0.624810  1
  Zn  Zn17  1  0.750163  0.375185  0.624869  1
  Zn  Zn18  1  0.873561  0.123065  0.748626  1
  Zn  Zn19  1  0.375116  0.625575  0.748720  1
  Zn  Zn20  1  0.124935  0.750140  0.874748  1
  Zn  Zn21  1  0.249821  0.124567  0.874788  1
  Te  Te22  1  0.998868  0.998116  0.999145  1
  Te  Te23  1  0.500289  0.001035  0.999114  1
  Te  Te24  1  0.997911  0.497659  0.998766  1
  Te  Te25  1  0.500858  0.501094  0.998779  1
  Te  Te26  1  0.998782  0.000990  0.500573  1
  Te  Te27  1  0.501840  0.500357  0.501506  1
  Te  Te28  1  0.499679  0.001176  0.501558  1
  Te  Te29  1  0.001771  0.499572  0.500566  1
  Pb  Pb30  1  0.374778  0.750401  0.124746  1
  Pb  Pb31  1  0.250010  0.374412  0.124735  1
  O  O32  1  0.330231  0.907870  0.016574  1
  O  O33  1  0.186410  0.108813  0.016643  1
  O  O34  1  0.685174  0.671255  0.072870  1
  O  O35  1  0.887731  0.401611  0.072875  1
  O  O36  1  0.981286  0.668596  0.094133  1
  O  O37  1  0.612895  0.425526  0.094140  1
  O  O38  1  0.596023  0.926994  0.111054  1
  O  O39  1  0.015048  0.184067  0.111060  1
  O  O40  1  0.184744  0.575333  0.169520  1
  O  O41  1  0.484844  0.594201  0.169503  1
  O  O42  1  0.575587  0.169940  0.186914  1
  O  O43  1  0.111403  0.017025  0.186953  1
  O  O44  1  0.329356  0.926686  0.315679  1
  O  O45  1  0.486324  0.388974  0.315691  1
  O  O46  1  0.906216  0.019389  0.331209  1
  O  O47  1  0.924929  0.311806  0.331199  1
  O  O48  1  0.576006  0.907726  0.390775  1
  O  O49  1  0.314672  0.482971  0.390617  1
  O  O50  1  0.832179  0.518321  0.405827  1
  O  O51  1  0.073645  0.887555  0.405825  1
  O  O52  1  0.828733  0.816225  0.427038  1
  O  O53  1  0.098304  0.610816  0.427059  1
  O  O54  1  0.593690  0.169802  0.482263  1
  O  O55  1  0.388549  0.312420  0.482193  1
  O  O56  1  0.612914  0.687494  0.518635  1
  O  O57  1  0.405728  0.831158  0.518669  1
  O  O58  1  0.169562  0.187010  0.575096  1
  O  O59  1  0.905478  0.388058  0.575035  1
  O  O60  1  0.925211  0.113781  0.594858  1
  O  O61  1  0.169646  0.481052  0.594875  1
  O  O62  1  0.688398  0.518677  0.613642  1
  O  O63  1  0.425203  0.094955  0.613579  1
  O  O64  1  0.093505  0.982473  0.669379  1
  O  O65  1  0.075903  0.686875  0.669394  1
  O  O66  1  0.518507  0.612012  0.687768  1
  O  O67  1  0.669286  0.075827  0.687878  1
  O  O68  1  0.887659  0.980992  0.812141  1
  O  O69  1  0.424448  0.831123  0.812149  1
  O  O70  1  0.518258  0.405903  0.830126  1
  O  O71  1  0.811801  0.424214  0.830110  1
  O  O72  1  0.981822  0.811599  0.887616  1
  O  O73  1  0.405812  0.076026  0.887560  1
  O  O74  1  0.015200  0.329190  0.903138  1
  O  O75  1  0.387914  0.573952  0.903169  1
  O  O76  1  0.108326  0.592297  0.922228  1
  O  O77  1  0.313875  0.329899  0.922254  1
  O  O78  1  0.668911  0.094899  0.981265  1
  O  O79  1  0.812385  0.886335  0.981275  1
