# generated using pymatgen
data_CeDy15CdHg3Ru4
_symmetry_space_group_name_H-M   'P 1'
_cell_length_a   9.65099538
_cell_length_b   9.65099420
_cell_length_c   9.65099456
_cell_angle_alpha   59.48963946
_cell_angle_beta   59.48964213
_cell_angle_gamma   59.48964000
_symmetry_Int_Tables_number   1
_chemical_formula_structural   CeDy15CdHg3Ru4
_chemical_formula_sum   'Ce1 Dy15 Cd1 Hg3 Ru4'
_cell_volume   628.24725637
_cell_formula_units_Z   1
loop_
 _symmetry_equiv_pos_site_id
 _symmetry_equiv_pos_as_xyz
  1  'x, y, z'
loop_
 _atom_site_type_symbol
 _atom_site_label
 _atom_site_symmetry_multiplicity
 _atom_site_fract_x
 _atom_site_fract_y
 _atom_site_fract_z
 _atom_site_occupancy
  Ce  Ce0  1  0.342706  0.342706  0.342706  1
  Dy  Dy1  1  0.561973  0.561973  0.939367  1
  Dy  Dy2  1  0.938576  0.561261  0.938576  1
  Dy  Dy3  1  0.561261  0.938576  0.938576  1
  Dy  Dy4  1  0.938576  0.938576  0.561261  1
  Dy  Dy5  1  0.561973  0.939367  0.561973  1
  Dy  Dy6  1  0.939367  0.561973  0.561973  1
  Dy  Dy7  1  0.190275  0.190275  0.811424  1
  Dy  Dy8  1  0.811388  0.188562  0.811388  1
  Dy  Dy9  1  0.188561  0.811389  0.811388  1
  Dy  Dy10  1  0.811388  0.811389  0.188562  1
  Dy  Dy11  1  0.190274  0.811424  0.190274  1
  Dy  Dy12  1  0.811424  0.190275  0.190275  1
  Dy  Dy13  1  0.347360  0.347360  0.954111  1
  Dy  Dy14  1  0.347360  0.954111  0.347360  1
  Dy  Dy15  1  0.954111  0.347360  0.347360  1
  Cd  Cd16  1  0.579054  0.579054  0.579054  1
  Hg  Hg17  1  0.584269  0.584269  0.247372  1
  Hg  Hg18  1  0.584269  0.247372  0.584269  1
  Hg  Hg19  1  0.247372  0.584269  0.584269  1
  Ru  Ru20  1  0.146812  0.146812  0.575128  1
  Ru  Ru21  1  0.146812  0.575128  0.146812  1
  Ru  Ru22  1  0.575128  0.146812  0.146812  1
  Ru  Ru23  1  0.139708  0.139708  0.139708  1
