# generated using pymatgen
data_Tb3DyV3TcB16
_symmetry_space_group_name_H-M   'P 1'
_cell_length_a   3.51201400
_cell_length_b   5.99442203
_cell_length_c   11.60412001
_cell_angle_alpha   90.00350795
_cell_angle_beta   90.00000000
_cell_angle_gamma   90.00000000
_symmetry_Int_Tables_number   1
_chemical_formula_structural   Tb3DyV3TcB16
_chemical_formula_sum   'Tb3 Dy1 V3 Tc1 B16'
_cell_volume   244.29566755
_cell_formula_units_Z   1
loop_
 _symmetry_equiv_pos_site_id
 _symmetry_equiv_pos_as_xyz
  1  'x, y, z'
loop_
 _atom_site_type_symbol
 _atom_site_label
 _atom_site_symmetry_multiplicity
 _atom_site_fract_x
 _atom_site_fract_y
 _atom_site_fract_z
 _atom_site_occupancy
  Tb  Tb0  1  0.000000  0.876010  0.848943  1
  Tb  Tb1  1  0.000000  0.626088  0.348110  1
  Tb  Tb2  1  0.000000  0.375167  0.651137  1
  Dy  Dy3  1  0.000000  0.123324  0.150259  1
  V  V4  1  0.000000  0.872690  0.581587  1
  V  V5  1  0.000000  0.626458  0.083767  1
  V  V6  1  0.000000  0.373804  0.917793  1
  Tc  Tc7  1  0.000000  0.127184  0.417318  1
  B  B8  1  0.500000  0.475737  0.192197  1
  B  B9  1  0.500000  0.523845  0.807908  1
  B  B10  1  0.500000  0.976649  0.308044  1
  B  B11  1  0.500000  0.023247  0.691894  1
  B  B12  1  0.500000  0.283599  0.315416  1
  B  B13  1  0.500000  0.715953  0.684939  1
  B  B14  1  0.500000  0.785081  0.185532  1
  B  B15  1  0.500000  0.214945  0.814569  1
  B  B16  1  0.500000  0.364087  0.467979  1
  B  B17  1  0.500000  0.635623  0.532230  1
  B  B18  1  0.500000  0.863902  0.032748  1
  B  B19  1  0.500000  0.136204  0.967329  1
  B  B20  1  0.500000  0.385717  0.047316  1
  B  B21  1  0.500000  0.614568  0.952824  1
  B  B22  1  0.500000  0.886411  0.452995  1
  B  B23  1  0.500000  0.113708  0.547166  1
