# generated using pymatgen
data_Nb6Al3AuN2
_symmetry_space_group_name_H-M   'P 1'
_cell_length_a   7.08814298
_cell_length_b   7.09696690
_cell_length_c   7.10496300
_cell_angle_alpha   90.00000000
_cell_angle_beta   90.00000000
_cell_angle_gamma   90.33847333
_symmetry_Int_Tables_number   1
_chemical_formula_structural   Nb6Al3AuN2
_chemical_formula_sum   'Nb12 Al6 Au2 N4'
_cell_volume   357.40406820
_cell_formula_units_Z   2
loop_
 _symmetry_equiv_pos_site_id
 _symmetry_equiv_pos_as_xyz
  1  'x, y, z'
loop_
 _atom_site_type_symbol
 _atom_site_label
 _atom_site_symmetry_multiplicity
 _atom_site_fract_x
 _atom_site_fract_y
 _atom_site_fract_z
 _atom_site_occupancy
  Nb  Nb0  1  0.787589  0.957711  0.376810  1
  Nb  Nb1  1  0.712411  0.042289  0.876810  1
  Nb  Nb2  1  0.203641  0.452646  0.126946  1
  Nb  Nb3  1  0.296359  0.547354  0.626946  1
  Nb  Nb4  1  0.953389  0.381791  0.790629  1
  Nb  Nb5  1  0.040322  0.867037  0.709416  1
  Nb  Nb6  1  0.459678  0.132963  0.209416  1
  Nb  Nb7  1  0.546611  0.618209  0.290629  1
  Nb  Nb8  1  0.380916  0.787455  0.953217  1
  Nb  Nb9  1  0.871539  0.706493  0.042264  1
  Nb  Nb10  1  0.119084  0.212545  0.453217  1
  Nb  Nb11  1  0.628461  0.293507  0.542264  1
  Al  Al12  1  0.823208  0.321658  0.176174  1
  Al  Al13  1  0.676792  0.678342  0.676174  1
  Al  Al14  1  0.567797  0.425053  0.927865  1
  Al  Al15  1  0.424399  0.931635  0.570888  1
  Al  Al16  1  0.932203  0.574947  0.427865  1
  Al  Al17  1  0.075601  0.068365  0.070888  1
  Au  Au18  1  0.182517  0.821129  0.317390  1
  Au  Au19  1  0.317483  0.178871  0.817390  1
  N  N20  1  0.878790  0.123462  0.628369  1
  N  N21  1  0.621210  0.876538  0.128369  1
  N  N22  1  0.127645  0.623438  0.880033  1
  N  N23  1  0.372355  0.376562  0.380033  1
