# generated using pymatgen
data_Tb8DyEr(CoBi2)2
_symmetry_space_group_name_H-M   'P 1'
_cell_length_a   8.04212539
_cell_length_b   8.88925328
_cell_length_c   12.46278305
_cell_angle_alpha   89.94847892
_cell_angle_beta   90.07328614
_cell_angle_gamma   90.01073606
_symmetry_Int_Tables_number   1
_chemical_formula_structural   Tb8DyEr(CoBi2)2
_chemical_formula_sum   'Tb16 Dy2 Er2 Co4 Bi8'
_cell_volume   890.94443079
_cell_formula_units_Z   2
loop_
 _symmetry_equiv_pos_site_id
 _symmetry_equiv_pos_as_xyz
  1  'x, y, z'
loop_
 _atom_site_type_symbol
 _atom_site_label
 _atom_site_symmetry_multiplicity
 _atom_site_fract_x
 _atom_site_fract_y
 _atom_site_fract_z
 _atom_site_occupancy
  Tb  Tb0  1  0.848576  0.750249  0.801591  1
  Tb  Tb1  1  0.151558  0.249858  0.198606  1
  Tb  Tb2  1  0.348743  0.250055  0.698414  1
  Tb  Tb3  1  0.651155  0.749827  0.301752  1
  Tb  Tb4  1  0.379378  0.749502  0.689528  1
  Tb  Tb5  1  0.619134  0.250074  0.310775  1
  Tb  Tb6  1  0.880954  0.249684  0.810358  1
  Tb  Tb7  1  0.120583  0.750769  0.189899  1
  Tb  Tb8  1  0.954764  0.749984  0.502433  1
  Tb  Tb9  1  0.048662  0.250270  0.497525  1
  Tb  Tb10  1  0.451515  0.249341  0.997555  1
  Tb  Tb11  1  0.545002  0.750380  0.002380  1
  Tb  Tb12  1  0.823074  0.034106  0.062791  1
  Tb  Tb13  1  0.676903  0.466166  0.562674  1
  Tb  Tb14  1  0.823006  0.466283  0.062678  1
  Tb  Tb15  1  0.177157  0.534622  0.936822  1
  Dy  Dy16  1  0.675398  0.033799  0.562611  1
  Dy  Dy17  1  0.324444  0.965399  0.436906  1
  Er  Er18  1  0.174105  0.965078  0.936928  1
  Er  Er19  1  0.325896  0.534568  0.437065  1
  Co  Co20  1  0.556918  0.749809  0.507455  1
  Co  Co21  1  0.439810  0.249860  0.492099  1
  Co  Co22  1  0.060845  0.249423  0.991863  1
  Co  Co23  1  0.942307  0.750864  0.007783  1
  Bi  Bi24  1  0.571596  0.491926  0.825885  1
  Bi  Bi25  1  0.428541  0.507931  0.174602  1
  Bi  Bi26  1  0.071010  0.507957  0.674209  1
  Bi  Bi27  1  0.429001  0.992102  0.174554  1
  Bi  Bi28  1  0.930040  0.492367  0.326044  1
  Bi  Bi29  1  0.570029  0.007615  0.825746  1
  Bi  Bi30  1  0.928896  0.007996  0.326090  1
  Bi  Bi31  1  0.070997  0.992133  0.674376  1
