# generated using pymatgen
data_Nd4Al24Pd2Pt7
_symmetry_space_group_name_H-M   'P 1'
_cell_length_a   7.54467686
_cell_length_b   7.56717005
_cell_length_c   13.36951301
_cell_angle_alpha   84.85011198
_cell_angle_beta   100.60870432
_cell_angle_gamma   119.59398727
_symmetry_Int_Tables_number   1
_chemical_formula_structural   Nd4Al24Pd2Pt7
_chemical_formula_sum   'Nd4 Al24 Pd2 Pt7'
_cell_volume   652.37133484
_cell_formula_units_Z   1
loop_
 _symmetry_equiv_pos_site_id
 _symmetry_equiv_pos_as_xyz
  1  'x, y, z'
loop_
 _atom_site_type_symbol
 _atom_site_label
 _atom_site_symmetry_multiplicity
 _atom_site_fract_x
 _atom_site_fract_y
 _atom_site_fract_z
 _atom_site_occupancy
  Nd  Nd0  1  0.732057  0.998461  0.191863  1
  Nd  Nd1  1  0.268309  0.001805  0.808145  1
  Nd  Nd2  1  0.062399  0.668480  0.192040  1
  Nd  Nd3  1  0.937819  0.331074  0.808052  1
  Al  Al4  1  0.805424  0.867204  0.814805  1
  Al  Al5  1  0.194406  0.132931  0.185172  1
  Al  Al6  1  0.979030  0.666155  0.945513  1
  Al  Al7  1  0.020811  0.333806  0.054201  1
  Al  Al8  1  0.399197  0.663906  0.815925  1
  Al  Al9  1  0.600073  0.336321  0.183997  1
  Al  Al10  1  0.880177  0.665227  0.667143  1
  Al  Al11  1  0.120201  0.334654  0.333031  1
  Al  Al12  1  0.602532  0.461001  0.815447  1
  Al  Al13  1  0.396956  0.539367  0.184602  1
  Al  Al14  1  0.230397  0.340411  0.665920  1
  Al  Al15  1  0.769631  0.659448  0.333990  1
  Al  Al16  1  0.853426  0.333030  0.557639  1
  Al  Al17  1  0.185704  0.999309  0.558166  1
  Al  Al18  1  0.814245  0.000604  0.441852  1
  Al  Al19  1  0.352356  0.002157  0.054204  1
  Al  Al20  1  0.647774  0.997817  0.946060  1
  Al  Al21  1  0.555564  0.992940  0.667102  1
  Al  Al22  1  0.444594  0.006816  0.332851  1
  Al  Al23  1  0.520717  0.667284  0.560159  1
  Al  Al24  1  0.479321  0.332521  0.440045  1
  Al  Al25  1  0.680694  0.665773  0.044490  1
  Al  Al26  1  0.319072  0.334564  0.955450  1
  Al  Al27  1  0.146796  0.666966  0.442229  1
  Pd  Pd28  1  0.328563  0.671159  0.000138  1
  Pd  Pd29  1  0.000056  0.999926  0.000020  1
  Pt  Pt30  1  0.546178  0.327074  0.635010  1
  Pt  Pt31  1  0.454193  0.672788  0.365310  1
  Pt  Pt32  1  0.884950  0.005439  0.636164  1
  Pt  Pt33  1  0.115044  0.994286  0.363773  1
  Pt  Pt34  1  0.671350  0.329178  0.999872  1
  Pt  Pt35  1  0.205981  0.666455  0.636498  1
  Pt  Pt36  1  0.794002  0.333665  0.363118  1
