# generated using pymatgen
data_Li4Nd4BiPb3
_symmetry_space_group_name_H-M   'P 1'
_cell_length_a   9.70384835
_cell_length_b   9.70663207
_cell_length_c   7.66388327
_cell_angle_alpha   90.00000507
_cell_angle_beta   90.05527793
_cell_angle_gamma   120.00948122
_symmetry_Int_Tables_number   1
_chemical_formula_structural   Li4Nd4BiPb3
_chemical_formula_sum   'Li8 Nd8 Bi2 Pb6'
_cell_volume   625.10117109
_cell_formula_units_Z   2
loop_
 _symmetry_equiv_pos_site_id
 _symmetry_equiv_pos_as_xyz
  1  'x, y, z'
loop_
 _atom_site_type_symbol
 _atom_site_label
 _atom_site_symmetry_multiplicity
 _atom_site_fract_x
 _atom_site_fract_y
 _atom_site_fract_z
 _atom_site_occupancy
  Li  Li0  1  0.167432  0.333882  0.283571  1
  Li  Li1  1  0.167432  0.833550  0.283571  1
  Li  Li2  1  0.665743  0.832872  0.285774  1
  Li  Li3  1  0.831086  0.665413  0.786406  1
  Li  Li4  1  0.831086  0.165674  0.786406  1
  Li  Li5  1  0.335327  0.167663  0.789495  1
  Li  Li6  1  0.335174  0.667587  0.667979  1
  Li  Li7  1  0.666516  0.333257  0.171574  1
  Nd  Nd8  1  0.515341  0.025329  0.492682  1
  Nd  Nd9  1  0.515341  0.490012  0.492682  1
  Nd  Nd10  1  0.973196  0.486599  0.490865  1
  Nd  Nd11  1  0.490836  0.977740  0.996592  1
  Nd  Nd12  1  0.490836  0.513096  0.996592  1
  Nd  Nd13  1  0.020566  0.510282  0.997642  1
  Nd  Nd14  1  0.997311  0.998656  0.496993  1
  Nd  Nd15  1  0.997084  0.998543  0.003164  1
  Bi  Bi16  1  0.166468  0.333736  0.733200  1
  Bi  Bi17  1  0.166468  0.832733  0.733200  1
  Pb  Pb18  1  0.666354  0.833177  0.731025  1
  Pb  Pb19  1  0.833545  0.666534  0.231838  1
  Pb  Pb20  1  0.833545  0.167010  0.231838  1
  Pb  Pb21  1  0.333627  0.166813  0.231071  1
  Pb  Pb22  1  0.332514  0.666258  0.263710  1
  Pb  Pb23  1  0.667169  0.333584  0.764107  1
