# generated using pymatgen
data_Sc8Zn(Si5Ru4)3
_symmetry_space_group_name_H-M   'P 1'
_cell_length_a   10.00344340
_cell_length_b   10.01064814
_cell_length_c   13.44624300
_cell_angle_alpha   53.91548619
_cell_angle_beta   53.75983321
_cell_angle_gamma   30.98266489
_symmetry_Int_Tables_number   1
_chemical_formula_structural   Sc8Zn(Si5Ru4)3
_chemical_formula_sum   'Sc8 Zn1 Si15 Ru12'
_cell_volume   548.01174780
_cell_formula_units_Z   1
loop_
 _symmetry_equiv_pos_site_id
 _symmetry_equiv_pos_as_xyz
  1  'x, y, z'
loop_
 _atom_site_type_symbol
 _atom_site_label
 _atom_site_symmetry_multiplicity
 _atom_site_fract_x
 _atom_site_fract_y
 _atom_site_fract_z
 _atom_site_occupancy
  Sc  Sc0  1  0.292884  0.561234  0.645235  1
  Sc  Sc1  1  0.707642  0.965293  0.859986  1
  Sc  Sc2  1  0.287902  0.039437  0.139337  1
  Sc  Sc3  1  0.434744  0.709117  0.856902  1
  Sc  Sc4  1  0.035832  0.292211  0.640438  1
  Sc  Sc5  1  0.568909  0.290963  0.142491  1
  Sc  Sc6  1  0.961062  0.710372  0.360902  1
  Sc  Sc7  1  0.704546  0.439396  0.356514  1
  Zn  Zn8  1  0.042206  0.735336  0.101440  1
  Si  Si9  1  0.611860  0.859457  0.601036  1
  Si  Si10  1  0.973499  0.253822  0.893334  1
  Si  Si11  1  0.383388  0.615830  0.250257  1
  Si  Si12  1  0.385887  0.138507  0.399917  1
  Si  Si13  1  0.575860  0.080044  0.069475  1
  Si  Si14  1  0.137705  0.389152  0.899068  1
  Si  Si15  1  0.251728  0.973166  0.395916  1
  Si  Si16  1  0.081700  0.573747  0.567263  1
  Si  Si17  1  0.426516  0.920905  0.930705  1
  Si  Si18  1  0.126670  0.871944  0.751605  1
  Si  Si19  1  0.748010  0.024480  0.607721  1
  Si  Si20  1  0.870107  0.130311  0.250859  1
  Si  Si21  1  0.614251  0.388044  0.747995  1
  Si  Si22  1  0.918803  0.425004  0.433980  1
  Si  Si23  1  0.863582  0.614811  0.098693  1
  Ru  Ru24  1  0.146022  0.904795  0.085741  1
  Ru  Ru25  1  0.166237  0.337122  0.224211  1
  Ru  Ru26  1  0.354459  0.168165  0.716728  1
  Ru  Ru27  1  0.831996  0.646850  0.781771  1
  Ru  Ru28  1  0.507708  0.246256  0.432128  1
  Ru  Ru29  1  0.844369  0.122537  0.909305  1
  Ru  Ru30  1  0.647758  0.824547  0.283923  1
  Ru  Ru31  1  0.255402  0.498588  0.928256  1
  Ru  Ru32  1  0.750705  0.495966  0.067558  1
  Ru  Ru33  1  0.104151  0.856891  0.414325  1
  Ru  Ru34  1  0.895595  0.141998  0.587142  1
  Ru  Ru35  1  0.490303  0.753701  0.567844  1
