# generated using pymatgen
data_Ir2IF18
_symmetry_space_group_name_H-M   'P 1'
_cell_length_a   5.38376330
_cell_length_b   8.82338071
_cell_length_c   8.89451133
_cell_angle_alpha   61.57242402
_cell_angle_beta   84.29452283
_cell_angle_gamma   84.48827783
_symmetry_Int_Tables_number   1
_chemical_formula_structural   Ir2IF18
_chemical_formula_sum   'Ir2 I1 F18'
_cell_volume   369.15446657
_cell_formula_units_Z   1
loop_
 _symmetry_equiv_pos_site_id
 _symmetry_equiv_pos_as_xyz
  1  'x, y, z'
loop_
 _atom_site_type_symbol
 _atom_site_label
 _atom_site_symmetry_multiplicity
 _atom_site_fract_x
 _atom_site_fract_y
 _atom_site_fract_z
 _atom_site_occupancy
  Ir  Ir0  1  0.561989  0.334296  0.334286  1
  Ir  Ir1  1  0.438195  0.664595  0.666152  1
  I  I2  1  0.999811  0.001088  0.999568  1
  F  F3  1  0.875763  0.778722  0.072492  1
  F  F4  1  0.686521  0.074128  0.074333  1
  F  F5  1  0.735663  0.411429  0.119159  1
  F  F6  1  0.121430  0.921891  0.221465  1
  F  F7  1  0.387826  0.550553  0.256968  1
  F  F8  1  0.311107  0.256310  0.259837  1
  F  F9  1  0.812741  0.412306  0.408806  1
  F  F10  1  0.736703  0.118293  0.411416  1
  F  F11  1  0.611359  0.742269  0.450578  1
  F  F12  1  0.389020  0.257239  0.549698  1
  F  F13  1  0.263162  0.880572  0.589471  1
  F  F14  1  0.187766  0.586730  0.591117  1
  F  F15  1  0.688699  0.742487  0.741142  1
  F  F16  1  0.612704  0.448438  0.742808  1
  F  F17  1  0.878198  0.080477  0.777591  1
  F  F18  1  0.264395  0.586785  0.881437  1
  F  F19  1  0.313159  0.927915  0.925051  1
  F  F20  1  0.123791  0.223476  0.926631  1
