# generated using pymatgen
data_HfZrTi3Ir
_symmetry_space_group_name_H-M   'P 1'
_cell_length_a   5.21132731
_cell_length_b   5.21132751
_cell_length_c   5.21132801
_cell_angle_alpha   64.40254553
_cell_angle_beta   64.40254420
_cell_angle_gamma   64.40255569
_symmetry_Int_Tables_number   1
_chemical_formula_structural   HfZrTi3Ir
_chemical_formula_sum   'Hf1 Zr1 Ti3 Ir1'
_cell_volume   109.74687319
_cell_formula_units_Z   1
loop_
 _symmetry_equiv_pos_site_id
 _symmetry_equiv_pos_as_xyz
  1  'x, y, z'
loop_
 _atom_site_type_symbol
 _atom_site_label
 _atom_site_symmetry_multiplicity
 _atom_site_fract_x
 _atom_site_fract_y
 _atom_site_fract_z
 _atom_site_occupancy
  Hf  Hf0  1  0.500497  0.500497  0.500497  1
  Zr  Zr1  1  0.750233  0.750233  0.750233  1
  Ti  Ti2  1  0.624165  0.125021  0.125021  1
  Ti  Ti3  1  0.125021  0.125021  0.624165  1
  Ti  Ti4  1  0.125021  0.624165  0.125021  1
  Ir  Ir5  1  0.125064  0.125064  0.125064  1
