# generated using pymatgen
data_TbYPa2(Al8Pt3)3
_symmetry_space_group_name_H-M   'P 1'
_cell_length_a   7.58240387
_cell_length_b   7.58895055
_cell_length_c   13.12588508
_cell_angle_alpha   84.48498556
_cell_angle_beta   78.89825276
_cell_angle_gamma   59.91395144
_symmetry_Int_Tables_number   1
_chemical_formula_structural   TbYPa2(Al8Pt3)3
_chemical_formula_sum   'Tb1 Y1 Pa2 Al24 Pt9'
_cell_volume   641.30783100
_cell_formula_units_Z   1
loop_
 _symmetry_equiv_pos_site_id
 _symmetry_equiv_pos_as_xyz
  1  'x, y, z'
loop_
 _atom_site_type_symbol
 _atom_site_label
 _atom_site_symmetry_multiplicity
 _atom_site_fract_x
 _atom_site_fract_y
 _atom_site_fract_z
 _atom_site_occupancy
  Tb  Tb0  1  0.266370  0.501479  0.191585  1
  Y  Y1  1  0.733634  0.498521  0.808409  1
  Pa  Pa2  1  0.395784  0.167948  0.804094  1
  Pa  Pa3  1  0.604225  0.832056  0.195888  1
  Al  Al4  1  0.683925  0.834111  0.944838  1
  Al  Al5  1  0.316043  0.165923  0.055118  1
  Al  Al6  1  0.145452  0.832767  0.561283  1
  Al  Al7  1  0.854552  0.167233  0.438710  1
  Al  Al8  1  0.480728  0.167675  0.557825  1
  Al  Al9  1  0.519268  0.832321  0.442193  1
  Al  Al10  1  0.213914  0.168361  0.331442  1
  Al  Al11  1  0.786036  0.831658  0.668580  1
  Al  Al12  1  0.437571  0.509656  0.669390  1
  Al  Al13  1  0.562443  0.490303  0.330628  1
  Al  Al14  1  0.107718  0.159546  0.667607  1
  Al  Al15  1  0.892292  0.840476  0.332414  1
  Al  Al16  1  0.353072  0.499300  0.943228  1
  Al  Al17  1  0.646942  0.500662  0.056756  1
  Al  Al18  1  0.016163  0.167601  0.952387  1
  Al  Al19  1  0.983875  0.832403  0.047597  1
  Al  Al20  1  0.185542  0.500381  0.441328  1
  Al  Al21  1  0.814459  0.499620  0.558668  1
  Al  Al22  1  0.736823  0.161870  0.182923  1
  Al  Al23  1  0.263206  0.838171  0.817079  1
  Al  Al24  1  0.062915  0.630787  0.815955  1
  Al  Al25  1  0.937117  0.369148  0.184046  1
  Al  Al26  1  0.854995  0.039982  0.816989  1
  Al  Al27  1  0.144936  0.960049  0.183013  1
  Pt  Pt28  1  0.120820  0.490451  0.639893  1
  Pt  Pt29  1  0.879187  0.509537  0.360120  1
  Pt  Pt30  1  0.656726  0.172696  0.000059  1
  Pt  Pt31  1  0.343281  0.827303  0.999932  1
  Pt  Pt32  1  0.537510  0.165635  0.360408  1
  Pt  Pt33  1  0.462481  0.834370  0.639607  1
  Pt  Pt34  1  0.777458  0.175246  0.638705  1
  Pt  Pt35  1  0.222530  0.824757  0.361310  1
  Pt  Pt36  1  0.000004  0.499995  0.999993  1
