# generated using pymatgen
data_CaTh(Si7Rh3)2
_symmetry_space_group_name_H-M   'P 1'
_cell_length_a   8.05721568
_cell_length_b   8.05721494
_cell_length_c   8.05721522
_cell_angle_alpha   56.91595229
_cell_angle_beta   56.91594722
_cell_angle_gamma   56.91593794
_symmetry_Int_Tables_number   1
_chemical_formula_structural   CaTh(Si7Rh3)2
_chemical_formula_sum   'Ca1 Th1 Si14 Rh6'
_cell_volume   343.54991628
_cell_formula_units_Z   1
loop_
 _symmetry_equiv_pos_site_id
 _symmetry_equiv_pos_as_xyz
  1  'x, y, z'
loop_
 _atom_site_type_symbol
 _atom_site_label
 _atom_site_symmetry_multiplicity
 _atom_site_fract_x
 _atom_site_fract_y
 _atom_site_fract_z
 _atom_site_occupancy
  Ca  Ca0  1  0.000000  0.000000  0.000000  1
  Th  Th1  1  0.500000  0.500000  0.500000  1
  Si  Si2  1  0.749845  0.749845  0.749845  1
  Si  Si3  1  0.250155  0.250155  0.250155  1
  Si  Si4  1  0.854127  0.062337  0.674039  1
  Si  Si5  1  0.674039  0.854127  0.062337  1
  Si  Si6  1  0.062337  0.674039  0.854127  1
  Si  Si7  1  0.651396  0.828814  0.435152  1
  Si  Si8  1  0.435152  0.651396  0.828814  1
  Si  Si9  1  0.828814  0.435152  0.651396  1
  Si  Si10  1  0.171186  0.564848  0.348604  1
  Si  Si11  1  0.564848  0.348604  0.171186  1
  Si  Si12  1  0.348604  0.171186  0.564848  1
  Si  Si13  1  0.937663  0.325961  0.145873  1
  Si  Si14  1  0.325961  0.145873  0.937663  1
  Si  Si15  1  0.145873  0.937663  0.325961  1
  Rh  Rh16  1  0.070412  0.433030  0.748666  1
  Rh  Rh17  1  0.251334  0.929588  0.566970  1
  Rh  Rh18  1  0.566970  0.251334  0.929588  1
  Rh  Rh19  1  0.929588  0.566970  0.251334  1
  Rh  Rh20  1  0.433030  0.748666  0.070412  1
  Rh  Rh21  1  0.748666  0.070412  0.433030  1
