# generated using pymatgen
data_Dy3Ho2Mo3(P3Ir4)4
_symmetry_space_group_name_H-M   'P 1'
_cell_length_a   12.67625700
_cell_length_b   12.67625624
_cell_length_c   3.98914700
_cell_angle_alpha   90.00000000
_cell_angle_beta   90.00000000
_cell_angle_gamma   119.99999937
_symmetry_Int_Tables_number   1
_chemical_formula_structural   Dy3Ho2Mo3(P3Ir4)4
_chemical_formula_sum   'Dy3 Ho2 Mo3 P12 Ir16'
_cell_volume   555.12747176
_cell_formula_units_Z   1
loop_
 _symmetry_equiv_pos_site_id
 _symmetry_equiv_pos_as_xyz
  1  'x, y, z'
loop_
 _atom_site_type_symbol
 _atom_site_label
 _atom_site_symmetry_multiplicity
 _atom_site_fract_x
 _atom_site_fract_y
 _atom_site_fract_z
 _atom_site_occupancy
  Dy  Dy0  1  0.000000  0.812984  0.000000  1
  Dy  Dy1  1  0.187016  0.187016  0.000000  1
  Dy  Dy2  1  0.812984  0.000000  0.000000  1
  Ho  Ho3  1  0.333333  0.666667  0.500000  1
  Ho  Ho4  1  0.666667  0.333333  0.500000  1
  Mo  Mo5  1  0.000000  0.453433  0.500000  1
  Mo  Mo6  1  0.546567  0.546567  0.500000  1
  Mo  Mo7  1  0.453433  0.000000  0.500000  1
  P  P8  1  0.000000  0.638781  0.500000  1
  P  P9  1  0.361219  0.361219  0.500000  1
  P  P10  1  0.638781  0.000000  0.500000  1
  P  P11  1  0.516128  0.684325  0.000000  1
  P  P12  1  0.315675  0.831803  0.000000  1
  P  P13  1  0.168197  0.483872  0.000000  1
  P  P14  1  0.483872  0.168197  0.000000  1
  P  P15  1  0.684325  0.516128  0.000000  1
  P  P16  1  0.831803  0.315675  0.000000  1
  P  P17  1  0.000000  0.176890  0.500000  1
  P  P18  1  0.823110  0.823110  0.500000  1
  P  P19  1  0.176890  0.000000  0.500000  1
  Ir  Ir20  1  0.509008  0.866494  0.000000  1
  Ir  Ir21  1  0.133506  0.642515  0.000000  1
  Ir  Ir22  1  0.357485  0.490992  0.000000  1
  Ir  Ir23  1  0.490992  0.357485  0.000000  1
  Ir  Ir24  1  0.866494  0.509008  0.000000  1
  Ir  Ir25  1  0.642515  0.133506  0.000000  1
  Ir  Ir26  1  0.000000  0.286519  0.000000  1
  Ir  Ir27  1  0.713481  0.713481  0.000000  1
  Ir  Ir28  1  0.286519  0.000000  0.000000  1
  Ir  Ir29  1  0.625768  0.804510  0.500000  1
  Ir  Ir30  1  0.195490  0.821258  0.500000  1
  Ir  Ir31  1  0.178742  0.374232  0.500000  1
  Ir  Ir32  1  0.374232  0.178742  0.500000  1
  Ir  Ir33  1  0.804510  0.625768  0.500000  1
  Ir  Ir34  1  0.821258  0.195490  0.500000  1
  Ir  Ir35  1  0.000000  0.000000  0.500000  1
