# generated using pymatgen
data_Tb20Fe3NiBi8
_symmetry_space_group_name_H-M   'P 1'
_cell_length_a   8.03627029
_cell_length_b   8.92459900
_cell_length_c   12.46004408
_cell_angle_alpha   90.00000000
_cell_angle_beta   90.15029871
_cell_angle_gamma   90.00000000
_symmetry_Int_Tables_number   1
_chemical_formula_structural   Tb20Fe3NiBi8
_chemical_formula_sum   'Tb20 Fe3 Ni1 Bi8'
_cell_volume   893.63739020
_cell_formula_units_Z   1
loop_
 _symmetry_equiv_pos_site_id
 _symmetry_equiv_pos_as_xyz
  1  'x, y, z'
loop_
 _atom_site_type_symbol
 _atom_site_label
 _atom_site_symmetry_multiplicity
 _atom_site_fract_x
 _atom_site_fract_y
 _atom_site_fract_z
 _atom_site_occupancy
  Tb  Tb0  1  0.845531  0.750000  0.796494  1
  Tb  Tb1  1  0.151289  0.250000  0.198961  1
  Tb  Tb2  1  0.348802  0.250000  0.699976  1
  Tb  Tb3  1  0.650089  0.750000  0.301499  1
  Tb  Tb4  1  0.381631  0.750000  0.691229  1
  Tb  Tb5  1  0.616193  0.250000  0.310712  1
  Tb  Tb6  1  0.883138  0.250000  0.811779  1
  Tb  Tb7  1  0.121539  0.750000  0.192189  1
  Tb  Tb8  1  0.948259  0.750000  0.503317  1
  Tb  Tb9  1  0.054380  0.250000  0.495167  1
  Tb  Tb10  1  0.450430  0.250000  0.996504  1
  Tb  Tb11  1  0.544602  0.750000  0.003913  1
  Tb  Tb12  1  0.674175  0.032854  0.561492  1
  Tb  Tb13  1  0.324339  0.962541  0.438047  1
  Tb  Tb14  1  0.177531  0.968973  0.936021  1
  Tb  Tb15  1  0.324339  0.537459  0.438047  1
  Tb  Tb16  1  0.822470  0.041048  0.062824  1
  Tb  Tb17  1  0.674175  0.467146  0.561492  1
  Tb  Tb18  1  0.822470  0.458952  0.062824  1
  Tb  Tb19  1  0.177531  0.531027  0.936021  1
  Fe  Fe20  1  0.573119  0.750000  0.512201  1
  Fe  Fe21  1  0.430073  0.250000  0.490731  1
  Fe  Fe22  1  0.067387  0.250000  0.990801  1
  Ni  Ni23  1  0.935448  0.750000  0.009031  1
  Bi  Bi24  1  0.573666  0.492623  0.826703  1
  Bi  Bi25  1  0.427651  0.507218  0.173724  1
  Bi  Bi26  1  0.071691  0.507014  0.673084  1
  Bi  Bi27  1  0.427651  0.992782  0.173724  1
  Bi  Bi28  1  0.927522  0.492408  0.325850  1
  Bi  Bi29  1  0.573666  0.007377  0.826703  1
  Bi  Bi30  1  0.927522  0.007592  0.325850  1
  Bi  Bi31  1  0.071691  0.992986  0.673084  1
