# generated using pymatgen
data_KFeNiAs2
_symmetry_space_group_name_H-M   'P 1'
_cell_length_a   7.44080410
_cell_length_b   7.44080387
_cell_length_c   7.44080443
_cell_angle_alpha   150.36935507
_cell_angle_beta   150.36934685
_cell_angle_gamma   42.39950740
_symmetry_Int_Tables_number   1
_chemical_formula_structural   KFeNiAs2
_chemical_formula_sum   'K1 Fe1 Ni1 As2'
_cell_volume   100.45308962
_cell_formula_units_Z   1
loop_
 _symmetry_equiv_pos_site_id
 _symmetry_equiv_pos_as_xyz
  1  'x, y, z'
loop_
 _atom_site_type_symbol
 _atom_site_label
 _atom_site_symmetry_multiplicity
 _atom_site_fract_x
 _atom_site_fract_y
 _atom_site_fract_z
 _atom_site_occupancy
  K  K0  1  0.000000  0.000000  0.000000  1
  Fe  Fe1  1  0.250000  0.750000  0.500000  1
  Ni  Ni2  1  0.750000  0.250000  0.500000  1
  As  As3  1  0.652885  0.652885  0.000000  1
  As  As4  1  0.347115  0.347115  0.000000  1
