# generated using pymatgen
data_Zr2TiRh5
_symmetry_space_group_name_H-M   'P 1'
_cell_length_a   4.23195600
_cell_length_b   5.59615100
_cell_length_c   10.90035200
_cell_angle_alpha   90.00000000
_cell_angle_beta   90.00000000
_cell_angle_gamma   90.00000000
_symmetry_Int_Tables_number   1
_chemical_formula_structural   Zr2TiRh5
_chemical_formula_sum   'Zr4 Ti2 Rh10'
_cell_volume   258.14938263
_cell_formula_units_Z   2
loop_
 _symmetry_equiv_pos_site_id
 _symmetry_equiv_pos_as_xyz
  1  'x, y, z'
loop_
 _atom_site_type_symbol
 _atom_site_label
 _atom_site_symmetry_multiplicity
 _atom_site_fract_x
 _atom_site_fract_y
 _atom_site_fract_z
 _atom_site_occupancy
  Zr  Zr0  1  0.500000  0.339116  0.144141  1
  Zr  Zr1  1  0.500000  0.660884  0.855859  1
  Zr  Zr2  1  0.500000  0.839116  0.355859  1
  Zr  Zr3  1  0.500000  0.160884  0.644141  1
  Ti  Ti4  1  0.000000  0.000000  0.000000  1
  Ti  Ti5  1  0.000000  0.500000  0.500000  1
  Rh  Rh6  1  0.000000  0.000000  0.500000  1
  Rh  Rh7  1  0.000000  0.500000  0.000000  1
  Rh  Rh8  1  0.000000  0.091697  0.239523  1
  Rh  Rh9  1  0.000000  0.908303  0.760477  1
  Rh  Rh10  1  0.000000  0.591697  0.260477  1
  Rh  Rh11  1  0.000000  0.408303  0.739523  1
  Rh  Rh12  1  0.500000  0.323972  0.396383  1
  Rh  Rh13  1  0.500000  0.676028  0.603617  1
  Rh  Rh14  1  0.500000  0.823972  0.103617  1
  Rh  Rh15  1  0.500000  0.176028  0.896383  1
