# generated using pymatgen
data_K5SiP3
_symmetry_space_group_name_H-M   'P 1'
_cell_length_a   5.19228200
_cell_length_b   14.24792300
_cell_length_c   15.12131300
_cell_angle_alpha   90.00000000
_cell_angle_beta   90.00000000
_cell_angle_gamma   90.00000000
_symmetry_Int_Tables_number   1
_chemical_formula_structural   K5SiP3
_chemical_formula_sum   'K20 Si4 P12'
_cell_volume   1118.66315478
_cell_formula_units_Z   4
loop_
 _symmetry_equiv_pos_site_id
 _symmetry_equiv_pos_as_xyz
  1  'x, y, z'
loop_
 _atom_site_type_symbol
 _atom_site_label
 _atom_site_symmetry_multiplicity
 _atom_site_fract_x
 _atom_site_fract_y
 _atom_site_fract_z
 _atom_site_occupancy
  K  K0  1  0.250000  0.945640  0.301890  1
  K  K1  1  0.750000  0.054360  0.698110  1
  K  K2  1  0.750000  0.445640  0.198110  1
  K  K3  1  0.250000  0.554360  0.801890  1
  K  K4  1  0.250000  0.119391  0.516846  1
  K  K5  1  0.750000  0.880609  0.483154  1
  K  K6  1  0.750000  0.619391  0.983154  1
  K  K7  1  0.250000  0.380609  0.016846  1
  K  K8  1  0.250000  0.423990  0.567789  1
  K  K9  1  0.750000  0.576010  0.432211  1
  K  K10  1  0.750000  0.923990  0.932211  1
  K  K11  1  0.250000  0.076010  0.067789  1
  K  K12  1  0.250000  0.818297  0.082857  1
  K  K13  1  0.750000  0.181703  0.917143  1
  K  K14  1  0.750000  0.318297  0.417143  1
  K  K15  1  0.250000  0.681703  0.582857  1
  K  K16  1  0.250000  0.234927  0.264068  1
  K  K17  1  0.750000  0.765073  0.735932  1
  K  K18  1  0.750000  0.734927  0.235932  1
  K  K19  1  0.250000  0.265073  0.764068  1
  Si  Si20  1  0.250000  0.586041  0.282736  1
  Si  Si21  1  0.750000  0.413959  0.717264  1
  Si  Si22  1  0.750000  0.086041  0.217264  1
  Si  Si23  1  0.250000  0.913959  0.782736  1
  P  P24  1  0.250000  0.593488  0.136035  1
  P  P25  1  0.750000  0.406512  0.863965  1
  P  P26  1  0.750000  0.093488  0.363965  1
  P  P27  1  0.250000  0.906512  0.636035  1
  P  P28  1  0.250000  0.448562  0.348408  1
  P  P29  1  0.750000  0.551438  0.651592  1
  P  P30  1  0.750000  0.948562  0.151592  1
  P  P31  1  0.250000  0.051438  0.848408  1
  P  P32  1  0.250000  0.714344  0.365327  1
  P  P33  1  0.750000  0.285656  0.634673  1
  P  P34  1  0.750000  0.214344  0.134673  1
  P  P35  1  0.250000  0.785656  0.865327  1
