# generated using pymatgen
data_YErIn(AsRh2)6
_symmetry_space_group_name_H-M   'P 1'
_cell_length_a   10.03440400
_cell_length_b   10.03440419
_cell_length_c   3.97822300
_cell_angle_alpha   90.00000000
_cell_angle_beta   90.00000000
_cell_angle_gamma   119.99999936
_symmetry_Int_Tables_number   1
_chemical_formula_structural   YErIn(AsRh2)6
_chemical_formula_sum   'Y1 Er1 In1 As6 Rh12'
_cell_volume   346.89890709
_cell_formula_units_Z   1
loop_
 _symmetry_equiv_pos_site_id
 _symmetry_equiv_pos_as_xyz
  1  'x, y, z'
loop_
 _atom_site_type_symbol
 _atom_site_label
 _atom_site_symmetry_multiplicity
 _atom_site_fract_x
 _atom_site_fract_y
 _atom_site_fract_z
 _atom_site_occupancy
  Y  Y0  1  0.000000  0.000000  0.246848  1
  Er  Er1  1  0.333333  0.666667  0.754510  1
  In  In2  1  0.666667  0.333333  0.587296  1
  As  As3  1  0.954394  0.216273  0.747061  1
  As  As4  1  0.783727  0.738121  0.747061  1
  As  As5  1  0.261879  0.045606  0.747061  1
  As  As6  1  0.378265  0.449234  0.254652  1
  As  As7  1  0.550766  0.929031  0.254652  1
  As  As8  1  0.070969  0.621735  0.254652  1
  Rh  Rh9  1  0.733113  0.950115  0.750092  1
  Rh  Rh10  1  0.049885  0.782998  0.750092  1
  Rh  Rh11  1  0.217002  0.266887  0.750092  1
  Rh  Rh12  1  0.602802  0.720162  0.252183  1
  Rh  Rh13  1  0.279838  0.882642  0.252183  1
  Rh  Rh14  1  0.117358  0.397198  0.252183  1
  Rh  Rh15  1  0.959541  0.462644  0.757267  1
  Rh  Rh16  1  0.537356  0.496897  0.757267  1
  Rh  Rh17  1  0.503103  0.040459  0.757267  1
  Rh  Rh18  1  0.388777  0.209164  0.243921  1
  Rh  Rh19  1  0.790836  0.179612  0.243921  1
  Rh  Rh20  1  0.820388  0.611223  0.243921  1
