# generated using pymatgen
data_Pr2Al20Ru3Rh
_symmetry_space_group_name_H-M   'P 1'
_cell_length_a   6.90635971
_cell_length_b   6.90269904
_cell_length_c   9.21842588
_cell_angle_alpha   90.09989248
_cell_angle_beta   90.12175420
_cell_angle_gamma   96.88577604
_symmetry_Int_Tables_number   1
_chemical_formula_structural   Pr2Al20Ru3Rh
_chemical_formula_sum   'Pr2 Al20 Ru3 Rh1'
_cell_volume   436.29394131
_cell_formula_units_Z   1
loop_
 _symmetry_equiv_pos_site_id
 _symmetry_equiv_pos_as_xyz
  1  'x, y, z'
loop_
 _atom_site_type_symbol
 _atom_site_label
 _atom_site_symmetry_multiplicity
 _atom_site_fract_x
 _atom_site_fract_y
 _atom_site_fract_z
 _atom_site_occupancy
  Pr  Pr0  1  0.876340  0.124896  0.749999  1
  Pr  Pr1  1  0.123660  0.875104  0.250001  1
  Al  Al2  1  0.410574  0.140662  0.749172  1
  Al  Al3  1  0.139834  0.410897  0.250398  1
  Al  Al4  1  0.589426  0.859338  0.250828  1
  Al  Al5  1  0.860166  0.589103  0.749602  1
  Al  Al6  1  0.517388  0.777548  0.748148  1
  Al  Al7  1  0.778983  0.517381  0.249754  1
  Al  Al8  1  0.482612  0.222452  0.251852  1
  Al  Al9  1  0.221017  0.482619  0.750246  1
  Al  Al10  1  0.839082  0.160539  0.398575  1
  Al  Al11  1  0.160918  0.839461  0.601425  1
  Al  Al12  1  0.840233  0.161794  0.102735  1
  Al  Al13  1  0.159767  0.838206  0.897265  1
  Al  Al14  1  0.622302  0.378154  0.550700  1
  Al  Al15  1  0.377698  0.621846  0.449300  1
  Al  Al16  1  0.622821  0.380068  0.948372  1
  Al  Al17  1  0.377179  0.619932  0.051628  1
  Al  Al18  1  0.772983  0.771003  0.000591  1
  Al  Al19  1  0.772724  0.772257  0.499886  1
  Al  Al20  1  0.227017  0.228997  0.999409  1
  Al  Al21  1  0.227276  0.227743  0.500114  1
  Ru  Ru22  1  0.000000  0.500000  0.000000  1
  Ru  Ru23  1  0.500000  0.000000  0.500000  1
  Ru  Ru24  1  0.000000  0.500000  0.500000  1
  Rh  Rh25  1  0.500000  0.000000  0.000000  1
