# generated using pymatgen
data_NdAl5Ag6
_symmetry_space_group_name_H-M   'P 1'
_cell_length_a   11.10150485
_cell_length_b   8.70050253
_cell_length_c   8.57294298
_cell_angle_alpha   79.98197392
_cell_angle_beta   50.51340369
_cell_angle_gamma   49.50461328
_symmetry_Int_Tables_number   1
_chemical_formula_structural   NdAl5Ag6
_chemical_formula_sum   'Nd2 Al10 Ag12'
_cell_volume   443.86770637
_cell_formula_units_Z   2
loop_
 _symmetry_equiv_pos_site_id
 _symmetry_equiv_pos_as_xyz
  1  'x, y, z'
loop_
 _atom_site_type_symbol
 _atom_site_label
 _atom_site_symmetry_multiplicity
 _atom_site_fract_x
 _atom_site_fract_y
 _atom_site_fract_z
 _atom_site_occupancy
  Nd  Nd0  1  0.000000  0.000000  0.000000  1
  Nd  Nd1  1  0.250000  0.250000  0.250000  1
  Al  Al2  1  0.500000  0.500000  0.500000  1
  Al  Al3  1  0.750000  0.750000  0.750000  1
  Al  Al4  1  0.762789  0.069386  0.814148  1
  Al  Al5  1  0.814148  0.353676  0.762789  1
  Al  Al6  1  0.069386  0.762789  0.353676  1
  Al  Al7  1  0.353676  0.814148  0.069386  1
  Al  Al8  1  0.487211  0.180614  0.435852  1
  Al  Al9  1  0.435852  0.896324  0.487211  1
  Al  Al10  1  0.180614  0.487211  0.896324  1
  Al  Al11  1  0.896324  0.435852  0.180614  1
  Ag  Ag12  1  0.625000  0.125000  0.625000  1
  Ag  Ag13  1  0.625000  0.625000  0.625000  1
  Ag  Ag14  1  0.125000  0.625000  0.625000  1
  Ag  Ag15  1  0.625000  0.625000  0.125000  1
  Ag  Ag16  1  0.508477  0.398457  0.174001  1
  Ag  Ag17  1  0.174001  0.919064  0.508477  1
  Ag  Ag18  1  0.398457  0.508477  0.919064  1
  Ag  Ag19  1  0.919064  0.174001  0.398457  1
  Ag  Ag20  1  0.741523  0.851543  0.075999  1
  Ag  Ag21  1  0.075999  0.330936  0.741523  1
  Ag  Ag22  1  0.851543  0.741523  0.330936  1
  Ag  Ag23  1  0.330936  0.075999  0.851543  1
