# generated using pymatgen
data_PaCuGeO
_symmetry_space_group_name_H-M   'P 1'
_cell_length_a   3.92110100
_cell_length_b   3.92110100
_cell_length_c   8.14369900
_cell_angle_alpha   90.00000000
_cell_angle_beta   90.00000000
_cell_angle_gamma   90.00000000
_symmetry_Int_Tables_number   1
_chemical_formula_structural   PaCuGeO
_chemical_formula_sum   'Pa2 Cu2 Ge2 O2'
_cell_volume   125.20964129
_cell_formula_units_Z   2
loop_
 _symmetry_equiv_pos_site_id
 _symmetry_equiv_pos_as_xyz
  1  'x, y, z'
loop_
 _atom_site_type_symbol
 _atom_site_label
 _atom_site_symmetry_multiplicity
 _atom_site_fract_x
 _atom_site_fract_y
 _atom_site_fract_z
 _atom_site_occupancy
  Pa  Pa0  1  0.250002  0.250002  0.162167  1
  Pa  Pa1  1  0.750001  0.750001  0.837835  1
  Cu  Cu2  1  0.750001  0.250002  0.499999  1
  Cu  Cu3  1  0.250002  0.750001  0.499999  1
  Ge  Ge4  1  0.750001  0.750001  0.318726  1
  Ge  Ge5  1  0.250002  0.250002  0.681274  1
  O  O6  1  0.750001  0.250002  0.000000  1
  O  O7  1  0.250002  0.750001  0.000000  1
