# generated using pymatgen
data_Ho3AlGeRu2
_symmetry_space_group_name_H-M   'P 1'
_cell_length_a   5.57914900
_cell_length_b   7.64000200
_cell_length_c   13.67558500
_cell_angle_alpha   90.00000000
_cell_angle_beta   90.00000000
_cell_angle_gamma   90.00000000
_symmetry_Int_Tables_number   1
_chemical_formula_structural   Ho3AlGeRu2
_chemical_formula_sum   'Ho12 Al4 Ge4 Ru8'
_cell_volume   582.91783812
_cell_formula_units_Z   4
loop_
 _symmetry_equiv_pos_site_id
 _symmetry_equiv_pos_as_xyz
  1  'x, y, z'
loop_
 _atom_site_type_symbol
 _atom_site_label
 _atom_site_symmetry_multiplicity
 _atom_site_fract_x
 _atom_site_fract_y
 _atom_site_fract_z
 _atom_site_occupancy
  Ho  Ho0  1  0.149264  0.903488  0.598571  1
  Ho  Ho1  1  0.850736  0.096512  0.098571  1
  Ho  Ho2  1  0.149264  0.596512  0.401429  1
  Ho  Ho3  1  0.850736  0.403488  0.901429  1
  Ho  Ho4  1  0.850736  0.096512  0.401429  1
  Ho  Ho5  1  0.149264  0.903488  0.901429  1
  Ho  Ho6  1  0.850736  0.403488  0.598571  1
  Ho  Ho7  1  0.149264  0.596512  0.098571  1
  Ho  Ho8  1  0.374973  0.267232  0.750000  1
  Ho  Ho9  1  0.625027  0.732768  0.250000  1
  Ho  Ho10  1  0.374973  0.232768  0.250000  1
  Ho  Ho11  1  0.625027  0.767232  0.750000  1
  Al  Al12  1  0.378345  0.250000  0.500000  1
  Al  Al13  1  0.621655  0.750000  0.000000  1
  Al  Al14  1  0.621655  0.750000  0.500000  1
  Al  Al15  1  0.378345  0.250000  0.000000  1
  Ge  Ge16  1  0.879650  0.115301  0.750000  1
  Ge  Ge17  1  0.120350  0.884699  0.250000  1
  Ge  Ge18  1  0.879650  0.384699  0.250000  1
  Ge  Ge19  1  0.120350  0.615301  0.750000  1
  Ru  Ru20  1  0.645246  0.033089  0.594374  1
  Ru  Ru21  1  0.354754  0.966911  0.094374  1
  Ru  Ru22  1  0.645246  0.466911  0.405626  1
  Ru  Ru23  1  0.354754  0.533089  0.905626  1
  Ru  Ru24  1  0.354754  0.966911  0.405626  1
  Ru  Ru25  1  0.645246  0.033089  0.905626  1
  Ru  Ru26  1  0.354754  0.533089  0.594374  1
  Ru  Ru27  1  0.645246  0.466911  0.094374  1
