# generated using pymatgen
data_HgS23
_symmetry_space_group_name_H-M   'P 1'
_cell_length_a   5.47256303
_cell_length_b   9.73577981
_cell_length_c   15.92074400
_cell_angle_alpha   91.37251274
_cell_angle_beta   85.84132521
_cell_angle_gamma   90.50203042
_symmetry_Int_Tables_number   1
_chemical_formula_structural   HgS23
_chemical_formula_sum   'Hg1 S23'
_cell_volume   845.75483454
_cell_formula_units_Z   1
loop_
 _symmetry_equiv_pos_site_id
 _symmetry_equiv_pos_as_xyz
  1  'x, y, z'
loop_
 _atom_site_type_symbol
 _atom_site_label
 _atom_site_symmetry_multiplicity
 _atom_site_fract_x
 _atom_site_fract_y
 _atom_site_fract_z
 _atom_site_occupancy
  Hg  Hg0  1  0.500811  0.261766  0.414028  1
  S  S1  1  0.491227  0.799911  0.395669  1
  S  S2  1  0.997614  0.299649  0.109678  1
  S  S3  1  0.753877  0.184194  0.518765  1
  S  S4  1  0.293421  0.757298  0.507359  1
  S  S5  1  0.197885  0.253845  0.997854  1
  S  S6  1  0.795507  0.744178  0.002922  1
  S  S7  1  0.245554  0.381569  0.325819  1
  S  S8  1  0.681327  0.623472  0.355139  1
  S  S9  1  0.793132  0.128560  0.145783  1
  S  S10  1  0.203270  0.873645  0.130776  1
  S  S11  1  0.712979  0.630325  0.628162  1
  S  S12  1  0.320909  0.365069  0.636923  1
  S  S13  1  0.206169  0.874185  0.859896  1
  S  S14  1  0.791342  0.124605  0.869937  1
  S  S15  1  0.997154  0.701483  0.103797  1
  S  S16  1  0.506100  0.801049  0.606970  1
  S  S17  1  0.497234  0.180727  0.621315  1
  S  S18  1  0.003800  0.700805  0.892128  1
  S  S19  1  0.993755  0.297571  0.897715  1
  S  S20  1  0.499880  0.513519  0.267362  1
  S  S21  1  0.001293  0.001490  0.214059  1
  S  S22  1  0.513563  0.503154  0.709561  1
  S  S23  1  0.002197  0.997933  0.788383  1
