# generated using pymatgen
data_Ho6Al20Si4NiOs7
_symmetry_space_group_name_H-M   'P 1'
_cell_length_a   8.69192100
_cell_length_b   8.69192041
_cell_length_c   9.56031200
_cell_angle_alpha   90.00000000
_cell_angle_beta   90.00000000
_cell_angle_gamma   119.99999844
_symmetry_Int_Tables_number   1
_chemical_formula_structural   Ho6Al20Si4NiOs7
_chemical_formula_sum   'Ho6 Al20 Si4 Ni1 Os7'
_cell_volume   625.50993999
_cell_formula_units_Z   1
loop_
 _symmetry_equiv_pos_site_id
 _symmetry_equiv_pos_as_xyz
  1  'x, y, z'
loop_
 _atom_site_type_symbol
 _atom_site_label
 _atom_site_symmetry_multiplicity
 _atom_site_fract_x
 _atom_site_fract_y
 _atom_site_fract_z
 _atom_site_occupancy
  Ho  Ho0  1  0.196078  0.392155  0.249706  1
  Ho  Ho1  1  0.803922  0.607845  0.750294  1
  Ho  Ho2  1  0.607845  0.803922  0.249706  1
  Ho  Ho3  1  0.392155  0.196078  0.750294  1
  Ho  Ho4  1  0.196078  0.803922  0.249706  1
  Ho  Ho5  1  0.803922  0.196078  0.750294  1
  Al  Al6  1  0.164083  0.328166  0.576668  1
  Al  Al7  1  0.835917  0.671834  0.423332  1
  Al  Al8  1  0.671834  0.835917  0.576668  1
  Al  Al9  1  0.836782  0.673564  0.077279  1
  Al  Al10  1  0.328166  0.164083  0.423332  1
  Al  Al11  1  0.163218  0.326436  0.922721  1
  Al  Al12  1  0.164083  0.835917  0.576668  1
  Al  Al13  1  0.326436  0.163218  0.077279  1
  Al  Al14  1  0.835917  0.164083  0.423332  1
  Al  Al15  1  0.673564  0.836782  0.922721  1
  Al  Al16  1  0.836782  0.163218  0.077279  1
  Al  Al17  1  0.163218  0.836782  0.922721  1
  Al  Al18  1  0.563390  0.126781  0.250058  1
  Al  Al19  1  0.436610  0.873219  0.749942  1
  Al  Al20  1  0.873219  0.436610  0.250058  1
  Al  Al21  1  0.126781  0.563390  0.749942  1
  Al  Al22  1  0.563390  0.436610  0.250058  1
  Al  Al23  1  0.436610  0.563390  0.749942  1
  Al  Al24  1  0.000000  0.000000  0.243097  1
  Al  Al25  1  0.000000  0.000000  0.756903  1
  Si  Si26  1  0.333333  0.666667  0.035037  1
  Si  Si27  1  0.666667  0.333333  0.964963  1
  Si  Si28  1  0.666667  0.333333  0.538021  1
  Si  Si29  1  0.333333  0.666667  0.461979  1
  Ni  Ni30  1  0.000000  0.000000  0.000000  1
  Os  Os31  1  0.500000  0.000000  0.000000  1
  Os  Os32  1  0.000000  0.500000  0.000000  1
  Os  Os33  1  0.500000  0.000000  0.500000  1
  Os  Os34  1  0.500000  0.500000  0.000000  1
  Os  Os35  1  0.000000  0.500000  0.500000  1
  Os  Os36  1  0.500000  0.500000  0.500000  1
  Os  Os37  1  0.000000  0.000000  0.500000  1
