# generated using pymatgen
data_Y16Al4OsPd3
_symmetry_space_group_name_H-M   'P 1'
_cell_length_a   9.65969475
_cell_length_b   9.65969355
_cell_length_c   9.65969399
_cell_angle_alpha   59.56011443
_cell_angle_beta   59.56011987
_cell_angle_gamma   59.56011188
_symmetry_Int_Tables_number   1
_chemical_formula_structural   Y16Al4OsPd3
_chemical_formula_sum   'Y16 Al4 Os1 Pd3'
_cell_volume   630.97201498
_cell_formula_units_Z   1
loop_
 _symmetry_equiv_pos_site_id
 _symmetry_equiv_pos_as_xyz
  1  'x, y, z'
loop_
 _atom_site_type_symbol
 _atom_site_label
 _atom_site_symmetry_multiplicity
 _atom_site_fract_x
 _atom_site_fract_y
 _atom_site_fract_z
 _atom_site_occupancy
  Y  Y0  1  0.356434  0.356434  0.356434  1
  Y  Y1  1  0.353860  0.353860  0.935624  1
  Y  Y2  1  0.353860  0.935624  0.353860  1
  Y  Y3  1  0.935624  0.353860  0.353860  1
  Y  Y4  1  0.813893  0.191046  0.191046  1
  Y  Y5  1  0.190975  0.807030  0.807030  1
  Y  Y6  1  0.191046  0.813893  0.191046  1
  Y  Y7  1  0.807030  0.190975  0.807030  1
  Y  Y8  1  0.191046  0.191046  0.813893  1
  Y  Y9  1  0.807030  0.807030  0.190975  1
  Y  Y10  1  0.932865  0.565054  0.565054  1
  Y  Y11  1  0.556783  0.937760  0.937760  1
  Y  Y12  1  0.565054  0.932865  0.565054  1
  Y  Y13  1  0.937760  0.556783  0.937760  1
  Y  Y14  1  0.565054  0.565054  0.932865  1
  Y  Y15  1  0.937760  0.937760  0.556783  1
  Al  Al16  1  0.578999  0.578999  0.578999  1
  Al  Al17  1  0.577969  0.577969  0.266592  1
  Al  Al18  1  0.577969  0.266592  0.577969  1
  Al  Al19  1  0.266592  0.577969  0.577969  1
  Os  Os20  1  0.144124  0.144124  0.144124  1
  Pd  Pd21  1  0.145600  0.145600  0.567070  1
  Pd  Pd22  1  0.145600  0.567070  0.145600  1
  Pd  Pd23  1  0.567070  0.145600  0.145600  1
