# generated using pymatgen
data_ErTh2(InPt)3
_symmetry_space_group_name_H-M   'P 1'
_cell_length_a   7.66058944
_cell_length_b   7.64337395
_cell_length_c   4.08438600
_cell_angle_alpha   90.00000000
_cell_angle_beta   90.00000000
_cell_angle_gamma   119.92569343
_symmetry_Int_Tables_number   1
_chemical_formula_structural   ErTh2(InPt)3
_chemical_formula_sum   'Er1 Th2 In3 Pt3'
_cell_volume   207.26663795
_cell_formula_units_Z   1
loop_
 _symmetry_equiv_pos_site_id
 _symmetry_equiv_pos_as_xyz
  1  'x, y, z'
loop_
 _atom_site_type_symbol
 _atom_site_label
 _atom_site_symmetry_multiplicity
 _atom_site_fract_x
 _atom_site_fract_y
 _atom_site_fract_z
 _atom_site_occupancy
  Er  Er0  1  0.000000  0.592048  0.500000  1
  Th  Th1  1  0.588306  0.999979  0.500000  1
  Th  Th2  1  0.411694  0.411673  0.500000  1
  In  In3  1  0.755755  0.745367  0.000000  1
  In  In4  1  0.000000  0.261667  0.000000  1
  In  In5  1  0.244245  0.989612  0.000000  1
  Pt  Pt6  1  0.338156  0.667249  0.000000  1
  Pt  Pt7  1  0.661844  0.329093  0.000000  1
  Pt  Pt8  1  0.000000  0.003312  0.500000  1
