# generated using pymatgen
data_Yb3TmOs8
_symmetry_space_group_name_H-M   'P 1'
_cell_length_a   5.28447200
_cell_length_b   5.28447150
_cell_length_c   8.77665200
_cell_angle_alpha   90.00000000
_cell_angle_beta   90.00000000
_cell_angle_gamma   119.99999060
_symmetry_Int_Tables_number   1
_chemical_formula_structural   Yb3TmOs8
_chemical_formula_sum   'Yb3 Tm1 Os8'
_cell_volume   212.25733776
_cell_formula_units_Z   1
loop_
 _symmetry_equiv_pos_site_id
 _symmetry_equiv_pos_as_xyz
  1  'x, y, z'
loop_
 _atom_site_type_symbol
 _atom_site_label
 _atom_site_symmetry_multiplicity
 _atom_site_fract_x
 _atom_site_fract_y
 _atom_site_fract_z
 _atom_site_occupancy
  Yb  Yb0  1  0.666667  0.333333  0.568649  1
  Yb  Yb1  1  0.666667  0.333333  0.935053  1
  Yb  Yb2  1  0.333333  0.666667  0.061525  1
  Tm  Tm3  1  0.333333  0.666667  0.432707  1
  Os  Os4  1  0.000000  0.000000  0.500503  1
  Os  Os5  1  0.000000  0.000000  0.001158  1
  Os  Os6  1  0.827526  0.172474  0.250621  1
  Os  Os7  1  0.827526  0.655052  0.250621  1
  Os  Os8  1  0.344948  0.172474  0.250621  1
  Os  Os9  1  0.172026  0.827974  0.749514  1
  Os  Os10  1  0.172026  0.344052  0.749514  1
  Os  Os11  1  0.655948  0.827974  0.749514  1
