# generated using pymatgen
data_CaGdNpO6
_symmetry_space_group_name_H-M   'P 1'
_cell_length_a   5.52223400
_cell_length_b   7.86085137
_cell_length_c   11.90239500
_cell_angle_alpha   73.88977549
_cell_angle_beta   90.00000000
_cell_angle_gamma   90.00000000
_symmetry_Int_Tables_number   1
_chemical_formula_structural   CaGdNpO6
_chemical_formula_sum   'Ca4 Gd4 Np4 O24'
_cell_volume   496.38648012
_cell_formula_units_Z   4
loop_
 _symmetry_equiv_pos_site_id
 _symmetry_equiv_pos_as_xyz
  1  'x, y, z'
loop_
 _atom_site_type_symbol
 _atom_site_label
 _atom_site_symmetry_multiplicity
 _atom_site_fract_x
 _atom_site_fract_y
 _atom_site_fract_z
 _atom_site_occupancy
  Ca  Ca0  1  0.188156  0.794042  0.578986  1
  Ca  Ca1  1  0.811844  0.794042  0.078986  1
  Ca  Ca2  1  0.188156  0.205958  0.921014  1
  Ca  Ca3  1  0.811844  0.205958  0.421014  1
  Gd  Gd4  1  0.744931  0.000000  0.750000  1
  Gd  Gd5  1  0.255069  0.000000  0.250000  1
  Gd  Gd6  1  0.691083  0.500000  0.750000  1
  Gd  Gd7  1  0.308917  0.500000  0.250000  1
  Np  Np8  1  0.254568  0.724828  0.885114  1
  Np  Np9  1  0.745432  0.724828  0.385114  1
  Np  Np10  1  0.254568  0.275172  0.614886  1
  Np  Np11  1  0.745432  0.275172  0.114886  1
  O  O12  1  0.054205  0.939596  0.891561  1
  O  O13  1  0.541758  0.850690  0.928826  1
  O  O14  1  0.945795  0.939596  0.391561  1
  O  O15  1  0.452779  0.794624  0.730577  1
  O  O16  1  0.458242  0.850690  0.428826  1
  O  O17  1  0.966216  0.709552  0.772467  1
  O  O18  1  0.547221  0.794624  0.230577  1
  O  O19  1  0.858097  0.629489  0.550734  1
  O  O20  1  0.382980  0.488938  0.886463  1
  O  O21  1  0.033784  0.709552  0.272467  1
  O  O22  1  0.382980  0.511062  0.613537  1
  O  O23  1  0.858097  0.370511  0.949266  1
  O  O24  1  0.141903  0.629489  0.050734  1
  O  O25  1  0.617020  0.488938  0.386463  1
  O  O26  1  0.966216  0.290448  0.727533  1
  O  O27  1  0.617020  0.511062  0.113537  1
  O  O28  1  0.141903  0.370511  0.449266  1
  O  O29  1  0.452779  0.205376  0.769423  1
  O  O30  1  0.033784  0.290448  0.227533  1
  O  O31  1  0.541758  0.149310  0.571174  1
  O  O32  1  0.547221  0.205376  0.269423  1
  O  O33  1  0.054205  0.060404  0.608439  1
  O  O34  1  0.458242  0.149310  0.071174  1
  O  O35  1  0.945795  0.060404  0.108439  1
