# generated using pymatgen
data_PrB5O9
_symmetry_space_group_name_H-M   'P 1'
_cell_length_a   11.82438700
_cell_length_b   6.50456820
_cell_length_c   8.26343100
_cell_angle_alpha   74.71969042
_cell_angle_beta   90.00000000
_cell_angle_gamma   90.00000000
_symmetry_Int_Tables_number   1
_chemical_formula_structural   PrB5O9
_chemical_formula_sum   'Pr4 B20 O36'
_cell_volume   613.09306071
_cell_formula_units_Z   4
loop_
 _symmetry_equiv_pos_site_id
 _symmetry_equiv_pos_as_xyz
  1  'x, y, z'
loop_
 _atom_site_type_symbol
 _atom_site_label
 _atom_site_symmetry_multiplicity
 _atom_site_fract_x
 _atom_site_fract_y
 _atom_site_fract_z
 _atom_site_occupancy
  Pr  Pr0  1  0.673404  0.750311  0.362602  1
  Pr  Pr1  1  0.173404  0.249689  0.137398  1
  Pr  Pr2  1  0.326596  0.249689  0.637398  1
  Pr  Pr3  1  0.826596  0.750311  0.862602  1
  B  B4  1  0.249201  0.774132  0.168285  1
  B  B5  1  0.749201  0.225868  0.331715  1
  B  B6  1  0.750799  0.225868  0.831715  1
  B  B7  1  0.250799  0.774132  0.668285  1
  B  B8  1  0.630213  0.187549  0.592279  1
  B  B9  1  0.130213  0.812451  0.907721  1
  B  B10  1  0.402051  0.518746  0.275095  1
  B  B11  1  0.902051  0.481254  0.224905  1
  B  B12  1  0.597949  0.481254  0.724905  1
  B  B13  1  0.097949  0.518746  0.775095  1
  B  B14  1  0.942898  0.710044  0.547923  1
  B  B15  1  0.442898  0.289956  0.952077  1
  B  B16  1  0.057102  0.289956  0.452077  1
  B  B17  1  0.557102  0.710044  0.047923  1
  B  B18  1  0.463786  0.146500  0.255629  1
  B  B19  1  0.963786  0.853500  0.244371  1
  B  B20  1  0.536214  0.853500  0.744371  1
  B  B21  1  0.036214  0.146500  0.755629  1
  B  B22  1  0.369787  0.812451  0.407721  1
  B  B23  1  0.869787  0.187549  0.092279  1
  O  O24  1  0.475257  0.933014  0.339296  1
  O  O25  1  0.169534  0.244437  0.446562  1
  O  O26  1  0.330466  0.244437  0.946562  1
  O  O27  1  0.830466  0.755563  0.553438  1
  O  O28  1  0.991444  0.221149  0.596045  1
  O  O29  1  0.491444  0.778851  0.903955  1
  O  O30  1  0.008556  0.778851  0.403955  1
  O  O31  1  0.669534  0.755563  0.053438  1
  O  O32  1  0.199566  0.585016  0.664744  1
  O  O33  1  0.699566  0.414984  0.835256  1
  O  O34  1  0.975257  0.066986  0.160704  1
  O  O35  1  0.300434  0.585016  0.164744  1
  O  O36  1  0.337816  0.864669  0.563527  1
  O  O37  1  0.837816  0.135331  0.936473  1
  O  O38  1  0.662184  0.135331  0.436473  1
  O  O39  1  0.162184  0.864669  0.063527  1
  O  O40  1  0.221036  0.891493  0.778779  1
  O  O41  1  0.721036  0.108507  0.721221  1
  O  O42  1  0.778964  0.108507  0.221221  1
  O  O43  1  0.278964  0.891493  0.278779  1
  O  O44  1  0.524743  0.066986  0.660704  1
  O  O45  1  0.024743  0.933014  0.839296  1
  O  O46  1  0.402526  0.280182  0.328111  1
  O  O47  1  0.902526  0.719818  0.171889  1
  O  O48  1  0.597474  0.719818  0.671889  1
  O  O49  1  0.800434  0.414984  0.335256  1
  O  O50  1  0.509760  0.602625  0.199976  1
  O  O51  1  0.009760  0.397375  0.300024  1
  O  O52  1  0.490240  0.397375  0.800024  1
  O  O53  1  0.990240  0.602625  0.699976  1
  O  O54  1  0.385956  0.584122  0.431429  1
  O  O55  1  0.885956  0.415878  0.068571  1
  O  O56  1  0.614044  0.415878  0.568572  1
  O  O57  1  0.114044  0.584122  0.931428  1
  O  O58  1  0.508556  0.221149  0.096045  1
  O  O59  1  0.097474  0.280182  0.828111  1
