# generated using pymatgen
data_Ba10InSi4Ag
_symmetry_space_group_name_H-M   'P 1'
_cell_length_a   8.56229500
_cell_length_b   10.51998145
_cell_length_c   8.56229500
_cell_angle_alpha   114.01362976
_cell_angle_beta   90.00000000
_cell_angle_gamma   114.01362976
_symmetry_Int_Tables_number   1
_chemical_formula_structural   Ba10InSi4Ag
_chemical_formula_sum   'Ba10 In1 Si4 Ag1'
_cell_volume   630.71912578
_cell_formula_units_Z   1
loop_
 _symmetry_equiv_pos_site_id
 _symmetry_equiv_pos_as_xyz
  1  'x, y, z'
loop_
 _atom_site_type_symbol
 _atom_site_label
 _atom_site_symmetry_multiplicity
 _atom_site_fract_x
 _atom_site_fract_y
 _atom_site_fract_z
 _atom_site_occupancy
  Ba  Ba0  1  0.979402  0.958802  0.979402  1
  Ba  Ba1  1  0.520598  0.041198  0.520598  1
  Ba  Ba2  1  0.528619  0.726940  0.677528  1
  Ba  Ba3  1  0.198324  0.726940  0.049414  1
  Ba  Ba4  1  0.677528  0.726940  0.198324  1
  Ba  Ba5  1  0.049414  0.726940  0.528619  1
  Ba  Ba6  1  0.450586  0.273060  0.301676  1
  Ba  Ba7  1  0.822472  0.273060  0.971381  1
  Ba  Ba8  1  0.301676  0.273060  0.822472  1
  Ba  Ba9  1  0.971381  0.273060  0.450586  1
  In  In10  1  0.750000  0.500000  0.750000  1
  Si  Si11  1  0.897963  0.000000  0.602037  1
  Si  Si12  1  0.102037  0.000000  0.397963  1
  Si  Si13  1  0.602037  0.000000  0.102037  1
  Si  Si14  1  0.397963  0.000000  0.897963  1
  Ag  Ag15  1  0.250000  0.500000  0.250000  1
