# generated using pymatgen
data_TbHo4(Tl2Au)2
_symmetry_space_group_name_H-M   'P 1'
_cell_length_a   3.66804100
_cell_length_b   8.21626500
_cell_length_c   18.45696300
_cell_angle_alpha   90.00000000
_cell_angle_beta   90.00000000
_cell_angle_gamma   90.00000000
_symmetry_Int_Tables_number   1
_chemical_formula_structural   TbHo4(Tl2Au)2
_chemical_formula_sum   'Tb2 Ho8 Tl8 Au4'
_cell_volume   556.24851065
_cell_formula_units_Z   2
loop_
 _symmetry_equiv_pos_site_id
 _symmetry_equiv_pos_as_xyz
  1  'x, y, z'
loop_
 _atom_site_type_symbol
 _atom_site_label
 _atom_site_symmetry_multiplicity
 _atom_site_fract_x
 _atom_site_fract_y
 _atom_site_fract_z
 _atom_site_occupancy
  Tb  Tb0  1  0.000000  0.500000  0.500000  1
  Tb  Tb1  1  0.000000  0.000000  0.000000  1
  Ho  Ho2  1  0.000000  0.737891  0.282461  1
  Ho  Ho3  1  0.000000  0.262109  0.717539  1
  Ho  Ho4  1  0.000000  0.762109  0.782461  1
  Ho  Ho5  1  0.000000  0.237891  0.217539  1
  Ho  Ho6  1  0.000000  0.618716  0.081030  1
  Ho  Ho7  1  0.000000  0.381284  0.918970  1
  Ho  Ho8  1  0.000000  0.881284  0.581030  1
  Ho  Ho9  1  0.000000  0.118716  0.418970  1
  Tl  Tl10  1  0.500000  0.709436  0.934781  1
  Tl  Tl11  1  0.500000  0.290564  0.065219  1
  Tl  Tl12  1  0.500000  0.790564  0.434781  1
  Tl  Tl13  1  0.500000  0.209436  0.565219  1
  Tl  Tl14  1  0.500000  0.582742  0.645906  1
  Tl  Tl15  1  0.500000  0.417258  0.354094  1
  Tl  Tl16  1  0.500000  0.917258  0.145906  1
  Tl  Tl17  1  0.500000  0.082742  0.854094  1
  Au  Au18  1  0.500000  0.527671  0.196788  1
  Au  Au19  1  0.500000  0.472329  0.803212  1
  Au  Au20  1  0.500000  0.972329  0.696788  1
  Au  Au21  1  0.500000  0.027671  0.303212  1
