# generated using pymatgen
data_Na2TiH10
_symmetry_space_group_name_H-M   'P 1'
_cell_length_a   3.07590754
_cell_length_b   7.48174949
_cell_length_c   8.87719828
_cell_angle_alpha   136.33672032
_cell_angle_beta   62.69748286
_cell_angle_gamma   122.62102349
_symmetry_Int_Tables_number   1
_chemical_formula_structural   Na2TiH10
_chemical_formula_sum   'Na2 Ti1 H10'
_cell_volume   117.96554225
_cell_formula_units_Z   1
loop_
 _symmetry_equiv_pos_site_id
 _symmetry_equiv_pos_as_xyz
  1  'x, y, z'
loop_
 _atom_site_type_symbol
 _atom_site_label
 _atom_site_symmetry_multiplicity
 _atom_site_fract_x
 _atom_site_fract_y
 _atom_site_fract_z
 _atom_site_occupancy
  Na  Na0  1  0.698015  0.807966  0.358493  1
  Na  Na1  1  0.476378  0.845923  0.827604  1
  Ti  Ti2  1  0.309855  0.360098  0.837788  1
  H  H3  1  0.947906  0.601337  0.971096  1
  H  H4  1  0.548146  0.225971  0.899757  1
  H  H5  1  0.501959  0.418905  0.307465  1
  H  H6  1  0.922842  0.263368  0.655929  1
  H  H7  1  0.523119  0.982107  0.206359  1
  H  H8  1  0.291058  0.436223  0.401622  1
  H  H9  1  0.090043  0.984825  0.631251  1
  H  H10  1  0.142581  0.521588  0.122699  1
  H  H11  1  0.700816  0.558876  0.745409  1
  H  H12  1  0.551651  0.122914  0.319058  1
