# generated using pymatgen
data_Tm6Al24GaFe4Ru3
_symmetry_space_group_name_H-M   'P 1'
_cell_length_a   8.72550591
_cell_length_b   8.72550644
_cell_length_c   9.39053394
_cell_angle_alpha   90.12434759
_cell_angle_beta   89.87565786
_cell_angle_gamma   119.78892296
_symmetry_Int_Tables_number   1
_chemical_formula_structural   Tm6Al24GaFe4Ru3
_chemical_formula_sum   'Tm6 Al24 Ga1 Fe4 Ru3'
_cell_volume   620.46974788
_cell_formula_units_Z   1
loop_
 _symmetry_equiv_pos_site_id
 _symmetry_equiv_pos_as_xyz
  1  'x, y, z'
loop_
 _atom_site_type_symbol
 _atom_site_label
 _atom_site_symmetry_multiplicity
 _atom_site_fract_x
 _atom_site_fract_y
 _atom_site_fract_z
 _atom_site_occupancy
  Tm  Tm0  1  0.804173  0.195827  0.746482  1
  Tm  Tm1  1  0.195827  0.804173  0.253518  1
  Tm  Tm2  1  0.387556  0.193865  0.756571  1
  Tm  Tm3  1  0.612444  0.806135  0.243429  1
  Tm  Tm4  1  0.806135  0.612444  0.756571  1
  Tm  Tm5  1  0.193865  0.387556  0.243429  1
  Al  Al6  1  0.675973  0.324027  0.981048  1
  Al  Al7  1  0.324027  0.675973  0.018952  1
  Al  Al8  1  0.333610  0.666390  0.480429  1
  Al  Al9  1  0.666390  0.333610  0.519571  1
  Al  Al10  1  0.840025  0.159975  0.420878  1
  Al  Al11  1  0.159975  0.840025  0.579122  1
  Al  Al12  1  0.318558  0.158861  0.425775  1
  Al  Al13  1  0.160719  0.839281  0.922465  1
  Al  Al14  1  0.681442  0.841139  0.574225  1
  Al  Al15  1  0.839281  0.160719  0.077535  1
  Al  Al16  1  0.841139  0.681442  0.425775  1
  Al  Al17  1  0.682292  0.856581  0.920693  1
  Al  Al18  1  0.158861  0.318558  0.574225  1
  Al  Al19  1  0.317708  0.143419  0.079307  1
  Al  Al20  1  0.143419  0.317708  0.920693  1
  Al  Al21  1  0.856581  0.682292  0.079307  1
  Al  Al22  1  0.433794  0.566206  0.743300  1
  Al  Al23  1  0.566206  0.433794  0.256700  1
  Al  Al24  1  0.117726  0.560449  0.756261  1
  Al  Al25  1  0.882274  0.439551  0.243739  1
  Al  Al26  1  0.439551  0.882274  0.756261  1
  Al  Al27  1  0.560449  0.117726  0.243739  1
  Al  Al28  1  0.001003  0.998997  0.749241  1
  Al  Al29  1  0.998997  0.001003  0.250759  1
  Ga  Ga30  1  0.500000  0.500000  0.000000  1
  Fe  Fe31  1  0.000000  0.500000  0.000000  1
  Fe  Fe32  1  0.500000  0.000000  0.000000  1
  Fe  Fe33  1  0.000000  0.000000  0.000000  1
  Fe  Fe34  1  0.000000  0.000000  0.500000  1
  Ru  Ru35  1  0.500000  0.500000  0.500000  1
  Ru  Ru36  1  0.000000  0.500000  0.500000  1
  Ru  Ru37  1  0.500000  0.000000  0.500000  1
