# generated using pymatgen
data_Y2Er4TcPd
_symmetry_space_group_name_H-M   'P 1'
_cell_length_a   6.37144607
_cell_length_b   7.36612233
_cell_length_c   9.14905900
_cell_angle_alpha   90.00000000
_cell_angle_beta   90.00000000
_cell_angle_gamma   90.17394678
_symmetry_Int_Tables_number   1
_chemical_formula_structural   Y2Er4TcPd
_chemical_formula_sum   'Y4 Er8 Tc2 Pd2'
_cell_volume   429.38944551
_cell_formula_units_Z   2
loop_
 _symmetry_equiv_pos_site_id
 _symmetry_equiv_pos_as_xyz
  1  'x, y, z'
loop_
 _atom_site_type_symbol
 _atom_site_label
 _atom_site_symmetry_multiplicity
 _atom_site_fract_x
 _atom_site_fract_y
 _atom_site_fract_z
 _atom_site_occupancy
  Y  Y0  1  0.627431  0.037489  0.250000  1
  Y  Y1  1  0.372569  0.962511  0.750000  1
  Y  Y2  1  0.122721  0.469319  0.750000  1
  Y  Y3  1  0.877279  0.530681  0.250000  1
  Er  Er4  1  0.177092  0.185930  0.064802  1
  Er  Er5  1  0.822908  0.814070  0.935198  1
  Er  Er6  1  0.660725  0.327120  0.940252  1
  Er  Er7  1  0.822908  0.814070  0.564802  1
  Er  Er8  1  0.339275  0.672880  0.059748  1
  Er  Er9  1  0.177092  0.185930  0.435198  1
  Er  Er10  1  0.339275  0.672880  0.440252  1
  Er  Er11  1  0.660725  0.327120  0.559748  1
  Tc  Tc12  1  0.463210  0.383080  0.250000  1
  Tc  Tc13  1  0.536790  0.616920  0.750000  1
  Pd  Pd14  1  0.946405  0.111671  0.750000  1
  Pd  Pd15  1  0.053595  0.888329  0.250000  1
