# generated using pymatgen
data_TaNb6(B4Ru3)2
_symmetry_space_group_name_H-M   'P 1'
_cell_length_a   9.61890868
_cell_length_b   9.61077548
_cell_length_c   3.12523900
_cell_angle_alpha   90.00000000
_cell_angle_beta   90.00000000
_cell_angle_gamma   119.92763968
_symmetry_Int_Tables_number   1
_chemical_formula_structural   TaNb6(B4Ru3)2
_chemical_formula_sum   'Ta1 Nb6 B8 Ru6'
_cell_volume   250.38845773
_cell_formula_units_Z   1
loop_
 _symmetry_equiv_pos_site_id
 _symmetry_equiv_pos_as_xyz
  1  'x, y, z'
loop_
 _atom_site_type_symbol
 _atom_site_label
 _atom_site_symmetry_multiplicity
 _atom_site_fract_x
 _atom_site_fract_y
 _atom_site_fract_z
 _atom_site_occupancy
  Ta  Ta0  1  0.086594  0.723234  0.000000  1
  Nb  Nb1  1  0.000077  0.999289  0.000000  1
  Nb  Nb2  1  0.723974  0.638884  0.000000  1
  Nb  Nb3  1  0.361679  0.086818  0.000000  1
  Nb  Nb4  1  0.914110  0.275606  0.000000  1
  Nb  Nb5  1  0.275724  0.361449  0.000000  1
  Nb  Nb6  1  0.638643  0.914330  0.000000  1
  B  B7  1  0.666292  0.333129  0.000000  1
  B  B8  1  0.333219  0.666442  0.000000  1
  B  B9  1  0.153527  0.934389  0.500000  1
  B  B10  1  0.065277  0.217351  0.500000  1
  B  B11  1  0.782998  0.847853  0.500000  1
  B  B12  1  0.846904  0.064542  0.500000  1
  B  B13  1  0.934939  0.780700  0.500000  1
  B  B14  1  0.216415  0.151988  0.500000  1
  Ru  Ru15  1  0.359471  0.846530  0.500000  1
  Ru  Ru16  1  0.153411  0.514749  0.500000  1
  Ru  Ru17  1  0.484957  0.639452  0.500000  1
  Ru  Ru18  1  0.639430  0.154326  0.500000  1
  Ru  Ru19  1  0.847321  0.487417  0.500000  1
  Ru  Ru20  1  0.515038  0.361523  0.500000  1
