# generated using pymatgen
data_Sc4Ga7Ir6
_symmetry_space_group_name_H-M   'P 1'
_cell_length_a   7.12666622
_cell_length_b   7.12666555
_cell_length_c   7.12666568
_cell_angle_alpha   109.04599082
_cell_angle_beta   109.04599210
_cell_angle_gamma   110.32507245
_symmetry_Int_Tables_number   1
_chemical_formula_structural   Sc4Ga7Ir6
_chemical_formula_sum   'Sc4 Ga7 Ir6'
_cell_volume   278.58953600
_cell_formula_units_Z   1
loop_
 _symmetry_equiv_pos_site_id
 _symmetry_equiv_pos_as_xyz
  1  'x, y, z'
loop_
 _atom_site_type_symbol
 _atom_site_label
 _atom_site_symmetry_multiplicity
 _atom_site_fract_x
 _atom_site_fract_y
 _atom_site_fract_z
 _atom_site_occupancy
  Sc  Sc0  1  0.003966  0.996034  0.500000  1
  Sc  Sc1  1  0.003966  0.503966  0.007931  1
  Sc  Sc2  1  0.496034  0.996034  0.992069  1
  Sc  Sc3  1  0.496034  0.503966  0.500000  1
  Ga  Ga4  1  0.750000  0.250000  0.500000  1
  Ga  Ga5  1  0.685263  0.685263  0.000000  1
  Ga  Ga6  1  0.295863  0.992647  0.303216  1
  Ga  Ga7  1  0.007353  0.310569  0.303216  1
  Ga  Ga8  1  0.314737  0.314737  0.000000  1
  Ga  Ga9  1  0.689431  0.992647  0.696784  1
  Ga  Ga10  1  0.007353  0.704137  0.696784  1
  Ir  Ir11  1  0.745623  0.489187  0.256436  1
  Ir  Ir12  1  0.510813  0.254377  0.743564  1
  Ir  Ir13  1  0.232751  0.489187  0.743564  1
  Ir  Ir14  1  0.250000  0.750000  0.500000  1
  Ir  Ir15  1  0.510813  0.767249  0.256436  1
  Ir  Ir16  1  0.000000  0.000000  0.000000  1
