# generated using pymatgen
data_Nb4Al2B4Ir3Ru7
_symmetry_space_group_name_H-M   'P 1'
_cell_length_a   9.44041194
_cell_length_b   9.36418298
_cell_length_c   2.96327300
_cell_angle_alpha   90.00000000
_cell_angle_beta   90.00000000
_cell_angle_gamma   90.09090328
_symmetry_Int_Tables_number   1
_chemical_formula_structural   Nb4Al2B4Ir3Ru7
_chemical_formula_sum   'Nb4 Al2 B4 Ir3 Ru7'
_cell_volume   261.95817377
_cell_formula_units_Z   1
loop_
 _symmetry_equiv_pos_site_id
 _symmetry_equiv_pos_as_xyz
  1  'x, y, z'
loop_
 _atom_site_type_symbol
 _atom_site_label
 _atom_site_symmetry_multiplicity
 _atom_site_fract_x
 _atom_site_fract_y
 _atom_site_fract_z
 _atom_site_occupancy
  Nb  Nb0  1  0.821862  0.675321  0.000000  1
  Nb  Nb1  1  0.173753  0.321499  0.000000  1
  Nb  Nb2  1  0.322236  0.823931  0.000000  1
  Nb  Nb3  1  0.682313  0.176744  0.000000  1
  Al  Al4  1  0.500065  0.499389  0.000000  1
  Al  Al5  1  0.998999  0.004381  0.000000  1
  B  B6  1  0.627792  0.881068  0.000000  1
  B  B7  1  0.372875  0.119002  0.000000  1
  B  B8  1  0.125815  0.619544  0.000000  1
  B  B9  1  0.874025  0.376168  0.000000  1
  Ir  Ir10  1  0.567109  0.716113  0.500000  1
  Ir  Ir11  1  0.431110  0.283686  0.500000  1
  Ir  Ir12  1  0.068489  0.785725  0.500000  1
  Ru  Ru13  1  0.931484  0.217644  0.500000  1
  Ru  Ru14  1  0.284553  0.568966  0.500000  1
  Ru  Ru15  1  0.715056  0.432763  0.500000  1
  Ru  Ru16  1  0.216187  0.066894  0.500000  1
  Ru  Ru17  1  0.785507  0.929259  0.500000  1
  Ru  Ru18  1  0.501414  0.000548  0.500000  1
  Ru  Ru19  1  0.999355  0.501351  0.500000  1
