# generated using pymatgen
data_Hf8Zr2Zn2SnSb5
_symmetry_space_group_name_H-M   'P 1'
_cell_length_a   8.61643100
_cell_length_b   8.62338538
_cell_length_c   5.79584100
_cell_angle_alpha   90.00000000
_cell_angle_beta   90.00000000
_cell_angle_gamma   119.97333006
_symmetry_Int_Tables_number   1
_chemical_formula_structural   Hf8Zr2Zn2SnSb5
_chemical_formula_sum   'Hf8 Zr2 Zn2 Sn1 Sb5'
_cell_volume   373.05164189
_cell_formula_units_Z   1
loop_
 _symmetry_equiv_pos_site_id
 _symmetry_equiv_pos_as_xyz
  1  'x, y, z'
loop_
 _atom_site_type_symbol
 _atom_site_label
 _atom_site_symmetry_multiplicity
 _atom_site_fract_x
 _atom_site_fract_y
 _atom_site_fract_z
 _atom_site_occupancy
  Hf  Hf0  1  0.729387  0.000000  0.750000  1
  Hf  Hf1  1  0.000406  0.728886  0.750000  1
  Hf  Hf2  1  0.271520  0.271114  0.750000  1
  Hf  Hf3  1  0.268464  0.000000  0.250000  1
  Hf  Hf4  1  0.333006  0.666427  0.500796  1
  Hf  Hf5  1  0.666582  0.333573  0.999204  1
  Hf  Hf6  1  0.666582  0.333573  0.500796  1
  Hf  Hf7  1  0.333006  0.666427  0.999204  1
  Zr  Zr8  1  0.730652  0.731131  0.250000  1
  Zr  Zr9  1  0.999520  0.268869  0.250000  1
  Zn  Zn10  1  0.001611  0.000000  0.996157  1
  Zn  Zn11  1  0.001611  0.000000  0.503843  1
  Sn  Sn12  1  0.383823  0.000000  0.750000  1
  Sb  Sb13  1  0.385661  0.384631  0.250000  1
  Sb  Sb14  1  0.001028  0.615369  0.250000  1
  Sb  Sb15  1  0.000023  0.384782  0.750000  1
  Sb  Sb16  1  0.615241  0.615218  0.750000  1
  Sb  Sb17  1  0.611880  0.000000  0.250000  1
