# generated using pymatgen
data_Er5Tm5BiPb5
_symmetry_space_group_name_H-M   'P 1'
_cell_length_a   6.49098900
_cell_length_b   9.00646821
_cell_length_c   9.00470504
_cell_angle_alpha   120.03197361
_cell_angle_beta   90.00291102
_cell_angle_gamma   89.99982086
_symmetry_Int_Tables_number   1
_chemical_formula_structural   Er5Tm5BiPb5
_chemical_formula_sum   'Er5 Tm5 Bi1 Pb5'
_cell_volume   455.74876671
_cell_formula_units_Z   1
loop_
 _symmetry_equiv_pos_site_id
 _symmetry_equiv_pos_as_xyz
  1  'x, y, z'
loop_
 _atom_site_type_symbol
 _atom_site_label
 _atom_site_symmetry_multiplicity
 _atom_site_fract_x
 _atom_site_fract_y
 _atom_site_fract_z
 _atom_site_occupancy
  Er  Er0  1  0.749975  0.235209  0.999960  1
  Er  Er1  1  0.750014  0.764446  0.760835  1
  Er  Er2  1  0.750007  0.003556  0.239208  1
  Er  Er3  1  0.249965  0.763187  0.999955  1
  Er  Er4  1  0.249999  0.236818  0.237351  1
  Tm  Tm5  1  0.499070  0.331424  0.664369  1
  Tm  Tm6  1  0.499064  0.667104  0.335670  1
  Tm  Tm7  1  0.000946  0.667120  0.335680  1
  Tm  Tm8  1  0.000935  0.331431  0.664355  1
  Tm  Tm9  1  0.250006  0.999356  0.762566  1
  Bi  Bi10  1  0.749991  0.606665  0.999996  1
  Pb  Pb11  1  0.750003  0.395391  0.394859  1
  Pb  Pb12  1  0.750012  0.000509  0.605132  1
  Pb  Pb13  1  0.249991  0.393758  0.999885  1
  Pb  Pb14  1  0.250013  0.605450  0.606756  1
  Pb  Pb15  1  0.250009  0.998574  0.393424  1
