# generated using pymatgen
data_Yb4Lu(AlSb3)2
_symmetry_space_group_name_H-M   'P 1'
_cell_length_a   4.42934700
_cell_length_b   7.42570400
_cell_length_c   22.74232100
_cell_angle_alpha   90.00000000
_cell_angle_beta   90.00000000
_cell_angle_gamma   90.00000000
_symmetry_Int_Tables_number   1
_chemical_formula_structural   Yb4Lu(AlSb3)2
_chemical_formula_sum   'Yb8 Lu2 Al4 Sb12'
_cell_volume   748.01812884
_cell_formula_units_Z   2
loop_
 _symmetry_equiv_pos_site_id
 _symmetry_equiv_pos_as_xyz
  1  'x, y, z'
loop_
 _atom_site_type_symbol
 _atom_site_label
 _atom_site_symmetry_multiplicity
 _atom_site_fract_x
 _atom_site_fract_y
 _atom_site_fract_z
 _atom_site_occupancy
  Yb  Yb0  1  0.000000  0.457175  0.913157  1
  Yb  Yb1  1  0.000000  0.272248  0.746875  1
  Yb  Yb2  1  0.000000  0.772248  0.753125  1
  Yb  Yb3  1  0.000000  0.542825  0.086843  1
  Yb  Yb4  1  0.000000  0.957175  0.586843  1
  Yb  Yb5  1  0.000000  0.727752  0.253125  1
  Yb  Yb6  1  0.000000  0.042825  0.413157  1
  Yb  Yb7  1  0.000000  0.227752  0.246875  1
  Lu  Lu8  1  0.000000  0.000000  0.000000  1
  Lu  Lu9  1  0.000000  0.500000  0.500000  1
  Al  Al10  1  0.500000  0.821623  0.880137  1
  Al  Al11  1  0.500000  0.178377  0.119863  1
  Al  Al12  1  0.500000  0.678377  0.380137  1
  Al  Al13  1  0.500000  0.321623  0.619863  1
  Sb  Sb14  1  0.500000  0.781443  0.496868  1
  Sb  Sb15  1  0.000000  0.466614  0.365645  1
  Sb  Sb16  1  0.000000  0.966614  0.134355  1
  Sb  Sb17  1  0.500000  0.518774  0.813196  1
  Sb  Sb18  1  0.500000  0.481226  0.186804  1
  Sb  Sb19  1  0.000000  0.033386  0.865645  1
  Sb  Sb20  1  0.000000  0.533386  0.634355  1
  Sb  Sb21  1  0.500000  0.981226  0.313196  1
  Sb  Sb22  1  0.500000  0.218557  0.503132  1
  Sb  Sb23  1  0.500000  0.018774  0.686804  1
  Sb  Sb24  1  0.500000  0.281443  0.003132  1
  Sb  Sb25  1  0.500000  0.718557  0.996868  1
