# generated using pymatgen
data_Li4Ac5Hg4
_symmetry_space_group_name_H-M   'P 1'
_cell_length_a   9.79434455
_cell_length_b   9.79434408
_cell_length_c   9.79434459
_cell_angle_alpha   92.72452703
_cell_angle_beta   92.72453175
_cell_angle_gamma   154.81410955
_symmetry_Int_Tables_number   1
_chemical_formula_structural   Li4Ac5Hg4
_chemical_formula_sum   'Li4 Ac5 Hg4'
_cell_volume   390.21864229
_cell_formula_units_Z   1
loop_
 _symmetry_equiv_pos_site_id
 _symmetry_equiv_pos_as_xyz
  1  'x, y, z'
loop_
 _atom_site_type_symbol
 _atom_site_label
 _atom_site_symmetry_multiplicity
 _atom_site_fract_x
 _atom_site_fract_y
 _atom_site_fract_z
 _atom_site_occupancy
  Li  Li0  1  0.593986  0.070376  0.664362  1
  Li  Li1  1  0.929624  0.593986  0.523610  1
  Li  Li2  1  0.070376  0.406014  0.476390  1
  Li  Li3  1  0.406014  0.929624  0.335638  1
  Ac  Ac4  1  0.128743  0.780196  0.908939  1
  Ac  Ac5  1  0.219804  0.128743  0.348546  1
  Ac  Ac6  1  0.871257  0.219804  0.091061  1
  Ac  Ac7  1  0.500000  0.500000  0.000000  1
  Ac  Ac8  1  0.780196  0.871257  0.651454  1
  Hg  Hg9  1  0.439354  0.241241  0.680596  1
  Hg  Hg10  1  0.560646  0.758759  0.319404  1
  Hg  Hg11  1  0.241241  0.560646  0.801887  1
  Hg  Hg12  1  0.758759  0.439354  0.198113  1
