# generated using pymatgen
data_PrY2Pa(ReB6)2
_symmetry_space_group_name_H-M   'P 1'
_cell_length_a   3.73236500
_cell_length_b   9.24726169
_cell_length_c   11.64293428
_cell_angle_alpha   89.58179061
_cell_angle_beta   90.00000000
_cell_angle_gamma   90.00000000
_symmetry_Int_Tables_number   1
_chemical_formula_structural   PrY2Pa(ReB6)2
_chemical_formula_sum   'Pr2 Y4 Pa2 Re4 B24'
_cell_volume   401.83534426
_cell_formula_units_Z   2
loop_
 _symmetry_equiv_pos_site_id
 _symmetry_equiv_pos_as_xyz
  1  'x, y, z'
loop_
 _atom_site_type_symbol
 _atom_site_label
 _atom_site_symmetry_multiplicity
 _atom_site_fract_x
 _atom_site_fract_y
 _atom_site_fract_z
 _atom_site_occupancy
  Pr  Pr0  1  0.000000  0.323766  0.413475  1
  Pr  Pr1  1  0.000000  0.676234  0.586525  1
  Y  Y2  1  0.000000  0.445044  0.125791  1
  Y  Y3  1  0.000000  0.554956  0.874209  1
  Y  Y4  1  0.000000  0.944250  0.371982  1
  Y  Y5  1  0.000000  0.055750  0.628018  1
  Pa  Pa6  1  0.000000  0.822731  0.086473  1
  Pa  Pa7  1  0.000000  0.177269  0.913527  1
  Re  Re8  1  0.000000  0.134250  0.173203  1
  Re  Re9  1  0.000000  0.865750  0.826797  1
  Re  Re10  1  0.000000  0.643110  0.315069  1
  Re  Re11  1  0.000000  0.356890  0.684931  1
  B  B12  1  0.500000  0.053052  0.066310  1
  B  B13  1  0.500000  0.946948  0.933691  1
  B  B14  1  0.500000  0.555823  0.428840  1
  B  B15  1  0.500000  0.444177  0.571159  1
  B  B16  1  0.500000  0.246488  0.079103  1
  B  B17  1  0.500000  0.753512  0.920897  1
  B  B18  1  0.500000  0.748953  0.415835  1
  B  B19  1  0.500000  0.251047  0.584165  1
  B  B20  1  0.500000  0.289590  0.230914  1
  B  B21  1  0.500000  0.710410  0.769086  1
  B  B22  1  0.500000  0.793168  0.264019  1
  B  B23  1  0.500000  0.206832  0.735981  1
  B  B24  1  0.500000  0.129822  0.311488  1
  B  B25  1  0.500000  0.870178  0.688512  1
  B  B26  1  0.500000  0.634233  0.184288  1
  B  B27  1  0.500000  0.365767  0.815712  1
  B  B28  1  0.500000  0.485573  0.284689  1
  B  B29  1  0.500000  0.514427  0.715311  1
  B  B30  1  0.500000  0.983040  0.211461  1
  B  B31  1  0.500000  0.016960  0.788539  1
  B  B32  1  0.500000  0.099936  0.471851  1
  B  B33  1  0.500000  0.900064  0.528149  1
  B  B34  1  0.500000  0.615985  0.031541  1
  B  B35  1  0.500000  0.384015  0.968459  1
