# generated using pymatgen
data_PrScB6Ru
_symmetry_space_group_name_H-M   'P 1'
_cell_length_a   3.63651600
_cell_length_b   9.08440800
_cell_length_c   11.52989400
_cell_angle_alpha   90.00000000
_cell_angle_beta   90.00000000
_cell_angle_gamma   90.00000000
_symmetry_Int_Tables_number   1
_chemical_formula_structural   PrScB6Ru
_chemical_formula_sum   'Pr4 Sc4 B24 Ru4'
_cell_volume   380.89690907
_cell_formula_units_Z   4
loop_
 _symmetry_equiv_pos_site_id
 _symmetry_equiv_pos_as_xyz
  1  'x, y, z'
loop_
 _atom_site_type_symbol
 _atom_site_label
 _atom_site_symmetry_multiplicity
 _atom_site_fract_x
 _atom_site_fract_y
 _atom_site_fract_z
 _atom_site_occupancy
  Pr  Pr0  1  0.000000  0.321325  0.414829  1
  Pr  Pr1  1  0.000000  0.678675  0.585171  1
  Pr  Pr2  1  0.000000  0.821325  0.085171  1
  Pr  Pr3  1  0.000000  0.178675  0.914829  1
  Sc  Sc4  1  0.000000  0.945397  0.373365  1
  Sc  Sc5  1  0.000000  0.054603  0.626635  1
  Sc  Sc6  1  0.000000  0.445397  0.126635  1
  Sc  Sc7  1  0.000000  0.554603  0.873365  1
  B  B8  1  0.500000  0.557734  0.429227  1
  B  B9  1  0.500000  0.442266  0.570773  1
  B  B10  1  0.500000  0.057734  0.070773  1
  B  B11  1  0.500000  0.942266  0.929227  1
  B  B12  1  0.500000  0.754281  0.415948  1
  B  B13  1  0.500000  0.245719  0.584052  1
  B  B14  1  0.500000  0.254281  0.084052  1
  B  B15  1  0.500000  0.745719  0.915948  1
  B  B16  1  0.500000  0.793438  0.266095  1
  B  B17  1  0.500000  0.206562  0.733905  1
  B  B18  1  0.500000  0.293438  0.233905  1
  B  B19  1  0.500000  0.706562  0.766095  1
  B  B20  1  0.500000  0.628080  0.183136  1
  B  B21  1  0.500000  0.371920  0.816864  1
  B  B22  1  0.500000  0.128080  0.316864  1
  B  B23  1  0.500000  0.871920  0.683136  1
  B  B24  1  0.500000  0.984219  0.215992  1
  B  B25  1  0.500000  0.015781  0.784008  1
  B  B26  1  0.500000  0.484219  0.284008  1
  B  B27  1  0.500000  0.515781  0.715992  1
  B  B28  1  0.500000  0.596578  0.025819  1
  B  B29  1  0.500000  0.403422  0.974181  1
  B  B30  1  0.500000  0.096578  0.474181  1
  B  B31  1  0.500000  0.903422  0.525819  1
  Ru  Ru32  1  0.000000  0.641502  0.316882  1
  Ru  Ru33  1  0.000000  0.358498  0.683118  1
  Ru  Ru34  1  0.000000  0.141502  0.183118  1
  Ru  Ru35  1  0.000000  0.858498  0.816882  1
