# generated using pymatgen
data_La2ZnGa3Ni2
_symmetry_space_group_name_H-M   'P 1'
_cell_length_a   9.11765574
_cell_length_b   9.11765406
_cell_length_c   4.32291000
_cell_angle_alpha   90.00000000
_cell_angle_beta   90.00000000
_cell_angle_gamma   153.51269550
_symmetry_Int_Tables_number   1
_chemical_formula_structural   La2ZnGa3Ni2
_chemical_formula_sum   'La2 Zn1 Ga3 Ni2'
_cell_volume   160.27909085
_cell_formula_units_Z   1
loop_
 _symmetry_equiv_pos_site_id
 _symmetry_equiv_pos_as_xyz
  1  'x, y, z'
loop_
 _atom_site_type_symbol
 _atom_site_label
 _atom_site_symmetry_multiplicity
 _atom_site_fract_x
 _atom_site_fract_y
 _atom_site_fract_z
 _atom_site_occupancy
  La  La0  1  0.642934  0.357066  0.500000  1
  La  La1  1  0.357066  0.642934  0.500000  1
  Zn  Zn2  1  0.000000  0.000000  0.500000  1
  Ga  Ga3  1  0.791025  0.208975  0.000000  1
  Ga  Ga4  1  0.208975  0.791025  0.000000  1
  Ga  Ga5  1  0.500000  0.500000  0.000000  1
  Ni  Ni6  1  0.927494  0.072506  0.000000  1
  Ni  Ni7  1  0.072506  0.927494  0.000000  1
