# generated using pymatgen
data_EuThCoNi7B2
_symmetry_space_group_name_H-M   'P 1'
_cell_length_a   5.07193601
_cell_length_b   5.05466456
_cell_length_c   7.03568120
_cell_angle_alpha   90.01925402
_cell_angle_beta   90.00709478
_cell_angle_gamma   119.89891319
_symmetry_Int_Tables_number   1
_chemical_formula_structural   EuThCoNi7B2
_chemical_formula_sum   'Eu1 Th1 Co1 Ni7 B2'
_cell_volume   156.36671770
_cell_formula_units_Z   1
loop_
 _symmetry_equiv_pos_site_id
 _symmetry_equiv_pos_as_xyz
  1  'x, y, z'
loop_
 _atom_site_type_symbol
 _atom_site_label
 _atom_site_symmetry_multiplicity
 _atom_site_fract_x
 _atom_site_fract_y
 _atom_site_fract_z
 _atom_site_occupancy
  Eu  Eu0  1  0.999998  0.999998  0.499952  1
  Th  Th1  1  0.999969  0.000004  0.004225  1
  Co  Co2  1  0.999895  0.499898  0.298500  1
  Ni  Ni3  1  0.329578  0.664828  0.999916  1
  Ni  Ni4  1  0.670390  0.335176  0.999921  1
  Ni  Ni5  1  0.499906  0.999929  0.293323  1
  Ni  Ni6  1  0.499900  0.499920  0.293317  1
  Ni  Ni7  1  0.500076  0.000070  0.705067  1
  Ni  Ni8  1  0.500066  0.500075  0.705108  1
  Ni  Ni9  1  0.000060  0.500082  0.705026  1
  B  B10  1  0.329291  0.664641  0.497823  1
  B  B11  1  0.670672  0.335378  0.497823  1
