# generated using pymatgen
data_La3Tb5ZnPd24
_symmetry_space_group_name_H-M   'P 1'
_cell_length_a   8.46103284
_cell_length_b   8.46103284
_cell_length_c   8.43090723
_cell_angle_alpha   90.07074542
_cell_angle_beta   89.92925458
_cell_angle_gamma   89.74944080
_symmetry_Int_Tables_number   1
_chemical_formula_structural   La3Tb5ZnPd24
_chemical_formula_sum   'La3 Tb5 Zn1 Pd24'
_cell_volume   603.55416919
_cell_formula_units_Z   1
loop_
 _symmetry_equiv_pos_site_id
 _symmetry_equiv_pos_as_xyz
  1  'x, y, z'
loop_
 _atom_site_type_symbol
 _atom_site_label
 _atom_site_symmetry_multiplicity
 _atom_site_fract_x
 _atom_site_fract_y
 _atom_site_fract_z
 _atom_site_occupancy
  La  La0  1  0.250570  0.749430  0.251512  1
  La  La1  1  0.251736  0.748264  0.748271  1
  La  La2  1  0.748427  0.251573  0.251593  1
  Tb  Tb3  1  0.251092  0.250659  0.250053  1
  Tb  Tb4  1  0.749040  0.749708  0.750308  1
  Tb  Tb5  1  0.749341  0.748908  0.250053  1
  Tb  Tb6  1  0.749375  0.250625  0.748870  1
  Tb  Tb7  1  0.250292  0.250960  0.750308  1
  Zn  Zn8  1  0.000181  0.999819  0.999410  1
  Pd  Pd9  1  0.261314  0.495850  0.000378  1
  Pd  Pd10  1  0.738768  0.501885  0.995874  1
  Pd  Pd11  1  0.004420  0.261625  0.502751  1
  Pd  Pd12  1  0.498115  0.261232  0.995874  1
  Pd  Pd13  1  0.992494  0.738528  0.500418  1
  Pd  Pd14  1  0.504150  0.738686  0.000378  1
  Pd  Pd15  1  0.500177  0.999460  0.261123  1
  Pd  Pd16  1  0.261472  0.007506  0.500418  1
  Pd  Pd17  1  0.502404  0.003919  0.738552  1
  Pd  Pd18  1  0.738375  0.995580  0.502751  1
  Pd  Pd19  1  0.000540  0.499823  0.261123  1
  Pd  Pd20  1  0.996081  0.497596  0.738552  1
  Pd  Pd21  1  0.253481  0.493606  0.499760  1
  Pd  Pd22  1  0.746472  0.503488  0.503666  1
  Pd  Pd23  1  0.496512  0.253528  0.503666  1
  Pd  Pd24  1  0.506394  0.746519  0.499760  1
  Pd  Pd25  1  0.499473  0.500527  0.253451  1
  Pd  Pd26  1  0.503559  0.496441  0.746518  1
  Pd  Pd27  1  0.295500  0.005923  0.000206  1
  Pd  Pd28  1  0.705430  0.996592  0.996835  1
  Pd  Pd29  1  0.003408  0.294570  0.996835  1
  Pd  Pd30  1  0.994077  0.704500  0.000206  1
  Pd  Pd31  1  0.000354  0.999646  0.296093  1
  Pd  Pd32  1  0.996975  0.003025  0.704435  1
