# generated using pymatgen
data_SrYb(CuSb)2
_symmetry_space_group_name_H-M   'P 1'
_cell_length_a   4.50342500
_cell_length_b   4.50342572
_cell_length_c   8.36271800
_cell_angle_alpha   90.00000000
_cell_angle_beta   90.00000000
_cell_angle_gamma   120.00000204
_symmetry_Int_Tables_number   1
_chemical_formula_structural   SrYb(CuSb)2
_chemical_formula_sum   'Sr1 Yb1 Cu2 Sb2'
_cell_volume   146.88045644
_cell_formula_units_Z   1
loop_
 _symmetry_equiv_pos_site_id
 _symmetry_equiv_pos_as_xyz
  1  'x, y, z'
loop_
 _atom_site_type_symbol
 _atom_site_label
 _atom_site_symmetry_multiplicity
 _atom_site_fract_x
 _atom_site_fract_y
 _atom_site_fract_z
 _atom_site_occupancy
  Sr  Sr0  1  0.000000  0.000000  0.500000  1
  Yb  Yb1  1  0.000000  0.000000  0.000000  1
  Cu  Cu2  1  0.333333  0.666667  0.784484  1
  Cu  Cu3  1  0.666667  0.333333  0.215516  1
  Sb  Sb4  1  0.333333  0.666667  0.234416  1
  Sb  Sb5  1  0.666667  0.333333  0.765584  1
