# generated using pymatgen
data_Yb10Cu3Hg2Ru
_symmetry_space_group_name_H-M   'P 1'
_cell_length_a   8.99514649
_cell_length_b   8.99514724
_cell_length_c   8.93412711
_cell_angle_alpha   129.40168958
_cell_angle_beta   129.40169157
_cell_angle_gamma   74.87682981
_symmetry_Int_Tables_number   1
_chemical_formula_structural   Yb10Cu3Hg2Ru
_chemical_formula_sum   'Yb10 Cu3 Hg2 Ru1'
_cell_volume   419.23882985
_cell_formula_units_Z   1
loop_
 _symmetry_equiv_pos_site_id
 _symmetry_equiv_pos_as_xyz
  1  'x, y, z'
loop_
 _atom_site_type_symbol
 _atom_site_label
 _atom_site_symmetry_multiplicity
 _atom_site_fract_x
 _atom_site_fract_y
 _atom_site_fract_z
 _atom_site_occupancy
  Yb  Yb0  1  0.493468  0.500984  0.994453  1
  Yb  Yb1  1  0.000984  0.993468  0.994453  1
  Yb  Yb2  1  0.533535  0.033535  0.837916  1
  Yb  Yb3  1  0.188704  0.688704  0.144605  1
  Yb  Yb4  1  0.033585  0.205563  0.508650  1
  Yb  Yb5  1  0.705563  0.533585  0.508650  1
  Yb  Yb6  1  0.455902  0.955902  0.144605  1
  Yb  Yb7  1  0.804380  0.304380  0.837916  1
  Yb  Yb8  1  0.975065  0.803087  0.508650  1
  Yb  Yb9  1  0.303087  0.475065  0.508650  1
  Cu  Cu10  1  0.881183  0.381183  0.262366  1
  Cu  Cu11  1  0.615529  0.882336  0.497865  1
  Cu  Cu12  1  0.382336  0.115529  0.497865  1
  Hg  Hg13  1  0.252078  0.252078  0.004156  1
  Hg  Hg14  1  0.752078  0.752078  0.004156  1
  Ru  Ru15  1  0.122522  0.622522  0.745045  1
