# generated using pymatgen
data_Dy8Sc12Ga4Si11Ag
_symmetry_space_group_name_H-M   'P 1'
_cell_length_a   7.18256521
_cell_length_b   7.37890604
_cell_length_c   14.26048762
_cell_angle_alpha   89.99690982
_cell_angle_beta   89.34372833
_cell_angle_gamma   90.32102297
_symmetry_Int_Tables_number   1
_chemical_formula_structural   Dy8Sc12Ga4Si11Ag
_chemical_formula_sum   'Dy8 Sc12 Ga4 Si11 Ag1'
_cell_volume   755.73689417
_cell_formula_units_Z   1
loop_
 _symmetry_equiv_pos_site_id
 _symmetry_equiv_pos_as_xyz
  1  'x, y, z'
loop_
 _atom_site_type_symbol
 _atom_site_label
 _atom_site_symmetry_multiplicity
 _atom_site_fract_x
 _atom_site_fract_y
 _atom_site_fract_z
 _atom_site_occupancy
  Dy  Dy0  1  0.013663  0.174788  0.096532  1
  Dy  Dy1  1  0.987831  0.826044  0.902107  1
  Dy  Dy2  1  0.486584  0.676637  0.902494  1
  Dy  Dy3  1  0.990937  0.824514  0.602370  1
  Dy  Dy4  1  0.511881  0.321422  0.097087  1
  Dy  Dy5  1  0.006766  0.173739  0.396678  1
  Dy  Dy6  1  0.509483  0.322954  0.396687  1
  Dy  Dy7  1  0.496177  0.674357  0.604235  1
  Sc  Sc8  1  0.164792  0.500888  0.755111  1
  Sc  Sc9  1  0.835338  0.499949  0.250270  1
  Sc  Sc10  1  0.335661  0.000263  0.247601  1
  Sc  Sc11  1  0.664768  0.999515  0.752401  1
  Sc  Sc12  1  0.339238  0.171904  0.629962  1
  Sc  Sc13  1  0.664222  0.826799  0.371549  1
  Sc  Sc14  1  0.164029  0.671721  0.369515  1
  Sc  Sc15  1  0.668008  0.826544  0.124637  1
  Sc  Sc16  1  0.831710  0.329109  0.627532  1
  Sc  Sc17  1  0.329913  0.175750  0.875923  1
  Sc  Sc18  1  0.828067  0.323592  0.875977  1
  Sc  Sc19  1  0.173256  0.674789  0.123372  1
  Ga  Ga20  1  0.831241  0.539268  0.459437  1
  Ga  Ga21  1  0.334601  0.961705  0.462540  1
  Ga  Ga22  1  0.841303  0.539211  0.039199  1
  Ga  Ga23  1  0.663899  0.036617  0.539565  1
  Si  Si24  1  0.033649  0.118518  0.751381  1
  Si  Si25  1  0.966631  0.882252  0.247406  1
  Si  Si26  1  0.465697  0.614831  0.246377  1
  Si  Si27  1  0.534953  0.384444  0.753529  1
  Si  Si28  1  0.287667  0.872441  0.753159  1
  Si  Si29  1  0.713747  0.127599  0.246554  1
  Si  Si30  1  0.212961  0.371984  0.246543  1
  Si  Si31  1  0.788848  0.627792  0.753865  1
  Si  Si32  1  0.155342  0.464296  0.960548  1
  Si  Si33  1  0.655032  0.035918  0.961492  1
  Si  Si34  1  0.346117  0.964094  0.037868  1
  Ag  Ag35  1  0.165988  0.463752  0.538496  1
