# generated using pymatgen
data_Dy4ErTm3(ReC2)4
_symmetry_space_group_name_H-M   'P 1'
_cell_length_a   5.07838700
_cell_length_b   6.56423008
_cell_length_c   9.80128411
_cell_angle_alpha   89.98262254
_cell_angle_beta   90.00000000
_cell_angle_gamma   90.00000000
_symmetry_Int_Tables_number   1
_chemical_formula_structural   Dy4ErTm3(ReC2)4
_chemical_formula_sum   'Dy4 Er1 Tm3 Re4 C8'
_cell_volume   326.73265844
_cell_formula_units_Z   1
loop_
 _symmetry_equiv_pos_site_id
 _symmetry_equiv_pos_as_xyz
  1  'x, y, z'
loop_
 _atom_site_type_symbol
 _atom_site_label
 _atom_site_symmetry_multiplicity
 _atom_site_fract_x
 _atom_site_fract_y
 _atom_site_fract_z
 _atom_site_occupancy
  Dy  Dy0  1  0.250000  0.466760  0.215787  1
  Dy  Dy1  1  0.250000  0.966953  0.284424  1
  Dy  Dy2  1  0.750000  0.533053  0.784185  1
  Dy  Dy3  1  0.750000  0.033217  0.715634  1
  Er  Er4  1  0.250000  0.822352  0.942774  1
  Tm  Tm5  1  0.250000  0.322916  0.557530  1
  Tm  Tm6  1  0.750000  0.177149  0.057641  1
  Tm  Tm7  1  0.750000  0.676994  0.442420  1
  Re  Re8  1  0.250000  0.278891  0.867008  1
  Re  Re9  1  0.250000  0.778847  0.632764  1
  Re  Re10  1  0.750000  0.721221  0.133132  1
  Re  Re11  1  0.750000  0.221201  0.367068  1
  C  C12  1  0.250000  0.046832  0.740152  1
  C  C13  1  0.250000  0.546274  0.759233  1
  C  C14  1  0.750000  0.953458  0.259624  1
  C  C15  1  0.750000  0.453435  0.240435  1
  C  C16  1  0.250000  0.673052  0.449501  1
  C  C17  1  0.250000  0.173629  0.050551  1
  C  C18  1  0.750000  0.326914  0.550441  1
  C  C19  1  0.750000  0.826853  0.949698  1
