# generated using pymatgen
data_Pr9Nd(Sn5Pd2)4
_symmetry_space_group_name_H-M   'P 1'
_cell_length_a   14.34951501
_cell_length_b   14.34951001
_cell_length_c   4.68009600
_cell_angle_alpha   90.00000000
_cell_angle_beta   90.00000000
_cell_angle_gamma   89.99476135
_symmetry_Int_Tables_number   1
_chemical_formula_structural   Pr9Nd(Sn5Pd2)4
_chemical_formula_sum   'Pr9 Nd1 Sn20 Pd8'
_cell_volume   963.67158727
_cell_formula_units_Z   1
loop_
 _symmetry_equiv_pos_site_id
 _symmetry_equiv_pos_as_xyz
  1  'x, y, z'
loop_
 _atom_site_type_symbol
 _atom_site_label
 _atom_site_symmetry_multiplicity
 _atom_site_fract_x
 _atom_site_fract_y
 _atom_site_fract_z
 _atom_site_occupancy
  Pr  Pr0  1  0.500015  0.499966  0.000000  1
  Pr  Pr1  1  0.999963  0.000015  0.000000  1
  Pr  Pr2  1  0.320717  0.820716  0.500000  1
  Pr  Pr3  1  0.179275  0.320713  0.500000  1
  Pr  Pr4  1  0.820712  0.679275  0.500000  1
  Pr  Pr5  1  0.891388  0.391389  0.500000  1
  Pr  Pr6  1  0.108512  0.608513  0.500000  1
  Pr  Pr7  1  0.391565  0.108581  0.500000  1
  Pr  Pr8  1  0.608581  0.891565  0.500000  1
  Nd  Nd9  1  0.679094  0.179093  0.500000  1
  Sn  Sn10  1  0.569294  0.069296  0.000000  1
  Sn  Sn11  1  0.431123  0.931121  0.000000  1
  Sn  Sn12  1  0.069001  0.430986  0.000000  1
  Sn  Sn13  1  0.930987  0.569001  0.000000  1
  Sn  Sn14  1  0.653799  0.699823  0.000000  1
  Sn  Sn15  1  0.346272  0.300131  0.000000  1
  Sn  Sn16  1  0.153788  0.800187  0.000000  1
  Sn  Sn17  1  0.845811  0.199750  0.000000  1
  Sn  Sn18  1  0.300187  0.653789  0.000000  1
  Sn  Sn19  1  0.699752  0.345811  0.000000  1
  Sn  Sn20  1  0.199823  0.153801  0.000000  1
  Sn  Sn21  1  0.800132  0.846271  0.000000  1
  Sn  Sn22  1  0.662122  0.501851  0.500000  1
  Sn  Sn23  1  0.337838  0.498253  0.500000  1
  Sn  Sn24  1  0.162141  0.998248  0.500000  1
  Sn  Sn25  1  0.837716  0.002021  0.500000  1
  Sn  Sn26  1  0.498246  0.662142  0.500000  1
  Sn  Sn27  1  0.502022  0.337714  0.500000  1
  Sn  Sn28  1  0.001851  0.162122  0.500000  1
  Sn  Sn29  1  0.998253  0.837840  0.500000  1
  Pd  Pd30  1  0.745454  0.529338  0.000000  1
  Pd  Pd31  1  0.254525  0.470512  0.000000  1
  Pd  Pd32  1  0.245482  0.970533  0.000000  1
  Pd  Pd33  1  0.754399  0.029779  0.000000  1
  Pd  Pd34  1  0.470530  0.745478  0.000000  1
  Pd  Pd35  1  0.529778  0.254400  0.000000  1
  Pd  Pd36  1  0.029339  0.245454  0.000000  1
  Pd  Pd37  1  0.970513  0.754525  0.000000  1
