# generated using pymatgen
data_SmTiCdSbO7
_symmetry_space_group_name_H-M   'P 1'
_cell_length_a   7.33294532
_cell_length_b   7.33294526
_cell_length_c   7.33294585
_cell_angle_alpha   120.90809533
_cell_angle_beta   118.42700593
_cell_angle_gamma   90.59009309
_symmetry_Int_Tables_number   1
_chemical_formula_structural   SmTiCdSbO7
_chemical_formula_sum   'Sm2 Ti2 Cd2 Sb2 O14'
_cell_volume   280.04050842
_cell_formula_units_Z   2
loop_
 _symmetry_equiv_pos_site_id
 _symmetry_equiv_pos_as_xyz
  1  'x, y, z'
loop_
 _atom_site_type_symbol
 _atom_site_label
 _atom_site_symmetry_multiplicity
 _atom_site_fract_x
 _atom_site_fract_y
 _atom_site_fract_z
 _atom_site_occupancy
  Sm  Sm0  1  0.000000  0.000000  0.000000  1
  Sm  Sm1  1  0.500000  0.000000  0.500000  1
  Ti  Ti2  1  0.500000  0.500000  0.500000  1
  Ti  Ti3  1  0.500000  0.000000  0.000000  1
  Cd  Cd4  1  0.000000  0.000000  0.500000  1
  Cd  Cd5  1  0.000000  0.500000  0.000000  1
  Sb  Sb6  1  0.500000  0.500000  0.000000  1
  Sb  Sb7  1  0.000000  0.500000  0.500000  1
  O  O8  1  0.122604  0.872604  0.250000  1
  O  O9  1  0.877396  0.127396  0.750000  1
  O  O10  1  0.427447  0.177447  0.250000  1
  O  O11  1  0.828311  0.578311  0.250000  1
  O  O12  1  0.435844  0.581793  0.261684  1
  O  O13  1  0.820110  0.174160  0.238316  1
  O  O14  1  0.435844  0.174160  0.854051  1
  O  O15  1  0.820110  0.581793  0.645949  1
  O  O16  1  0.572553  0.822553  0.750000  1
  O  O17  1  0.171689  0.421689  0.750000  1
  O  O18  1  0.564156  0.418207  0.738316  1
  O  O19  1  0.179890  0.825840  0.761684  1
  O  O20  1  0.564156  0.825840  0.145949  1
  O  O21  1  0.179890  0.418207  0.354051  1
