# generated using pymatgen
data_Y4TmGaSb2
_symmetry_space_group_name_H-M   'P 1'
_cell_length_a   8.84671900
_cell_length_b   8.81603303
_cell_length_c   6.43707600
_cell_angle_alpha   90.00000000
_cell_angle_beta   90.00000000
_cell_angle_gamma   120.11520383
_symmetry_Int_Tables_number   1
_chemical_formula_structural   Y4TmGaSb2
_chemical_formula_sum   'Y8 Tm2 Ga2 Sb4'
_cell_volume   434.27954988
_cell_formula_units_Z   2
loop_
 _symmetry_equiv_pos_site_id
 _symmetry_equiv_pos_as_xyz
  1  'x, y, z'
loop_
 _atom_site_type_symbol
 _atom_site_label
 _atom_site_symmetry_multiplicity
 _atom_site_fract_x
 _atom_site_fract_y
 _atom_site_fract_z
 _atom_site_occupancy
  Y  Y0  1  0.341366  0.682734  0.000000  1
  Y  Y1  1  0.658634  0.317266  0.500000  1
  Y  Y2  1  0.244542  0.000000  0.250000  1
  Y  Y3  1  0.755458  0.000000  0.750000  1
  Y  Y4  1  0.987834  0.234743  0.250116  1
  Y  Y5  1  0.753092  0.765257  0.249884  1
  Y  Y6  1  0.246908  0.234743  0.749884  1
  Y  Y7  1  0.012166  0.765257  0.750116  1
  Tm  Tm8  1  0.656659  0.313316  0.000000  1
  Tm  Tm9  1  0.343341  0.686684  0.500000  1
  Ga  Ga10  1  0.602537  0.000000  0.250000  1
  Ga  Ga11  1  0.397463  0.000000  0.750000  1
  Sb  Sb12  1  0.994700  0.605937  0.249820  1
  Sb  Sb13  1  0.388763  0.394063  0.250180  1
  Sb  Sb14  1  0.611237  0.605937  0.750180  1
  Sb  Sb15  1  0.005300  0.394063  0.749820  1
