# generated using pymatgen
data_YTmFeIr3
_symmetry_space_group_name_H-M   'P 1'
_cell_length_a   5.15463976
_cell_length_b   5.15464207
_cell_length_c   5.15464088
_cell_angle_alpha   63.67040227
_cell_angle_beta   63.67039401
_cell_angle_gamma   63.67039360
_symmetry_Int_Tables_number   1
_chemical_formula_structural   YTmFeIr3
_chemical_formula_sum   'Y1 Tm1 Fe1 Ir3'
_cell_volume   104.69537052
_cell_formula_units_Z   1
loop_
 _symmetry_equiv_pos_site_id
 _symmetry_equiv_pos_as_xyz
  1  'x, y, z'
loop_
 _atom_site_type_symbol
 _atom_site_label
 _atom_site_symmetry_multiplicity
 _atom_site_fract_x
 _atom_site_fract_y
 _atom_site_fract_z
 _atom_site_occupancy
  Y  Y0  1  0.998861  0.998861  0.998861  1
  Tm  Tm1  1  0.251775  0.251775  0.251775  1
  Fe  Fe2  1  0.624936  0.624936  0.624936  1
  Ir  Ir3  1  0.624485  0.624485  0.125455  1
  Ir  Ir4  1  0.624485  0.125455  0.624485  1
  Ir  Ir5  1  0.125455  0.624485  0.624485  1
