# generated using pymatgen
data_Sc20AlTc5
_symmetry_space_group_name_H-M   'P 1'
_cell_length_a   8.87605200
_cell_length_b   8.83419105
_cell_length_c   8.25097200
_cell_angle_alpha   90.00000000
_cell_angle_beta   90.00000000
_cell_angle_gamma   120.15686552
_symmetry_Int_Tables_number   1
_chemical_formula_structural   Sc20AlTc5
_chemical_formula_sum   'Sc20 Al1 Tc5'
_cell_volume   559.41449658
_cell_formula_units_Z   1
loop_
 _symmetry_equiv_pos_site_id
 _symmetry_equiv_pos_as_xyz
  1  'x, y, z'
loop_
 _atom_site_type_symbol
 _atom_site_label
 _atom_site_symmetry_multiplicity
 _atom_site_fract_x
 _atom_site_fract_y
 _atom_site_fract_z
 _atom_site_occupancy
  Sc  Sc0  1  0.996750  0.993499  0.982032  1
  Sc  Sc1  1  0.403470  0.200419  0.048037  1
  Sc  Sc2  1  0.796949  0.200419  0.048037  1
  Sc  Sc3  1  0.796420  0.592841  0.054440  1
  Sc  Sc4  1  0.095842  0.556453  0.250000  1
  Sc  Sc5  1  0.460611  0.556453  0.250000  1
  Sc  Sc6  1  0.455292  0.910585  0.250000  1
  Sc  Sc7  1  0.403470  0.200419  0.451963  1
  Sc  Sc8  1  0.796949  0.200419  0.451963  1
  Sc  Sc9  1  0.796420  0.592841  0.445560  1
  Sc  Sc10  1  0.996750  0.993499  0.517968  1
  Sc  Sc11  1  0.204035  0.408070  0.567102  1
  Sc  Sc12  1  0.202283  0.795677  0.553072  1
  Sc  Sc13  1  0.593393  0.795677  0.553072  1
  Sc  Sc14  1  0.546037  0.092076  0.750001  1
  Sc  Sc15  1  0.549251  0.453160  0.750001  1
  Sc  Sc16  1  0.903910  0.453160  0.750001  1
  Sc  Sc17  1  0.204035  0.408070  0.932898  1
  Sc  Sc18  1  0.202283  0.795677  0.946928  1
  Sc  Sc19  1  0.593393  0.795677  0.946928  1
  Al  Al20  1  0.111285  0.222571  0.250000  1
  Tc  Tc21  1  0.119603  0.886390  0.250000  1
  Tc  Tc22  1  0.766787  0.886390  0.250000  1
  Tc  Tc23  1  0.243379  0.127984  0.750001  1
  Tc  Tc24  1  0.884605  0.127984  0.750001  1
  Tc  Tc25  1  0.876794  0.753590  0.750001  1
