# generated using pymatgen
data_K4Zr6MnBr18
_symmetry_space_group_name_H-M   'P 1'
_cell_length_a   10.68913306
_cell_length_b   10.76676298
_cell_length_c   10.91255794
_cell_angle_alpha   118.31957576
_cell_angle_beta   99.89944672
_cell_angle_gamma   104.27792264
_symmetry_Int_Tables_number   1
_chemical_formula_structural   K4Zr6MnBr18
_chemical_formula_sum   'K4 Zr6 Mn1 Br18'
_cell_volume   1008.12400454
_cell_formula_units_Z   1
loop_
 _symmetry_equiv_pos_site_id
 _symmetry_equiv_pos_as_xyz
  1  'x, y, z'
loop_
 _atom_site_type_symbol
 _atom_site_label
 _atom_site_symmetry_multiplicity
 _atom_site_fract_x
 _atom_site_fract_y
 _atom_site_fract_z
 _atom_site_occupancy
  K  K0  1  0.652479  0.538302  0.226975  1
  K  K1  1  0.347521  0.461698  0.773025  1
  K  K2  1  0.686040  0.224300  0.563447  1
  K  K3  1  0.313960  0.775700  0.436553  1
  Zr  Zr4  1  0.154879  0.057796  0.237809  1
  Zr  Zr5  1  0.845121  0.942204  0.762191  1
  Zr  Zr6  1  0.856643  0.130524  0.136966  1
  Zr  Zr7  1  0.143357  0.869476  0.863034  1
  Zr  Zr8  1  0.144920  0.238808  0.045043  1
  Zr  Zr9  1  0.855080  0.761192  0.954957  1
  Mn  Mn10  1  0.000000  0.000000  0.000000  1
  Br  Br11  1  0.008024  0.409499  0.196790  1
  Br  Br12  1  0.991976  0.590501  0.803210  1
  Br  Br13  1  0.327899  0.333288  0.310725  1
  Br  Br14  1  0.672101  0.666712  0.689275  1
  Br  Br15  1  0.322549  0.522783  0.100548  1
  Br  Br16  1  0.677451  0.477217  0.899452  1
  Br  Br17  1  0.003826  0.795422  0.208941  1
  Br  Br18  1  0.996174  0.204578  0.791059  1
  Br  Br19  1  0.701100  0.277741  0.290309  1
  Br  Br20  1  0.298900  0.722259  0.709691  1
  Br  Br21  1  0.316301  0.127755  0.903240  1
  Br  Br22  1  0.683699  0.872245  0.096760  1
  Br  Br23  1  0.014133  0.204587  0.408245  1
  Br  Br24  1  0.985867  0.795413  0.591755  1
  Br  Br25  1  0.320543  0.922290  0.110116  1
  Br  Br26  1  0.679457  0.077710  0.889884  1
  Br  Br27  1  0.334467  0.121395  0.504392  1
  Br  Br28  1  0.665533  0.878605  0.495608  1
