# generated using pymatgen
data_Hf19Si16W
_symmetry_space_group_name_H-M   'P 1'
_cell_length_a   7.04389710
_cell_length_b   7.04389710
_cell_length_c   12.81969838
_cell_angle_alpha   89.92568836
_cell_angle_beta   90.07431164
_cell_angle_gamma   90.04796650
_symmetry_Int_Tables_number   1
_chemical_formula_structural   Hf19Si16W
_chemical_formula_sum   'Hf19 Si16 W1'
_cell_volume   636.06709768
_cell_formula_units_Z   1
loop_
 _symmetry_equiv_pos_site_id
 _symmetry_equiv_pos_as_xyz
  1  'x, y, z'
loop_
 _atom_site_type_symbol
 _atom_site_label
 _atom_site_symmetry_multiplicity
 _atom_site_fract_x
 _atom_site_fract_y
 _atom_site_fract_z
 _atom_site_occupancy
  Hf  Hf0  1  0.500997  0.846391  0.032414  1
  Hf  Hf1  1  0.002835  0.855928  0.121702  1
  Hf  Hf2  1  0.498059  0.352634  0.125559  1
  Hf  Hf3  1  0.998311  0.346227  0.216186  1
  Hf  Hf4  1  0.324589  0.675574  0.248803  1
  Hf  Hf5  1  0.653115  0.003013  0.281660  1
  Hf  Hf6  1  0.646543  0.501054  0.372890  1
  Hf  Hf7  1  0.145315  0.999529  0.374932  1
  Hf  Hf8  1  0.152999  0.497569  0.466941  1
  Hf  Hf9  1  0.824360  0.824360  0.500000  1
  Hf  Hf10  1  0.497569  0.152999  0.533060  1
  Hf  Hf11  1  0.999529  0.145315  0.625068  1
  Hf  Hf12  1  0.501054  0.646543  0.627110  1
  Hf  Hf13  1  0.003013  0.653115  0.718341  1
  Hf  Hf14  1  0.675574  0.324589  0.751197  1
  Hf  Hf15  1  0.346227  0.998311  0.783815  1
  Hf  Hf16  1  0.352634  0.498059  0.874441  1
  Hf  Hf17  1  0.855928  0.002835  0.878298  1
  Hf  Hf18  1  0.846391  0.500997  0.967587  1
  Si  Si19  1  0.197210  0.544105  0.063892  1
  Si  Si20  1  0.797794  0.146553  0.073010  1
  Si  Si21  1  0.703791  0.647000  0.176750  1
  Si  Si22  1  0.299887  0.051277  0.183613  1
  Si  Si23  1  0.951361  0.697442  0.313415  1
  Si  Si24  1  0.353929  0.295837  0.322770  1
  Si  Si25  1  0.854398  0.204663  0.427295  1
  Si  Si26  1  0.450985  0.802425  0.435918  1
  Si  Si27  1  0.802425  0.450985  0.564082  1
  Si  Si28  1  0.204663  0.854398  0.572705  1
  Si  Si29  1  0.295837  0.353929  0.677230  1
  Si  Si30  1  0.697442  0.951361  0.686585  1
  Si  Si31  1  0.051277  0.299887  0.816387  1
  Si  Si32  1  0.647000  0.703791  0.823250  1
  Si  Si33  1  0.146553  0.797794  0.926990  1
  Si  Si34  1  0.544105  0.197210  0.936108  1
  W  W35  1  0.176294  0.176294  0.000000  1
