# generated using pymatgen
data_YEr3Lu4In3Co
_symmetry_space_group_name_H-M   'P 1'
_cell_length_a   10.19184400
_cell_length_b   10.19184516
_cell_length_c   6.98808900
_cell_angle_alpha   90.00000000
_cell_angle_beta   90.00000000
_cell_angle_gamma   120.00000922
_symmetry_Int_Tables_number   1
_chemical_formula_structural   YEr3Lu4In3Co
_chemical_formula_sum   'Y2 Er6 Lu8 In6 Co2'
_cell_volume   628.62927698
_cell_formula_units_Z   2
loop_
 _symmetry_equiv_pos_site_id
 _symmetry_equiv_pos_as_xyz
  1  'x, y, z'
loop_
 _atom_site_type_symbol
 _atom_site_label
 _atom_site_symmetry_multiplicity
 _atom_site_fract_x
 _atom_site_fract_y
 _atom_site_fract_z
 _atom_site_occupancy
  Y  Y0  1  0.000000  0.000000  0.495600  1
  Y  Y1  1  0.000000  0.000000  0.995600  1
  Er  Er2  1  0.465050  0.534950  0.482336  1
  Er  Er3  1  0.069900  0.534950  0.482336  1
  Er  Er4  1  0.465050  0.930100  0.482336  1
  Er  Er5  1  0.534950  0.465050  0.982336  1
  Er  Er6  1  0.930100  0.465050  0.982336  1
  Er  Er7  1  0.534950  0.069900  0.982336  1
  Lu  Lu8  1  0.820173  0.179827  0.277223  1
  Lu  Lu9  1  0.359654  0.179827  0.277223  1
  Lu  Lu10  1  0.820173  0.640346  0.277223  1
  Lu  Lu11  1  0.179827  0.820173  0.777223  1
  Lu  Lu12  1  0.640346  0.820173  0.777223  1
  Lu  Lu13  1  0.179827  0.359654  0.777223  1
  Lu  Lu14  1  0.333333  0.666667  0.089968  1
  Lu  Lu15  1  0.666667  0.333333  0.589968  1
  In  In16  1  0.163314  0.836686  0.233396  1
  In  In17  1  0.673372  0.836686  0.233396  1
  In  In18  1  0.163314  0.326628  0.233396  1
  In  In19  1  0.836686  0.163314  0.733396  1
  In  In20  1  0.326628  0.163314  0.733396  1
  In  In21  1  0.836686  0.673372  0.733396  1
  Co  Co22  1  0.333333  0.666667  0.707845  1
  Co  Co23  1  0.666667  0.333333  0.207845  1
