# generated using pymatgen
data_PaCo4TcP3
_symmetry_space_group_name_H-M   'P 1'
_cell_length_a   3.73592600
_cell_length_b   10.44869100
_cell_length_c   11.82928900
_cell_angle_alpha   90.00000000
_cell_angle_beta   90.00000000
_cell_angle_gamma   90.00000000
_symmetry_Int_Tables_number   1
_chemical_formula_structural   PaCo4TcP3
_chemical_formula_sum   'Pa4 Co16 Tc4 P12'
_cell_volume   461.76264102
_cell_formula_units_Z   4
loop_
 _symmetry_equiv_pos_site_id
 _symmetry_equiv_pos_as_xyz
  1  'x, y, z'
loop_
 _atom_site_type_symbol
 _atom_site_label
 _atom_site_symmetry_multiplicity
 _atom_site_fract_x
 _atom_site_fract_y
 _atom_site_fract_z
 _atom_site_occupancy
  Pa  Pa0  1  0.250000  0.585066  0.705217  1
  Pa  Pa1  1  0.250000  0.914934  0.205217  1
  Pa  Pa2  1  0.750000  0.414934  0.294783  1
  Pa  Pa3  1  0.750000  0.085066  0.794783  1
  Co  Co4  1  0.250000  0.408416  0.486371  1
  Co  Co5  1  0.250000  0.091584  0.986371  1
  Co  Co6  1  0.750000  0.591584  0.513629  1
  Co  Co7  1  0.750000  0.908416  0.013629  1
  Co  Co8  1  0.250000  0.220733  0.175286  1
  Co  Co9  1  0.250000  0.279267  0.675286  1
  Co  Co10  1  0.750000  0.779267  0.824714  1
  Co  Co11  1  0.750000  0.720733  0.324714  1
  Co  Co12  1  0.250000  0.887015  0.704082  1
  Co  Co13  1  0.250000  0.612985  0.204082  1
  Co  Co14  1  0.750000  0.112985  0.295918  1
  Co  Co15  1  0.750000  0.387015  0.795918  1
  Co  Co16  1  0.250000  0.465637  0.930428  1
  Co  Co17  1  0.250000  0.034363  0.430428  1
  Co  Co18  1  0.750000  0.534363  0.069572  1
  Co  Co19  1  0.750000  0.965637  0.569572  1
  Tc  Tc20  1  0.250000  0.711725  0.990844  1
  Tc  Tc21  1  0.250000  0.788275  0.490844  1
  Tc  Tc22  1  0.750000  0.288275  0.009156  1
  Tc  Tc23  1  0.750000  0.211725  0.509156  1
  P  P24  1  0.250000  0.419278  0.111322  1
  P  P25  1  0.250000  0.080722  0.611322  1
  P  P26  1  0.750000  0.580722  0.888678  1
  P  P27  1  0.750000  0.919278  0.388678  1
  P  P28  1  0.250000  0.273152  0.866058  1
  P  P29  1  0.250000  0.226848  0.366058  1
  P  P30  1  0.750000  0.726848  0.133942  1
  P  P31  1  0.750000  0.773152  0.633942  1
  P  P32  1  0.250000  0.599501  0.391966  1
  P  P33  1  0.250000  0.900499  0.891966  1
  P  P34  1  0.750000  0.400499  0.608034  1
  P  P35  1  0.750000  0.099501  0.108034  1
