# generated using pymatgen
data_Nd4DyIn3
_symmetry_space_group_name_H-M   'P 1'
_cell_length_a   6.25193764
_cell_length_b   9.41252610
_cell_length_c   9.41252600
_cell_angle_alpha   83.64475226
_cell_angle_beta   70.58614192
_cell_angle_gamma   70.58614798
_symmetry_Int_Tables_number   1
_chemical_formula_structural   Nd4DyIn3
_chemical_formula_sum   'Nd8 Dy2 In6'
_cell_volume   492.69875235
_cell_formula_units_Z   2
loop_
 _symmetry_equiv_pos_site_id
 _symmetry_equiv_pos_as_xyz
  1  'x, y, z'
loop_
 _atom_site_type_symbol
 _atom_site_label
 _atom_site_symmetry_multiplicity
 _atom_site_fract_x
 _atom_site_fract_y
 _atom_site_fract_z
 _atom_site_occupancy
  Nd  Nd0  1  0.719940  0.865696  0.694402  1
  Nd  Nd1  1  0.280060  0.134304  0.305598  1
  Nd  Nd2  1  0.780060  0.305598  0.134304  1
  Nd  Nd3  1  0.219940  0.694402  0.865696  1
  Nd  Nd4  1  0.585608  0.694382  0.134366  1
  Nd  Nd5  1  0.414392  0.305618  0.865634  1
  Nd  Nd6  1  0.085608  0.134366  0.694382  1
  Nd  Nd7  1  0.914392  0.865634  0.305618  1
  Dy  Dy8  1  0.750000  0.500085  0.499915  1
  Dy  Dy9  1  0.250000  0.499915  0.500085  1
  In  In10  1  0.158220  0.499907  0.184717  1
  In  In11  1  0.841780  0.500093  0.815283  1
  In  In12  1  0.341780  0.815283  0.500093  1
  In  In13  1  0.658220  0.184717  0.499907  1
  In  In14  1  0.250000  0.999962  0.000038  1
  In  In15  1  0.750000  0.000038  0.999962  1
