# generated using pymatgen
data_TbNd2Y(ReB6)2
_symmetry_space_group_name_H-M   'P 1'
_cell_length_a   3.73952400
_cell_length_b   9.27352400
_cell_length_c   11.72925100
_cell_angle_alpha   89.99968922
_cell_angle_beta   90.00000000
_cell_angle_gamma   90.00000000
_symmetry_Int_Tables_number   1
_chemical_formula_structural   TbNd2Y(ReB6)2
_chemical_formula_sum   'Tb2 Nd4 Y2 Re4 B24'
_cell_volume   406.75359980
_cell_formula_units_Z   2
loop_
 _symmetry_equiv_pos_site_id
 _symmetry_equiv_pos_as_xyz
  1  'x, y, z'
loop_
 _atom_site_type_symbol
 _atom_site_label
 _atom_site_symmetry_multiplicity
 _atom_site_fract_x
 _atom_site_fract_y
 _atom_site_fract_z
 _atom_site_occupancy
  Tb  Tb0  1  0.000000  0.442482  0.130690  1
  Tb  Tb1  1  0.000000  0.557518  0.869310  1
  Nd  Nd2  1  0.000000  0.822906  0.085863  1
  Nd  Nd3  1  0.000000  0.177094  0.914137  1
  Nd  Nd4  1  0.000000  0.322881  0.414195  1
  Nd  Nd5  1  0.000000  0.677119  0.585805  1
  Y  Y6  1  0.000000  0.942571  0.369508  1
  Y  Y7  1  0.000000  0.057429  0.630492  1
  Re  Re8  1  0.000000  0.138744  0.180341  1
  Re  Re9  1  0.000000  0.861256  0.819659  1
  Re  Re10  1  0.000000  0.638888  0.319773  1
  Re  Re11  1  0.000000  0.361112  0.680227  1
  B  B12  1  0.500000  0.054662  0.069353  1
  B  B13  1  0.500000  0.945338  0.930648  1
  B  B14  1  0.500000  0.554742  0.430688  1
  B  B15  1  0.500000  0.445258  0.569311  1
  B  B16  1  0.500000  0.248679  0.084096  1
  B  B17  1  0.500000  0.751321  0.915904  1
  B  B18  1  0.500000  0.748988  0.416010  1
  B  B19  1  0.500000  0.251012  0.583990  1
  B  B20  1  0.500000  0.290409  0.233788  1
  B  B21  1  0.500000  0.709591  0.766212  1
  B  B22  1  0.500000  0.790721  0.266197  1
  B  B23  1  0.500000  0.209279  0.733803  1
  B  B24  1  0.500000  0.129591  0.313265  1
  B  B25  1  0.500000  0.870409  0.686735  1
  B  B26  1  0.500000  0.629776  0.186958  1
  B  B27  1  0.500000  0.370224  0.813042  1
  B  B28  1  0.500000  0.484064  0.287311  1
  B  B29  1  0.500000  0.515936  0.712689  1
  B  B30  1  0.500000  0.983810  0.212778  1
  B  B31  1  0.500000  0.016190  0.787222  1
  B  B32  1  0.500000  0.096839  0.473028  1
  B  B33  1  0.500000  0.903161  0.526972  1
  B  B34  1  0.500000  0.596937  0.027007  1
  B  B35  1  0.500000  0.403063  0.972993  1
