# generated using pymatgen
data_Yb2TmGa3Ge2Pt
_symmetry_space_group_name_H-M   'P 1'
_cell_length_a   6.96066900
_cell_length_b   6.96979243
_cell_length_c   4.25796900
_cell_angle_alpha   90.00000000
_cell_angle_beta   90.00000000
_cell_angle_gamma   119.95670346
_symmetry_Int_Tables_number   1
_chemical_formula_structural   Yb2TmGa3Ge2Pt
_chemical_formula_sum   'Yb2 Tm1 Ga3 Ge2 Pt1'
_cell_volume   178.97536808
_cell_formula_units_Z   1
loop_
 _symmetry_equiv_pos_site_id
 _symmetry_equiv_pos_as_xyz
  1  'x, y, z'
loop_
 _atom_site_type_symbol
 _atom_site_label
 _atom_site_symmetry_multiplicity
 _atom_site_fract_x
 _atom_site_fract_y
 _atom_site_fract_z
 _atom_site_occupancy
  Yb  Yb0  1  0.999382  0.419081  0.000000  1
  Yb  Yb1  1  0.580301  0.580919  0.000000  1
  Tm  Tm2  1  0.416998  0.000000  0.000000  1
  Ga  Ga3  1  0.763895  0.000000  0.500000  1
  Ga  Ga4  1  0.236879  0.237458  0.500000  1
  Ga  Ga5  1  0.999422  0.762542  0.500000  1
  Ge  Ge6  1  0.661730  0.327031  0.500000  1
  Ge  Ge7  1  0.334699  0.672969  0.500000  1
  Pt  Pt8  1  0.006691  0.000000  0.000000  1
