# generated using pymatgen
data_Na3Tb5(P7Ir8)2
_symmetry_space_group_name_H-M   'P 1'
_cell_length_a   3.95902400
_cell_length_b   12.62574420
_cell_length_c   13.18452638
_cell_angle_alpha   80.84716737
_cell_angle_beta   90.00000000
_cell_angle_gamma   90.00000000
_symmetry_Int_Tables_number   1
_chemical_formula_structural   Na3Tb5(P7Ir8)2
_chemical_formula_sum   'Na3 Tb5 P14 Ir16'
_cell_volume   650.64562880
_cell_formula_units_Z   1
loop_
 _symmetry_equiv_pos_site_id
 _symmetry_equiv_pos_as_xyz
  1  'x, y, z'
loop_
 _atom_site_type_symbol
 _atom_site_label
 _atom_site_symmetry_multiplicity
 _atom_site_fract_x
 _atom_site_fract_y
 _atom_site_fract_z
 _atom_site_occupancy
  Na  Na0  1  0.250000  0.100866  0.795674  1
  Na  Na1  1  0.750000  0.899303  0.202891  1
  Na  Na2  1  0.250000  0.286723  0.106979  1
  Tb  Tb3  1  0.750000  0.790321  0.562252  1
  Tb  Tb4  1  0.250000  0.212801  0.435411  1
  Tb  Tb5  1  0.750000  0.478003  0.706961  1
  Tb  Tb6  1  0.250000  0.521723  0.293597  1
  Tb  Tb7  1  0.750000  0.717651  0.898186  1
  P  P8  1  0.250000  0.909973  0.411951  1
  P  P9  1  0.750000  0.472035  0.129949  1
  P  P10  1  0.250000  0.526081  0.872483  1
  P  P11  1  0.750000  0.091805  0.587146  1
  P  P12  1  0.250000  0.739308  0.077818  1
  P  P13  1  0.750000  0.256430  0.920034  1
  P  P14  1  0.750000  0.156397  0.280053  1
  P  P15  1  0.250000  0.843137  0.719819  1
  P  P16  1  0.250000  0.056944  0.097083  1
  P  P17  1  0.750000  0.944087  0.898635  1
  P  P18  1  0.250000  0.303635  0.689729  1
  P  P19  1  0.750000  0.696162  0.310916  1
  P  P20  1  0.250000  0.608923  0.564705  1
  P  P21  1  0.750000  0.391516  0.437711  1
  Ir  Ir22  1  0.250000  0.984588  0.574556  1
  Ir  Ir23  1  0.750000  0.016857  0.423764  1
  Ir  Ir24  1  0.250000  0.660055  0.730551  1
  Ir  Ir25  1  0.750000  0.339415  0.276575  1
  Ir  Ir26  1  0.250000  0.554903  0.046407  1
  Ir  Ir27  1  0.750000  0.447587  0.949973  1
  Ir  Ir28  1  0.250000  0.063346  0.270048  1
  Ir  Ir29  1  0.750000  0.935555  0.727218  1
  Ir  Ir30  1  0.250000  0.423738  0.528470  1
  Ir  Ir31  1  0.750000  0.577929  0.473923  1
  Ir  Ir32  1  0.250000  0.914212  0.995645  1
  Ir  Ir33  1  0.750000  0.079899  0.000018  1
  Ir  Ir34  1  0.250000  0.728860  0.399421  1
  Ir  Ir35  1  0.750000  0.271845  0.601431  1
  Ir  Ir36  1  0.250000  0.338554  0.859027  1
  Ir  Ir37  1  0.750000  0.658834  0.142990  1
