# generated using pymatgen
data_Ce8Ti3Si16W9
_symmetry_space_group_name_H-M   'P 1'
_cell_length_a   6.95814689
_cell_length_b   6.95814689
_cell_length_c   12.99562354
_cell_angle_alpha   89.90477820
_cell_angle_beta   90.09522412
_cell_angle_gamma   89.70299240
_symmetry_Int_Tables_number   1
_chemical_formula_structural   Ce8Ti3Si16W9
_chemical_formula_sum   'Ce8 Ti3 Si16 W9'
_cell_volume   629.18341549
_cell_formula_units_Z   1
loop_
 _symmetry_equiv_pos_site_id
 _symmetry_equiv_pos_as_xyz
  1  'x, y, z'
loop_
 _atom_site_type_symbol
 _atom_site_label
 _atom_site_symmetry_multiplicity
 _atom_site_fract_x
 _atom_site_fract_y
 _atom_site_fract_z
 _atom_site_occupancy
  Ce  Ce0  1  0.334313  0.002586  0.470198  1
  Ce  Ce1  1  0.496260  0.833149  0.720209  1
  Ce  Ce2  1  0.500668  0.167072  0.218877  1
  Ce  Ce3  1  0.833149  0.496260  0.279791  1
  Ce  Ce4  1  0.167072  0.500668  0.781123  1
  Ce  Ce5  1  0.666170  0.997483  0.970283  1
  Ce  Ce6  1  0.002586  0.334313  0.529802  1
  Ce  Ce7  1  0.997483  0.666170  0.029717  1
  Ti  Ti8  1  0.169327  0.832748  0.248371  1
  Ti  Ti9  1  0.832748  0.169327  0.751629  1
  Ti  Ti10  1  0.667779  0.667779  0.500000  1
  Si  Si11  1  0.199836  0.122860  0.685928  1
  Si  Si12  1  0.380578  0.697401  0.936459  1
  Si  Si13  1  0.622270  0.299942  0.436145  1
  Si  Si14  1  0.697401  0.380578  0.063541  1
  Si  Si15  1  0.299942  0.622270  0.563855  1
  Si  Si16  1  0.799439  0.877435  0.187251  1
  Si  Si17  1  0.122860  0.199836  0.314072  1
  Si  Si18  1  0.877435  0.799439  0.812749  1
  Si  Si19  1  0.285609  0.967379  0.063227  1
  Si  Si20  1  0.535647  0.788601  0.315498  1
  Si  Si21  1  0.463672  0.211405  0.815851  1
  Si  Si22  1  0.788601  0.535647  0.684502  1
  Si  Si23  1  0.211405  0.463672  0.184149  1
  Si  Si24  1  0.711343  0.036151  0.565112  1
  Si  Si25  1  0.967379  0.285609  0.936773  1
  Si  Si26  1  0.036151  0.711343  0.434888  1
  W  W27  1  0.333143  0.333143  0.000000  1
  W  W28  1  0.166277  0.998858  0.873591  1
  W  W29  1  0.497088  0.670389  0.126292  1
  W  W30  1  0.501695  0.333481  0.625545  1
  W  W31  1  0.670389  0.497088  0.873708  1
  W  W32  1  0.333481  0.501695  0.374455  1
  W  W33  1  0.834558  0.997390  0.375702  1
  W  W34  1  0.998858  0.166277  0.126409  1
  W  W35  1  0.997390  0.834558  0.624298  1
