# generated using pymatgen
data_Nd5Ho11Cd4NiRu3
_symmetry_space_group_name_H-M   'P 1'
_cell_length_a   9.66812143
_cell_length_b   9.72499393
_cell_length_c   9.72499394
_cell_angle_alpha   59.62582308
_cell_angle_beta   59.44950333
_cell_angle_gamma   59.44949997
_symmetry_Int_Tables_number   1
_chemical_formula_structural   Nd5Ho11Cd4NiRu3
_chemical_formula_sum   'Nd5 Ho11 Cd4 Ni1 Ru3'
_cell_volume   639.32119415
_cell_formula_units_Z   1
loop_
 _symmetry_equiv_pos_site_id
 _symmetry_equiv_pos_as_xyz
  1  'x, y, z'
loop_
 _atom_site_type_symbol
 _atom_site_label
 _atom_site_symmetry_multiplicity
 _atom_site_fract_x
 _atom_site_fract_y
 _atom_site_fract_z
 _atom_site_occupancy
  Nd  Nd0  1  0.806432  0.190480  0.190480  1
  Nd  Nd1  1  0.808801  0.185956  0.814968  1
  Nd  Nd2  1  0.192275  0.806296  0.190815  1
  Nd  Nd3  1  0.808801  0.814968  0.185956  1
  Nd  Nd4  1  0.192275  0.190815  0.806296  1
  Ho  Ho5  1  0.598874  0.595557  0.595557  1
  Ho  Ho6  1  0.598461  0.596079  0.213422  1
  Ho  Ho7  1  0.598461  0.213422  0.596079  1
  Ho  Ho8  1  0.210732  0.597316  0.597316  1
  Ho  Ho9  1  0.063159  0.436146  0.436146  1
  Ho  Ho10  1  0.433339  0.063825  0.063825  1
  Ho  Ho11  1  0.435540  0.062008  0.438320  1
  Ho  Ho12  1  0.063201  0.438878  0.061167  1
  Ho  Ho13  1  0.435540  0.438320  0.062008  1
  Ho  Ho14  1  0.063201  0.061167  0.438878  1
  Ho  Ho15  1  0.191596  0.806827  0.806827  1
  Cd  Cd16  1  0.831175  0.828582  0.828582  1
  Cd  Cd17  1  0.828235  0.829674  0.511570  1
  Cd  Cd18  1  0.828235  0.511570  0.829674  1
  Cd  Cd19  1  0.510076  0.828538  0.828538  1
  Ni  Ni20  1  0.828154  0.391510  0.391510  1
  Ru  Ru21  1  0.391297  0.389646  0.389646  1
  Ru  Ru22  1  0.391070  0.393381  0.829040  1
  Ru  Ru23  1  0.391070  0.829040  0.393381  1
