# generated using pymatgen
data_Tb8Lu12Si15Bi
_symmetry_space_group_name_H-M   'P 1'
_cell_length_a   7.40325890
_cell_length_b   7.60777930
_cell_length_c   14.43560700
_cell_angle_alpha   90.07641167
_cell_angle_beta   87.15623163
_cell_angle_gamma   90.14308233
_symmetry_Int_Tables_number   1
_chemical_formula_structural   Tb8Lu12Si15Bi
_chemical_formula_sum   'Tb8 Lu12 Si15 Bi1'
_cell_volume   812.04307960
_cell_formula_units_Z   1
loop_
 _symmetry_equiv_pos_site_id
 _symmetry_equiv_pos_as_xyz
  1  'x, y, z'
loop_
 _atom_site_type_symbol
 _atom_site_label
 _atom_site_symmetry_multiplicity
 _atom_site_fract_x
 _atom_site_fract_y
 _atom_site_fract_z
 _atom_site_occupancy
  Tb  Tb0  1  0.017323  0.180014  0.097925  1
  Tb  Tb1  1  0.982941  0.821319  0.902200  1
  Tb  Tb2  1  0.483622  0.679003  0.902142  1
  Tb  Tb3  1  0.999370  0.829408  0.600306  1
  Tb  Tb4  1  0.517554  0.320394  0.099118  1
  Tb  Tb5  1  0.995014  0.173347  0.398590  1
  Tb  Tb6  1  0.509052  0.314337  0.396619  1
  Tb  Tb7  1  0.516044  0.687010  0.602944  1
  Lu  Lu8  1  0.167383  0.504395  0.754451  1
  Lu  Lu9  1  0.830755  0.494664  0.252633  1
  Lu  Lu10  1  0.330742  0.007341  0.251905  1
  Lu  Lu11  1  0.671964  0.994136  0.750091  1
  Lu  Lu12  1  0.355367  0.151763  0.627070  1
  Lu  Lu13  1  0.649538  0.830436  0.376969  1
  Lu  Lu14  1  0.145103  0.681891  0.370078  1
  Lu  Lu15  1  0.670525  0.821926  0.122191  1
  Lu  Lu16  1  0.834335  0.329701  0.624295  1
  Lu  Lu17  1  0.327459  0.175909  0.877138  1
  Lu  Lu18  1  0.827099  0.323156  0.877020  1
  Lu  Lu19  1  0.171435  0.677638  0.123201  1
  Si  Si20  1  0.040790  0.115875  0.751784  1
  Si  Si21  1  0.955822  0.890468  0.245507  1
  Si  Si22  1  0.457696  0.611788  0.247516  1
  Si  Si23  1  0.537722  0.388047  0.752841  1
  Si  Si24  1  0.291952  0.865070  0.754227  1
  Si  Si25  1  0.711435  0.128009  0.245760  1
  Si  Si26  1  0.210174  0.372055  0.247530  1
  Si  Si27  1  0.793275  0.631340  0.752752  1
  Si  Si28  1  0.801300  0.537162  0.456737  1
  Si  Si29  1  0.307081  0.965530  0.457100  1
  Si  Si30  1  0.849209  0.530737  0.040309  1
  Si  Si31  1  0.693937  0.035438  0.541940  1
  Si  Si32  1  0.149955  0.469068  0.960647  1
  Si  Si33  1  0.650035  0.030857  0.959920  1
  Si  Si34  1  0.348781  0.970219  0.040855  1
  Bi  Bi35  1  0.198211  0.460549  0.537693  1
