# generated using pymatgen
data_Li3Ni2OsO6
_symmetry_space_group_name_H-M   'P 1'
_cell_length_a   5.14486694
_cell_length_b   5.19392185
_cell_length_c   5.19392125
_cell_angle_alpha   119.82446626
_cell_angle_beta   99.93761153
_cell_angle_gamma   99.93761871
_symmetry_Int_Tables_number   1
_chemical_formula_structural   Li3Ni2OsO6
_chemical_formula_sum   'Li3 Ni2 Os1 O6'
_cell_volume   113.05040131
_cell_formula_units_Z   1
loop_
 _symmetry_equiv_pos_site_id
 _symmetry_equiv_pos_as_xyz
  1  'x, y, z'
loop_
 _atom_site_type_symbol
 _atom_site_label
 _atom_site_symmetry_multiplicity
 _atom_site_fract_x
 _atom_site_fract_y
 _atom_site_fract_z
 _atom_site_occupancy
  Li  Li0  1  0.500000  0.829191  0.170809  1
  Li  Li1  1  0.500000  0.170809  0.829191  1
  Li  Li2  1  0.500000  0.500000  0.500000  1
  Ni  Ni3  1  0.000000  0.666635  0.333365  1
  Ni  Ni4  1  0.000000  0.333365  0.666635  1
  Os  Os5  1  0.000000  0.000000  0.000000  1
  O  O6  1  0.229203  0.759554  0.759554  1
  O  O7  1  0.770797  0.240446  0.240446  1
  O  O8  1  0.233499  0.078880  0.397763  1
  O  O9  1  0.233499  0.397763  0.078880  1
  O  O10  1  0.766501  0.921120  0.602237  1
  O  O11  1  0.766501  0.602237  0.921120  1
