# generated using pymatgen
data_CaTm3(BeSi3)2
_symmetry_space_group_name_H-M   'P 1'
_cell_length_a   7.88374377
_cell_length_b   7.81010611
_cell_length_c   5.61237598
_cell_angle_alpha   69.74984355
_cell_angle_beta   68.34571986
_cell_angle_gamma   41.90445965
_symmetry_Int_Tables_number   1
_chemical_formula_structural   CaTm3(BeSi3)2
_chemical_formula_sum   'Ca1 Tm3 Be2 Si6'
_cell_volume   213.08753014
_cell_formula_units_Z   1
loop_
 _symmetry_equiv_pos_site_id
 _symmetry_equiv_pos_as_xyz
  1  'x, y, z'
loop_
 _atom_site_type_symbol
 _atom_site_label
 _atom_site_symmetry_multiplicity
 _atom_site_fract_x
 _atom_site_fract_y
 _atom_site_fract_z
 _atom_site_occupancy
  Ca  Ca0  1  0.245093  0.754907  0.245093  1
  Tm  Tm1  1  0.750023  0.749977  0.750023  1
  Tm  Tm2  1  0.754829  0.245171  0.754829  1
  Tm  Tm3  1  0.250023  0.249977  0.250023  1
  Be  Be4  1  0.666829  0.667134  0.332866  1
  Be  Be5  1  0.332866  0.333171  0.666829  1
  Si  Si6  1  0.824993  0.347967  0.174513  1
  Si  Si7  1  0.652033  0.175007  0.347474  1
  Si  Si8  1  0.174513  0.652526  0.824993  1
  Si  Si9  1  0.347474  0.825487  0.652033  1
  Si  Si10  1  0.174002  0.172678  0.827322  1
  Si  Si11  1  0.827322  0.825998  0.174002  1
