# generated using pymatgen
data_Tb3Hf4BiF28
_symmetry_space_group_name_H-M   'P 1'
_cell_length_a   5.75160525
_cell_length_b   9.11149890
_cell_length_c   12.23102700
_cell_angle_alpha   62.26181718
_cell_angle_beta   89.98314480
_cell_angle_gamma   90.01347236
_symmetry_Int_Tables_number   1
_chemical_formula_structural   Tb3Hf4BiF28
_chemical_formula_sum   'Tb3 Hf4 Bi1 F28'
_cell_volume   567.31737513
_cell_formula_units_Z   1
loop_
 _symmetry_equiv_pos_site_id
 _symmetry_equiv_pos_as_xyz
  1  'x, y, z'
loop_
 _atom_site_type_symbol
 _atom_site_label
 _atom_site_symmetry_multiplicity
 _atom_site_fract_x
 _atom_site_fract_y
 _atom_site_fract_z
 _atom_site_occupancy
  Tb  Tb0  1  0.743558  0.815679  0.266101  1
  Tb  Tb1  1  0.243118  0.186645  0.233458  1
  Tb  Tb2  1  0.256664  0.190557  0.733557  1
  Hf  Hf3  1  0.743785  0.276894  0.453478  1
  Hf  Hf4  1  0.244326  0.725951  0.047811  1
  Hf  Hf5  1  0.255402  0.726663  0.541262  1
  Hf  Hf6  1  0.755168  0.270744  0.957022  1
  Bi  Bi7  1  0.758195  0.818235  0.765139  1
  F  F8  1  0.457717  0.708257  0.925925  1
  F  F9  1  0.962646  0.288743  0.576781  1
  F  F10  1  0.535453  0.286814  0.078143  1
  F  F11  1  0.036132  0.710388  0.420158  1
  F  F12  1  0.458551  0.282067  0.548312  1
  F  F13  1  0.956163  0.715505  0.958173  1
  F  F14  1  0.543341  0.717501  0.450124  1
  F  F15  1  0.041569  0.279361  0.049667  1
  F  F16  1  0.769225  0.515931  0.860393  1
  F  F17  1  0.266867  0.477983  0.638684  1
  F  F18  1  0.234563  0.477370  0.143153  1
  F  F19  1  0.733423  0.523793  0.357872  1
  F  F20  1  0.759766  0.022996  0.057741  1
  F  F21  1  0.259604  0.974056  0.441654  1
  F  F22  1  0.240214  0.973118  0.943540  1
  F  F23  1  0.739977  0.028462  0.553139  1
  F  F24  1  0.985276  0.730846  0.642588  1
  F  F25  1  0.487047  0.265771  0.853208  1
  F  F26  1  0.010818  0.266690  0.351605  1
  F  F27  1  0.512298  0.733656  0.150078  1
  F  F28  1  0.036386  0.745795  0.173590  1
  F  F29  1  0.534258  0.255197  0.329074  1
  F  F30  1  0.963843  0.251798  0.830382  1
  F  F31  1  0.456861  0.743649  0.669272  1
  F  F32  1  0.427735  0.973969  0.234725  1
  F  F33  1  0.928657  0.027596  0.265486  1
  F  F34  1  0.577427  0.035815  0.766612  1
  F  F35  1  0.083972  0.975506  0.732088  1
