# generated using pymatgen
data_CdAu19
_symmetry_space_group_name_H-M   'P 1'
_cell_length_a   4.82350500
_cell_length_b   5.06401554
_cell_length_c   14.76253400
_cell_angle_alpha   90.05737481
_cell_angle_beta   90.00000000
_cell_angle_gamma   90.00000000
_symmetry_Int_Tables_number   1
_chemical_formula_structural   CdAu19
_chemical_formula_sum   'Cd1 Au19'
_cell_volume   360.59396652
_cell_formula_units_Z   1
loop_
 _symmetry_equiv_pos_site_id
 _symmetry_equiv_pos_as_xyz
  1  'x, y, z'
loop_
 _atom_site_type_symbol
 _atom_site_label
 _atom_site_symmetry_multiplicity
 _atom_site_fract_x
 _atom_site_fract_y
 _atom_site_fract_z
 _atom_site_occupancy
  Cd  Cd0  1  0.250000  0.168614  0.000063  1
  Au  Au1  1  0.250000  0.665911  0.899111  1
  Au  Au2  1  0.250000  0.164740  0.599487  1
  Au  Au3  1  0.750000  0.834370  0.400150  1
  Au  Au4  1  0.750000  0.333733  0.100839  1
  Au  Au5  1  0.250000  0.170374  0.201124  1
  Au  Au6  1  0.250000  0.168713  0.400121  1
  Au  Au7  1  0.750000  0.330414  0.699418  1
  Au  Au8  1  0.750000  0.333428  0.500069  1
  Au  Au9  1  0.250000  0.667152  0.499929  1
  Au  Au10  1  0.750000  0.830406  0.600277  1
  Au  Au11  1  0.250000  0.669701  0.101236  1
  Au  Au12  1  0.750000  0.837488  0.200165  1
  Au  Au13  1  0.250000  0.164103  0.798814  1
  Au  Au14  1  0.750000  0.830964  0.799892  1
  Au  Au15  1  0.750000  0.329717  0.898806  1
  Au  Au16  1  0.250000  0.670196  0.300528  1
  Au  Au17  1  0.250000  0.663748  0.699521  1
  Au  Au18  1  0.750000  0.829265  0.999927  1
  Au  Au19  1  0.750000  0.336960  0.300522  1
