# generated using pymatgen
data_DyMnFeSiC
_symmetry_space_group_name_H-M   'P 1'
_cell_length_a   3.71361800
_cell_length_b   5.55698652
_cell_length_c   6.93129400
_cell_angle_alpha   90.00000000
_cell_angle_beta   90.00000000
_cell_angle_gamma   70.47977679
_symmetry_Int_Tables_number   1
_chemical_formula_structural   DyMnFeSiC
_chemical_formula_sum   'Dy2 Mn2 Fe2 Si2 C2'
_cell_volume   134.81652548
_cell_formula_units_Z   2
loop_
 _symmetry_equiv_pos_site_id
 _symmetry_equiv_pos_as_xyz
  1  'x, y, z'
loop_
 _atom_site_type_symbol
 _atom_site_label
 _atom_site_symmetry_multiplicity
 _atom_site_fract_x
 _atom_site_fract_y
 _atom_site_fract_z
 _atom_site_occupancy
  Dy  Dy0  1  0.953350  0.093304  0.249999  1
  Dy  Dy1  1  0.047027  0.905947  0.749999  1
  Mn  Mn2  1  0.667007  0.665986  0.060476  1
  Mn  Mn3  1  0.667007  0.665986  0.439524  1
  Fe  Fe4  1  0.330970  0.338060  0.559108  1
  Fe  Fe5  1  0.330970  0.338060  0.940892  1
  Si  Si6  1  0.235344  0.529314  0.249999  1
  Si  Si7  1  0.771016  0.457970  0.749999  1
  C  C8  1  0.498658  0.002686  0.999137  1
  C  C9  1  0.498658  0.002686  0.500863  1
