# generated using pymatgen
data_Ti4Nb2B4Ir3Ru7
_symmetry_space_group_name_H-M   'P 1'
_cell_length_a   9.40218208
_cell_length_b   9.36662443
_cell_length_c   2.98727400
_cell_angle_alpha   90.00000000
_cell_angle_beta   90.00000000
_cell_angle_gamma   89.33741065
_symmetry_Int_Tables_number   1
_chemical_formula_structural   Ti4Nb2B4Ir3Ru7
_chemical_formula_sum   'Ti4 Nb2 B4 Ir3 Ru7'
_cell_volume   263.06179713
_cell_formula_units_Z   1
loop_
 _symmetry_equiv_pos_site_id
 _symmetry_equiv_pos_as_xyz
  1  'x, y, z'
loop_
 _atom_site_type_symbol
 _atom_site_label
 _atom_site_symmetry_multiplicity
 _atom_site_fract_x
 _atom_site_fract_y
 _atom_site_fract_z
 _atom_site_occupancy
  Ti  Ti0  1  0.826036  0.671582  0.000000  1
  Ti  Ti1  1  0.169749  0.325066  0.000000  1
  Ti  Ti2  1  0.500122  0.499232  0.000000  1
  Ti  Ti3  1  0.998289  0.005133  0.000000  1
  Nb  Nb4  1  0.322929  0.824798  0.000000  1
  Nb  Nb5  1  0.681408  0.176084  0.000000  1
  B  B6  1  0.628612  0.880798  0.000000  1
  B  B7  1  0.372116  0.119201  0.000000  1
  B  B8  1  0.124058  0.617316  0.000000  1
  B  B9  1  0.876155  0.378500  0.000000  1
  Ir  Ir10  1  0.572380  0.716136  0.500000  1
  Ir  Ir11  1  0.426192  0.283743  0.500000  1
  Ir  Ir12  1  0.070432  0.784328  0.500000  1
  Ru  Ru13  1  0.929788  0.217874  0.500000  1
  Ru  Ru14  1  0.284428  0.571106  0.500000  1
  Ru  Ru15  1  0.714999  0.430556  0.500000  1
  Ru  Ru16  1  0.215133  0.071384  0.500000  1
  Ru  Ru17  1  0.786315  0.925588  0.500000  1
  Ru  Ru18  1  0.501526  0.000609  0.500000  1
  Ru  Ru19  1  0.999331  0.500964  0.500000  1
