# generated using pymatgen
data_Sr6BiPb8Br
_symmetry_space_group_name_H-M   'P 1'
_cell_length_a   9.15874418
_cell_length_b   9.15874294
_cell_length_c   9.15874300
_cell_angle_alpha   119.66583548
_cell_angle_beta   119.66583825
_cell_angle_gamma   90.57977334
_symmetry_Int_Tables_number   1
_chemical_formula_structural   Sr6BiPb8Br
_chemical_formula_sum   'Sr6 Bi1 Pb8 Br1'
_cell_volume   545.95472134
_cell_formula_units_Z   1
loop_
 _symmetry_equiv_pos_site_id
 _symmetry_equiv_pos_as_xyz
  1  'x, y, z'
loop_
 _atom_site_type_symbol
 _atom_site_label
 _atom_site_symmetry_multiplicity
 _atom_site_fract_x
 _atom_site_fract_y
 _atom_site_fract_z
 _atom_site_occupancy
  Sr  Sr0  1  0.253901  0.253865  0.999995  1
  Sr  Sr1  1  0.746099  0.746135  0.000005  1
  Sr  Sr2  1  0.160654  0.664502  0.825152  1
  Sr  Sr3  1  0.839346  0.335498  0.174848  1
  Sr  Sr4  1  0.664640  0.839304  0.503928  1
  Sr  Sr5  1  0.335360  0.160696  0.496072  1
  Bi  Bi6  1  0.000000  0.000000  0.000000  1
  Pb  Pb7  1  0.828479  0.326893  0.786003  1
  Pb  Pb8  1  0.171521  0.673107  0.213997  1
  Pb  Pb9  1  0.540913  0.042500  0.214026  1
  Pb  Pb10  1  0.326688  0.540889  0.498360  1
  Pb  Pb11  1  0.957496  0.171692  0.498352  1
  Pb  Pb12  1  0.459087  0.957500  0.785974  1
  Pb  Pb13  1  0.673312  0.459111  0.501640  1
  Pb  Pb14  1  0.042504  0.828308  0.501648  1
  Br  Br15  1  0.500000  0.500000  0.000000  1
