# generated using pymatgen
data_Zr2Pa2Ge6MoIr6
_symmetry_space_group_name_H-M   'P 1'
_cell_length_a   7.28573832
_cell_length_b   7.30226412
_cell_length_c   7.28559700
_cell_angle_alpha   109.49429958
_cell_angle_beta   109.33893034
_cell_angle_gamma   109.49534476
_symmetry_Int_Tables_number   1
_chemical_formula_structural   Zr2Pa2Ge6MoIr6
_chemical_formula_sum   'Zr2 Pa2 Ge6 Mo1 Ir6'
_cell_volume   298.69556063
_cell_formula_units_Z   1
loop_
 _symmetry_equiv_pos_site_id
 _symmetry_equiv_pos_as_xyz
  1  'x, y, z'
loop_
 _atom_site_type_symbol
 _atom_site_label
 _atom_site_symmetry_multiplicity
 _atom_site_fract_x
 _atom_site_fract_y
 _atom_site_fract_z
 _atom_site_occupancy
  Zr  Zr0  1  0.000000  0.000000  0.500000  1
  Zr  Zr1  1  0.500000  0.000000  0.000000  1
  Pa  Pa2  1  0.000000  0.500000  0.000000  1
  Pa  Pa3  1  0.500000  0.500000  0.500000  1
  Ge  Ge4  1  0.685590  0.694497  0.008892  1
  Ge  Ge5  1  0.315373  0.999979  0.315376  1
  Ge  Ge6  1  0.991118  0.305519  0.314418  1
  Ge  Ge7  1  0.314410  0.305503  0.991108  1
  Ge  Ge8  1  0.684627  0.000021  0.684624  1
  Ge  Ge9  1  0.008882  0.694481  0.685582  1
  Mo  Mo10  1  0.000000  0.000000  0.000000  1
  Ir  Ir11  1  0.749407  0.250254  0.500808  1
  Ir  Ir12  1  0.750007  0.499997  0.249984  1
  Ir  Ir13  1  0.500808  0.250255  0.749404  1
  Ir  Ir14  1  0.249993  0.500003  0.750016  1
  Ir  Ir15  1  0.250593  0.749746  0.499192  1
  Ir  Ir16  1  0.499192  0.749745  0.250596  1
