# generated using pymatgen
data_Tb17Dy3(Si2Ir)4
_symmetry_space_group_name_H-M   'P 1'
_cell_length_a   7.56348804
_cell_length_b   8.77071262
_cell_length_c   11.95897055
_cell_angle_alpha   89.91191459
_cell_angle_beta   90.00405735
_cell_angle_gamma   89.98901448
_symmetry_Int_Tables_number   1
_chemical_formula_structural   Tb17Dy3(Si2Ir)4
_chemical_formula_sum   'Tb17 Dy3 Si8 Ir4'
_cell_volume   793.32342830
_cell_formula_units_Z   1
loop_
 _symmetry_equiv_pos_site_id
 _symmetry_equiv_pos_as_xyz
  1  'x, y, z'
loop_
 _atom_site_type_symbol
 _atom_site_label
 _atom_site_symmetry_multiplicity
 _atom_site_fract_x
 _atom_site_fract_y
 _atom_site_fract_z
 _atom_site_occupancy
  Tb  Tb0  1  0.671529  0.749772  0.719810  1
  Tb  Tb1  1  0.328343  0.250117  0.280181  1
  Tb  Tb2  1  0.171462  0.250303  0.780259  1
  Tb  Tb3  1  0.828590  0.749803  0.219638  1
  Tb  Tb4  1  0.147848  0.749560  0.796836  1
  Tb  Tb5  1  0.852250  0.250336  0.203033  1
  Tb  Tb6  1  0.647898  0.250238  0.703259  1
  Tb  Tb7  1  0.351975  0.749775  0.296753  1
  Tb  Tb8  1  0.535768  0.749886  0.997900  1
  Tb  Tb9  1  0.464299  0.250121  0.002039  1
  Tb  Tb10  1  0.035688  0.250061  0.502070  1
  Tb  Tb11  1  0.964523  0.750030  0.498038  1
  Tb  Tb12  1  0.182547  0.966691  0.077766  1
  Tb  Tb13  1  0.682068  0.466669  0.422349  1
  Tb  Tb14  1  0.817464  0.033295  0.922217  1
  Tb  Tb15  1  0.682524  0.033261  0.422232  1
  Tb  Tb16  1  0.317661  0.966672  0.577735  1
  Dy  Dy17  1  0.818249  0.466667  0.922191  1
  Dy  Dy18  1  0.181748  0.533340  0.077793  1
  Dy  Dy19  1  0.318042  0.533268  0.577919  1
  Si  Si20  1  0.940078  0.003937  0.669657  1
  Si  Si21  1  0.059980  0.996015  0.330355  1
  Si  Si22  1  0.440036  0.996025  0.830357  1
  Si  Si23  1  0.060134  0.504017  0.330176  1
  Si  Si24  1  0.559961  0.003991  0.169609  1
  Si  Si25  1  0.940399  0.496077  0.669733  1
  Si  Si26  1  0.559601  0.496155  0.169483  1
  Si  Si27  1  0.440323  0.503865  0.830293  1
  Ir  Ir28  1  0.930563  0.749270  0.989768  1
  Ir  Ir29  1  0.069462  0.250744  0.010286  1
  Ir  Ir30  1  0.429833  0.250380  0.510522  1
  Ir  Ir31  1  0.569156  0.749659  0.489742  1
