# generated using pymatgen
data_Y6ZrAu10
_symmetry_space_group_name_H-M   'P 1'
_cell_length_a   8.69120053
_cell_length_b   8.69120176
_cell_length_c   10.36602900
_cell_angle_alpha   90.00000000
_cell_angle_beta   90.00000000
_cell_angle_gamma   106.77005987
_symmetry_Int_Tables_number   1
_chemical_formula_structural   Y6ZrAu10
_chemical_formula_sum   'Y12 Zr2 Au20'
_cell_volume   749.71703483
_cell_formula_units_Z   2
loop_
 _symmetry_equiv_pos_site_id
 _symmetry_equiv_pos_as_xyz
  1  'x, y, z'
loop_
 _atom_site_type_symbol
 _atom_site_label
 _atom_site_symmetry_multiplicity
 _atom_site_fract_x
 _atom_site_fract_y
 _atom_site_fract_z
 _atom_site_occupancy
  Y  Y0  1  0.692636  0.307363  0.000000  1
  Y  Y1  1  0.307364  0.692637  0.000000  1
  Y  Y2  1  0.807364  0.192637  0.500000  1
  Y  Y3  1  0.192636  0.807363  0.500000  1
  Y  Y4  1  0.002781  0.502780  0.250000  1
  Y  Y5  1  0.997219  0.497220  0.750000  1
  Y  Y6  1  0.497219  0.997220  0.750000  1
  Y  Y7  1  0.502781  0.002780  0.250000  1
  Y  Y8  1  0.311069  0.311068  0.189703  1
  Y  Y9  1  0.688931  0.688932  0.810297  1
  Y  Y10  1  0.188931  0.188932  0.689703  1
  Y  Y11  1  0.811069  0.811068  0.310297  1
  Zr  Zr12  1  0.000000  0.000000  0.000000  1
  Zr  Zr13  1  0.500000  0.500000  0.500000  1
  Au  Au14  1  0.863500  0.147594  0.204218  1
  Au  Au15  1  0.136500  0.852406  0.795782  1
  Au  Au16  1  0.636500  0.352406  0.704218  1
  Au  Au17  1  0.647594  0.363500  0.295781  1
  Au  Au18  1  0.363500  0.647594  0.295782  1
  Au  Au19  1  0.352406  0.636500  0.704219  1
  Au  Au20  1  0.852406  0.136500  0.795781  1
  Au  Au21  1  0.147594  0.863500  0.204219  1
  Au  Au22  1  0.939268  0.652698  0.003062  1
  Au  Au23  1  0.060732  0.347302  0.996938  1
  Au  Au24  1  0.560732  0.847302  0.503062  1
  Au  Au25  1  0.152698  0.439268  0.496938  1
  Au  Au26  1  0.439268  0.152698  0.496938  1
  Au  Au27  1  0.847302  0.560732  0.503062  1
  Au  Au28  1  0.347302  0.060732  0.996938  1
  Au  Au29  1  0.652698  0.939268  0.003062  1
  Au  Au30  1  0.102949  0.102949  0.398312  1
  Au  Au31  1  0.897051  0.897051  0.601688  1
  Au  Au32  1  0.397051  0.397051  0.898312  1
  Au  Au33  1  0.602949  0.602949  0.101688  1
