# generated using pymatgen
data_DyTa9S16
_symmetry_space_group_name_H-M   'P 1'
_cell_length_a   6.66424100
_cell_length_b   6.66424038
_cell_length_c   13.24868800
_cell_angle_alpha   90.00000000
_cell_angle_beta   90.00000000
_cell_angle_gamma   120.00000803
_symmetry_Int_Tables_number   1
_chemical_formula_structural   DyTa9S16
_chemical_formula_sum   'Dy1 Ta9 S16'
_cell_volume   509.57113287
_cell_formula_units_Z   1
loop_
 _symmetry_equiv_pos_site_id
 _symmetry_equiv_pos_as_xyz
  1  'x, y, z'
loop_
 _atom_site_type_symbol
 _atom_site_label
 _atom_site_symmetry_multiplicity
 _atom_site_fract_x
 _atom_site_fract_y
 _atom_site_fract_z
 _atom_site_occupancy
  Dy  Dy0  1  0.000000  0.000000  0.500000  1
  Ta  Ta1  1  0.504862  0.495138  0.762392  1
  Ta  Ta2  1  0.009723  0.504862  0.237608  1
  Ta  Ta3  1  0.495138  0.990277  0.237608  1
  Ta  Ta4  1  0.504862  0.009723  0.762392  1
  Ta  Ta5  1  0.990277  0.495138  0.762392  1
  Ta  Ta6  1  0.495138  0.504862  0.237608  1
  Ta  Ta7  1  0.000000  0.000000  0.760895  1
  Ta  Ta8  1  0.000000  0.000000  0.239105  1
  Ta  Ta9  1  0.000000  0.000000  0.000000  1
  S  S10  1  0.830857  0.169143  0.356847  1
  S  S11  1  0.830857  0.661715  0.356847  1
  S  S12  1  0.338285  0.169143  0.356847  1
  S  S13  1  0.666813  0.833407  0.881827  1
  S  S14  1  0.169143  0.338285  0.643153  1
  S  S15  1  0.166593  0.833407  0.881827  1
  S  S16  1  0.166593  0.333187  0.881827  1
  S  S17  1  0.833407  0.166593  0.118173  1
  S  S18  1  0.333187  0.166593  0.118173  1
  S  S19  1  0.661715  0.830857  0.643153  1
  S  S20  1  0.333333  0.666667  0.117053  1
  S  S21  1  0.666667  0.333333  0.640378  1
  S  S22  1  0.666667  0.333333  0.882947  1
  S  S23  1  0.333333  0.666667  0.359622  1
  S  S24  1  0.833407  0.666813  0.118173  1
  S  S25  1  0.169143  0.830857  0.643153  1
