# generated using pymatgen
data_Yb11Pr8YSn16
_symmetry_space_group_name_H-M   'P 1'
_cell_length_a   7.96954249
_cell_length_b   8.50872337
_cell_length_c   16.05485459
_cell_angle_alpha   90.04988932
_cell_angle_beta   90.05781889
_cell_angle_gamma   89.93024901
_symmetry_Int_Tables_number   1
_chemical_formula_structural   Yb11Pr8YSn16
_chemical_formula_sum   'Yb11 Pr8 Y1 Sn16'
_cell_volume   1088.68807038
_cell_formula_units_Z   1
loop_
 _symmetry_equiv_pos_site_id
 _symmetry_equiv_pos_as_xyz
  1  'x, y, z'
loop_
 _atom_site_type_symbol
 _atom_site_label
 _atom_site_symmetry_multiplicity
 _atom_site_fract_x
 _atom_site_fract_y
 _atom_site_fract_z
 _atom_site_occupancy
  Yb  Yb0  1  0.833117  0.672327  0.623329  1
  Yb  Yb1  1  0.666465  0.172559  0.376284  1
  Yb  Yb2  1  0.165899  0.327795  0.123577  1
  Yb  Yb3  1  0.667302  0.172877  0.123735  1
  Yb  Yb4  1  0.166366  0.327384  0.376333  1
  Yb  Yb5  1  0.334002  0.827582  0.623410  1
  Yb  Yb6  1  0.833483  0.673012  0.876986  1
  Yb  Yb7  1  0.161012  0.504006  0.749341  1
  Yb  Yb8  1  0.662981  0.996389  0.749392  1
  Yb  Yb9  1  0.838113  0.495112  0.250158  1
  Yb  Yb10  1  0.338265  0.004519  0.250058  1
  Pr  Pr11  1  0.494011  0.316569  0.903954  1
  Pr  Pr12  1  0.993355  0.185038  0.595176  1
  Pr  Pr13  1  0.506055  0.685122  0.403696  1
  Pr  Pr14  1  0.005522  0.814874  0.096579  1
  Pr  Pr15  1  0.507057  0.684406  0.096756  1
  Pr  Pr16  1  0.005887  0.815009  0.403904  1
  Pr  Pr17  1  0.494073  0.315746  0.595806  1
  Pr  Pr18  1  0.993701  0.185509  0.904990  1
  Y  Y19  1  0.333853  0.826304  0.875992  1
  Sn  Sn20  1  0.328635  0.034333  0.037482  1
  Sn  Sn21  1  0.829655  0.464531  0.461221  1
  Sn  Sn22  1  0.669751  0.964915  0.538986  1
  Sn  Sn23  1  0.173209  0.537536  0.960385  1
  Sn  Sn24  1  0.667245  0.963502  0.959950  1
  Sn  Sn25  1  0.170347  0.535418  0.539079  1
  Sn  Sn26  1  0.330180  0.035330  0.461184  1
  Sn  Sn27  1  0.829201  0.464242  0.038684  1
  Sn  Sn28  1  0.533263  0.605158  0.750545  1
  Sn  Sn29  1  0.037155  0.894657  0.752049  1
  Sn  Sn30  1  0.465315  0.396655  0.249850  1
  Sn  Sn31  1  0.965226  0.102772  0.250032  1
  Sn  Sn32  1  0.289527  0.140213  0.751303  1
  Sn  Sn33  1  0.788971  0.358706  0.750453  1
  Sn  Sn34  1  0.711151  0.858437  0.249675  1
  Sn  Sn35  1  0.210649  0.641457  0.249664  1
