# generated using pymatgen
data_Cs6HfZr3(CuTe10)2
_symmetry_space_group_name_H-M   'P 1'
_cell_length_a   10.21965218
_cell_length_b   11.28293391
_cell_length_c   11.49456120
_cell_angle_alpha   89.34959891
_cell_angle_beta   89.57448106
_cell_angle_gamma   78.04762653
_symmetry_Int_Tables_number   1
_chemical_formula_structural   Cs6HfZr3(CuTe10)2
_chemical_formula_sum   'Cs6 Hf1 Zr3 Cu2 Te20'
_cell_volume   1296.57516547
_cell_formula_units_Z   1
loop_
 _symmetry_equiv_pos_site_id
 _symmetry_equiv_pos_as_xyz
  1  'x, y, z'
loop_
 _atom_site_type_symbol
 _atom_site_label
 _atom_site_symmetry_multiplicity
 _atom_site_fract_x
 _atom_site_fract_y
 _atom_site_fract_z
 _atom_site_occupancy
  Cs  Cs0  1  0.884383  0.891231  0.261333  1
  Cs  Cs1  1  0.115695  0.108803  0.738743  1
  Cs  Cs2  1  0.444728  0.765768  0.389295  1
  Cs  Cs3  1  0.555310  0.234462  0.610875  1
  Cs  Cs4  1  0.299734  0.625695  0.896428  1
  Cs  Cs5  1  0.699906  0.374189  0.103464  1
  Hf  Hf6  1  0.692358  0.840774  0.856639  1
  Zr  Zr7  1  0.108023  0.376950  0.364259  1
  Zr  Zr8  1  0.892111  0.622920  0.635702  1
  Zr  Zr9  1  0.308800  0.158940  0.141608  1
  Cu  Cu10  1  0.920611  0.376039  0.556528  1
  Cu  Cu11  1  0.079471  0.624102  0.443443  1
  Te  Te12  1  0.843660  0.558432  0.398298  1
  Te  Te13  1  0.156133  0.441702  0.601771  1
  Te  Te14  1  0.929146  0.205792  0.407181  1
  Te  Te15  1  0.070783  0.794246  0.593028  1
  Te  Te16  1  0.192915  0.588079  0.242546  1
  Te  Te17  1  0.807147  0.412014  0.757499  1
  Te  Te18  1  0.214006  0.116262  0.391705  1
  Te  Te19  1  0.785562  0.883849  0.610128  1
  Te  Te20  1  0.078344  0.362354  0.107550  1
  Te  Te21  1  0.920004  0.638190  0.892643  1
  Te  Te22  1  0.391741  0.355841  0.290599  1
  Te  Te23  1  0.608588  0.644194  0.710282  1
  Te  Te24  1  0.043012  0.123023  0.067847  1
  Te  Te25  1  0.955222  0.877948  0.932277  1
  Te  Te26  1  0.524848  0.090604  0.306175  1
  Te  Te27  1  0.476042  0.909416  0.696415  1
  Te  Te28  1  0.332423  0.910800  0.069381  1
  Te  Te29  1  0.667746  0.086106  0.930022  1
  Te  Te30  1  0.410724  0.245893  0.928266  1
  Te  Te31  1  0.590822  0.755384  0.068070  1
