# generated using pymatgen
data_Sr2Tl2CdInPd2
_symmetry_space_group_name_H-M   'P 1'
_cell_length_a   5.95272852
_cell_length_b   5.95272939
_cell_length_c   8.45896128
_cell_angle_alpha   89.65532695
_cell_angle_beta   90.34467427
_cell_angle_gamma   136.40880401
_symmetry_Int_Tables_number   1
_chemical_formula_structural   Sr2Tl2CdInPd2
_chemical_formula_sum   'Sr2 Tl2 Cd1 In1 Pd2'
_cell_volume   206.67103386
_cell_formula_units_Z   1
loop_
 _symmetry_equiv_pos_site_id
 _symmetry_equiv_pos_as_xyz
  1  'x, y, z'
loop_
 _atom_site_type_symbol
 _atom_site_label
 _atom_site_symmetry_multiplicity
 _atom_site_fract_x
 _atom_site_fract_y
 _atom_site_fract_z
 _atom_site_occupancy
  Sr  Sr0  1  0.937020  0.062980  0.753493  1
  Sr  Sr1  1  0.062892  0.937108  0.248016  1
  Tl  Tl2  1  0.351992  0.648008  0.048589  1
  Tl  Tl3  1  0.357673  0.642327  0.448754  1
  Cd  Cd4  1  0.650827  0.349173  0.944860  1
  In  In5  1  0.650004  0.349996  0.558138  1
  Pd  Pd6  1  0.216786  0.783214  0.743672  1
  Pd  Pd7  1  0.772806  0.227194  0.254477  1
