# generated using pymatgen
data_CeEr2Tm5(InAu2)4
_symmetry_space_group_name_H-M   'P 1'
_cell_length_a   7.97381787
_cell_length_b   7.97381824
_cell_length_c   7.31750000
_cell_angle_alpha   90.00000000
_cell_angle_beta   90.00000000
_cell_angle_gamma   90.11744738
_symmetry_Int_Tables_number   1
_chemical_formula_structural   CeEr2Tm5(InAu2)4
_chemical_formula_sum   'Ce1 Er2 Tm5 In4 Au8'
_cell_volume   465.25865630
_cell_formula_units_Z   1
loop_
 _symmetry_equiv_pos_site_id
 _symmetry_equiv_pos_as_xyz
  1  'x, y, z'
loop_
 _atom_site_type_symbol
 _atom_site_label
 _atom_site_symmetry_multiplicity
 _atom_site_fract_x
 _atom_site_fract_y
 _atom_site_fract_z
 _atom_site_occupancy
  Ce  Ce0  1  0.837933  0.162067  0.500000  1
  Er  Er1  1  0.679809  0.676951  0.500000  1
  Er  Er2  1  0.323049  0.320191  0.500000  1
  Tm  Tm3  1  0.159545  0.840455  0.500000  1
  Tm  Tm4  1  0.335397  0.344630  0.000000  1
  Tm  Tm5  1  0.655370  0.664603  0.000000  1
  Tm  Tm6  1  0.181219  0.818781  0.000000  1
  Tm  Tm7  1  0.824146  0.175854  0.000000  1
  In  In8  1  0.499758  0.999605  0.251352  1
  In  In9  1  0.000395  0.500242  0.748648  1
  In  In10  1  0.499758  0.999605  0.748648  1
  In  In11  1  0.000395  0.500242  0.251352  1
  Au  Au12  1  0.626857  0.373143  0.256484  1
  Au  Au13  1  0.369204  0.630796  0.272325  1
  Au  Au14  1  0.132632  0.127082  0.773216  1
  Au  Au15  1  0.872918  0.867368  0.773216  1
  Au  Au16  1  0.369204  0.630796  0.727675  1
  Au  Au17  1  0.626857  0.373143  0.743516  1
  Au  Au18  1  0.872918  0.867368  0.226784  1
  Au  Au19  1  0.132632  0.127082  0.226784  1
