# generated using pymatgen
data_CePrPa4(Co3P2)6
_symmetry_space_group_name_H-M   'P 1'
_cell_length_a   3.76317700
_cell_length_b   10.39462100
_cell_length_c   12.32898600
_cell_angle_alpha   90.00000000
_cell_angle_beta   90.00000000
_cell_angle_gamma   90.00000000
_symmetry_Int_Tables_number   1
_chemical_formula_structural   CePrPa4(Co3P2)6
_chemical_formula_sum   'Ce1 Pr1 Pa4 Co18 P12'
_cell_volume   482.27046318
_cell_formula_units_Z   1
loop_
 _symmetry_equiv_pos_site_id
 _symmetry_equiv_pos_as_xyz
  1  'x, y, z'
loop_
 _atom_site_type_symbol
 _atom_site_label
 _atom_site_symmetry_multiplicity
 _atom_site_fract_x
 _atom_site_fract_y
 _atom_site_fract_z
 _atom_site_occupancy
  Ce  Ce0  1  0.000000  0.500000  0.520114  1
  Pr  Pr1  1  0.500000  0.000000  0.481110  1
  Pa  Pa2  1  0.500000  0.817379  0.208252  1
  Pa  Pa3  1  0.500000  0.182621  0.208252  1
  Pa  Pa4  1  0.000000  0.682708  0.791816  1
  Pa  Pa5  1  0.000000  0.317292  0.791816  1
  Co  Co6  1  0.500000  0.500000  0.158732  1
  Co  Co7  1  0.000000  0.000000  0.841939  1
  Co  Co8  1  0.500000  0.500000  0.706209  1
  Co  Co9  1  0.000000  0.000000  0.289647  1
  Co  Co10  1  0.000000  0.500000  0.980450  1
  Co  Co11  1  0.500000  0.000000  0.018802  1
  Co  Co12  1  0.500000  0.333282  0.995287  1
  Co  Co13  1  0.500000  0.666718  0.995287  1
  Co  Co14  1  0.000000  0.167193  0.004448  1
  Co  Co15  1  0.000000  0.832807  0.004448  1
  Co  Co16  1  0.500000  0.302240  0.426553  1
  Co  Co17  1  0.500000  0.697760  0.426553  1
  Co  Co18  1  0.000000  0.202558  0.574828  1
  Co  Co19  1  0.000000  0.797442  0.574828  1
  Co  Co20  1  0.500000  0.877108  0.716597  1
  Co  Co21  1  0.500000  0.122892  0.716597  1
  Co  Co22  1  0.000000  0.622120  0.284317  1
  Co  Co23  1  0.000000  0.377880  0.284317  1
  P  P24  1  0.500000  0.500000  0.883991  1
  P  P25  1  0.000000  0.000000  0.114181  1
  P  P26  1  0.500000  0.500000  0.339560  1
  P  P27  1  0.000000  0.000000  0.661654  1
  P  P28  1  0.500000  0.309653  0.612437  1
  P  P29  1  0.500000  0.690347  0.612437  1
  P  P30  1  0.000000  0.191768  0.387061  1
  P  P31  1  0.000000  0.808232  0.387061  1
  P  P32  1  0.500000  0.848589  0.896710  1
  P  P33  1  0.500000  0.151411  0.896710  1
  P  P34  1  0.000000  0.650831  0.103499  1
  P  P35  1  0.000000  0.349169  0.103499  1
