# generated using pymatgen
data_Cs4Li2GdAlSb4
_symmetry_space_group_name_H-M   'P 1'
_cell_length_a   10.24302460
_cell_length_b   10.24302366
_cell_length_c   10.24302408
_cell_angle_alpha   138.48604768
_cell_angle_beta   59.72554449
_cell_angle_gamma   139.05581098
_symmetry_Int_Tables_number   1
_chemical_formula_structural   Cs4Li2GdAlSb4
_chemical_formula_sum   'Cs4 Li2 Gd1 Al1 Sb4'
_cell_volume   462.09677848
_cell_formula_units_Z   1
loop_
 _symmetry_equiv_pos_site_id
 _symmetry_equiv_pos_as_xyz
  1  'x, y, z'
loop_
 _atom_site_type_symbol
 _atom_site_label
 _atom_site_symmetry_multiplicity
 _atom_site_fract_x
 _atom_site_fract_y
 _atom_site_fract_z
 _atom_site_occupancy
  Cs  Cs0  1  0.827372  0.268667  0.099573  1
  Cs  Cs1  1  0.672630  0.772202  0.441295  1
  Cs  Cs2  1  0.330906  0.231334  0.558704  1
  Cs  Cs3  1  0.169094  0.727797  0.900426  1
  Li  Li4  1  0.750001  0.250000  0.500000  1
  Li  Li5  1  0.250000  0.750000  0.499999  1
  Gd  Gd6  1  0.250000  0.250000  0.000000  1
  Al  Al7  1  0.750000  0.750000  0.000000  1
  Sb  Sb8  1  0.434696  0.758259  0.151719  1
  Sb  Sb9  1  0.065305  0.217023  0.323562  1
  Sb  Sb10  1  0.893461  0.741741  0.676437  1
  Sb  Sb11  1  0.606540  0.282977  0.848281  1
