# generated using pymatgen
data_Sr2CdInHg2
_symmetry_space_group_name_H-M   'P 1'
_cell_length_a   5.01254400
_cell_length_b   8.04223100
_cell_length_c   8.89442200
_cell_angle_alpha   90.00000000
_cell_angle_beta   90.00000000
_cell_angle_gamma   90.00000000
_symmetry_Int_Tables_number   1
_chemical_formula_structural   Sr2CdInHg2
_chemical_formula_sum   'Sr4 Cd2 In2 Hg4'
_cell_volume   358.55226650
_cell_formula_units_Z   2
loop_
 _symmetry_equiv_pos_site_id
 _symmetry_equiv_pos_as_xyz
  1  'x, y, z'
loop_
 _atom_site_type_symbol
 _atom_site_label
 _atom_site_symmetry_multiplicity
 _atom_site_fract_x
 _atom_site_fract_y
 _atom_site_fract_z
 _atom_site_occupancy
  Sr  Sr0  1  0.750000  0.993102  0.699996  1
  Sr  Sr1  1  0.250000  0.007974  0.300100  1
  Sr  Sr2  1  0.750000  0.492026  0.800100  1
  Sr  Sr3  1  0.250000  0.506898  0.199996  1
  Cd  Cd4  1  0.750000  0.315757  0.426432  1
  Cd  Cd5  1  0.250000  0.184243  0.926432  1
  In  In6  1  0.250000  0.672915  0.573801  1
  In  In7  1  0.750000  0.827085  0.073801  1
  Hg  Hg8  1  0.250000  0.791903  0.899625  1
  Hg  Hg9  1  0.250000  0.286054  0.600047  1
  Hg  Hg10  1  0.750000  0.708097  0.399625  1
  Hg  Hg11  1  0.750000  0.213946  0.100047  1
