# generated using pymatgen
data_NdEu3Ga2(AgPt2)2
_symmetry_space_group_name_H-M   'P 1'
_cell_length_a   4.34167200
_cell_length_b   7.37217997
_cell_length_c   8.32170004
_cell_angle_alpha   92.31497873
_cell_angle_beta   90.00000000
_cell_angle_gamma   90.00000000
_symmetry_Int_Tables_number   1
_chemical_formula_structural   NdEu3Ga2(AgPt2)2
_chemical_formula_sum   'Nd1 Eu3 Ga2 Ag2 Pt4'
_cell_volume   266.14015836
_cell_formula_units_Z   1
loop_
 _symmetry_equiv_pos_site_id
 _symmetry_equiv_pos_as_xyz
  1  'x, y, z'
loop_
 _atom_site_type_symbol
 _atom_site_label
 _atom_site_symmetry_multiplicity
 _atom_site_fract_x
 _atom_site_fract_y
 _atom_site_fract_z
 _atom_site_occupancy
  Nd  Nd0  1  0.750000  0.469374  0.189119  1
  Eu  Eu1  1  0.250000  0.024545  0.689370  1
  Eu  Eu2  1  0.250000  0.529776  0.809304  1
  Eu  Eu3  1  0.750000  0.976668  0.312453  1
  Ga  Ga4  1  0.250000  0.656090  0.432717  1
  Ga  Ga5  1  0.750000  0.344248  0.568722  1
  Ag  Ag6  1  0.250000  0.144818  0.071646  1
  Ag  Ag7  1  0.750000  0.853741  0.928777  1
  Pt  Pt8  1  0.250000  0.292467  0.405525  1
  Pt  Pt9  1  0.250000  0.749350  0.135916  1
  Pt  Pt10  1  0.750000  0.711340  0.590035  1
  Pt  Pt11  1  0.750000  0.247583  0.866415  1
