# generated using pymatgen
data_La5(RhO6)2
_symmetry_space_group_name_H-M   'P 1'
_cell_length_a   7.16280525
_cell_length_b   7.16280456
_cell_length_c   7.72445289
_cell_angle_alpha   74.54043929
_cell_angle_beta   74.54044357
_cell_angle_gamma   51.12484678
_symmetry_Int_Tables_number   1
_chemical_formula_structural   La5(RhO6)2
_chemical_formula_sum   'La5 Rh2 O12'
_cell_volume   294.75626441
_cell_formula_units_Z   1
loop_
 _symmetry_equiv_pos_site_id
 _symmetry_equiv_pos_as_xyz
  1  'x, y, z'
loop_
 _atom_site_type_symbol
 _atom_site_label
 _atom_site_symmetry_multiplicity
 _atom_site_fract_x
 _atom_site_fract_y
 _atom_site_fract_z
 _atom_site_occupancy
  La  La0  1  0.307180  0.307180  0.356143  1
  La  La1  1  0.692820  0.692820  0.643857  1
  La  La2  1  0.305864  0.305864  0.836903  1
  La  La3  1  0.694136  0.694136  0.163097  1
  La  La4  1  0.000000  0.000000  0.500000  1
  Rh  Rh5  1  0.754634  0.245366  0.000000  1
  Rh  Rh6  1  0.245366  0.754634  0.000000  1
  O  O7  1  0.895800  0.426698  0.919926  1
  O  O8  1  0.426698  0.895800  0.919926  1
  O  O9  1  0.104200  0.573302  0.080074  1
  O  O10  1  0.573302  0.104200  0.080074  1
  O  O11  1  0.093459  0.599868  0.577108  1
  O  O12  1  0.599868  0.093459  0.577108  1
  O  O13  1  0.906541  0.400132  0.422892  1
  O  O14  1  0.400132  0.906541  0.422892  1
  O  O15  1  0.000502  0.000502  0.834639  1
  O  O16  1  0.999498  0.999498  0.165361  1
  O  O17  1  0.498715  0.498715  0.828665  1
  O  O18  1  0.501285  0.501285  0.171335  1
