# generated using pymatgen
data_Tb7Ho3AlBi5
_symmetry_space_group_name_H-M   'P 1'
_cell_length_a   9.13159524
_cell_length_b   9.13125922
_cell_length_c   6.42978412
_cell_angle_alpha   90.00026273
_cell_angle_beta   90.01932935
_cell_angle_gamma   119.80084017
_symmetry_Int_Tables_number   1
_chemical_formula_structural   Tb7Ho3AlBi5
_chemical_formula_sum   'Tb7 Ho3 Al1 Bi5'
_cell_volume   465.23501438
_cell_formula_units_Z   1
loop_
 _symmetry_equiv_pos_site_id
 _symmetry_equiv_pos_as_xyz
  1  'x, y, z'
loop_
 _atom_site_type_symbol
 _atom_site_label
 _atom_site_symmetry_multiplicity
 _atom_site_fract_x
 _atom_site_fract_y
 _atom_site_fract_z
 _atom_site_occupancy
  Tb  Tb0  1  0.659646  0.335524  0.503053  1
  Tb  Tb1  1  0.750037  0.750097  0.750100  1
  Tb  Tb2  1  0.243887  0.012750  0.750121  1
  Tb  Tb3  1  0.012737  0.243955  0.750143  1
  Tb  Tb4  1  0.240125  0.240172  0.249790  1
  Tb  Tb5  1  0.758209  0.000562  0.249941  1
  Tb  Tb6  1  0.000283  0.758157  0.249903  1
  Ho  Ho7  1  0.659439  0.335477  0.996772  1
  Ho  Ho8  1  0.335451  0.659366  0.996650  1
  Ho  Ho9  1  0.335530  0.659231  0.503427  1
  Al  Al10  1  0.396083  0.396694  0.750565  1
  Bi  Bi11  1  0.610680  0.002178  0.750445  1
  Bi  Bi12  1  0.003327  0.611318  0.750443  1
  Bi  Bi13  1  0.607053  0.607633  0.249418  1
  Bi  Bi14  1  0.390888  0.995476  0.249606  1
  Bi  Bi15  1  0.996625  0.391412  0.249621  1
