# generated using pymatgen
data_Nd16In4TcPt3
_symmetry_space_group_name_H-M   'P 1'
_cell_length_a   10.03817771
_cell_length_b   10.03817756
_cell_length_c   10.03817615
_cell_angle_alpha   60.05470183
_cell_angle_beta   60.05469536
_cell_angle_gamma   60.05470881
_symmetry_Int_Tables_number   1
_chemical_formula_structural   Nd16In4TcPt3
_chemical_formula_sum   'Nd16 In4 Tc1 Pt3'
_cell_volume   716.12308499
_cell_formula_units_Z   1
loop_
 _symmetry_equiv_pos_site_id
 _symmetry_equiv_pos_as_xyz
  1  'x, y, z'
loop_
 _atom_site_type_symbol
 _atom_site_label
 _atom_site_symmetry_multiplicity
 _atom_site_fract_x
 _atom_site_fract_y
 _atom_site_fract_z
 _atom_site_occupancy
  Nd  Nd0  1  0.350504  0.350504  0.350504  1
  Nd  Nd1  1  0.347520  0.347520  0.954092  1
  Nd  Nd2  1  0.347520  0.954092  0.347520  1
  Nd  Nd3  1  0.954092  0.347520  0.347520  1
  Nd  Nd4  1  0.814797  0.189607  0.189607  1
  Nd  Nd5  1  0.190130  0.806492  0.806492  1
  Nd  Nd6  1  0.189607  0.814797  0.189607  1
  Nd  Nd7  1  0.806492  0.190130  0.806492  1
  Nd  Nd8  1  0.189607  0.189607  0.814797  1
  Nd  Nd9  1  0.806492  0.806492  0.190130  1
  Nd  Nd10  1  0.937813  0.562858  0.562858  1
  Nd  Nd11  1  0.553611  0.940100  0.940100  1
  Nd  Nd12  1  0.562858  0.937813  0.562858  1
  Nd  Nd13  1  0.940100  0.553611  0.940100  1
  Nd  Nd14  1  0.562858  0.562858  0.937813  1
  Nd  Nd15  1  0.940100  0.940100  0.553611  1
  In  In16  1  0.580752  0.580752  0.580752  1
  In  In17  1  0.581750  0.581750  0.256418  1
  In  In18  1  0.581750  0.256418  0.581750  1
  In  In19  1  0.256418  0.581750  0.581750  1
  Tc  Tc20  1  0.141407  0.141407  0.141407  1
  Pt  Pt21  1  0.144386  0.144386  0.575049  1
  Pt  Pt22  1  0.144386  0.575049  0.144386  1
  Pt  Pt23  1  0.575049  0.144386  0.144386  1
