# generated using pymatgen
data_AcSi3Ir
_symmetry_space_group_name_H-M   'P 1'
_cell_length_a   5.88591300
_cell_length_b   5.88591268
_cell_length_c   5.88591317
_cell_angle_alpha   136.32097256
_cell_angle_beta   136.32097549
_cell_angle_gamma   63.48449602
_symmetry_Int_Tables_number   1
_chemical_formula_structural   AcSi3Ir
_chemical_formula_sum   'Ac1 Si3 Ir1'
_cell_volume   95.99340648
_cell_formula_units_Z   1
loop_
 _symmetry_equiv_pos_site_id
 _symmetry_equiv_pos_as_xyz
  1  'x, y, z'
loop_
 _atom_site_type_symbol
 _atom_site_label
 _atom_site_symmetry_multiplicity
 _atom_site_fract_x
 _atom_site_fract_y
 _atom_site_fract_z
 _atom_site_occupancy
  Ac  Ac0  1  0.002017  0.002017  0.000000  1
  Si  Si1  1  0.411885  0.411885  0.000000  1
  Si  Si2  1  0.262318  0.762318  0.500000  1
  Si  Si3  1  0.762318  0.262318  0.500000  1
  Ir  Ir4  1  0.655463  0.655463  0.000000  1
