# generated using pymatgen
data_NaLuMn3Ni9As7
_symmetry_space_group_name_H-M   'P 1'
_cell_length_a   9.47980300
_cell_length_b   9.47980406
_cell_length_c   3.78645500
_cell_angle_alpha   90.00000000
_cell_angle_beta   90.00000000
_cell_angle_gamma   120.00000167
_symmetry_Int_Tables_number   1
_chemical_formula_structural   NaLuMn3Ni9As7
_chemical_formula_sum   'Na1 Lu1 Mn3 Ni9 As7'
_cell_volume   294.68775990
_cell_formula_units_Z   1
loop_
 _symmetry_equiv_pos_site_id
 _symmetry_equiv_pos_as_xyz
  1  'x, y, z'
loop_
 _atom_site_type_symbol
 _atom_site_label
 _atom_site_symmetry_multiplicity
 _atom_site_fract_x
 _atom_site_fract_y
 _atom_site_fract_z
 _atom_site_occupancy
  Na  Na0  1  0.333333  0.666667  0.000000  1
  Lu  Lu1  1  0.666667  0.333333  0.500000  1
  Mn  Mn2  1  0.220322  0.122557  0.500000  1
  Mn  Mn3  1  0.877443  0.097765  0.500000  1
  Mn  Mn4  1  0.902235  0.779678  0.500000  1
  Ni  Ni5  1  0.126386  0.280486  0.000000  1
  Ni  Ni6  1  0.719514  0.845900  0.000000  1
  Ni  Ni7  1  0.154100  0.873614  0.000000  1
  Ni  Ni8  1  0.434140  0.370923  0.000000  1
  Ni  Ni9  1  0.629077  0.063218  0.000000  1
  Ni  Ni10  1  0.936782  0.565860  0.000000  1
  Ni  Ni11  1  0.047479  0.428523  0.500000  1
  Ni  Ni12  1  0.571477  0.618956  0.500000  1
  Ni  Ni13  1  0.381044  0.952521  0.500000  1
  As  As14  1  0.296021  0.412907  0.500000  1
  As  As15  1  0.587093  0.883115  0.500000  1
  As  As16  1  0.116885  0.703979  0.500000  1
  As  As17  1  0.411399  0.116018  0.000000  1
  As  As18  1  0.883982  0.295382  0.000000  1
  As  As19  1  0.704618  0.588601  0.000000  1
  As  As20  1  0.000000  0.000000  0.000000  1
