# generated using pymatgen
data_HfNb3Si4(IrRh)2
_symmetry_space_group_name_H-M   'P 1'
_cell_length_a   3.82865900
_cell_length_b   6.47695332
_cell_length_c   7.38312918
_cell_angle_alpha   89.78089095
_cell_angle_beta   90.00000000
_cell_angle_gamma   90.00000000
_symmetry_Int_Tables_number   1
_chemical_formula_structural   HfNb3Si4(IrRh)2
_chemical_formula_sum   'Hf1 Nb3 Si4 Ir2 Rh2'
_cell_volume   183.08583568
_cell_formula_units_Z   1
loop_
 _symmetry_equiv_pos_site_id
 _symmetry_equiv_pos_as_xyz
  1  'x, y, z'
loop_
 _atom_site_type_symbol
 _atom_site_label
 _atom_site_symmetry_multiplicity
 _atom_site_fract_x
 _atom_site_fract_y
 _atom_site_fract_z
 _atom_site_occupancy
  Hf  Hf0  1  0.750000  0.474971  0.323231  1
  Nb  Nb1  1  0.250000  0.023949  0.825938  1
  Nb  Nb2  1  0.750000  0.974101  0.171280  1
  Nb  Nb3  1  0.250000  0.525511  0.677936  1
  Si  Si4  1  0.250000  0.264113  0.118874  1
  Si  Si5  1  0.250000  0.775135  0.379236  1
  Si  Si6  1  0.750000  0.730249  0.874537  1
  Si  Si7  1  0.750000  0.229251  0.627901  1
  Ir  Ir8  1  0.250000  0.645641  0.064627  1
  Ir  Ir9  1  0.250000  0.149351  0.437488  1
  Rh  Rh10  1  0.750000  0.854445  0.561791  1
  Rh  Rh11  1  0.750000  0.353286  0.937161  1
