# generated using pymatgen
data_Yb5Zr3(Ni4P3)4
_symmetry_space_group_name_H-M   'P 1'
_cell_length_a   12.31542100
_cell_length_b   12.31542087
_cell_length_c   3.79856800
_cell_angle_alpha   90.00000000
_cell_angle_beta   90.00000000
_cell_angle_gamma   120.00000305
_symmetry_Int_Tables_number   1
_chemical_formula_structural   Yb5Zr3(Ni4P3)4
_chemical_formula_sum   'Yb5 Zr3 Ni16 P12'
_cell_volume   498.94082902
_cell_formula_units_Z   1
loop_
 _symmetry_equiv_pos_site_id
 _symmetry_equiv_pos_as_xyz
  1  'x, y, z'
loop_
 _atom_site_type_symbol
 _atom_site_label
 _atom_site_symmetry_multiplicity
 _atom_site_fract_x
 _atom_site_fract_y
 _atom_site_fract_z
 _atom_site_occupancy
  Yb  Yb0  1  0.184066  0.184066  0.500000  1
  Yb  Yb1  1  0.815934  0.000000  0.500000  1
  Yb  Yb2  1  0.000000  0.815934  0.500000  1
  Yb  Yb3  1  0.333333  0.666667  0.000000  1
  Yb  Yb4  1  0.666667  0.333333  0.000000  1
  Zr  Zr5  1  0.562532  0.562532  0.000000  1
  Zr  Zr6  1  0.437468  0.000000  0.000000  1
  Zr  Zr7  1  0.000000  0.437468  0.000000  1
  Ni  Ni8  1  0.728169  0.728169  0.500000  1
  Ni  Ni9  1  0.271831  0.000000  0.500000  1
  Ni  Ni10  1  0.000000  0.271831  0.500000  1
  Ni  Ni11  1  0.186555  0.377149  0.000000  1
  Ni  Ni12  1  0.622851  0.809406  0.000000  1
  Ni  Ni13  1  0.190594  0.813445  0.000000  1
  Ni  Ni14  1  0.809406  0.622851  0.000000  1
  Ni  Ni15  1  0.813445  0.190594  0.000000  1
  Ni  Ni16  1  0.377149  0.186555  0.000000  1
  Ni  Ni17  1  0.359256  0.484160  0.500000  1
  Ni  Ni18  1  0.515840  0.875097  0.500000  1
  Ni  Ni19  1  0.124903  0.640744  0.500000  1
  Ni  Ni20  1  0.875097  0.515840  0.500000  1
  Ni  Ni21  1  0.640744  0.124903  0.500000  1
  Ni  Ni22  1  0.484160  0.359256  0.500000  1
  Ni  Ni23  1  0.000000  0.000000  0.000000  1
  P  P24  1  0.822042  0.822042  0.000000  1
  P  P25  1  0.177958  0.000000  0.000000  1
  P  P26  1  0.000000  0.177958  0.000000  1
  P  P27  1  0.170430  0.475018  0.500000  1
  P  P28  1  0.524982  0.695412  0.500000  1
  P  P29  1  0.304588  0.829570  0.500000  1
  P  P30  1  0.695412  0.524982  0.500000  1
  P  P31  1  0.829570  0.304588  0.500000  1
  P  P32  1  0.475018  0.170430  0.500000  1
  P  P33  1  0.355415  0.355415  0.000000  1
  P  P34  1  0.644585  0.000000  0.000000  1
  P  P35  1  0.000000  0.644585  0.000000  1
