# generated using pymatgen
data_Ho20FeCo2NiSb8
_symmetry_space_group_name_H-M   'P 1'
_cell_length_a   7.87284068
_cell_length_b   8.75706300
_cell_length_c   12.15301172
_cell_angle_alpha   90.00000000
_cell_angle_beta   90.05930874
_cell_angle_gamma   90.00000000
_symmetry_Int_Tables_number   1
_chemical_formula_structural   Ho20FeCo2NiSb8
_chemical_formula_sum   'Ho20 Fe1 Co2 Ni1 Sb8'
_cell_volume   837.86417421
_cell_formula_units_Z   1
loop_
 _symmetry_equiv_pos_site_id
 _symmetry_equiv_pos_as_xyz
  1  'x, y, z'
loop_
 _atom_site_type_symbol
 _atom_site_label
 _atom_site_symmetry_multiplicity
 _atom_site_fract_x
 _atom_site_fract_y
 _atom_site_fract_z
 _atom_site_occupancy
  Ho  Ho0  1  0.159963  0.750000  0.209200  1
  Ho  Ho1  1  0.653922  0.250000  0.297867  1
  Ho  Ho2  1  0.843542  0.250000  0.795836  1
  Ho  Ho3  1  0.346381  0.750000  0.700667  1
  Ho  Ho4  1  0.455981  0.750000  0.997918  1
  Ho  Ho5  1  0.952151  0.250000  0.502618  1
  Ho  Ho6  1  0.545598  0.250000  0.001427  1
  Ho  Ho7  1  0.046804  0.750000  0.498241  1
  Ho  Ho8  1  0.621977  0.750000  0.306516  1
  Ho  Ho9  1  0.122918  0.250000  0.192550  1
  Ho  Ho10  1  0.378499  0.250000  0.692733  1
  Ho  Ho11  1  0.875435  0.750000  0.805628  1
  Ho  Ho12  1  0.821498  0.967331  0.066463  1
  Ho  Ho13  1  0.322338  0.033414  0.435666  1
  Ho  Ho14  1  0.178419  0.460340  0.934266  1
  Ho  Ho15  1  0.677591  0.537620  0.564292  1
  Ho  Ho16  1  0.178419  0.039660  0.934266  1
  Ho  Ho17  1  0.677591  0.962380  0.564292  1
  Ho  Ho18  1  0.821498  0.532669  0.066463  1
  Ho  Ho19  1  0.322338  0.466586  0.435666  1
  Fe  Fe20  1  0.429510  0.750000  0.487794  1
  Co  Co21  1  0.934649  0.250000  0.008911  1
  Co  Co22  1  0.567813  0.250000  0.510068  1
  Ni  Ni23  1  0.066044  0.750000  0.991622  1
  Sb  Sb24  1  0.929753  0.992567  0.326680  1
  Sb  Sb25  1  0.428724  0.008465  0.171917  1
  Sb  Sb26  1  0.070107  0.491881  0.673641  1
  Sb  Sb27  1  0.570977  0.508486  0.827276  1
  Sb  Sb28  1  0.070107  0.008119  0.673641  1
  Sb  Sb29  1  0.570977  0.991514  0.827276  1
  Sb  Sb30  1  0.929753  0.507433  0.326680  1
  Sb  Sb31  1  0.428724  0.491535  0.171917  1
