# generated using pymatgen
data_Dy7Ho(SiBr6)2
_symmetry_space_group_name_H-M   'P 1'
_cell_length_a   4.05155000
_cell_length_b   13.20699406
_cell_length_c   13.99440206
_cell_angle_alpha   90.01059928
_cell_angle_beta   90.00000000
_cell_angle_gamma   90.00000000
_symmetry_Int_Tables_number   1
_chemical_formula_structural   Dy7Ho(SiBr6)2
_chemical_formula_sum   'Dy7 Ho1 Si2 Br12'
_cell_volume   748.82360292
_cell_formula_units_Z   1
loop_
 _symmetry_equiv_pos_site_id
 _symmetry_equiv_pos_as_xyz
  1  'x, y, z'
loop_
 _atom_site_type_symbol
 _atom_site_label
 _atom_site_symmetry_multiplicity
 _atom_site_fract_x
 _atom_site_fract_y
 _atom_site_fract_z
 _atom_site_occupancy
  Dy  Dy0  1  0.500000  0.118260  0.340943  1
  Dy  Dy1  1  0.500000  0.881743  0.659057  1
  Dy  Dy2  1  0.500000  0.618212  0.158991  1
  Dy  Dy3  1  0.000000  0.118043  0.578325  1
  Dy  Dy4  1  0.000000  0.881951  0.421672  1
  Dy  Dy5  1  0.000000  0.618007  0.921712  1
  Dy  Dy6  1  0.000000  0.382001  0.078298  1
  Ho  Ho7  1  0.500000  0.381889  0.841126  1
  Si  Si8  1  0.500000  0.000004  0.500006  1
  Si  Si9  1  0.500000  0.499814  0.999739  1
  Br  Br10  1  0.500000  0.243727  0.162513  1
  Br  Br11  1  0.500000  0.756264  0.837470  1
  Br  Br12  1  0.500000  0.743709  0.337442  1
  Br  Br13  1  0.500000  0.256465  0.662785  1
  Br  Br14  1  0.000000  0.256001  0.411339  1
  Br  Br15  1  0.000000  0.743993  0.588661  1
  Br  Br16  1  0.000000  0.755979  0.088671  1
  Br  Br17  1  0.000000  0.244348  0.911055  1
  Br  Br18  1  0.000000  0.001468  0.242584  1
  Br  Br19  1  0.000000  0.998533  0.757416  1
  Br  Br20  1  0.000000  0.501480  0.257402  1
  Br  Br21  1  0.000000  0.498108  0.742793  1
