# generated using pymatgen
data_Rb2ZnAs2O7
_symmetry_space_group_name_H-M   'P 1'
_cell_length_a   7.47003254
_cell_length_b   7.47003264
_cell_length_c   8.74494265
_cell_angle_alpha   78.79715098
_cell_angle_beta   78.79715044
_cell_angle_gamma   108.28309625
_symmetry_Int_Tables_number   1
_chemical_formula_structural   Rb2ZnAs2O7
_chemical_formula_sum   'Rb4 Zn2 As4 O14'
_cell_volume   437.11943456
_cell_formula_units_Z   2
loop_
 _symmetry_equiv_pos_site_id
 _symmetry_equiv_pos_as_xyz
  1  'x, y, z'
loop_
 _atom_site_type_symbol
 _atom_site_label
 _atom_site_symmetry_multiplicity
 _atom_site_fract_x
 _atom_site_fract_y
 _atom_site_fract_z
 _atom_site_occupancy
  Rb  Rb0  1  0.262312  0.184292  0.527185  1
  Rb  Rb1  1  0.184292  0.262312  0.027185  1
  Rb  Rb2  1  0.815708  0.737688  0.972815  1
  Rb  Rb3  1  0.737688  0.815708  0.472815  1
  Zn  Zn4  1  0.743747  0.256253  0.750000  1
  Zn  Zn5  1  0.256253  0.743747  0.250000  1
  As  As6  1  0.394174  0.838272  0.865413  1
  As  As7  1  0.161728  0.605826  0.634587  1
  As  As8  1  0.605826  0.161728  0.134587  1
  As  As9  1  0.838272  0.394174  0.365413  1
  O  O10  1  0.312464  0.625599  0.450760  1
  O  O11  1  0.969386  0.639196  0.268883  1
  O  O12  1  0.245875  0.966452  0.865535  1
  O  O13  1  0.033548  0.754125  0.634465  1
  O  O14  1  0.340848  0.659152  0.750000  1
  O  O15  1  0.030614  0.360804  0.731117  1
  O  O16  1  0.659152  0.340848  0.250000  1
  O  O17  1  0.639196  0.969386  0.768883  1
  O  O18  1  0.625599  0.312464  0.950760  1
  O  O19  1  0.754125  0.033548  0.134465  1
  O  O20  1  0.687536  0.374401  0.549240  1
  O  O21  1  0.966452  0.245875  0.365535  1
  O  O22  1  0.360804  0.030614  0.231117  1
  O  O23  1  0.374401  0.687536  0.049240  1
