# generated using pymatgen
data_NdEr7GaPd24
_symmetry_space_group_name_H-M   'P 1'
_cell_length_a   8.34049371
_cell_length_b   8.34049344
_cell_length_c   8.34049300
_cell_angle_alpha   90.05407743
_cell_angle_beta   89.94592257
_cell_angle_gamma   89.94591868
_symmetry_Int_Tables_number   1
_chemical_formula_structural   NdEr7GaPd24
_chemical_formula_sum   'Nd1 Er7 Ga1 Pd24'
_cell_volume   580.19588718
_cell_formula_units_Z   1
loop_
 _symmetry_equiv_pos_site_id
 _symmetry_equiv_pos_as_xyz
  1  'x, y, z'
loop_
 _atom_site_type_symbol
 _atom_site_label
 _atom_site_symmetry_multiplicity
 _atom_site_fract_x
 _atom_site_fract_y
 _atom_site_fract_z
 _atom_site_occupancy
  Nd  Nd0  1  0.747936  0.252064  0.252064  1
  Er  Er1  1  0.251955  0.251740  0.251740  1
  Er  Er2  1  0.748206  0.748367  0.748367  1
  Er  Er3  1  0.748260  0.748045  0.251740  1
  Er  Er4  1  0.748260  0.251740  0.748045  1
  Er  Er5  1  0.251633  0.251794  0.748367  1
  Er  Er6  1  0.251633  0.748367  0.251794  1
  Er  Er7  1  0.252074  0.747926  0.747926  1
  Ga  Ga8  1  0.000069  0.999931  0.999931  1
  Pd  Pd9  1  0.259598  0.500528  0.999752  1
  Pd  Pd10  1  0.740786  0.502513  0.996455  1
  Pd  Pd11  1  0.003545  0.259214  0.502513  1
  Pd  Pd12  1  0.497487  0.259214  0.996455  1
  Pd  Pd13  1  0.000248  0.740402  0.500528  1
  Pd  Pd14  1  0.499472  0.740402  0.999752  1
  Pd  Pd15  1  0.497487  0.996455  0.259214  1
  Pd  Pd16  1  0.259598  0.999752  0.500528  1
  Pd  Pd17  1  0.499472  0.999752  0.740402  1
  Pd  Pd18  1  0.740786  0.996455  0.502513  1
  Pd  Pd19  1  0.003545  0.502513  0.259214  1
  Pd  Pd20  1  0.000248  0.500528  0.740402  1
  Pd  Pd21  1  0.252575  0.500311  0.500311  1
  Pd  Pd22  1  0.747420  0.503439  0.503439  1
  Pd  Pd23  1  0.496561  0.252580  0.503439  1
  Pd  Pd24  1  0.499689  0.747425  0.500311  1
  Pd  Pd25  1  0.496561  0.503439  0.252580  1
  Pd  Pd26  1  0.499689  0.500311  0.747425  1
  Pd  Pd27  1  0.289991  0.999850  0.999850  1
  Pd  Pd28  1  0.709323  0.997202  0.997202  1
  Pd  Pd29  1  0.002798  0.290677  0.997202  1
  Pd  Pd30  1  0.000150  0.710009  0.999850  1
  Pd  Pd31  1  0.002798  0.997202  0.290677  1
  Pd  Pd32  1  0.000150  0.999850  0.710009  1
