# generated using pymatgen
data_Tb6MnFe4Co13P12
_symmetry_space_group_name_H-M   'P 1'
_cell_length_a   3.72586300
_cell_length_b   10.63500677
_cell_length_c   12.16326362
_cell_angle_alpha   89.93738708
_cell_angle_beta   90.00000000
_cell_angle_gamma   90.00000000
_symmetry_Int_Tables_number   1
_chemical_formula_structural   Tb6MnFe4Co13P12
_chemical_formula_sum   'Tb6 Mn1 Fe4 Co13 P12'
_cell_volume   481.96390299
_cell_formula_units_Z   1
loop_
 _symmetry_equiv_pos_site_id
 _symmetry_equiv_pos_as_xyz
  1  'x, y, z'
loop_
 _atom_site_type_symbol
 _atom_site_label
 _atom_site_symmetry_multiplicity
 _atom_site_fract_x
 _atom_site_fract_y
 _atom_site_fract_z
 _atom_site_occupancy
  Tb  Tb0  1  0.000000  0.499971  0.523736  1
  Tb  Tb1  1  0.500000  0.000316  0.478141  1
  Tb  Tb2  1  0.500000  0.820606  0.204847  1
  Tb  Tb3  1  0.500000  0.180117  0.204418  1
  Tb  Tb4  1  0.000000  0.679797  0.796253  1
  Tb  Tb5  1  0.000000  0.319070  0.796607  1
  Mn  Mn6  1  0.500000  0.500354  0.152515  1
  Fe  Fe7  1  0.000000  0.999079  0.844539  1
  Fe  Fe8  1  0.000000  0.502255  0.989571  1
  Fe  Fe9  1  0.500000  0.999128  0.010393  1
  Fe  Fe10  1  0.500000  0.331538  0.996155  1
  Co  Co11  1  0.500000  0.500541  0.701663  1
  Co  Co12  1  0.000000  0.000085  0.298093  1
  Co  Co13  1  0.500000  0.669622  0.995122  1
  Co  Co14  1  0.000000  0.165190  0.004223  1
  Co  Co15  1  0.000000  0.832421  0.004304  1
  Co  Co16  1  0.500000  0.296715  0.430112  1
  Co  Co17  1  0.500000  0.703579  0.430009  1
  Co  Co18  1  0.000000  0.203588  0.569435  1
  Co  Co19  1  0.000000  0.796549  0.569526  1
  Co  Co20  1  0.500000  0.879243  0.708870  1
  Co  Co21  1  0.500000  0.120545  0.709410  1
  Co  Co22  1  0.000000  0.620860  0.290768  1
  Co  Co23  1  0.000000  0.379193  0.290079  1
  P  P24  1  0.500000  0.498782  0.886380  1
  P  P25  1  0.000000  0.999419  0.113944  1
  P  P26  1  0.500000  0.499820  0.345398  1
  P  P27  1  0.000000  0.000156  0.658942  1
  P  P28  1  0.500000  0.309103  0.617058  1
  P  P29  1  0.500000  0.691034  0.616524  1
  P  P30  1  0.000000  0.190587  0.384100  1
  P  P31  1  0.000000  0.809890  0.384299  1
  P  P32  1  0.500000  0.847825  0.892633  1
  P  P33  1  0.500000  0.153248  0.894137  1
  P  P34  1  0.000000  0.655630  0.105346  1
  P  P35  1  0.000000  0.344144  0.102450  1
