# generated using pymatgen
data_Hg11(IO)4
_symmetry_space_group_name_H-M   'P 1'
_cell_length_a   6.86691678
_cell_length_b   7.30761105
_cell_length_c   10.72821746
_cell_angle_alpha   98.01493048
_cell_angle_beta   92.31472755
_cell_angle_gamma   90.30920122
_symmetry_Int_Tables_number   1
_chemical_formula_structural   Hg11(IO)4
_chemical_formula_sum   'Hg11 I4 O4'
_cell_volume   532.62328047
_cell_formula_units_Z   1
loop_
 _symmetry_equiv_pos_site_id
 _symmetry_equiv_pos_as_xyz
  1  'x, y, z'
loop_
 _atom_site_type_symbol
 _atom_site_label
 _atom_site_symmetry_multiplicity
 _atom_site_fract_x
 _atom_site_fract_y
 _atom_site_fract_z
 _atom_site_occupancy
  Hg  Hg0  1  0.056791  0.141328  0.645484  1
  Hg  Hg1  1  0.943105  0.858657  0.354625  1
  Hg  Hg2  1  0.861882  0.384331  0.795926  1
  Hg  Hg3  1  0.138119  0.615914  0.203980  1
  Hg  Hg4  1  0.687056  0.468909  0.119750  1
  Hg  Hg5  1  0.312830  0.530847  0.880050  1
  Hg  Hg6  1  0.500194  0.000387  0.500223  1
  Hg  Hg7  1  0.879668  0.854254  0.981380  1
  Hg  Hg8  1  0.120238  0.145566  0.018504  1
  Hg  Hg9  1  0.722662  0.297908  0.320170  1
  Hg  Hg10  1  0.277470  0.701685  0.679552  1
  I  I11  1  0.756954  0.652046  0.582803  1
  I  I12  1  0.243180  0.348058  0.417075  1
  I  I13  1  0.503561  0.116879  0.833941  1
  I  I14  1  0.496499  0.882903  0.166498  1
  O  O15  1  0.734688  0.582668  0.941654  1
  O  O16  1  0.264893  0.417352  0.058198  1
  O  O17  1  0.225515  0.905346  0.547693  1
  O  O18  1  0.774692  0.094963  0.452494  1
