# generated using pymatgen
data_Hf2Pa(AlCo)3
_symmetry_space_group_name_H-M   'P 1'
_cell_length_a   6.84404321
_cell_length_b   6.84234805
_cell_length_c   7.17767000
_cell_angle_alpha   90.00000000
_cell_angle_beta   90.00000000
_cell_angle_gamma   120.95015028
_symmetry_Int_Tables_number   1
_chemical_formula_structural   Hf2Pa(AlCo)3
_chemical_formula_sum   'Hf4 Pa2 Al6 Co6'
_cell_volume   288.26625182
_cell_formula_units_Z   2
loop_
 _symmetry_equiv_pos_site_id
 _symmetry_equiv_pos_as_xyz
  1  'x, y, z'
loop_
 _atom_site_type_symbol
 _atom_site_label
 _atom_site_symmetry_multiplicity
 _atom_site_fract_x
 _atom_site_fract_y
 _atom_site_fract_z
 _atom_site_occupancy
  Hf  Hf0  1  0.587224  0.998728  0.750000  1
  Hf  Hf1  1  0.998675  0.587140  0.750000  1
  Hf  Hf2  1  0.426511  0.426609  0.750000  1
  Hf  Hf3  1  0.401120  0.401224  0.250000  1
  Pa  Pa4  1  0.007195  0.580597  0.250000  1
  Pa  Pa5  1  0.580531  0.007244  0.250000  1
  Al  Al6  1  0.748526  0.748534  0.007668  1
  Al  Al7  1  0.242673  0.009239  0.982758  1
  Al  Al8  1  0.009252  0.242649  0.982835  1
  Al  Al9  1  0.748526  0.748534  0.492332  1
  Al  Al10  1  0.242673  0.009239  0.517242  1
  Al  Al11  1  0.009252  0.242649  0.517165  1
  Co  Co12  1  0.973146  0.973146  0.750000  1
  Co  Co13  1  0.006630  0.006525  0.250000  1
  Co  Co14  1  0.677080  0.331911  0.002633  1
  Co  Co15  1  0.677080  0.331911  0.497367  1
  Co  Co16  1  0.331954  0.677062  0.497384  1
  Co  Co17  1  0.331954  0.677062  0.002617  1
