# generated using pymatgen
data_Tb3Er9InCo4Ru
_symmetry_space_group_name_H-M   'P 1'
_cell_length_a   8.23105845
_cell_length_b   8.23105867
_cell_length_c   8.23038942
_cell_angle_alpha   111.13103039
_cell_angle_beta   110.87254524
_cell_angle_gamma   106.45522639
_symmetry_Int_Tables_number   1
_chemical_formula_structural   Tb3Er9InCo4Ru
_chemical_formula_sum   'Tb3 Er9 In1 Co4 Ru1'
_cell_volume   428.34172317
_cell_formula_units_Z   1
loop_
 _symmetry_equiv_pos_site_id
 _symmetry_equiv_pos_as_xyz
  1  'x, y, z'
loop_
 _atom_site_type_symbol
 _atom_site_label
 _atom_site_symmetry_multiplicity
 _atom_site_fract_x
 _atom_site_fract_y
 _atom_site_fract_z
 _atom_site_occupancy
  Tb  Tb0  1  0.184187  0.283414  0.467601  1
  Tb  Tb1  1  0.815290  0.716393  0.531684  1
  Tb  Tb2  1  0.184839  0.716637  0.901476  1
  Er  Er3  1  0.815597  0.283140  0.098736  1
  Er  Er4  1  0.313996  0.620165  0.305764  1
  Er  Er5  1  0.685670  0.379568  0.694447  1
  Er  Er6  1  0.314879  0.008777  0.694447  1
  Er  Er7  1  0.685598  0.991768  0.305764  1
  Er  Er8  1  0.413347  0.219296  0.193564  1
  Er  Er9  1  0.587239  0.781296  0.806695  1
  Er  Er10  1  0.025399  0.219456  0.806695  1
  Er  Er11  1  0.974268  0.780217  0.193564  1
  In  In12  1  0.500165  0.499827  0.999992  1
  Co  Co13  1  0.111905  0.611756  0.499386  1
  Co  Co14  1  0.887629  0.387480  0.499386  1
  Co  Co15  1  0.376277  0.999951  0.376228  1
  Co  Co16  1  0.623955  0.000323  0.624278  1
  Ru  Ru17  1  0.999759  0.000535  0.000294  1
