# generated using pymatgen
data_Yb4HgPdN2
_symmetry_space_group_name_H-M   'P 1'
_cell_length_a   9.31276752
_cell_length_b   9.31276841
_cell_length_c   4.91152100
_cell_angle_alpha   90.00000000
_cell_angle_beta   90.00000000
_cell_angle_gamma   158.70452600
_symmetry_Int_Tables_number   1
_chemical_formula_structural   Yb4HgPdN2
_chemical_formula_sum   'Yb4 Hg1 Pd1 N2'
_cell_volume   154.70083654
_cell_formula_units_Z   1
loop_
 _symmetry_equiv_pos_site_id
 _symmetry_equiv_pos_as_xyz
  1  'x, y, z'
loop_
 _atom_site_type_symbol
 _atom_site_label
 _atom_site_symmetry_multiplicity
 _atom_site_fract_x
 _atom_site_fract_y
 _atom_site_fract_z
 _atom_site_occupancy
  Yb  Yb0  1  0.286370  0.713629  0.249999  1
  Yb  Yb1  1  0.106409  0.893590  0.249999  1
  Yb  Yb2  1  0.892560  0.107439  0.750000  1
  Yb  Yb3  1  0.717967  0.282032  0.750000  1
  Hg  Hg4  1  0.539460  0.460539  0.750000  1
  Pd  Pd5  1  0.458337  0.541662  0.249999  1
  N  N6  1  0.694175  0.305824  0.249999  1
  N  N7  1  0.304717  0.695282  0.750000  1
