# generated using pymatgen
data_LiTb5NdRh17
_symmetry_space_group_name_H-M   'P 1'
_cell_length_a   5.30705000
_cell_length_b   5.30674835
_cell_length_c   17.39222500
_cell_angle_alpha   90.00000000
_cell_angle_beta   90.00000000
_cell_angle_gamma   120.00466102
_symmetry_Int_Tables_number   1
_chemical_formula_structural   LiTb5NdRh17
_chemical_formula_sum   'Li1 Tb5 Nd1 Rh17'
_cell_volume   424.17693564
_cell_formula_units_Z   1
loop_
 _symmetry_equiv_pos_site_id
 _symmetry_equiv_pos_as_xyz
  1  'x, y, z'
loop_
 _atom_site_type_symbol
 _atom_site_label
 _atom_site_symmetry_multiplicity
 _atom_site_fract_x
 _atom_site_fract_y
 _atom_site_fract_z
 _atom_site_occupancy
  Li  Li0  1  0.000017  0.000066  0.250000  1
  Tb  Tb1  1  0.333329  0.666652  0.539648  1
  Tb  Tb2  1  0.666668  0.333341  0.041591  1
  Tb  Tb3  1  0.666668  0.333341  0.458409  1
  Tb  Tb4  1  0.333329  0.666652  0.960352  1
  Tb  Tb5  1  0.333334  0.666661  0.750000  1
  Nd  Nd6  1  0.666661  0.333343  0.250000  1
  Rh  Rh7  1  0.167736  0.335474  0.125281  1
  Rh  Rh8  1  0.832369  0.664720  0.625147  1
  Rh  Rh9  1  0.664523  0.832268  0.125287  1
  Rh  Rh10  1  0.167739  0.832269  0.125292  1
  Rh  Rh11  1  0.832368  0.167622  0.625168  1
  Rh  Rh12  1  0.335275  0.167632  0.625155  1
  Rh  Rh13  1  0.832369  0.664720  0.874853  1
  Rh  Rh14  1  0.832368  0.167622  0.874832  1
  Rh  Rh15  1  0.335275  0.167632  0.874845  1
  Rh  Rh16  1  0.664523  0.832268  0.374713  1
  Rh  Rh17  1  0.167739  0.832269  0.374708  1
  Rh  Rh18  1  0.167736  0.335474  0.374719  1
  Rh  Rh19  1  0.999993  0.999973  0.750000  1
  Rh  Rh20  1  0.333327  0.666659  0.250000  1
  Rh  Rh21  1  0.666671  0.333352  0.750000  1
  Rh  Rh22  1  0.999992  0.999994  0.001404  1
  Rh  Rh23  1  0.999992  0.999994  0.498596  1
