# generated using pymatgen
data_ErTh3(PdPt2)4
_symmetry_space_group_name_H-M   'P 1'
_cell_length_a   5.93360400
_cell_length_b   5.93523238
_cell_length_c   9.74943100
_cell_angle_alpha   90.00000000
_cell_angle_beta   90.00000000
_cell_angle_gamma   119.99092474
_symmetry_Int_Tables_number   1
_chemical_formula_structural   ErTh3(PdPt2)4
_chemical_formula_sum   'Er1 Th3 Pd4 Pt8'
_cell_volume   297.37598649
_cell_formula_units_Z   1
loop_
 _symmetry_equiv_pos_site_id
 _symmetry_equiv_pos_as_xyz
  1  'x, y, z'
loop_
 _atom_site_type_symbol
 _atom_site_label
 _atom_site_symmetry_multiplicity
 _atom_site_fract_x
 _atom_site_fract_y
 _atom_site_fract_z
 _atom_site_occupancy
  Er  Er0  1  0.333835  0.667671  0.250000  1
  Th  Th1  1  0.000137  0.000274  0.495383  1
  Th  Th2  1  0.000137  0.000274  0.004617  1
  Th  Th3  1  0.665937  0.331873  0.750000  1
  Pd  Pd4  1  0.349391  0.174221  0.250000  1
  Pd  Pd5  1  0.824830  0.174221  0.250000  1
  Pd  Pd6  1  0.652163  0.826253  0.750000  1
  Pd  Pd7  1  0.174091  0.826253  0.750000  1
  Pt  Pt8  1  0.499361  0.501100  0.497798  1
  Pt  Pt9  1  0.499203  0.998404  0.498027  1
  Pt  Pt10  1  0.001741  0.501100  0.497798  1
  Pt  Pt11  1  0.499361  0.501100  0.002202  1
  Pt  Pt12  1  0.499203  0.998404  0.001973  1
  Pt  Pt13  1  0.001741  0.501100  0.002202  1
  Pt  Pt14  1  0.823830  0.647659  0.250000  1
  Pt  Pt15  1  0.175045  0.350088  0.750000  1
