# generated using pymatgen
data_TbY2In3Rh2Au
_symmetry_space_group_name_H-M   'P 1'
_cell_length_a   7.77471782
_cell_length_b   7.77990040
_cell_length_c   3.82408200
_cell_angle_alpha   90.00000000
_cell_angle_beta   90.00000000
_cell_angle_gamma   120.05638851
_symmetry_Int_Tables_number   1
_chemical_formula_structural   TbY2In3Rh2Au
_chemical_formula_sum   'Tb1 Y2 In3 Rh2 Au1'
_cell_volume   200.20247875
_cell_formula_units_Z   1
loop_
 _symmetry_equiv_pos_site_id
 _symmetry_equiv_pos_as_xyz
  1  'x, y, z'
loop_
 _atom_site_type_symbol
 _atom_site_label
 _atom_site_symmetry_multiplicity
 _atom_site_fract_x
 _atom_site_fract_y
 _atom_site_fract_z
 _atom_site_occupancy
  Tb  Tb0  1  0.980490  0.586756  0.500000  1
  Y  Y1  1  0.412354  0.393671  0.500000  1
  Y  Y2  1  0.606327  0.019059  0.500000  1
  In  In3  1  0.997635  0.255398  0.000000  1
  In  In4  1  0.258880  0.002692  0.000000  1
  In  In5  1  0.743325  0.741824  0.000000  1
  Rh  Rh6  1  0.999941  0.999210  0.500000  1
  Rh  Rh7  1  0.668299  0.334833  0.000000  1
  Au  Au8  1  0.332749  0.666555  0.000000  1
