# generated using pymatgen
data_Ba6Na2SbP2RuO17
_symmetry_space_group_name_H-M   'P 1'
_cell_length_a   5.86927200
_cell_length_b   5.86927230
_cell_length_c   29.62474800
_cell_angle_alpha   90.00000000
_cell_angle_beta   90.00000000
_cell_angle_gamma   119.99999831
_symmetry_Int_Tables_number   1
_chemical_formula_structural   Ba6Na2SbP2RuO17
_chemical_formula_sum   'Ba12 Na4 Sb2 P4 Ru2 O34'
_cell_volume   883.79959673
_cell_formula_units_Z   2
loop_
 _symmetry_equiv_pos_site_id
 _symmetry_equiv_pos_as_xyz
  1  'x, y, z'
loop_
 _atom_site_type_symbol
 _atom_site_label
 _atom_site_symmetry_multiplicity
 _atom_site_fract_x
 _atom_site_fract_y
 _atom_site_fract_z
 _atom_site_occupancy
  Ba  Ba0  1  0.333333  0.666667  0.178182  1
  Ba  Ba1  1  0.333333  0.666667  0.587961  1
  Ba  Ba2  1  0.000000  0.000000  0.000261  1
  Ba  Ba3  1  0.000000  0.000000  0.250000  1
  Ba  Ba4  1  0.333333  0.666667  0.321818  1
  Ba  Ba5  1  0.000000  0.000000  0.499739  1
  Ba  Ba6  1  0.000000  0.000000  0.750000  1
  Ba  Ba7  1  0.333333  0.666667  0.912039  1
  Ba  Ba8  1  0.666667  0.333333  0.089844  1
  Ba  Ba9  1  0.666667  0.333333  0.826786  1
  Ba  Ba10  1  0.666667  0.333333  0.673214  1
  Ba  Ba11  1  0.666667  0.333333  0.410156  1
  Na  Na12  1  0.000000  0.000000  0.121703  1
  Na  Na13  1  0.000000  0.000000  0.378297  1
  Na  Na14  1  0.000000  0.000000  0.621158  1
  Na  Na15  1  0.000000  0.000000  0.878842  1
  Sb  Sb16  1  0.333333  0.666667  0.701490  1
  Sb  Sb17  1  0.333333  0.666667  0.798510  1
  P  P18  1  0.333333  0.666667  0.053077  1
  P  P19  1  0.333333  0.666667  0.446923  1
  P  P20  1  0.666667  0.333333  0.551860  1
  P  P21  1  0.666667  0.333333  0.948140  1
  Ru  Ru22  1  0.666667  0.333333  0.203012  1
  Ru  Ru23  1  0.666667  0.333333  0.296988  1
  O  O24  1  0.171331  0.828669  0.667257  1
  O  O25  1  0.171331  0.828669  0.832743  1
  O  O26  1  0.973987  0.486994  0.250000  1
  O  O27  1  0.188753  0.811247  0.071722  1
  O  O28  1  0.188753  0.811247  0.428278  1
  O  O29  1  0.513006  0.026013  0.250000  1
  O  O30  1  0.188753  0.377505  0.071722  1
  O  O31  1  0.171331  0.342661  0.667257  1
  O  O32  1  0.333333  0.666667  0.498968  1
  O  O33  1  0.333333  0.666667  0.001032  1
  O  O34  1  0.188753  0.377505  0.428278  1
  O  O35  1  0.171331  0.342661  0.832743  1
  O  O36  1  0.622495  0.811247  0.071722  1
  O  O37  1  0.622495  0.811247  0.428278  1
  O  O38  1  0.351745  0.175873  0.168343  1
  O  O39  1  0.351745  0.175873  0.331657  1
  O  O40  1  0.513006  0.486994  0.250000  1
  O  O41  1  0.484161  0.515839  0.750000  1
  O  O42  1  0.657339  0.828669  0.667257  1
  O  O43  1  0.657339  0.828669  0.832743  1
  O  O44  1  0.377991  0.188996  0.570717  1
  O  O45  1  0.377991  0.188996  0.929283  1
  O  O46  1  0.484161  0.968321  0.750000  1
  O  O47  1  0.666667  0.333333  0.499850  1
  O  O48  1  0.666667  0.333333  0.000150  1
  O  O49  1  0.824127  0.648255  0.168343  1
  O  O50  1  0.824127  0.648255  0.331657  1
  O  O51  1  0.811004  0.622009  0.570717  1
  O  O52  1  0.811004  0.622009  0.929283  1
  O  O53  1  0.811004  0.188996  0.570717  1
  O  O54  1  0.811004  0.188996  0.929283  1
  O  O55  1  0.031679  0.515839  0.750000  1
  O  O56  1  0.824127  0.175873  0.168343  1
  O  O57  1  0.824127  0.175873  0.331657  1
