# generated using pymatgen
data_BaLi2La2Al7
_symmetry_space_group_name_H-M   'P 1'
_cell_length_a   9.81454990
_cell_length_b   9.81455122
_cell_length_c   9.81454959
_cell_angle_alpha   34.21058382
_cell_angle_beta   34.21058445
_cell_angle_gamma   34.21057708
_symmetry_Int_Tables_number   1
_chemical_formula_structural   BaLi2La2Al7
_chemical_formula_sum   'Ba1 Li2 La2 Al7'
_cell_volume   266.47859219
_cell_formula_units_Z   1
loop_
 _symmetry_equiv_pos_site_id
 _symmetry_equiv_pos_as_xyz
  1  'x, y, z'
loop_
 _atom_site_type_symbol
 _atom_site_label
 _atom_site_symmetry_multiplicity
 _atom_site_fract_x
 _atom_site_fract_y
 _atom_site_fract_z
 _atom_site_occupancy
  Ba  Ba0  1  0.000000  0.000000  0.000000  1
  Li  Li1  1  0.664648  0.664648  0.664648  1
  Li  Li2  1  0.335352  0.335352  0.335352  1
  La  La3  1  0.141815  0.141815  0.141815  1
  La  La4  1  0.858185  0.858185  0.858185  1
  Al  Al5  1  0.411159  0.411159  0.922884  1
  Al  Al6  1  0.922884  0.411159  0.411159  1
  Al  Al7  1  0.500000  0.500000  0.500000  1
  Al  Al8  1  0.588841  0.588841  0.077116  1
  Al  Al9  1  0.411159  0.922884  0.411159  1
  Al  Al10  1  0.077116  0.588841  0.588841  1
  Al  Al11  1  0.588841  0.077116  0.588841  1
