# generated using pymatgen
data_La7Pa(GaRh)8
_symmetry_space_group_name_H-M   'P 1'
_cell_length_a   4.18967500
_cell_length_b   7.36633966
_cell_length_c   16.28486090
_cell_angle_alpha   89.31061218
_cell_angle_beta   90.00000000
_cell_angle_gamma   90.00000000
_symmetry_Int_Tables_number   1
_chemical_formula_structural   La7Pa(GaRh)8
_chemical_formula_sum   'La7 Pa1 Ga8 Rh8'
_cell_volume   502.55626476
_cell_formula_units_Z   1
loop_
 _symmetry_equiv_pos_site_id
 _symmetry_equiv_pos_as_xyz
  1  'x, y, z'
loop_
 _atom_site_type_symbol
 _atom_site_label
 _atom_site_symmetry_multiplicity
 _atom_site_fract_x
 _atom_site_fract_y
 _atom_site_fract_z
 _atom_site_occupancy
  La  La0  1  0.750000  0.473018  0.218436  1
  La  La1  1  0.750000  0.969918  0.281893  1
  La  La2  1  0.250000  0.032298  0.720458  1
  La  La3  1  0.250000  0.656830  0.559176  1
  La  La4  1  0.750000  0.330860  0.442328  1
  La  La5  1  0.750000  0.842841  0.056331  1
  La  La6  1  0.250000  0.170711  0.939748  1
  Pa  Pa7  1  0.250000  0.533833  0.780791  1
  Ga  Ga8  1  0.250000  0.636009  0.350581  1
  Ga  Ga9  1  0.750000  0.361520  0.650714  1
  Ga  Ga10  1  0.750000  0.862125  0.849102  1
  Ga  Ga11  1  0.250000  0.136800  0.148650  1
  Ga  Ga12  1  0.250000  0.507194  0.060802  1
  Ga  Ga13  1  0.750000  0.499019  0.938913  1
  Ga  Ga14  1  0.750000  0.986821  0.565387  1
  Ga  Ga15  1  0.250000  0.000561  0.439266  1
  Rh  Rh16  1  0.250000  0.762739  0.177696  1
  Rh  Rh17  1  0.750000  0.277941  0.813743  1
  Rh  Rh18  1  0.750000  0.717369  0.694283  1
  Rh  Rh19  1  0.250000  0.262006  0.320150  1
  Rh  Rh20  1  0.250000  0.713358  0.917572  1
  Rh  Rh21  1  0.750000  0.274345  0.071636  1
  Rh  Rh22  1  0.750000  0.772334  0.429698  1
  Rh  Rh23  1  0.250000  0.219545  0.572645  1
