# generated using pymatgen
data_Pr4UBiS10
_symmetry_space_group_name_H-M   'P 1'
_cell_length_a   7.62380600
_cell_length_b   8.14242900
_cell_length_c   12.03205000
_cell_angle_alpha   90.00000000
_cell_angle_beta   90.00000000
_cell_angle_gamma   90.00000000
_symmetry_Int_Tables_number   1
_chemical_formula_structural   Pr4UBiS10
_chemical_formula_sum   'Pr8 U2 Bi2 S20'
_cell_volume   746.90513416
_cell_formula_units_Z   2
loop_
 _symmetry_equiv_pos_site_id
 _symmetry_equiv_pos_as_xyz
  1  'x, y, z'
loop_
 _atom_site_type_symbol
 _atom_site_label
 _atom_site_symmetry_multiplicity
 _atom_site_fract_x
 _atom_site_fract_y
 _atom_site_fract_z
 _atom_site_occupancy
  Pr  Pr0  1  0.526939  0.501335  0.324345  1
  Pr  Pr1  1  0.973061  0.998665  0.824345  1
  Pr  Pr2  1  0.476214  0.998597  0.675794  1
  Pr  Pr3  1  0.023786  0.501403  0.175794  1
  Pr  Pr4  1  0.476214  0.501403  0.675794  1
  Pr  Pr5  1  0.023786  0.998597  0.175794  1
  Pr  Pr6  1  0.526939  0.998665  0.324345  1
  Pr  Pr7  1  0.973061  0.501335  0.824345  1
  U  U8  1  0.943197  0.250000  0.505594  1
  U  U9  1  0.556803  0.250000  0.005594  1
  Bi  Bi10  1  0.062773  0.750000  0.492480  1
  Bi  Bi11  1  0.437227  0.750000  0.992480  1
  S  S12  1  0.836607  0.976517  0.597611  1
  S  S13  1  0.663393  0.523483  0.097611  1
  S  S14  1  0.161776  0.451646  0.403941  1
  S  S15  1  0.338224  0.048354  0.903941  1
  S  S16  1  0.161776  0.048354  0.403941  1
  S  S17  1  0.338224  0.451646  0.903941  1
  S  S18  1  0.836607  0.523483  0.597611  1
  S  S19  1  0.663393  0.976517  0.097611  1
  S  S20  1  0.827494  0.750000  0.308597  1
  S  S21  1  0.672506  0.750000  0.808597  1
  S  S22  1  0.166555  0.250000  0.683125  1
  S  S23  1  0.333445  0.250000  0.183125  1
  S  S24  1  0.464684  0.750000  0.498594  1
  S  S25  1  0.035316  0.750000  0.998594  1
  S  S26  1  0.550879  0.250000  0.500676  1
  S  S27  1  0.949121  0.250000  0.000676  1
  S  S28  1  0.194133  0.750000  0.715460  1
  S  S29  1  0.305867  0.750000  0.215460  1
  S  S30  1  0.809658  0.250000  0.292090  1
  S  S31  1  0.690342  0.250000  0.792090  1
