# generated using pymatgen
data_YbSmTmGa8Ag3
_symmetry_space_group_name_H-M   'P 1'
_cell_length_a   4.38210282
_cell_length_b   8.35136328
_cell_length_c   8.35136314
_cell_angle_alpha   70.63017676
_cell_angle_beta   74.78994479
_cell_angle_gamma   74.78995040
_symmetry_Int_Tables_number   1
_chemical_formula_structural   YbSmTmGa8Ag3
_chemical_formula_sum   'Yb1 Sm1 Tm1 Ga8 Ag3'
_cell_volume   273.02150985
_cell_formula_units_Z   1
loop_
 _symmetry_equiv_pos_site_id
 _symmetry_equiv_pos_as_xyz
  1  'x, y, z'
loop_
 _atom_site_type_symbol
 _atom_site_label
 _atom_site_symmetry_multiplicity
 _atom_site_fract_x
 _atom_site_fract_y
 _atom_site_fract_z
 _atom_site_occupancy
  Yb  Yb0  1  0.197727  0.802273  0.802273  1
  Sm  Sm1  1  0.500382  0.499618  0.499618  1
  Tm  Tm2  1  0.799804  0.200196  0.200196  1
  Ga  Ga3  1  0.357674  0.359409  0.925244  1
  Ga  Ga4  1  0.644734  0.636792  0.073741  1
  Ga  Ga5  1  0.357674  0.925244  0.359409  1
  Ga  Ga6  1  0.644734  0.073741  0.636792  1
  Ga  Ga7  1  0.160530  0.469341  0.209597  1
  Ga  Ga8  1  0.837818  0.530279  0.794086  1
  Ga  Ga9  1  0.160530  0.209597  0.469341  1
  Ga  Ga10  1  0.837818  0.794086  0.530279  1
  Ag  Ag11  1  0.499885  0.000115  0.000115  1
  Ag  Ag12  1  0.000345  0.804724  0.194585  1
  Ag  Ag13  1  0.000345  0.194585  0.804724  1
