# generated using pymatgen
data_Dy3Ho2Bi2Ru
_symmetry_space_group_name_H-M   'P 1'
_cell_length_a   7.96163000
_cell_length_b   9.01390800
_cell_length_c   12.44954600
_cell_angle_alpha   90.00000000
_cell_angle_beta   90.00000000
_cell_angle_gamma   90.00000000
_symmetry_Int_Tables_number   1
_chemical_formula_structural   Dy3Ho2Bi2Ru
_chemical_formula_sum   'Dy12 Ho8 Bi8 Ru4'
_cell_volume   893.44665287
_cell_formula_units_Z   4
loop_
 _symmetry_equiv_pos_site_id
 _symmetry_equiv_pos_as_xyz
  1  'x, y, z'
loop_
 _atom_site_type_symbol
 _atom_site_label
 _atom_site_symmetry_multiplicity
 _atom_site_fract_x
 _atom_site_fract_y
 _atom_site_fract_z
 _atom_site_occupancy
  Dy  Dy0  1  0.842643  0.750000  0.793320  1
  Dy  Dy1  1  0.157357  0.250000  0.206680  1
  Dy  Dy2  1  0.342643  0.250000  0.706680  1
  Dy  Dy3  1  0.657357  0.750000  0.293320  1
  Dy  Dy4  1  0.375885  0.750000  0.691594  1
  Dy  Dy5  1  0.624115  0.250000  0.308406  1
  Dy  Dy6  1  0.875885  0.250000  0.808406  1
  Dy  Dy7  1  0.124115  0.750000  0.191594  1
  Dy  Dy8  1  0.946298  0.750000  0.504340  1
  Dy  Dy9  1  0.053702  0.250000  0.495660  1
  Dy  Dy10  1  0.446298  0.250000  0.995660  1
  Dy  Dy11  1  0.553702  0.750000  0.004340  1
  Ho  Ho12  1  0.674549  0.041680  0.563984  1
  Ho  Ho13  1  0.325451  0.958320  0.436016  1
  Ho  Ho14  1  0.174549  0.958320  0.936016  1
  Ho  Ho15  1  0.325451  0.541680  0.436016  1
  Ho  Ho16  1  0.825451  0.041680  0.063984  1
  Ho  Ho17  1  0.674549  0.458320  0.563984  1
  Ho  Ho18  1  0.825451  0.458320  0.063984  1
  Ho  Ho19  1  0.174549  0.541680  0.936016  1
  Bi  Bi20  1  0.568885  0.493196  0.827369  1
  Bi  Bi21  1  0.431115  0.506804  0.172631  1
  Bi  Bi22  1  0.068885  0.506804  0.672631  1
  Bi  Bi23  1  0.431115  0.993196  0.172631  1
  Bi  Bi24  1  0.931115  0.493196  0.327369  1
  Bi  Bi25  1  0.568885  0.006804  0.827369  1
  Bi  Bi26  1  0.931115  0.006804  0.327369  1
  Bi  Bi27  1  0.068885  0.993196  0.672631  1
  Ru  Ru28  1  0.572779  0.750000  0.510749  1
  Ru  Ru29  1  0.427221  0.250000  0.489251  1
  Ru  Ru30  1  0.072779  0.250000  0.989251  1
  Ru  Ru31  1  0.927221  0.750000  0.010749  1
