# generated using pymatgen
data_Ba(ZrS2)3
_symmetry_space_group_name_H-M   'P 1'
_cell_length_a   6.33037766
_cell_length_b   6.33037876
_cell_length_c   7.93666798
_cell_angle_alpha   97.65401768
_cell_angle_beta   97.65402405
_cell_angle_gamma   119.95950594
_symmetry_Int_Tables_number   1
_chemical_formula_structural   Ba(ZrS2)3
_chemical_formula_sum   'Ba1 Zr3 S6'
_cell_volume   265.60906308
_cell_formula_units_Z   1
loop_
 _symmetry_equiv_pos_site_id
 _symmetry_equiv_pos_as_xyz
  1  'x, y, z'
loop_
 _atom_site_type_symbol
 _atom_site_label
 _atom_site_symmetry_multiplicity
 _atom_site_fract_x
 _atom_site_fract_y
 _atom_site_fract_z
 _atom_site_occupancy
  Ba  Ba0  1  0.000000  0.000000  0.500000  1
  Zr  Zr1  1  0.833808  0.166192  0.000000  1
  Zr  Zr2  1  0.500000  0.500000  0.000000  1
  Zr  Zr3  1  0.166192  0.833808  0.000000  1
  S  S4  1  0.236578  0.236578  0.200451  1
  S  S5  1  0.899503  0.563188  0.199720  1
  S  S6  1  0.563188  0.899503  0.199720  1
  S  S7  1  0.436812  0.100497  0.800281  1
  S  S8  1  0.100497  0.436812  0.800281  1
  S  S9  1  0.763424  0.763424  0.799550  1
