# generated using pymatgen
data_Ho2ErCd3Ga2Ag
_symmetry_space_group_name_H-M   'P 1'
_cell_length_a   7.34525900
_cell_length_b   7.34553806
_cell_length_c   4.32966200
_cell_angle_alpha   90.00000000
_cell_angle_beta   90.00000000
_cell_angle_gamma   120.00127241
_symmetry_Int_Tables_number   1
_chemical_formula_structural   Ho2ErCd3Ga2Ag
_chemical_formula_sum   'Ho2 Er1 Cd3 Ga2 Ag1'
_cell_volume   202.30647563
_cell_formula_units_Z   1
loop_
 _symmetry_equiv_pos_site_id
 _symmetry_equiv_pos_as_xyz
  1  'x, y, z'
loop_
 _atom_site_type_symbol
 _atom_site_label
 _atom_site_symmetry_multiplicity
 _atom_site_fract_x
 _atom_site_fract_y
 _atom_site_fract_z
 _atom_site_occupancy
  Ho  Ho0  1  0.421820  0.421846  0.500000  1
  Ho  Ho1  1  0.578180  0.000026  0.500000  1
  Er  Er2  1  0.000000  0.578322  0.500000  1
  Cd  Cd3  1  0.748427  0.748352  0.000000  1
  Cd  Cd4  1  0.251573  0.999925  0.000000  1
  Cd  Cd5  1  0.000000  0.251755  0.000000  1
  Ga  Ga6  1  0.666890  0.333456  0.000000  1
  Ga  Ga7  1  0.333110  0.666566  0.000000  1
  Ag  Ag8  1  0.000000  0.999752  0.500000  1
