# generated using pymatgen
data_Re2Ir2Os3Ru
_symmetry_space_group_name_H-M   'P 1'
_cell_length_a   5.53624543
_cell_length_b   5.51824037
_cell_length_c   4.37420900
_cell_angle_alpha   90.00000000
_cell_angle_beta   90.00000000
_cell_angle_gamma   120.19773314
_symmetry_Int_Tables_number   1
_chemical_formula_structural   Re2Ir2Os3Ru
_chemical_formula_sum   'Re2 Ir2 Os3 Ru1'
_cell_volume   115.49876222
_cell_formula_units_Z   1
loop_
 _symmetry_equiv_pos_site_id
 _symmetry_equiv_pos_as_xyz
  1  'x, y, z'
loop_
 _atom_site_type_symbol
 _atom_site_label
 _atom_site_symmetry_multiplicity
 _atom_site_fract_x
 _atom_site_fract_y
 _atom_site_fract_z
 _atom_site_occupancy
  Re  Re0  1  0.165151  0.328182  0.250000  1
  Re  Re1  1  0.832454  0.670735  0.750000  1
  Ir  Ir2  1  0.333840  0.665923  0.750000  1
  Ir  Ir3  1  0.668240  0.332403  0.250000  1
  Os  Os4  1  0.670767  0.835292  0.250000  1
  Os  Os5  1  0.165762  0.834495  0.250000  1
  Os  Os6  1  0.329938  0.167006  0.750000  1
  Ru  Ru7  1  0.833849  0.165963  0.750000  1
