# generated using pymatgen
data_Nb12Al8Fe3NiN4
_symmetry_space_group_name_H-M   'P 1'
_cell_length_a   8.23109357
_cell_length_b   8.23109406
_cell_length_c   8.19299138
_cell_angle_alpha   59.84603773
_cell_angle_beta   59.84603718
_cell_angle_gamma   59.99999986
_symmetry_Int_Tables_number   1
_chemical_formula_structural   Nb12Al8Fe3NiN4
_chemical_formula_sum   'Nb12 Al8 Fe3 Ni1 N4'
_cell_volume   391.58676770
_cell_formula_units_Z   1
loop_
 _symmetry_equiv_pos_site_id
 _symmetry_equiv_pos_as_xyz
  1  'x, y, z'
loop_
 _atom_site_type_symbol
 _atom_site_label
 _atom_site_symmetry_multiplicity
 _atom_site_fract_x
 _atom_site_fract_y
 _atom_site_fract_z
 _atom_site_occupancy
  Nb  Nb0  1  0.808715  0.808715  0.193237  1
  Nb  Nb1  1  0.192202  0.192202  0.807353  1
  Nb  Nb2  1  0.808244  0.192202  0.807353  1
  Nb  Nb3  1  0.189333  0.808715  0.193237  1
  Nb  Nb4  1  0.192202  0.808244  0.807353  1
  Nb  Nb5  1  0.808715  0.189333  0.193237  1
  Nb  Nb6  1  0.441285  0.441285  0.056763  1
  Nb  Nb7  1  0.057798  0.057798  0.442647  1
  Nb  Nb8  1  0.441756  0.057798  0.442647  1
  Nb  Nb9  1  0.060667  0.441285  0.056763  1
  Nb  Nb10  1  0.057798  0.441756  0.442647  1
  Nb  Nb11  1  0.441285  0.060667  0.056763  1
  Al  Al12  1  0.747378  0.417748  0.417128  1
  Al  Al13  1  0.417748  0.747378  0.417128  1
  Al  Al14  1  0.418148  0.418148  0.745556  1
  Al  Al15  1  0.417748  0.417748  0.417128  1
  Al  Al16  1  0.502622  0.832252  0.832872  1
  Al  Al17  1  0.832252  0.502622  0.832872  1
  Al  Al18  1  0.831852  0.831852  0.504444  1
  Al  Al19  1  0.832252  0.832252  0.832872  1
  Fe  Fe20  1  0.125000  0.625000  0.625000  1
  Fe  Fe21  1  0.625000  0.125000  0.625000  1
  Fe  Fe22  1  0.625000  0.625000  0.625000  1
  Ni  Ni23  1  0.625000  0.625000  0.125000  1
  N  N24  1  0.625000  0.125000  0.125000  1
  N  N25  1  0.125000  0.625000  0.125000  1
  N  N26  1  0.125000  0.125000  0.625000  1
  N  N27  1  0.125000  0.125000  0.125000  1
