# generated using pymatgen
data_LaNd(PN3)2
_symmetry_space_group_name_H-M   'P 1'
_cell_length_a   7.34844640
_cell_length_b   7.34844614
_cell_length_c   4.89350600
_cell_angle_alpha   89.03260457
_cell_angle_beta   89.03261240
_cell_angle_gamma   103.22830606
_symmetry_Int_Tables_number   1
_chemical_formula_structural   LaNd(PN3)2
_chemical_formula_sum   'La2 Nd2 P4 N12'
_cell_volume   257.14101729
_cell_formula_units_Z   2
loop_
 _symmetry_equiv_pos_site_id
 _symmetry_equiv_pos_as_xyz
  1  'x, y, z'
loop_
 _atom_site_type_symbol
 _atom_site_label
 _atom_site_symmetry_multiplicity
 _atom_site_fract_x
 _atom_site_fract_y
 _atom_site_fract_z
 _atom_site_occupancy
  La  La0  1  0.096768  0.903232  0.250000  1
  La  La1  1  0.903232  0.096768  0.750000  1
  Nd  Nd2  1  0.296078  0.703922  0.750000  1
  Nd  Nd3  1  0.703922  0.296078  0.250000  1
  P  P4  1  0.375982  0.231379  0.809679  1
  P  P5  1  0.624018  0.768621  0.190321  1
  P  P6  1  0.768621  0.624018  0.690321  1
  P  P7  1  0.231379  0.375982  0.309679  1
  N  N8  1  0.971270  0.753349  0.737369  1
  N  N9  1  0.767728  0.397481  0.764821  1
  N  N10  1  0.753349  0.971270  0.237369  1
  N  N11  1  0.232272  0.602519  0.235179  1
  N  N12  1  0.028730  0.246651  0.262631  1
  N  N13  1  0.246651  0.028730  0.762631  1
  N  N14  1  0.602519  0.232272  0.735179  1
  N  N15  1  0.614504  0.706928  0.866909  1
  N  N16  1  0.385496  0.293072  0.133091  1
  N  N17  1  0.397481  0.767728  0.264821  1
  N  N18  1  0.706928  0.614504  0.366909  1
  N  N19  1  0.293072  0.385496  0.633091  1
