# generated using pymatgen
data_DyHo2In3GaNi2
_symmetry_space_group_name_H-M   'P 1'
_cell_length_a   7.51731415
_cell_length_b   7.52341606
_cell_length_c   3.83215200
_cell_angle_alpha   90.00000000
_cell_angle_beta   90.00000000
_cell_angle_gamma   119.99629601
_symmetry_Int_Tables_number   1
_chemical_formula_structural   DyHo2In3GaNi2
_chemical_formula_sum   'Dy1 Ho2 In3 Ga1 Ni2'
_cell_volume   187.70132866
_cell_formula_units_Z   1
loop_
 _symmetry_equiv_pos_site_id
 _symmetry_equiv_pos_as_xyz
  1  'x, y, z'
loop_
 _atom_site_type_symbol
 _atom_site_label
 _atom_site_symmetry_multiplicity
 _atom_site_fract_x
 _atom_site_fract_y
 _atom_site_fract_z
 _atom_site_occupancy
  Dy  Dy0  1  0.018478  0.603553  0.500000  1
  Ho  Ho1  1  0.396447  0.414844  0.500000  1
  Ho  Ho2  1  0.584886  0.981174  0.500000  1
  In  In3  1  0.745696  0.749264  0.000000  1
  In  In4  1  0.003535  0.253829  0.000000  1
  In  In5  1  0.250970  0.996964  0.000000  1
  Ga  Ga6  1  0.666162  0.333156  0.000000  1
  Ni  Ni7  1  0.333870  0.666893  0.000000  1
  Ni  Ni8  1  0.999957  0.000324  0.500000  1
