# generated using pymatgen
data_Ba8Ga3Si12Ir
_symmetry_space_group_name_H-M   'P 1'
_cell_length_a   12.59714438
_cell_length_b   11.04662425
_cell_length_c   8.45348188
_cell_angle_alpha   79.33335918
_cell_angle_beta   59.33452203
_cell_angle_gamma   41.73259437
_symmetry_Int_Tables_number   1
_chemical_formula_structural   Ba8Ga3Si12Ir
_chemical_formula_sum   'Ba8 Ga3 Si12 Ir1'
_cell_volume   633.05810424
_cell_formula_units_Z   1
loop_
 _symmetry_equiv_pos_site_id
 _symmetry_equiv_pos_as_xyz
  1  'x, y, z'
loop_
 _atom_site_type_symbol
 _atom_site_label
 _atom_site_symmetry_multiplicity
 _atom_site_fract_x
 _atom_site_fract_y
 _atom_site_fract_z
 _atom_site_occupancy
  Ba  Ba0  1  0.121758  0.124190  0.381694  1
  Ba  Ba1  1  0.876116  0.877334  0.120431  1
  Ba  Ba2  1  0.120733  0.124824  0.878700  1
  Ba  Ba3  1  0.380595  0.372582  0.121260  1
  Ba  Ba4  1  0.624541  0.624400  0.374095  1
  Ba  Ba5  1  0.376243  0.375307  0.622930  1
  Ba  Ba6  1  0.628533  0.622703  0.874093  1
  Ba  Ba7  1  0.874517  0.875297  0.629745  1
  Ga  Ga8  1  0.083602  0.416214  0.082187  1
  Ga  Ga9  1  0.167980  0.833436  0.167050  1
  Ga  Ga10  1  0.417491  0.084321  0.417582  1
  Si  Si11  1  0.338834  0.658404  0.819234  1
  Si  Si12  1  0.155297  0.847595  0.671420  1
  Si  Si13  1  0.817831  0.182626  0.339948  1
  Si  Si14  1  0.670075  0.325815  0.157155  1
  Si  Si15  1  0.917401  0.590336  0.419857  1
  Si  Si16  1  0.077285  0.420508  0.585862  1
  Si  Si17  1  0.418915  0.074737  0.917614  1
  Si  Si18  1  0.916396  0.586272  0.914084  1
  Si  Si19  1  0.671345  0.330469  0.671400  1
  Si  Si20  1  0.341487  0.658786  0.340548  1
  Si  Si21  1  0.586460  0.913350  0.583994  1
  Si  Si22  1  0.586137  0.910886  0.077734  1
  Ir  Ir23  1  0.830429  0.169605  0.831385  1
