# generated using pymatgen
data_ThCd(ReO4)6
_symmetry_space_group_name_H-M   'P 1'
_cell_length_a   10.41234000
_cell_length_b   10.41234004
_cell_length_c   6.28534600
_cell_angle_alpha   90.00000000
_cell_angle_beta   90.00000000
_cell_angle_gamma   119.99999987
_symmetry_Int_Tables_number   1
_chemical_formula_structural   ThCd(ReO4)6
_chemical_formula_sum   'Th1 Cd1 Re6 O24'
_cell_volume   590.14197509
_cell_formula_units_Z   1
loop_
 _symmetry_equiv_pos_site_id
 _symmetry_equiv_pos_as_xyz
  1  'x, y, z'
loop_
 _atom_site_type_symbol
 _atom_site_label
 _atom_site_symmetry_multiplicity
 _atom_site_fract_x
 _atom_site_fract_y
 _atom_site_fract_z
 _atom_site_occupancy
  Th  Th0  1  0.333333  0.666667  0.250000  1
  Cd  Cd1  1  0.666667  0.333333  0.750000  1
  Re  Re2  1  0.092567  0.392418  0.750000  1
  Re  Re3  1  0.399926  0.309637  0.250000  1
  Re  Re4  1  0.607582  0.700148  0.750000  1
  Re  Re5  1  0.909710  0.600074  0.250000  1
  Re  Re6  1  0.299852  0.907433  0.750000  1
  Re  Re7  1  0.690363  0.090290  0.250000  1
  O  O8  1  0.491891  0.650926  0.521448  1
  O  O9  1  0.349074  0.840966  0.521448  1
  O  O10  1  0.850746  0.728540  0.250000  1
  O  O11  1  0.111343  0.840317  0.750000  1
  O  O12  1  0.271460  0.122206  0.250000  1
  O  O13  1  0.159683  0.271025  0.750000  1
  O  O14  1  0.511770  0.353280  0.022482  1
  O  O15  1  0.877794  0.149254  0.250000  1
  O  O16  1  0.107086  0.690712  0.250000  1
  O  O17  1  0.159034  0.508109  0.978552  1
  O  O18  1  0.159034  0.508109  0.521448  1
  O  O19  1  0.900378  0.292883  0.750000  1
  O  O20  1  0.309288  0.416373  0.250000  1
  O  O21  1  0.707117  0.607496  0.750000  1
  O  O22  1  0.841510  0.488230  0.477518  1
  O  O23  1  0.392504  0.099622  0.750000  1
  O  O24  1  0.646720  0.158490  0.022482  1
  O  O25  1  0.491891  0.650926  0.978552  1
  O  O26  1  0.349074  0.840966  0.978552  1
  O  O27  1  0.646720  0.158490  0.477518  1
  O  O28  1  0.511770  0.353280  0.477518  1
  O  O29  1  0.841510  0.488230  0.022482  1
  O  O30  1  0.728975  0.888657  0.750000  1
  O  O31  1  0.583627  0.892914  0.250000  1
