# generated using pymatgen
data_SmUCu2(PO)2
_symmetry_space_group_name_H-M   'P 1'
_cell_length_a   3.79779000
_cell_length_b   3.79779000
_cell_length_c   8.22578500
_cell_angle_alpha   90.00000000
_cell_angle_beta   90.00000000
_cell_angle_gamma   90.00000000
_symmetry_Int_Tables_number   1
_chemical_formula_structural   SmUCu2(PO)2
_chemical_formula_sum   'Sm1 U1 Cu2 P2 O2'
_cell_volume   118.64221529
_cell_formula_units_Z   1
loop_
 _symmetry_equiv_pos_site_id
 _symmetry_equiv_pos_as_xyz
  1  'x, y, z'
loop_
 _atom_site_type_symbol
 _atom_site_label
 _atom_site_symmetry_multiplicity
 _atom_site_fract_x
 _atom_site_fract_y
 _atom_site_fract_z
 _atom_site_occupancy
  Sm  Sm0  1  0.000000  0.499999  0.164597  1
  U  U1  1  0.499999  0.000000  0.842705  1
  Cu  Cu2  1  0.000000  0.000000  0.503449  1
  Cu  Cu3  1  0.499999  0.499999  0.503449  1
  P  P4  1  0.499999  0.000000  0.331415  1
  P  P5  1  0.000000  0.499999  0.679046  1
  O  O6  1  0.000000  0.000000  0.987669  1
  O  O7  1  0.499999  0.499999  0.987669  1
