# generated using pymatgen
data_PuPaSi5Pt3
_symmetry_space_group_name_H-M   'P 1'
_cell_length_a   8.13576744
_cell_length_b   8.16969035
_cell_length_c   8.16968979
_cell_angle_alpha   136.00093083
_cell_angle_beta   105.36026267
_cell_angle_gamma   90.97016101
_symmetry_Int_Tables_number   1
_chemical_formula_structural   PuPaSi5Pt3
_chemical_formula_sum   'Pu2 Pa2 Si10 Pt6'
_cell_volume   345.83935662
_cell_formula_units_Z   2
loop_
 _symmetry_equiv_pos_site_id
 _symmetry_equiv_pos_as_xyz
  1  'x, y, z'
loop_
 _atom_site_type_symbol
 _atom_site_label
 _atom_site_symmetry_multiplicity
 _atom_site_fract_x
 _atom_site_fract_y
 _atom_site_fract_z
 _atom_site_occupancy
  Pu  Pu0  1  0.640734  0.368674  0.272060  1
  Pu  Pu1  1  0.359266  0.631326  0.727940  1
  Pa  Pa2  1  0.097288  0.870630  0.226658  1
  Pa  Pa3  1  0.902712  0.129370  0.773342  1
  Si  Si4  1  0.000000  0.735006  0.735006  1
  Si  Si5  1  0.000000  0.264994  0.264994  1
  Si  Si6  1  0.276490  0.026630  0.757687  1
  Si  Si7  1  0.723510  0.481197  0.750140  1
  Si  Si8  1  0.723510  0.973370  0.242313  1
  Si  Si9  1  0.276490  0.518803  0.249860  1
  Si  Si10  1  0.755866  0.609537  0.146329  1
  Si  Si11  1  0.244134  0.390463  0.853671  1
  Si  Si12  1  0.463841  0.117002  0.346838  1
  Si  Si13  1  0.536159  0.882998  0.653162  1
  Pt  Pt14  1  0.500000  0.762381  0.262381  1
  Pt  Pt15  1  0.500000  0.237619  0.737619  1
  Pt  Pt16  1  0.028976  0.643123  0.385851  1
  Pt  Pt17  1  0.971024  0.356877  0.614149  1
  Pt  Pt18  1  0.238961  0.131915  0.107045  1
  Pt  Pt19  1  0.761039  0.868085  0.892955  1
