# generated using pymatgen
data_Sr2Li3LaPt3
_symmetry_space_group_name_H-M   'P 1'
_cell_length_a   7.59166975
_cell_length_b   7.53663417
_cell_length_c   4.23054400
_cell_angle_alpha   90.00000000
_cell_angle_beta   90.00000000
_cell_angle_gamma   119.76045660
_symmetry_Int_Tables_number   1
_chemical_formula_structural   Sr2Li3LaPt3
_chemical_formula_sum   'Sr2 Li3 La1 Pt3'
_cell_volume   210.12844028
_cell_formula_units_Z   1
loop_
 _symmetry_equiv_pos_site_id
 _symmetry_equiv_pos_as_xyz
  1  'x, y, z'
loop_
 _atom_site_type_symbol
 _atom_site_label
 _atom_site_symmetry_multiplicity
 _atom_site_fract_x
 _atom_site_fract_y
 _atom_site_fract_z
 _atom_site_occupancy
  Sr  Sr0  1  0.413743  0.414158  0.000000  1
  Sr  Sr1  1  0.586257  0.000415  0.000000  1
  Li  Li2  1  0.773016  0.768743  0.500000  1
  Li  Li3  1  0.226984  0.995727  0.500000  1
  Li  Li4  1  0.000000  0.227176  0.500000  1
  La  La5  1  0.000000  0.593731  0.000000  1
  Pt  Pt6  1  0.000000  0.981716  0.000000  1
  Pt  Pt7  1  0.696274  0.357302  0.500000  1
  Pt  Pt8  1  0.303726  0.661029  0.500000  1
