# generated using pymatgen
data_NdLu3Sc2(AlPt2)2
_symmetry_space_group_name_H-M   'P 1'
_cell_length_a   4.41152900
_cell_length_b   7.13593850
_cell_length_c   8.03106231
_cell_angle_alpha   90.93632250
_cell_angle_beta   90.00000000
_cell_angle_gamma   90.00000000
_symmetry_Int_Tables_number   1
_chemical_formula_structural   NdLu3Sc2(AlPt2)2
_chemical_formula_sum   'Nd1 Lu3 Sc2 Al2 Pt4'
_cell_volume   252.78729285
_cell_formula_units_Z   1
loop_
 _symmetry_equiv_pos_site_id
 _symmetry_equiv_pos_as_xyz
  1  'x, y, z'
loop_
 _atom_site_type_symbol
 _atom_site_label
 _atom_site_symmetry_multiplicity
 _atom_site_fract_x
 _atom_site_fract_y
 _atom_site_fract_z
 _atom_site_occupancy
  Nd  Nd0  1  0.250000  0.519243  0.829386  1
  Lu  Lu1  1  0.750000  0.442558  0.180725  1
  Lu  Lu2  1  0.250000  0.048554  0.673273  1
  Lu  Lu3  1  0.750000  0.979701  0.328764  1
  Sc  Sc4  1  0.750000  0.872537  0.937304  1
  Sc  Sc5  1  0.250000  0.629072  0.434205  1
  Al  Al6  1  0.750000  0.357361  0.560964  1
  Al  Al7  1  0.250000  0.139601  0.064576  1
  Pt  Pt8  1  0.750000  0.743329  0.610333  1
  Pt  Pt9  1  0.750000  0.235342  0.877868  1
  Pt  Pt10  1  0.250000  0.256058  0.377638  1
  Pt  Pt11  1  0.250000  0.776644  0.124963  1
