# generated using pymatgen
data_Ho4NiAu3O14
_symmetry_space_group_name_H-M   'P 1'
_cell_length_a   7.31415793
_cell_length_b   7.31072187
_cell_length_c   7.31072200
_cell_angle_alpha   59.99999036
_cell_angle_beta   60.01552940
_cell_angle_gamma   60.01553330
_symmetry_Int_Tables_number   1
_chemical_formula_structural   Ho4NiAu3O14
_chemical_formula_sum   'Ho4 Ni1 Au3 O14'
_cell_volume   276.48511077
_cell_formula_units_Z   1
loop_
 _symmetry_equiv_pos_site_id
 _symmetry_equiv_pos_as_xyz
  1  'x, y, z'
loop_
 _atom_site_type_symbol
 _atom_site_label
 _atom_site_symmetry_multiplicity
 _atom_site_fract_x
 _atom_site_fract_y
 _atom_site_fract_z
 _atom_site_occupancy
  Ho  Ho0  1  0.125000  0.125000  0.125000  1
  Ho  Ho1  1  0.625000  0.125000  0.125000  1
  Ho  Ho2  1  0.125000  0.125000  0.625000  1
  Ho  Ho3  1  0.125000  0.625000  0.125000  1
  Ni  Ni4  1  0.125000  0.625000  0.625000  1
  Au  Au5  1  0.625000  0.625000  0.625000  1
  Au  Au6  1  0.625000  0.625000  0.125000  1
  Au  Au7  1  0.625000  0.125000  0.625000  1
  O  O8  1  0.994595  0.001802  0.001802  1
  O  O9  1  0.255405  0.248198  0.248198  1
  O  O10  1  0.282980  0.277219  0.719901  1
  O  O11  1  0.537899  0.527123  0.967489  1
  O  O12  1  0.712101  0.282511  0.722877  1
  O  O13  1  0.712101  0.282511  0.282511  1
  O  O14  1  0.282980  0.719901  0.719901  1
  O  O15  1  0.282980  0.719901  0.277219  1
  O  O16  1  0.712101  0.722877  0.282511  1
  O  O17  1  0.967020  0.530099  0.530099  1
  O  O18  1  0.537899  0.967489  0.967489  1
  O  O19  1  0.967020  0.972781  0.530099  1
  O  O20  1  0.967020  0.530099  0.972781  1
  O  O21  1  0.537899  0.967489  0.527123  1
