# generated using pymatgen
data_SmHo11(GaRu)8
_symmetry_space_group_name_H-M   'P 1'
_cell_length_a   5.56250955
_cell_length_b   7.68219327
_cell_length_c   13.77799500
_cell_angle_alpha   90.00000000
_cell_angle_beta   90.00000000
_cell_angle_gamma   90.13187695
_symmetry_Int_Tables_number   1
_chemical_formula_structural   SmHo11(GaRu)8
_chemical_formula_sum   'Sm1 Ho11 Ga8 Ru8'
_cell_volume   588.76349048
_cell_formula_units_Z   1
loop_
 _symmetry_equiv_pos_site_id
 _symmetry_equiv_pos_as_xyz
  1  'x, y, z'
loop_
 _atom_site_type_symbol
 _atom_site_label
 _atom_site_symmetry_multiplicity
 _atom_site_fract_x
 _atom_site_fract_y
 _atom_site_fract_z
 _atom_site_occupancy
  Sm  Sm0  1  0.378579  0.762930  0.750000  1
  Ho  Ho1  1  0.153603  0.400567  0.594346  1
  Ho  Ho2  1  0.846271  0.598182  0.095637  1
  Ho  Ho3  1  0.153931  0.097847  0.403972  1
  Ho  Ho4  1  0.845141  0.903357  0.905389  1
  Ho  Ho5  1  0.846271  0.598182  0.404363  1
  Ho  Ho6  1  0.153603  0.400567  0.905654  1
  Ho  Ho7  1  0.845141  0.903357  0.594611  1
  Ho  Ho8  1  0.153931  0.097847  0.096028  1
  Ho  Ho9  1  0.620169  0.263383  0.750000  1
  Ho  Ho10  1  0.378602  0.736168  0.250000  1
  Ho  Ho11  1  0.621313  0.236308  0.250000  1
  Ga  Ga12  1  0.122022  0.111451  0.750000  1
  Ga  Ga13  1  0.876741  0.891745  0.250000  1
  Ga  Ga14  1  0.123619  0.392107  0.250000  1
  Ga  Ga15  1  0.877268  0.604258  0.750000  1
  Ga  Ga16  1  0.634459  0.249788  0.499390  1
  Ga  Ga17  1  0.366517  0.750118  0.000479  1
  Ga  Ga18  1  0.366517  0.750118  0.499521  1
  Ga  Ga19  1  0.634459  0.249788  0.000610  1
  Ru  Ru20  1  0.348356  0.037979  0.593136  1
  Ru  Ru21  1  0.649175  0.963635  0.094327  1
  Ru  Ru22  1  0.352117  0.463186  0.405567  1
  Ru  Ru23  1  0.651272  0.536165  0.906813  1
  Ru  Ru24  1  0.649175  0.963635  0.405673  1
  Ru  Ru25  1  0.348356  0.037979  0.906864  1
  Ru  Ru26  1  0.651272  0.536165  0.593187  1
  Ru  Ru27  1  0.352117  0.463186  0.094433  1
