# generated using pymatgen
data_Tb2P7Ru12
_symmetry_space_group_name_H-M   'P 1'
_cell_length_a   9.41432400
_cell_length_b   9.41432372
_cell_length_c   3.96102700
_cell_angle_alpha   90.00000000
_cell_angle_beta   90.00000000
_cell_angle_gamma   119.99999395
_symmetry_Int_Tables_number   1
_chemical_formula_structural   Tb2P7Ru12
_chemical_formula_sum   'Tb2 P7 Ru12'
_cell_volume   304.03020309
_cell_formula_units_Z   1
loop_
 _symmetry_equiv_pos_site_id
 _symmetry_equiv_pos_as_xyz
  1  'x, y, z'
loop_
 _atom_site_type_symbol
 _atom_site_label
 _atom_site_symmetry_multiplicity
 _atom_site_fract_x
 _atom_site_fract_y
 _atom_site_fract_z
 _atom_site_occupancy
  Tb  Tb0  1  0.666667  0.333333  0.500000  1
  Tb  Tb1  1  0.333333  0.666667  0.000000  1
  P  P2  1  0.600499  0.717827  0.500000  1
  P  P3  1  0.000000  0.000000  0.000000  1
  P  P4  1  0.282173  0.882672  0.500000  1
  P  P5  1  0.117328  0.399501  0.500000  1
  P  P6  1  0.885348  0.575522  0.000000  1
  P  P7  1  0.424478  0.309825  0.000000  1
  P  P8  1  0.690175  0.114652  0.000000  1
  Ru  Ru9  1  0.556940  0.949214  0.500000  1
  Ru  Ru10  1  0.392275  0.443060  0.500000  1
  Ru  Ru11  1  0.914322  0.122510  0.500000  1
  Ru  Ru12  1  0.208188  0.085678  0.500000  1
  Ru  Ru13  1  0.877490  0.791812  0.500000  1
  Ru  Ru14  1  0.728559  0.892158  0.000000  1
  Ru  Ru15  1  0.107842  0.836400  0.000000  1
  Ru  Ru16  1  0.163600  0.271441  0.000000  1
  Ru  Ru17  1  0.424328  0.065359  0.000000  1
  Ru  Ru18  1  0.934641  0.358970  0.000000  1
  Ru  Ru19  1  0.641030  0.575672  0.000000  1
  Ru  Ru20  1  0.050786  0.607725  0.500000  1
