# generated using pymatgen
data_Y2ErSc(Co4P3)2
_symmetry_space_group_name_H-M   'P 1'
_cell_length_a   3.71585800
_cell_length_b   10.64212900
_cell_length_c   12.33358000
_cell_angle_alpha   90.00000000
_cell_angle_beta   90.00000000
_cell_angle_gamma   90.00000000
_symmetry_Int_Tables_number   1
_chemical_formula_structural   Y2ErSc(Co4P3)2
_chemical_formula_sum   'Y4 Er2 Sc2 Co16 P12'
_cell_volume   487.72698325
_cell_formula_units_Z   2
loop_
 _symmetry_equiv_pos_site_id
 _symmetry_equiv_pos_as_xyz
  1  'x, y, z'
loop_
 _atom_site_type_symbol
 _atom_site_label
 _atom_site_symmetry_multiplicity
 _atom_site_fract_x
 _atom_site_fract_y
 _atom_site_fract_z
 _atom_site_occupancy
  Y  Y0  1  0.000000  0.500000  0.527505  1
  Y  Y1  1  0.500000  0.000000  0.472387  1
  Y  Y2  1  0.000000  0.677956  0.794264  1
  Y  Y3  1  0.000000  0.322044  0.794264  1
  Er  Er4  1  0.500000  0.822499  0.205649  1
  Er  Er5  1  0.500000  0.177501  0.205649  1
  Sc  Sc6  1  0.500000  0.500000  0.156767  1
  Sc  Sc7  1  0.000000  0.000000  0.843243  1
  Co  Co8  1  0.500000  0.500000  0.704832  1
  Co  Co9  1  0.000000  0.000000  0.294283  1
  Co  Co10  1  0.000000  0.500000  0.987774  1
  Co  Co11  1  0.500000  0.000000  0.013246  1
  Co  Co12  1  0.500000  0.331033  0.994962  1
  Co  Co13  1  0.500000  0.668967  0.994962  1
  Co  Co14  1  0.000000  0.168400  0.005983  1
  Co  Co15  1  0.000000  0.831600  0.005983  1
  Co  Co16  1  0.500000  0.295329  0.432477  1
  Co  Co17  1  0.500000  0.704671  0.432477  1
  Co  Co18  1  0.000000  0.204362  0.566864  1
  Co  Co19  1  0.000000  0.795638  0.566864  1
  Co  Co20  1  0.500000  0.878069  0.702688  1
  Co  Co21  1  0.500000  0.121931  0.702688  1
  Co  Co22  1  0.000000  0.622528  0.296855  1
  Co  Co23  1  0.000000  0.377472  0.296855  1
  P  P24  1  0.500000  0.500000  0.885587  1
  P  P25  1  0.000000  0.000000  0.115247  1
  P  P26  1  0.500000  0.500000  0.359731  1
  P  P27  1  0.000000  0.000000  0.640221  1
  P  P28  1  0.500000  0.309400  0.615254  1
  P  P29  1  0.500000  0.690600  0.615254  1
  P  P30  1  0.000000  0.190200  0.383730  1
  P  P31  1  0.000000  0.809800  0.383730  1
  P  P32  1  0.500000  0.839833  0.893128  1
  P  P33  1  0.500000  0.160167  0.893128  1
  P  P34  1  0.000000  0.660979  0.107734  1
  P  P35  1  0.000000  0.339021  0.107734  1
