# generated using pymatgen
data_YBiIr2F14
_symmetry_space_group_name_H-M   'P 1'
_cell_length_a   5.59320211
_cell_length_b   9.09844698
_cell_length_c   12.11983643
_cell_angle_alpha   62.12953746
_cell_angle_beta   90.02313532
_cell_angle_gamma   89.78503383
_symmetry_Int_Tables_number   1
_chemical_formula_structural   YBiIr2F14
_chemical_formula_sum   'Y2 Bi2 Ir4 F28'
_cell_volume   545.22500771
_cell_formula_units_Z   2
loop_
 _symmetry_equiv_pos_site_id
 _symmetry_equiv_pos_as_xyz
  1  'x, y, z'
loop_
 _atom_site_type_symbol
 _atom_site_label
 _atom_site_symmetry_multiplicity
 _atom_site_fract_x
 _atom_site_fract_y
 _atom_site_fract_z
 _atom_site_occupancy
  Y  Y0  1  0.760270  0.193094  0.234830  1
  Y  Y1  1  0.239730  0.806906  0.765170  1
  Bi  Bi2  1  0.265415  0.822949  0.261922  1
  Bi  Bi3  1  0.734585  0.177051  0.738078  1
  Ir  Ir4  1  0.758102  0.723842  0.041298  1
  Ir  Ir5  1  0.241898  0.276158  0.958702  1
  Ir  Ir6  1  0.258061  0.269917  0.456272  1
  Ir  Ir7  1  0.741939  0.730083  0.543728  1
  F  F8  1  0.932104  0.708904  0.415995  1
  F  F9  1  0.067896  0.291096  0.584005  1
  F  F10  1  0.437989  0.292869  0.087384  1
  F  F11  1  0.562011  0.707131  0.912616  1
  F  F12  1  0.465850  0.725559  0.130331  1
  F  F13  1  0.534150  0.274441  0.869669  1
  F  F14  1  0.965896  0.267820  0.363942  1
  F  F15  1  0.034104  0.732180  0.636058  1
  F  F16  1  0.943760  0.738619  0.172894  1
  F  F17  1  0.056240  0.261381  0.827106  1
  F  F18  1  0.450203  0.252525  0.325775  1
  F  F19  1  0.549797  0.747475  0.674225  1
  F  F20  1  0.769230  0.480560  0.137596  1
  F  F21  1  0.230770  0.519440  0.862404  1
  F  F22  1  0.267922  0.509491  0.360430  1
  F  F23  1  0.732078  0.490509  0.639570  1
  F  F24  1  0.943530  0.279824  0.046056  1
  F  F25  1  0.056470  0.720176  0.953944  1
  F  F26  1  0.441198  0.721675  0.459740  1
  F  F27  1  0.558802  0.278325  0.540260  1
  F  F28  1  0.740397  0.972483  0.448396  1
  F  F29  1  0.259603  0.027517  0.551604  1
  F  F30  1  0.241332  0.031846  0.049046  1
  F  F31  1  0.758668  0.968154  0.950954  1
  F  F32  1  0.595103  0.975608  0.229698  1
  F  F33  1  0.404897  0.024392  0.770302  1
  F  F34  1  0.090160  0.036376  0.270202  1
  F  F35  1  0.909840  0.963624  0.729798  1
