# generated using pymatgen
data_CaDyLu2(Ga2Ag)4
_symmetry_space_group_name_H-M   'P 1'
_cell_length_a   4.33382900
_cell_length_b   6.96134987
_cell_length_c   10.31425911
_cell_angle_alpha   89.64845908
_cell_angle_beta   90.00000000
_cell_angle_gamma   90.00000000
_symmetry_Int_Tables_number   1
_chemical_formula_structural   CaDyLu2(Ga2Ag)4
_chemical_formula_sum   'Ca1 Dy1 Lu2 Ga8 Ag4'
_cell_volume   311.16811964
_cell_formula_units_Z   1
loop_
 _symmetry_equiv_pos_site_id
 _symmetry_equiv_pos_as_xyz
  1  'x, y, z'
loop_
 _atom_site_type_symbol
 _atom_site_label
 _atom_site_symmetry_multiplicity
 _atom_site_fract_x
 _atom_site_fract_y
 _atom_site_fract_z
 _atom_site_occupancy
  Ca  Ca0  1  0.750000  0.224989  0.175704  1
  Dy  Dy1  1  0.250000  0.276177  0.675367  1
  Lu  Lu2  1  0.250000  0.775743  0.826943  1
  Lu  Lu3  1  0.750000  0.724035  0.325465  1
  Ga  Ga4  1  0.250000  0.924425  0.153543  1
  Ga  Ga5  1  0.750000  0.066188  0.842029  1
  Ga  Ga6  1  0.750000  0.575186  0.657578  1
  Ga  Ga7  1  0.250000  0.435400  0.348292  1
  Ga  Ga8  1  0.250000  0.706018  0.537150  1
  Ga  Ga9  1  0.750000  0.305735  0.466743  1
  Ga  Ga10  1  0.750000  0.795176  0.034876  1
  Ga  Ga11  1  0.250000  0.194408  0.963946  1
  Ag  Ag12  1  0.250000  0.543744  0.094420  1
  Ag  Ag13  1  0.750000  0.452857  0.901941  1
  Ag  Ag14  1  0.750000  0.954553  0.593596  1
  Ag  Ag15  1  0.250000  0.045365  0.402409  1
