# generated using pymatgen
data_Hf6Ti4Al12Pd6Ru
_symmetry_space_group_name_H-M   'P 1'
_cell_length_a   8.81727861
_cell_length_b   8.79052271
_cell_length_c   8.81727913
_cell_angle_alpha   60.10033049
_cell_angle_beta   60.00195569
_cell_angle_gamma   60.10032654
_symmetry_Int_Tables_number   1
_chemical_formula_structural   Hf6Ti4Al12Pd6Ru
_chemical_formula_sum   'Hf6 Ti4 Al12 Pd6 Ru1'
_cell_volume   483.98535963
_cell_formula_units_Z   1
loop_
 _symmetry_equiv_pos_site_id
 _symmetry_equiv_pos_as_xyz
  1  'x, y, z'
loop_
 _atom_site_type_symbol
 _atom_site_label
 _atom_site_symmetry_multiplicity
 _atom_site_fract_x
 _atom_site_fract_y
 _atom_site_fract_z
 _atom_site_occupancy
  Hf  Hf0  1  0.686253  0.680789  0.314844  1
  Hf  Hf1  1  0.312354  0.687646  0.312354  1
  Hf  Hf2  1  0.686253  0.318114  0.314844  1
  Hf  Hf3  1  0.314844  0.318114  0.686253  1
  Hf  Hf4  1  0.685888  0.314112  0.685888  1
  Hf  Hf5  1  0.314844  0.680789  0.686253  1
  Ti  Ti6  1  0.881588  0.880147  0.358118  1
  Ti  Ti7  1  0.884859  0.359865  0.884859  1
  Ti  Ti8  1  0.358118  0.880147  0.881588  1
  Ti  Ti9  1  0.884859  0.870418  0.884859  1
  Al  Al10  1  0.118333  0.120005  0.641658  1
  Al  Al11  1  0.117254  0.639109  0.117254  1
  Al  Al12  1  0.641658  0.120005  0.118333  1
  Al  Al13  1  0.117254  0.126384  0.117254  1
  Al  Al14  1  0.663347  0.664575  0.007503  1
  Al  Al15  1  0.664471  0.007486  0.664471  1
  Al  Al16  1  0.007503  0.664575  0.663347  1
  Al  Al17  1  0.664471  0.663573  0.664471  1
  Al  Al18  1  0.331907  0.336869  0.994355  1
  Al  Al19  1  0.335546  0.993420  0.335546  1
  Al  Al20  1  0.994355  0.336869  0.331907  1
  Al  Al21  1  0.335546  0.335487  0.335546  1
  Pd  Pd22  1  0.001123  0.998877  0.001123  1
  Pd  Pd23  1  0.999913  0.999561  0.500552  1
  Pd  Pd24  1  0.500458  0.999542  0.500458  1
  Pd  Pd25  1  0.999913  0.499973  0.500552  1
  Pd  Pd26  1  0.500552  0.499973  0.999913  1
  Pd  Pd27  1  0.500552  0.999561  0.999913  1
  Ru  Ru28  1  0.995984  0.504016  0.995984  1
