# generated using pymatgen
data_Hf9MnRe3Ir
_symmetry_space_group_name_H-M   'P 1'
_cell_length_a   8.48526900
_cell_length_b   8.58730581
_cell_length_c   8.58730500
_cell_angle_alpha   120.00354925
_cell_angle_beta   90.00000000
_cell_angle_gamma   90.00000000
_symmetry_Int_Tables_number   1
_chemical_formula_structural   Hf9MnRe3Ir
_chemical_formula_sum   'Hf18 Mn2 Re6 Ir2'
_cell_volume   541.86928036
_cell_formula_units_Z   2
loop_
 _symmetry_equiv_pos_site_id
 _symmetry_equiv_pos_as_xyz
  1  'x, y, z'
loop_
 _atom_site_type_symbol
 _atom_site_label
 _atom_site_symmetry_multiplicity
 _atom_site_fract_x
 _atom_site_fract_y
 _atom_site_fract_z
 _atom_site_occupancy
  Hf  Hf0  1  0.554528  0.806222  0.612447  1
  Hf  Hf1  1  0.554514  0.806226  0.193774  1
  Hf  Hf2  1  0.554528  0.387553  0.193778  1
  Hf  Hf3  1  0.445472  0.193778  0.387553  1
  Hf  Hf4  1  0.445486  0.193774  0.806226  1
  Hf  Hf5  1  0.445472  0.612447  0.806222  1
  Hf  Hf6  1  0.054528  0.193778  0.387553  1
  Hf  Hf7  1  0.054514  0.193774  0.806226  1
  Hf  Hf8  1  0.054528  0.612447  0.806222  1
  Hf  Hf9  1  0.945472  0.806222  0.612447  1
  Hf  Hf10  1  0.945486  0.806226  0.193774  1
  Hf  Hf11  1  0.945472  0.387553  0.193778  1
  Hf  Hf12  1  0.750000  0.457832  0.915650  1
  Hf  Hf13  1  0.750000  0.457820  0.542180  1
  Hf  Hf14  1  0.750000  0.084350  0.542168  1
  Hf  Hf15  1  0.250000  0.542168  0.084350  1
  Hf  Hf16  1  0.250000  0.542180  0.457820  1
  Hf  Hf17  1  0.250000  0.915650  0.457832  1
  Mn  Mn18  1  0.500000  0.000000  0.000000  1
  Mn  Mn19  1  0.000000  0.000000  0.000000  1
  Re  Re20  1  0.750000  0.107571  0.215116  1
  Re  Re21  1  0.750000  0.107559  0.892441  1
  Re  Re22  1  0.750000  0.784884  0.892429  1
  Re  Re23  1  0.250000  0.892429  0.784884  1
  Re  Re24  1  0.250000  0.892441  0.107559  1
  Re  Re25  1  0.250000  0.215116  0.107571  1
  Ir  Ir26  1  0.750000  0.666677  0.333323  1
  Ir  Ir27  1  0.250000  0.333323  0.666677  1
