# generated using pymatgen
data_Er3Pa3Rh10
_symmetry_space_group_name_H-M   'P 1'
_cell_length_a   5.83105201
_cell_length_b   5.83105179
_cell_length_c   9.19117600
_cell_angle_alpha   88.12170325
_cell_angle_beta   88.12170332
_cell_angle_gamma   105.31554501
_symmetry_Int_Tables_number   1
_chemical_formula_structural   Er3Pa3Rh10
_chemical_formula_sum   'Er3 Pa3 Rh10'
_cell_volume   300.97177330
_cell_formula_units_Z   1
loop_
 _symmetry_equiv_pos_site_id
 _symmetry_equiv_pos_as_xyz
  1  'x, y, z'
loop_
 _atom_site_type_symbol
 _atom_site_label
 _atom_site_symmetry_multiplicity
 _atom_site_fract_x
 _atom_site_fract_y
 _atom_site_fract_z
 _atom_site_occupancy
  Er  Er0  1  0.800694  0.199306  0.500000  1
  Er  Er1  1  0.217187  0.782813  0.000000  1
  Er  Er2  1  0.192460  0.807540  0.500000  1
  Pa  Pa3  1  0.604237  0.614785  0.731881  1
  Pa  Pa4  1  0.385215  0.395763  0.268119  1
  Pa  Pa5  1  0.797898  0.202102  0.000000  1
  Rh  Rh6  1  0.705269  0.693594  0.020477  1
  Rh  Rh7  1  0.676650  0.687713  0.428271  1
  Rh  Rh8  1  0.306406  0.294731  0.979523  1
  Rh  Rh9  1  0.312287  0.323350  0.571729  1
  Rh  Rh10  1  0.510951  0.042557  0.759568  1
  Rh  Rh11  1  0.514570  0.987264  0.233395  1
  Rh  Rh12  1  0.007636  0.001638  0.234233  1
  Rh  Rh13  1  0.998362  0.992364  0.765767  1
  Rh  Rh14  1  0.012736  0.485430  0.766605  1
  Rh  Rh15  1  0.957443  0.489049  0.240432  1
