# generated using pymatgen
data_Ti10CuSiSn5Sb
_symmetry_space_group_name_H-M   'P 1'
_cell_length_a   8.22418978
_cell_length_b   8.21936131
_cell_length_c   5.50758052
_cell_angle_alpha   89.97502245
_cell_angle_beta   90.04993274
_cell_angle_gamma   120.01943866
_symmetry_Int_Tables_number   1
_chemical_formula_structural   Ti10CuSiSn5Sb
_chemical_formula_sum   'Ti10 Cu1 Si1 Sn5 Sb1'
_cell_volume   322.35723040
_cell_formula_units_Z   1
loop_
 _symmetry_equiv_pos_site_id
 _symmetry_equiv_pos_as_xyz
  1  'x, y, z'
loop_
 _atom_site_type_symbol
 _atom_site_label
 _atom_site_symmetry_multiplicity
 _atom_site_fract_x
 _atom_site_fract_y
 _atom_site_fract_z
 _atom_site_occupancy
  Ti  Ti0  1  0.264810  0.000000  0.743202  1
  Ti  Ti1  1  0.734987  0.000000  0.256431  1
  Ti  Ti2  1  0.997943  0.261546  0.743188  1
  Ti  Ti3  1  0.999490  0.735172  0.256987  1
  Ti  Ti4  1  0.736397  0.738454  0.743188  1
  Ti  Ti5  1  0.264318  0.264828  0.256987  1
  Ti  Ti6  1  0.334399  0.668228  0.499700  1
  Ti  Ti7  1  0.666173  0.331772  0.499700  1
  Ti  Ti8  1  0.666313  0.331564  0.000205  1
  Ti  Ti9  1  0.334747  0.668436  0.000205  1
  Cu  Cu10  1  0.002665  0.000000  0.002525  1
  Si  Si11  1  0.001186  0.000000  0.498268  1
  Sn  Sn12  1  0.385308  0.000000  0.246690  1
  Sn  Sn13  1  0.999333  0.611683  0.753627  1
  Sn  Sn14  1  0.000965  0.388475  0.246228  1
  Sn  Sn15  1  0.387649  0.388317  0.753627  1
  Sn  Sn16  1  0.612490  0.611525  0.246228  1
  Sb  Sb17  1  0.610828  0.000000  0.753014  1
