# generated using pymatgen
data_Yb3(TmSn2)2
_symmetry_space_group_name_H-M   'P 1'
_cell_length_a   7.79392620
_cell_length_b   8.38601128
_cell_length_c   15.92770517
_cell_angle_alpha   90.02924003
_cell_angle_beta   90.03346799
_cell_angle_gamma   90.15001123
_symmetry_Int_Tables_number   1
_chemical_formula_structural   Yb3(TmSn2)2
_chemical_formula_sum   'Yb12 Tm8 Sn16'
_cell_volume   1041.03017913
_cell_formula_units_Z   4
loop_
 _symmetry_equiv_pos_site_id
 _symmetry_equiv_pos_as_xyz
  1  'x, y, z'
loop_
 _atom_site_type_symbol
 _atom_site_label
 _atom_site_symmetry_multiplicity
 _atom_site_fract_x
 _atom_site_fract_y
 _atom_site_fract_z
 _atom_site_occupancy
  Yb  Yb0  1  0.176072  0.333412  0.620754  1
  Yb  Yb1  1  0.500646  0.686674  0.593226  1
  Yb  Yb2  1  0.001324  0.815109  0.909155  1
  Yb  Yb3  1  0.495899  0.312578  0.092090  1
  Yb  Yb4  1  0.998979  0.188440  0.407133  1
  Yb  Yb5  1  0.497106  0.312560  0.408013  1
  Yb  Yb6  1  0.997101  0.187422  0.092339  1
  Yb  Yb7  1  0.500676  0.687028  0.907640  1
  Yb  Yb8  1  0.003048  0.813811  0.591615  1
  Yb  Yb9  1  0.333437  0.990508  0.749456  1
  Yb  Yb10  1  0.165313  0.488405  0.249540  1
  Yb  Yb11  1  0.666717  0.010443  0.250380  1
  Tm  Tm12  1  0.672208  0.164014  0.622522  1
  Tm  Tm13  1  0.172810  0.333203  0.878763  1
  Tm  Tm14  1  0.327291  0.833396  0.121770  1
  Tm  Tm15  1  0.828978  0.664264  0.377637  1
  Tm  Tm16  1  0.327453  0.833833  0.377180  1
  Tm  Tm17  1  0.827356  0.665048  0.121256  1
  Tm  Tm18  1  0.671258  0.164442  0.878699  1
  Tm  Tm19  1  0.836798  0.509234  0.748793  1
  Sn  Sn20  1  0.675457  0.961250  0.459579  1
  Sn  Sn21  1  0.170615  0.536648  0.040179  1
  Sn  Sn22  1  0.328310  0.036976  0.959749  1
  Sn  Sn23  1  0.824518  0.466303  0.543104  1
  Sn  Sn24  1  0.335264  0.034596  0.539903  1
  Sn  Sn25  1  0.827040  0.465849  0.955661  1
  Sn  Sn26  1  0.671630  0.962957  0.040714  1
  Sn  Sn27  1  0.169154  0.539140  0.457479  1
  Sn  Sn28  1  0.475022  0.379650  0.753356  1
  Sn  Sn29  1  0.967288  0.129027  0.751287  1
  Sn  Sn30  1  0.530147  0.629013  0.249424  1
  Sn  Sn31  1  0.030018  0.870197  0.248406  1
  Sn  Sn32  1  0.719803  0.866414  0.751638  1
  Sn  Sn33  1  0.210792  0.628492  0.753170  1
  Sn  Sn34  1  0.283251  0.126440  0.249245  1
  Sn  Sn35  1  0.781221  0.373225  0.249149  1
