# generated using pymatgen
data_Ba2CuSb4Pt
_symmetry_space_group_name_H-M   'P 1'
_cell_length_a   9.61663958
_cell_length_b   9.61663976
_cell_length_c   5.02995400
_cell_angle_alpha   90.00000000
_cell_angle_beta   90.00000000
_cell_angle_gamma   150.63580021
_symmetry_Int_Tables_number   1
_chemical_formula_structural   Ba2CuSb4Pt
_chemical_formula_sum   'Ba2 Cu1 Sb4 Pt1'
_cell_volume   228.09990961
_cell_formula_units_Z   1
loop_
 _symmetry_equiv_pos_site_id
 _symmetry_equiv_pos_as_xyz
  1  'x, y, z'
loop_
 _atom_site_type_symbol
 _atom_site_label
 _atom_site_symmetry_multiplicity
 _atom_site_fract_x
 _atom_site_fract_y
 _atom_site_fract_z
 _atom_site_occupancy
  Ba  Ba0  1  0.396267  0.603733  0.250000  1
  Ba  Ba1  1  0.606721  0.393279  0.750000  1
  Cu  Cu2  1  0.184976  0.815024  0.250000  1
  Sb  Sb3  1  0.041992  0.958008  0.250000  1
  Sb  Sb4  1  0.959417  0.040583  0.750000  1
  Sb  Sb5  1  0.246673  0.753327  0.750000  1
  Sb  Sb6  1  0.750930  0.249070  0.250000  1
  Pt  Pt7  1  0.813024  0.186976  0.750000  1
