# generated using pymatgen
data_Li2Eu2Zn19Ni
_symmetry_space_group_name_H-M   'P 1'
_cell_length_a   8.33460940
_cell_length_b   8.33089212
_cell_length_c   8.33089187
_cell_angle_alpha   99.03810224
_cell_angle_beta   99.71269260
_cell_angle_gamma   132.36298400
_symmetry_Int_Tables_number   1
_chemical_formula_structural   Li2Eu2Zn19Ni
_chemical_formula_sum   'Li2 Eu2 Zn19 Ni1'
_cell_volume   391.08896725
_cell_formula_units_Z   1
loop_
 _symmetry_equiv_pos_site_id
 _symmetry_equiv_pos_as_xyz
  1  'x, y, z'
loop_
 _atom_site_type_symbol
 _atom_site_label
 _atom_site_symmetry_multiplicity
 _atom_site_fract_x
 _atom_site_fract_y
 _atom_site_fract_z
 _atom_site_occupancy
  Li  Li0  1  0.761771  0.255378  0.506393  1
  Li  Li1  1  0.488229  0.494622  0.993607  1
  Eu  Eu2  1  0.000777  0.999382  0.001394  1
  Eu  Eu3  1  0.249223  0.750618  0.498606  1
  Zn  Zn4  1  0.625000  0.875000  0.250000  1
  Zn  Zn5  1  0.625000  0.375000  0.750000  1
  Zn  Zn6  1  0.625000  0.375000  0.250000  1
  Zn  Zn7  1  0.186060  0.508061  0.072998  1
  Zn  Zn8  1  0.186060  0.113062  0.677999  1
  Zn  Zn9  1  0.770347  0.943347  0.589967  1
  Zn  Zn10  1  0.770347  0.180380  0.827002  1
  Zn  Zn11  1  0.426460  0.513595  0.330018  1
  Zn  Zn12  1  0.426460  0.096440  0.912865  1
  Zn  Zn13  1  0.350378  0.934684  0.172541  1
  Zn  Zn14  1  0.350378  0.177838  0.415694  1
  Zn  Zn15  1  0.063940  0.241939  0.427002  1
  Zn  Zn16  1  0.063940  0.636938  0.822001  1
  Zn  Zn17  1  0.479653  0.806653  0.910033  1
  Zn  Zn18  1  0.479653  0.569620  0.672998  1
  Zn  Zn19  1  0.823540  0.236405  0.169982  1
  Zn  Zn20  1  0.823540  0.653560  0.587135  1
  Zn  Zn21  1  0.899622  0.815316  0.327459  1
  Zn  Zn22  1  0.899622  0.572162  0.084306  1
  Ni  Ni23  1  0.125000  0.375000  0.750000  1
