# generated using pymatgen
data_YbDy2Sc(Pt2O7)2
_symmetry_space_group_name_H-M   'P 1'
_cell_length_a   7.18687906
_cell_length_b   7.21548264
_cell_length_c   7.18687909
_cell_angle_alpha   60.26413140
_cell_angle_beta   60.31912838
_cell_angle_gamma   60.26413117
_symmetry_Int_Tables_number   1
_chemical_formula_structural   YbDy2Sc(Pt2O7)2
_chemical_formula_sum   'Yb1 Dy2 Sc1 Pt4 O14'
_cell_volume   265.21510597
_cell_formula_units_Z   1
loop_
 _symmetry_equiv_pos_site_id
 _symmetry_equiv_pos_as_xyz
  1  'x, y, z'
loop_
 _atom_site_type_symbol
 _atom_site_label
 _atom_site_symmetry_multiplicity
 _atom_site_fract_x
 _atom_site_fract_y
 _atom_site_fract_z
 _atom_site_occupancy
  Yb  Yb0  1  0.625000  0.125000  0.625000  1
  Dy  Dy1  1  0.625000  0.625000  0.125000  1
  Dy  Dy2  1  0.125000  0.625000  0.625000  1
  Sc  Sc3  1  0.625000  0.625000  0.625000  1
  Pt  Pt4  1  0.625000  0.125000  0.125000  1
  Pt  Pt5  1  0.125000  0.125000  0.125000  1
  Pt  Pt6  1  0.125000  0.625000  0.125000  1
  Pt  Pt7  1  0.125000  0.125000  0.625000  1
  O  O8  1  0.028410  0.466038  0.465855  1
  O  O9  1  0.784145  0.783962  0.221590  1
  O  O10  1  0.785443  0.219246  0.209153  1
  O  O11  1  0.034035  0.466158  0.034035  1
  O  O12  1  0.463979  0.024228  0.463979  1
  O  O13  1  0.745458  0.737572  0.745458  1
  O  O14  1  0.040847  0.030754  0.464557  1
  O  O15  1  0.786021  0.225772  0.786021  1
  O  O16  1  0.504542  0.512428  0.504542  1
  O  O17  1  0.209153  0.219246  0.785443  1
  O  O18  1  0.215965  0.783842  0.215965  1
  O  O19  1  0.464557  0.030754  0.040847  1
  O  O20  1  0.465855  0.466038  0.028410  1
  O  O21  1  0.221590  0.783962  0.784145  1
