# generated using pymatgen
data_Ca2YGa3(Ni3Sn)3
_symmetry_space_group_name_H-M   'P 1'
_cell_length_a   4.07263800
_cell_length_b   9.23813653
_cell_length_c   9.23852707
_cell_angle_alpha   119.99860337
_cell_angle_beta   90.00000000
_cell_angle_gamma   90.00000000
_symmetry_Int_Tables_number   1
_chemical_formula_structural   Ca2YGa3(Ni3Sn)3
_chemical_formula_sum   'Ca2 Y1 Ga3 Ni9 Sn3'
_cell_volume   301.02298968
_cell_formula_units_Z   1
loop_
 _symmetry_equiv_pos_site_id
 _symmetry_equiv_pos_as_xyz
  1  'x, y, z'
loop_
 _atom_site_type_symbol
 _atom_site_label
 _atom_site_symmetry_multiplicity
 _atom_site_fract_x
 _atom_site_fract_y
 _atom_site_fract_z
 _atom_site_occupancy
  Ca  Ca0  1  0.500000  0.333307  0.666714  1
  Ca  Ca1  1  0.500000  0.666594  0.333286  1
  Y  Y2  1  0.000000  0.000076  0.000000  1
  Ga  Ga3  1  0.500000  0.742004  0.000000  1
  Ga  Ga4  1  0.500000  0.257728  0.257827  1
  Ga  Ga5  1  0.500000  0.999901  0.742173  1
  Ni  Ni6  1  0.000000  0.206710  0.365784  1
  Ni  Ni7  1  0.000000  0.159028  0.793266  1
  Ni  Ni8  1  0.000000  0.634538  0.841019  1
  Ni  Ni9  1  0.000000  0.840926  0.634216  1
  Ni  Ni10  1  0.000000  0.365762  0.206734  1
  Ni  Ni11  1  0.000000  0.793520  0.158981  1
  Ni  Ni12  1  0.500000  0.277246  0.000000  1
  Ni  Ni13  1  0.500000  0.722526  0.722590  1
  Ni  Ni14  1  0.500000  0.999936  0.277410  1
  Sn  Sn15  1  0.000000  0.468250  0.000000  1
  Sn  Sn16  1  0.000000  0.531883  0.531917  1
  Sn  Sn17  1  0.000000  0.999966  0.468083  1
