# generated using pymatgen
data_LaSm2(ZnAu)4
_symmetry_space_group_name_H-M   'P 1'
_cell_length_a   8.57841172
_cell_length_b   8.57841292
_cell_length_c   8.57841200
_cell_angle_alpha   151.62134268
_cell_angle_beta   126.81513197
_cell_angle_gamma   61.37592814
_symmetry_Int_Tables_number   1
_chemical_formula_structural   LaSm2(ZnAu)4
_chemical_formula_sum   'La1 Sm2 Zn4 Au4'
_cell_volume   238.27552022
_cell_formula_units_Z   1
loop_
 _symmetry_equiv_pos_site_id
 _symmetry_equiv_pos_as_xyz
  1  'x, y, z'
loop_
 _atom_site_type_symbol
 _atom_site_label
 _atom_site_symmetry_multiplicity
 _atom_site_fract_x
 _atom_site_fract_y
 _atom_site_fract_z
 _atom_site_occupancy
  La  La0  1  0.500000  0.000000  0.500000  1
  Sm  Sm1  1  0.872797  0.872797  0.000000  1
  Sm  Sm2  1  0.127203  0.127203  0.000000  1
  Zn  Zn3  1  0.477519  0.673783  0.803737  1
  Zn  Zn4  1  0.870046  0.673783  0.196263  1
  Zn  Zn5  1  0.129954  0.326217  0.803737  1
  Zn  Zn6  1  0.522481  0.326217  0.196263  1
  Au  Au7  1  0.279198  0.779198  0.500000  1
  Au  Au8  1  0.720802  0.220802  0.500000  1
  Au  Au9  1  0.807613  0.500000  0.307613  1
  Au  Au10  1  0.192387  0.500000  0.692387  1
