# generated using pymatgen
data_Cs3RbI16
_symmetry_space_group_name_H-M   'P 1'
_cell_length_a   9.19008342
_cell_length_b   10.65676971
_cell_length_c   11.60449969
_cell_angle_alpha   67.89775196
_cell_angle_beta   90.24581320
_cell_angle_gamma   89.47133901
_symmetry_Int_Tables_number   1
_chemical_formula_structural   Cs3RbI16
_chemical_formula_sum   'Cs3 Rb1 I16'
_cell_volume   1052.90612317
_cell_formula_units_Z   1
loop_
 _symmetry_equiv_pos_site_id
 _symmetry_equiv_pos_as_xyz
  1  'x, y, z'
loop_
 _atom_site_type_symbol
 _atom_site_label
 _atom_site_symmetry_multiplicity
 _atom_site_fract_x
 _atom_site_fract_y
 _atom_site_fract_z
 _atom_site_occupancy
  Cs  Cs0  1  0.123240  0.262182  0.804331  1
  Cs  Cs1  1  0.380659  0.270968  0.304481  1
  Cs  Cs2  1  0.873755  0.734114  0.193672  1
  Rb  Rb3  1  0.614269  0.740624  0.706453  1
  I  I4  1  0.355448  0.544427  0.515529  1
  I  I5  1  0.855882  0.461966  0.978135  1
  I  I6  1  0.640727  0.459183  0.486838  1
  I  I7  1  0.140214  0.547459  0.003792  1
  I  I8  1  0.034845  0.658515  0.557500  1
  I  I9  1  0.532448  0.346166  0.939288  1
  I  I10  1  0.973871  0.341389  0.440509  1
  I  I11  1  0.467464  0.662580  0.043472  1
  I  I12  1  0.209660  0.867015  0.613647  1
  I  I13  1  0.700398  0.132410  0.883517  1
  I  I14  1  0.799261  0.126557  0.397751  1
  I  I15  1  0.294969  0.870931  0.104818  1
  I  I16  1  0.396480  0.054180  0.670267  1
  I  I17  1  0.878696  0.936823  0.827460  1
  I  I18  1  0.615101  0.925302  0.358765  1
  I  I19  1  0.112610  0.057206  0.169776  1
