# generated using pymatgen
data_Pa5Si3H
_symmetry_space_group_name_H-M   'P 1'
_cell_length_a   8.31211578
_cell_length_b   8.31211539
_cell_length_c   8.31211555
_cell_angle_alpha   126.83512056
_cell_angle_beta   126.83511744
_cell_angle_gamma   78.51983900
_symmetry_Int_Tables_number   1
_chemical_formula_structural   Pa5Si3H
_chemical_formula_sum   'Pa10 Si6 H2'
_cell_volume   356.16522856
_cell_formula_units_Z   2
loop_
 _symmetry_equiv_pos_site_id
 _symmetry_equiv_pos_as_xyz
  1  'x, y, z'
loop_
 _atom_site_type_symbol
 _atom_site_label
 _atom_site_symmetry_multiplicity
 _atom_site_fract_x
 _atom_site_fract_y
 _atom_site_fract_z
 _atom_site_occupancy
  Pa  Pa0  1  0.500000  0.500000  0.000000  1
  Pa  Pa1  1  0.000000  0.000000  0.000000  1
  Pa  Pa2  1  0.526031  0.026031  0.854940  1
  Pa  Pa3  1  0.171091  0.671091  0.145060  1
  Pa  Pa4  1  0.026031  0.171091  0.500000  1
  Pa  Pa5  1  0.671091  0.526031  0.500000  1
  Pa  Pa6  1  0.473969  0.973969  0.145060  1
  Pa  Pa7  1  0.828909  0.328909  0.854940  1
  Pa  Pa8  1  0.973969  0.828909  0.500000  1
  Pa  Pa9  1  0.328909  0.473969  0.500000  1
  Si  Si10  1  0.250000  0.250000  0.000000  1
  Si  Si11  1  0.750000  0.750000  0.000000  1
  Si  Si12  1  0.881975  0.381975  0.263949  1
  Si  Si13  1  0.118025  0.618025  0.736051  1
  Si  Si14  1  0.381975  0.118025  0.500000  1
  Si  Si15  1  0.618025  0.881975  0.500000  1
  H  H16  1  0.250000  0.750000  0.500000  1
  H  H17  1  0.750000  0.250000  0.500000  1
