# generated using pymatgen
data_Dy12Er4MgCo4Ag3
_symmetry_space_group_name_H-M   'P 1'
_cell_length_a   9.41204953
_cell_length_b   9.41665691
_cell_length_c   9.41529700
_cell_angle_alpha   60.00478062
_cell_angle_beta   59.98858926
_cell_angle_gamma   59.94627473
_symmetry_Int_Tables_number   1
_chemical_formula_structural   Dy12Er4MgCo4Ag3
_chemical_formula_sum   'Dy12 Er4 Mg1 Co4 Ag3'
_cell_volume   589.79565506
_cell_formula_units_Z   1
loop_
 _symmetry_equiv_pos_site_id
 _symmetry_equiv_pos_as_xyz
  1  'x, y, z'
loop_
 _atom_site_type_symbol
 _atom_site_label
 _atom_site_symmetry_multiplicity
 _atom_site_fract_x
 _atom_site_fract_y
 _atom_site_fract_z
 _atom_site_occupancy
  Dy  Dy0  1  0.184835  0.185769  0.814699  1
  Dy  Dy1  1  0.811079  0.813133  0.187894  1
  Dy  Dy2  1  0.935843  0.562561  0.562679  1
  Dy  Dy3  1  0.562128  0.937420  0.937218  1
  Dy  Dy4  1  0.562128  0.937420  0.563233  1
  Dy  Dy5  1  0.935843  0.562561  0.938916  1
  Dy  Dy6  1  0.562164  0.563106  0.937365  1
  Dy  Dy7  1  0.935989  0.938920  0.562545  1
  Dy  Dy8  1  0.346992  0.346653  0.345873  1
  Dy  Dy9  1  0.346992  0.346653  0.960481  1
  Dy  Dy10  1  0.346295  0.960514  0.346595  1
  Dy  Dy11  1  0.948743  0.349926  0.350666  1
  Er  Er12  1  0.810651  0.188334  0.188229  1
  Er  Er13  1  0.185368  0.814128  0.814404  1
  Er  Er14  1  0.185368  0.814128  0.186101  1
  Er  Er15  1  0.810651  0.188334  0.812786  1
  Mg  Mg16  1  0.289008  0.570613  0.570189  1
  Co  Co17  1  0.138118  0.142234  0.142355  1
  Co  Co18  1  0.138118  0.142234  0.577292  1
  Co  Co19  1  0.138374  0.577243  0.142191  1
  Co  Co20  1  0.575775  0.141567  0.141328  1
  Ag  Ag21  1  0.583065  0.583088  0.583449  1
  Ag  Ag22  1  0.583065  0.583088  0.250398  1
  Ag  Ag23  1  0.583404  0.250370  0.583112  1
