# generated using pymatgen
data_Y16Cd4CoIr2Ru
_symmetry_space_group_name_H-M   'P 1'
_cell_length_a   9.67269071
_cell_length_b   9.63068115
_cell_length_c   9.68376000
_cell_angle_alpha   59.81751518
_cell_angle_beta   59.96213681
_cell_angle_gamma   59.76523084
_symmetry_Int_Tables_number   1
_chemical_formula_structural   Y16Cd4CoIr2Ru
_chemical_formula_sum   'Y16 Cd4 Co1 Ir2 Ru1'
_cell_volume   635.67156061
_cell_formula_units_Z   1
loop_
 _symmetry_equiv_pos_site_id
 _symmetry_equiv_pos_as_xyz
  1  'x, y, z'
loop_
 _atom_site_type_symbol
 _atom_site_label
 _atom_site_symmetry_multiplicity
 _atom_site_fract_x
 _atom_site_fract_y
 _atom_site_fract_z
 _atom_site_occupancy
  Y  Y0  1  0.438668  0.438790  0.061271  1
  Y  Y1  1  0.064803  0.059809  0.437694  1
  Y  Y2  1  0.438109  0.061124  0.064077  1
  Y  Y3  1  0.845487  0.852809  0.843662  1
  Y  Y4  1  0.688702  0.305300  0.315502  1
  Y  Y5  1  0.062091  0.439478  0.438619  1
  Y  Y6  1  0.308818  0.687606  0.691191  1
  Y  Y7  1  0.314326  0.307280  0.689198  1
  Y  Y8  1  0.845487  0.852809  0.458043  1
  Y  Y9  1  0.690683  0.689263  0.310026  1
  Y  Y10  1  0.456850  0.854707  0.844221  1
  Y  Y11  1  0.062091  0.439478  0.059813  1
  Y  Y12  1  0.849452  0.454578  0.847985  1
  Y  Y13  1  0.438109  0.061124  0.436689  1
  Y  Y14  1  0.308818  0.687606  0.312384  1
  Y  Y15  1  0.688702  0.305300  0.690497  1
  Cd  Cd16  1  0.080612  0.757622  0.080883  1
  Cd  Cd17  1  0.080584  0.079702  0.758798  1
  Cd  Cd18  1  0.758225  0.079828  0.080974  1
  Cd  Cd19  1  0.080584  0.079702  0.080917  1
  Co  Co20  1  0.640783  0.078955  0.640130  1
  Ir  Ir21  1  0.640052  0.642425  0.640319  1
  Ir  Ir22  1  0.640052  0.642425  0.077203  1
  Ru  Ru23  1  0.077913  0.642280  0.639903  1
