# generated using pymatgen
data_Nd3Gd7C4Cl17
_symmetry_space_group_name_H-M   'P 1'
_cell_length_a   8.84650556
_cell_length_b   9.48495772
_cell_length_c   11.92917400
_cell_angle_alpha   104.58188440
_cell_angle_beta   96.15377391
_cell_angle_gamma   110.90705257
_symmetry_Int_Tables_number   1
_chemical_formula_structural   Nd3Gd7C4Cl17
_chemical_formula_sum   'Nd3 Gd7 C4 Cl17'
_cell_volume   883.18544045
_cell_formula_units_Z   1
loop_
 _symmetry_equiv_pos_site_id
 _symmetry_equiv_pos_as_xyz
  1  'x, y, z'
loop_
 _atom_site_type_symbol
 _atom_site_label
 _atom_site_symmetry_multiplicity
 _atom_site_fract_x
 _atom_site_fract_y
 _atom_site_fract_z
 _atom_site_occupancy
  Nd  Nd0  1  0.652172  0.486759  0.438884  1
  Nd  Nd1  1  0.347086  0.513354  0.561446  1
  Nd  Nd2  1  0.079439  0.425261  0.270001  1
  Gd  Gd3  1  0.916173  0.575109  0.729766  1
  Gd  Gd4  1  0.410262  0.371072  0.138448  1
  Gd  Gd5  1  0.588013  0.628499  0.861050  1
  Gd  Gd6  1  0.491243  0.778936  0.341961  1
  Gd  Gd7  1  0.510058  0.221577  0.658189  1
  Gd  Gd8  1  0.214634  0.104485  0.310288  1
  Gd  Gd9  1  0.786689  0.895689  0.690111  1
  C  C10  1  0.397855  0.527830  0.340867  1
  C  C11  1  0.604672  0.472713  0.659543  1
  C  C12  1  0.328600  0.365279  0.335407  1
  C  C13  1  0.674338  0.635176  0.665097  1
  Cl  Cl14  1  0.111171  0.349517  0.041654  1
  Cl  Cl15  1  0.889481  0.648527  0.953675  1
  Cl  Cl16  1  0.804667  0.822127  0.448086  1
  Cl  Cl17  1  0.196023  0.178094  0.552467  1
  Cl  Cl18  1  0.998791  0.500681  0.503070  1
  Cl  Cl19  1  0.299284  0.052186  0.099844  1
  Cl  Cl20  1  0.700398  0.947589  0.899895  1
  Cl  Cl21  1  0.913655  0.103761  0.250888  1
  Cl  Cl22  1  0.084437  0.889204  0.749286  1
  Cl  Cl23  1  0.538813  0.131297  0.414169  1
  Cl  Cl24  1  0.462387  0.869373  0.586284  1
  Cl  Cl25  1  0.734061  0.413094  0.211094  1
  Cl  Cl26  1  0.262758  0.586974  0.788481  1
  Cl  Cl27  1  0.173741  0.760879  0.288344  1
  Cl  Cl28  1  0.828819  0.244987  0.712089  1
  Cl  Cl29  1  0.534297  0.680873  0.113204  1
  Cl  Cl30  1  0.465985  0.319103  0.886410  1
