# generated using pymatgen
data_Na3Er(Al3Pd)6
_symmetry_space_group_name_H-M   'P 1'
_cell_length_a   7.64315102
_cell_length_b   7.62190738
_cell_length_c   9.50786200
_cell_angle_alpha   90.00000000
_cell_angle_beta   90.00000000
_cell_angle_gamma   119.63027629
_symmetry_Int_Tables_number   1
_chemical_formula_structural   Na3Er(Al3Pd)6
_chemical_formula_sum   'Na3 Er1 Al18 Pd6'
_cell_volume   481.45486843
_cell_formula_units_Z   1
loop_
 _symmetry_equiv_pos_site_id
 _symmetry_equiv_pos_as_xyz
  1  'x, y, z'
loop_
 _atom_site_type_symbol
 _atom_site_label
 _atom_site_symmetry_multiplicity
 _atom_site_fract_x
 _atom_site_fract_y
 _atom_site_fract_z
 _atom_site_occupancy
  Na  Na0  1  0.992496  0.669388  0.250000  1
  Na  Na1  1  0.673398  0.996040  0.250000  1
  Na  Na2  1  0.004878  0.329391  0.750000  1
  Er  Er3  1  0.330500  0.999132  0.750000  1
  Al  Al4  1  0.128845  0.131945  0.250000  1
  Al  Al5  1  0.872541  0.867222  0.750000  1
  Al  Al6  1  0.998482  0.334797  0.074938  1
  Al  Al7  1  0.998999  0.661706  0.926204  1
  Al  Al8  1  0.998999  0.661706  0.573796  1
  Al  Al9  1  0.334167  0.998510  0.419885  1
  Al  Al10  1  0.998482  0.334797  0.425062  1
  Al  Al11  1  0.669557  0.002826  0.574026  1
  Al  Al12  1  0.669557  0.002826  0.925974  1
  Al  Al13  1  0.334167  0.998510  0.080115  1
  Al  Al14  1  0.330724  0.332241  0.555403  1
  Al  Al15  1  0.666980  0.667957  0.446930  1
  Al  Al16  1  0.666980  0.667957  0.053070  1
  Al  Al17  1  0.330724  0.332241  0.944597  1
  Al  Al18  1  0.337827  0.548140  0.250000  1
  Al  Al19  1  0.657855  0.454196  0.750000  1
  Al  Al20  1  0.545912  0.341315  0.250000  1
  Al  Al21  1  0.459216  0.667669  0.750000  1
  Pd  Pd22  1  0.667238  0.327085  0.997765  1
  Pd  Pd23  1  0.329126  0.671829  0.996988  1
  Pd  Pd24  1  0.329126  0.671829  0.503012  1
  Pd  Pd25  1  0.667238  0.327085  0.502235  1
  Pd  Pd26  1  0.002995  0.000834  0.997314  1
  Pd  Pd27  1  0.002995  0.000834  0.502686  1
