# generated using pymatgen
data_Nb3CuPd12
_symmetry_space_group_name_H-M   'P 1'
_cell_length_a   5.61028700
_cell_length_b   5.61028649
_cell_length_c   9.11927900
_cell_angle_alpha   90.00000000
_cell_angle_beta   90.00000000
_cell_angle_gamma   119.99980844
_symmetry_Int_Tables_number   1
_chemical_formula_structural   Nb3CuPd12
_chemical_formula_sum   'Nb3 Cu1 Pd12'
_cell_volume   248.57765720
_cell_formula_units_Z   1
loop_
 _symmetry_equiv_pos_site_id
 _symmetry_equiv_pos_as_xyz
  1  'x, y, z'
loop_
 _atom_site_type_symbol
 _atom_site_label
 _atom_site_symmetry_multiplicity
 _atom_site_fract_x
 _atom_site_fract_y
 _atom_site_fract_z
 _atom_site_occupancy
  Nb  Nb0  1  0.000000  0.000000  0.505428  1
  Nb  Nb1  1  0.000000  0.000000  0.994572  1
  Nb  Nb2  1  0.666666  0.333334  0.250000  1
  Cu  Cu3  1  0.333333  0.666667  0.750000  1
  Pd  Pd4  1  0.500664  0.499336  0.499700  1
  Pd  Pd5  1  0.500663  0.001327  0.499699  1
  Pd  Pd6  1  0.998673  0.499337  0.499699  1
  Pd  Pd7  1  0.500664  0.499336  0.000300  1
  Pd  Pd8  1  0.500663  0.001327  0.000301  1
  Pd  Pd9  1  0.998673  0.499337  0.000301  1
  Pd  Pd10  1  0.165849  0.834151  0.250000  1
  Pd  Pd11  1  0.165850  0.331697  0.250000  1
  Pd  Pd12  1  0.668303  0.834150  0.250000  1
  Pd  Pd13  1  0.832930  0.167070  0.750000  1
  Pd  Pd14  1  0.832931  0.665861  0.750000  1
  Pd  Pd15  1  0.334139  0.167069  0.750000  1
