# generated using pymatgen
data_Ti8Al15Co5Pd2
_symmetry_space_group_name_H-M   'P 1'
_cell_length_a   8.52552587
_cell_length_b   8.52129531
_cell_length_c   8.52552723
_cell_angle_alpha   119.96709125
_cell_angle_beta   119.81344987
_cell_angle_gamma   90.20451400
_symmetry_Int_Tables_number   1
_chemical_formula_structural   Ti8Al15Co5Pd2
_chemical_formula_sum   'Ti8 Al15 Co5 Pd2'
_cell_volume   438.62640428
_cell_formula_units_Z   1
loop_
 _symmetry_equiv_pos_site_id
 _symmetry_equiv_pos_as_xyz
  1  'x, y, z'
loop_
 _atom_site_type_symbol
 _atom_site_label
 _atom_site_symmetry_multiplicity
 _atom_site_fract_x
 _atom_site_fract_y
 _atom_site_fract_z
 _atom_site_occupancy
  Ti  Ti0  1  0.792066  0.290677  0.073864  1
  Ti  Ti1  1  0.216812  0.290677  0.498611  1
  Ti  Ti2  1  0.211312  0.707625  0.496313  1
  Ti  Ti3  1  0.212285  0.714397  0.925648  1
  Ti  Ti4  1  0.788749  0.714397  0.502113  1
  Ti  Ti5  1  0.784402  0.287241  0.502839  1
  Ti  Ti6  1  0.387385  0.130896  0.743511  1
  Ti  Ti7  1  0.378712  0.638632  0.259919  1
  Al  Al8  1  0.997711  0.497575  0.499864  1
  Al  Al9  1  0.157031  0.340850  0.183818  1
  Al  Al10  1  0.152322  0.968909  0.816587  1
  Al  Al11  1  0.157381  0.352147  0.817988  1
  Al  Al12  1  0.534158  0.352147  0.194766  1
  Al  Al13  1  0.842241  0.656709  0.814469  1
  Al  Al14  1  0.849816  0.034164  0.184348  1
  Al  Al15  1  0.837333  0.648165  0.176596  1
  Al  Al16  1  0.471570  0.648165  0.810832  1
  Al  Al17  1  0.377119  0.123935  0.265306  1
  Al  Al18  1  0.858630  0.123935  0.746816  1
  Al  Al19  1  0.614200  0.871110  0.256910  1
  Al  Al20  1  0.622020  0.361752  0.739731  1
  Al  Al21  1  0.622828  0.875184  0.735662  1
  Al  Al22  1  0.139520  0.875184  0.252355  1
  Co  Co23  1  0.496993  0.494783  0.997790  1
  Co  Co24  1  0.497059  0.501238  0.497275  1
  Co  Co25  1  0.003962  0.501238  0.004179  1
  Co  Co26  1  0.000638  0.000075  0.999437  1
  Co  Co27  1  0.497020  0.998807  0.501787  1
  Pd  Pd28  1  0.998646  0.999692  0.499618  1
  Pd  Pd29  1  0.500075  0.999692  0.001046  1
