# generated using pymatgen
data_SnHg2(SCl)2
_symmetry_space_group_name_H-M   'P 1'
_cell_length_a   8.09278000
_cell_length_b   9.90106209
_cell_length_c   12.84079004
_cell_angle_alpha   57.69109078
_cell_angle_beta   90.00000000
_cell_angle_gamma   90.00000000
_symmetry_Int_Tables_number   1
_chemical_formula_structural   SnHg2(SCl)2
_chemical_formula_sum   'Sn4 Hg8 S8 Cl8'
_cell_volume   869.60058706
_cell_formula_units_Z   4
loop_
 _symmetry_equiv_pos_site_id
 _symmetry_equiv_pos_as_xyz
  1  'x, y, z'
loop_
 _atom_site_type_symbol
 _atom_site_label
 _atom_site_symmetry_multiplicity
 _atom_site_fract_x
 _atom_site_fract_y
 _atom_site_fract_z
 _atom_site_occupancy
  Sn  Sn0  1  0.424955  0.140242  0.568740  1
  Sn  Sn1  1  0.075045  0.140242  0.068740  1
  Sn  Sn2  1  0.575045  0.859758  0.431260  1
  Sn  Sn3  1  0.924955  0.859758  0.931260  1
  Hg  Hg4  1  0.537929  0.253720  0.872175  1
  Hg  Hg5  1  0.962071  0.253720  0.372175  1
  Hg  Hg6  1  0.462071  0.746280  0.127825  1
  Hg  Hg7  1  0.037929  0.746280  0.627825  1
  Hg  Hg8  1  0.810101  0.415949  0.626875  1
  Hg  Hg9  1  0.689899  0.415949  0.126875  1
  Hg  Hg10  1  0.189899  0.584051  0.373125  1
  Hg  Hg11  1  0.310101  0.584051  0.873125  1
  S  S12  1  0.673253  0.166452  0.754118  1
  S  S13  1  0.826747  0.166452  0.254118  1
  S  S14  1  0.326747  0.833548  0.245882  1
  S  S15  1  0.173253  0.833548  0.745882  1
  S  S16  1  0.408409  0.316439  0.007701  1
  S  S17  1  0.091591  0.316439  0.507701  1
  S  S18  1  0.591591  0.683561  0.992299  1
  S  S19  1  0.908409  0.683561  0.492299  1
  Cl  Cl20  1  0.582965  0.393040  0.397785  1
  Cl  Cl21  1  0.917035  0.393040  0.897785  1
  Cl  Cl22  1  0.417035  0.606960  0.602215  1
  Cl  Cl23  1  0.082965  0.606960  0.102215  1
  Cl  Cl24  1  0.324906  0.074935  0.398772  1
  Cl  Cl25  1  0.175094  0.074935  0.898772  1
  Cl  Cl26  1  0.675094  0.925065  0.601228  1
  Cl  Cl27  1  0.824906  0.925065  0.101228  1
