# generated using pymatgen
data_LuNb(SeO3)4
_symmetry_space_group_name_H-M   'P 1'
_cell_length_a   8.56690500
_cell_length_b   8.78176737
_cell_length_c   8.65008021
_cell_angle_alpha   90.40616883
_cell_angle_beta   90.00000000
_cell_angle_gamma   90.00000000
_symmetry_Int_Tables_number   1
_chemical_formula_structural   LuNb(SeO3)4
_chemical_formula_sum   'Lu2 Nb2 Se8 O24'
_cell_volume   650.75138593
_cell_formula_units_Z   2
loop_
 _symmetry_equiv_pos_site_id
 _symmetry_equiv_pos_as_xyz
  1  'x, y, z'
loop_
 _atom_site_type_symbol
 _atom_site_label
 _atom_site_symmetry_multiplicity
 _atom_site_fract_x
 _atom_site_fract_y
 _atom_site_fract_z
 _atom_site_occupancy
  Lu  Lu0  1  0.000000  0.500000  0.000000  1
  Lu  Lu1  1  0.500000  0.500000  0.500000  1
  Nb  Nb2  1  0.000000  0.000000  0.500000  1
  Nb  Nb3  1  0.500000  0.000000  0.000000  1
  Se  Se4  1  0.331087  0.681416  0.175029  1
  Se  Se5  1  0.831087  0.318584  0.324971  1
  Se  Se6  1  0.689862  0.827713  0.684885  1
  Se  Se7  1  0.189862  0.172287  0.815115  1
  Se  Se8  1  0.668913  0.318584  0.824971  1
  Se  Se9  1  0.168913  0.681416  0.675029  1
  Se  Se10  1  0.310138  0.172287  0.315115  1
  Se  Se11  1  0.810138  0.827713  0.184885  1
  O  O12  1  0.241690  0.562551  0.048117  1
  O  O13  1  0.741690  0.437449  0.451883  1
  O  O14  1  0.774113  0.965125  0.563181  1
  O  O15  1  0.274113  0.034875  0.936819  1
  O  O16  1  0.557175  0.950455  0.778182  1
  O  O17  1  0.467191  0.569717  0.259491  1
  O  O18  1  0.967191  0.430283  0.240509  1
  O  O19  1  0.057175  0.049545  0.721818  1
  O  O20  1  0.954966  0.216838  0.457875  1
  O  O21  1  0.571541  0.735847  0.561371  1
  O  O22  1  0.454966  0.783162  0.042125  1
  O  O23  1  0.071541  0.264153  0.938629  1
  O  O24  1  0.758310  0.437449  0.951883  1
  O  O25  1  0.258310  0.562551  0.548117  1
  O  O26  1  0.225887  0.034875  0.436819  1
  O  O27  1  0.725887  0.965125  0.063181  1
  O  O28  1  0.442825  0.049545  0.221818  1
  O  O29  1  0.532809  0.430283  0.740509  1
  O  O30  1  0.032809  0.569717  0.759491  1
  O  O31  1  0.942825  0.950455  0.278182  1
  O  O32  1  0.045034  0.783162  0.542125  1
  O  O33  1  0.428459  0.264153  0.438629  1
  O  O34  1  0.545034  0.216838  0.957875  1
  O  O35  1  0.928459  0.735847  0.061371  1
