# generated using pymatgen
data_Dy5LuAl24(Os3Pt)2
_symmetry_space_group_name_H-M   'P 1'
_cell_length_a   8.81406002
_cell_length_b   8.80211404
_cell_length_c   9.56901740
_cell_angle_alpha   90.04009453
_cell_angle_beta   90.15786792
_cell_angle_gamma   119.52706492
_symmetry_Int_Tables_number   1
_chemical_formula_structural   Dy5LuAl24(Os3Pt)2
_chemical_formula_sum   'Dy5 Lu1 Al24 Os6 Pt2'
_cell_volume   645.96370985
_cell_formula_units_Z   1
loop_
 _symmetry_equiv_pos_site_id
 _symmetry_equiv_pos_as_xyz
  1  'x, y, z'
loop_
 _atom_site_type_symbol
 _atom_site_label
 _atom_site_symmetry_multiplicity
 _atom_site_fract_x
 _atom_site_fract_y
 _atom_site_fract_z
 _atom_site_occupancy
  Dy  Dy0  1  0.810288  0.612289  0.746709  1
  Dy  Dy1  1  0.616187  0.809431  0.252588  1
  Dy  Dy2  1  0.384398  0.190672  0.747321  1
  Dy  Dy3  1  0.189804  0.805234  0.252428  1
  Dy  Dy4  1  0.809460  0.194059  0.747510  1
  Lu  Lu5  1  0.191544  0.392941  0.254590  1
  Al  Al6  1  0.328606  0.664503  0.027579  1
  Al  Al7  1  0.671374  0.334860  0.973608  1
  Al  Al8  1  0.666362  0.332248  0.523186  1
  Al  Al9  1  0.333406  0.667454  0.476085  1
  Al  Al10  1  0.164467  0.327817  0.574576  1
  Al  Al11  1  0.834958  0.671348  0.424051  1
  Al  Al12  1  0.672345  0.835866  0.574628  1
  Al  Al13  1  0.841628  0.674547  0.078278  1
  Al  Al14  1  0.326828  0.163890  0.424353  1
  Al  Al15  1  0.158383  0.325054  0.923291  1
  Al  Al16  1  0.164733  0.836394  0.576035  1
  Al  Al17  1  0.323094  0.162756  0.079770  1
  Al  Al18  1  0.835929  0.163587  0.423046  1
  Al  Al19  1  0.676202  0.837325  0.921096  1
  Al  Al20  1  0.842110  0.168150  0.079025  1
  Al  Al21  1  0.159055  0.831856  0.922002  1
  Al  Al22  1  0.561424  0.125152  0.251466  1
  Al  Al23  1  0.438242  0.874453  0.748024  1
  Al  Al24  1  0.876194  0.439094  0.249052  1
  Al  Al25  1  0.124068  0.559862  0.751075  1
  Al  Al26  1  0.561317  0.437377  0.251896  1
  Al  Al27  1  0.437176  0.561933  0.747679  1
  Al  Al28  1  0.999702  0.004861  0.250365  1
  Al  Al29  1  0.002423  0.999048  0.749686  1
  Os  Os30  1  0.000584  0.499501  0.000873  1
  Os  Os31  1  0.499816  0.999649  0.499688  1
  Os  Os32  1  0.000449  0.499420  0.499200  1
  Os  Os33  1  0.498810  0.499344  0.499164  1
  Os  Os34  1  0.999813  0.999404  0.999957  1
  Os  Os35  1  0.999699  0.999407  0.499827  1
  Pt  Pt36  1  0.499754  0.999617  0.999881  1
  Pt  Pt37  1  0.499366  0.499595  0.000412  1
