# generated using pymatgen
data_Y3CdCu(HgAu)2
_symmetry_space_group_name_H-M   'P 1'
_cell_length_a   7.87033975
_cell_length_b   7.87034042
_cell_length_c   3.77239500
_cell_angle_alpha   90.00000000
_cell_angle_beta   90.00000000
_cell_angle_gamma   120.74816660
_symmetry_Int_Tables_number   1
_chemical_formula_structural   Y3CdCu(HgAu)2
_chemical_formula_sum   'Y3 Cd1 Cu1 Hg2 Au2'
_cell_volume   200.82187400
_cell_formula_units_Z   1
loop_
 _symmetry_equiv_pos_site_id
 _symmetry_equiv_pos_as_xyz
  1  'x, y, z'
loop_
 _atom_site_type_symbol
 _atom_site_label
 _atom_site_symmetry_multiplicity
 _atom_site_fract_x
 _atom_site_fract_y
 _atom_site_fract_z
 _atom_site_occupancy
  Y  Y0  1  0.595619  0.006522  0.000000  1
  Y  Y1  1  0.006522  0.595619  0.000000  1
  Y  Y2  1  0.395414  0.395414  0.000000  1
  Cd  Cd3  1  0.748878  0.748878  0.500000  1
  Cu  Cu4  1  0.998676  0.998676  0.000000  1
  Hg  Hg5  1  0.251763  0.995066  0.500000  1
  Hg  Hg6  1  0.995066  0.251763  0.500000  1
  Au  Au7  1  0.340952  0.667110  0.500000  1
  Au  Au8  1  0.667110  0.340952  0.500000  1
