# generated using pymatgen
data_Cd3FeP8(PbO7)4
_symmetry_space_group_name_H-M   'P 1'
_cell_length_a   8.67105520
_cell_length_b   5.53109300
_cell_length_c   14.25694215
_cell_angle_alpha   67.56805598
_cell_angle_beta   89.89508127
_cell_angle_gamma   89.89166133
_symmetry_Int_Tables_number   1
_chemical_formula_structural   Cd3FeP8(PbO7)4
_chemical_formula_sum   'Cd3 Fe1 P8 Pb4 O28'
_cell_volume   632.02880443
_cell_formula_units_Z   1
loop_
 _symmetry_equiv_pos_site_id
 _symmetry_equiv_pos_as_xyz
  1  'x, y, z'
loop_
 _atom_site_type_symbol
 _atom_site_label
 _atom_site_symmetry_multiplicity
 _atom_site_fract_x
 _atom_site_fract_y
 _atom_site_fract_z
 _atom_site_occupancy
  Cd  Cd0  1  0.349158  0.924473  0.900613  1
  Cd  Cd1  1  0.849667  0.077627  0.599400  1
  Cd  Cd2  1  0.649096  0.076673  0.101345  1
  Fe  Fe3  1  0.151718  0.921887  0.396341  1
  P  P4  1  0.538641  0.914526  0.335654  1
  P  P5  1  0.291651  0.291678  0.023448  1
  P  P6  1  0.205998  0.293236  0.517958  1
  P  P7  1  0.455979  0.094549  0.664379  1
  P  P8  1  0.958019  0.909404  0.834012  1
  P  P9  1  0.707782  0.707904  0.978370  1
  P  P10  1  0.041805  0.083135  0.169200  1
  P  P11  1  0.800270  0.709513  0.476415  1
  Pb  Pb12  1  0.682713  0.427258  0.775464  1
  Pb  Pb13  1  0.817977  0.429354  0.275499  1
  Pb  Pb14  1  0.316636  0.561271  0.227366  1
  Pb  Pb15  1  0.181783  0.578983  0.721383  1
  O  O16  1  0.564506  0.212058  0.292057  1
  O  O17  1  0.611148  0.939550  0.906323  1
  O  O18  1  0.127060  0.196529  0.238464  1
  O  O19  1  0.110637  0.072115  0.596507  1
  O  O20  1  0.872887  0.169795  0.158955  1
  O  O21  1  0.063172  0.786025  0.204745  1
  O  O22  1  0.625569  0.175845  0.654286  1
  O  O23  1  0.614911  0.782742  0.269183  1
  O  O24  1  0.905823  0.930790  0.406371  1
  O  O25  1  0.368746  0.837649  0.353558  1
  O  O26  1  0.112764  0.217427  0.055557  1
  O  O27  1  0.673375  0.451594  0.964017  1
  O  O28  1  0.195605  0.285602  0.411318  1
  O  O29  1  0.622293  0.798665  0.445821  1
  O  O30  1  0.432103  0.796882  0.703622  1
  O  O31  1  0.872897  0.786313  0.768023  1
  O  O32  1  0.810719  0.683283  0.587520  1
  O  O33  1  0.372168  0.217119  0.731407  1
  O  O34  1  0.826395  0.451287  0.461679  1
  O  O35  1  0.171062  0.562011  0.521310  1
  O  O36  1  0.934727  0.206804  0.794995  1
  O  O37  1  0.886969  0.783409  0.947893  1
  O  O38  1  0.388048  0.059103  0.094732  1
  O  O39  1  0.327245  0.547490  0.038233  1
  O  O40  1  0.695645  0.684142  0.089080  1
  O  O41  1  0.302087  0.316968  0.912467  1
  O  O42  1  0.385543  0.223365  0.550668  1
  O  O43  1  0.127004  0.823966  0.844364  1
