# generated using pymatgen
data_KRbH9Os
_symmetry_space_group_name_H-M   'P 1'
_cell_length_a   9.95345900
_cell_length_b   9.95345795
_cell_length_c   5.51279900
_cell_angle_alpha   90.00000000
_cell_angle_beta   90.00000000
_cell_angle_gamma   119.99999353
_symmetry_Int_Tables_number   1
_chemical_formula_structural   KRbH9Os
_chemical_formula_sum   'K3 Rb3 H27 Os3'
_cell_volume   472.98877693
_cell_formula_units_Z   3
loop_
 _symmetry_equiv_pos_site_id
 _symmetry_equiv_pos_as_xyz
  1  'x, y, z'
loop_
 _atom_site_type_symbol
 _atom_site_label
 _atom_site_symmetry_multiplicity
 _atom_site_fract_x
 _atom_site_fract_y
 _atom_site_fract_z
 _atom_site_occupancy
  K  K0  1  0.266274  0.000000  0.500000  1
  K  K1  1  0.000000  0.266274  0.500000  1
  K  K2  1  0.733726  0.733726  0.500000  1
  Rb  Rb3  1  0.610596  0.000000  0.000000  1
  Rb  Rb4  1  0.000000  0.610596  0.000000  1
  Rb  Rb5  1  0.389404  0.389404  0.000000  1
  H  H6  1  0.879446  0.000000  0.217654  1
  H  H7  1  0.000000  0.879446  0.217654  1
  H  H8  1  0.879446  0.000000  0.782346  1
  H  H9  1  0.000000  0.879446  0.782346  1
  H  H10  1  0.120554  0.120554  0.217654  1
  H  H11  1  0.120554  0.120554  0.782346  1
  H  H12  1  0.169167  0.000000  0.000000  1
  H  H13  1  0.000000  0.169167  0.000000  1
  H  H14  1  0.830833  0.830833  0.000000  1
  H  H15  1  0.221915  0.542556  0.282555  1
  H  H16  1  0.457444  0.679358  0.282555  1
  H  H17  1  0.221915  0.542556  0.717445  1
  H  H18  1  0.542556  0.221915  0.717445  1
  H  H19  1  0.320642  0.778085  0.282555  1
  H  H20  1  0.457444  0.679358  0.717445  1
  H  H21  1  0.679358  0.457444  0.717445  1
  H  H22  1  0.542556  0.221915  0.282555  1
  H  H23  1  0.320642  0.778085  0.717445  1
  H  H24  1  0.679358  0.457444  0.282555  1
  H  H25  1  0.778085  0.320642  0.717445  1
  H  H26  1  0.778085  0.320642  0.282555  1
  H  H27  1  0.350262  0.507720  0.500000  1
  H  H28  1  0.492280  0.842542  0.500000  1
  H  H29  1  0.507720  0.350262  0.500000  1
  H  H30  1  0.157458  0.649738  0.500000  1
  H  H31  1  0.842542  0.492280  0.500000  1
  H  H32  1  0.649738  0.157458  0.500000  1
  Os  Os33  1  0.000000  0.000000  0.000000  1
  Os  Os34  1  0.333333  0.666667  0.500000  1
  Os  Os35  1  0.666667  0.333333  0.500000  1
