# generated using pymatgen
data_Zr10InBi5S2
_symmetry_space_group_name_H-M   'P 1'
_cell_length_a   8.70519300
_cell_length_b   8.66287973
_cell_length_c   6.21375000
_cell_angle_alpha   90.00000000
_cell_angle_beta   90.00000000
_cell_angle_gamma   120.16171158
_symmetry_Int_Tables_number   1
_chemical_formula_structural   Zr10InBi5S2
_chemical_formula_sum   'Zr10 In1 Bi5 S2'
_cell_volume   405.14930634
_cell_formula_units_Z   1
loop_
 _symmetry_equiv_pos_site_id
 _symmetry_equiv_pos_as_xyz
  1  'x, y, z'
loop_
 _atom_site_type_symbol
 _atom_site_label
 _atom_site_symmetry_multiplicity
 _atom_site_fract_x
 _atom_site_fract_y
 _atom_site_fract_z
 _atom_site_occupancy
  Zr  Zr0  1  0.246403  0.000000  0.750000  1
  Zr  Zr1  1  0.756206  0.000000  0.250000  1
  Zr  Zr2  1  0.995008  0.241021  0.750000  1
  Zr  Zr3  1  0.000600  0.757180  0.250000  1
  Zr  Zr4  1  0.753985  0.758979  0.750000  1
  Zr  Zr5  1  0.243421  0.242820  0.250000  1
  Zr  Zr6  1  0.334668  0.668403  0.502967  1
  Zr  Zr7  1  0.666265  0.331597  0.502967  1
  Zr  Zr8  1  0.666265  0.331597  0.997033  1
  Zr  Zr9  1  0.334668  0.668403  0.997033  1
  In  In10  1  0.599257  0.000000  0.750000  1
  Bi  Bi11  1  0.403121  0.000000  0.250000  1
  Bi  Bi12  1  0.999160  0.601299  0.750000  1
  Bi  Bi13  1  0.000138  0.400143  0.250000  1
  Bi  Bi14  1  0.397861  0.398701  0.750000  1
  Bi  Bi15  1  0.599997  0.599857  0.250000  1
  S  S16  1  0.001486  0.000000  0.500533  1
  S  S17  1  0.001486  0.000000  0.999467  1
