# generated using pymatgen
data_Dy3Ho2P12Ru5Rh14
_symmetry_space_group_name_H-M   'P 1'
_cell_length_a   12.66251000
_cell_length_b   12.62873420
_cell_length_c   3.93830300
_cell_angle_alpha   90.00000000
_cell_angle_beta   90.00000000
_cell_angle_gamma   120.06551686
_symmetry_Int_Tables_number   1
_chemical_formula_structural   Dy3Ho2P12Ru5Rh14
_chemical_formula_sum   'Dy3 Ho2 P12 Ru5 Rh14'
_cell_volume   545.04490708
_cell_formula_units_Z   1
loop_
 _symmetry_equiv_pos_site_id
 _symmetry_equiv_pos_as_xyz
  1  'x, y, z'
loop_
 _atom_site_type_symbol
 _atom_site_label
 _atom_site_symmetry_multiplicity
 _atom_site_fract_x
 _atom_site_fract_y
 _atom_site_fract_z
 _atom_site_occupancy
  Dy  Dy0  1  0.666312  0.330908  0.000000  1
  Dy  Dy1  1  0.334577  0.668249  0.000000  1
  Dy  Dy2  1  0.999892  0.812984  0.500000  1
  Ho  Ho3  1  0.814265  0.001029  0.500000  1
  Ho  Ho4  1  0.184619  0.186247  0.500000  1
  P  P5  1  0.635527  0.999542  0.000000  1
  P  P6  1  0.364444  0.364790  0.000000  1
  P  P7  1  0.000173  0.634888  0.000000  1
  P  P8  1  0.688405  0.519091  0.500000  1
  P  P9  1  0.829374  0.307808  0.500000  1
  P  P10  1  0.316674  0.834582  0.500000  1
  P  P11  1  0.519220  0.690410  0.500000  1
  P  P12  1  0.180556  0.000212  0.000000  1
  P  P13  1  0.818951  0.818445  0.000000  1
  P  P14  1  0.997022  0.181305  0.000000  1
  P  P15  1  0.478733  0.167433  0.500000  1
  P  P16  1  0.169058  0.481224  0.500000  1
  Ru  Ru17  1  0.513075  0.872775  0.500000  1
  Ru  Ru18  1  0.715941  0.716111  0.500000  1
  Ru  Ru19  1  0.000592  0.284615  0.500000  1
  Ru  Ru20  1  0.817485  0.195576  0.000000  1
  Ru  Ru21  1  0.281179  0.999780  0.500000  1
  Rh  Rh22  1  0.624661  0.805257  0.000000  1
  Rh  Rh23  1  0.182899  0.377158  0.000000  1
  Rh  Rh24  1  0.375569  0.182131  0.000000  1
  Rh  Rh25  1  0.193980  0.818371  0.000000  1
  Rh  Rh26  1  0.804591  0.622204  0.000000  1
  Rh  Rh27  1  0.869407  0.507577  0.500000  1
  Rh  Rh28  1  0.491424  0.360153  0.500000  1
  Rh  Rh29  1  0.635749  0.127256  0.500000  1
  Rh  Rh30  1  0.132536  0.641510  0.500000  1
  Rh  Rh31  1  0.361106  0.490900  0.500000  1
  Rh  Rh32  1  0.999692  0.000461  0.000000  1
  Rh  Rh33  1  0.452387  0.999010  0.000000  1
  Rh  Rh34  1  0.548001  0.547219  0.000000  1
  Rh  Rh35  1  0.001926  0.452784  0.000000  1
