# generated using pymatgen
data_SmEu(MgRh)2
_symmetry_space_group_name_H-M   'P 1'
_cell_length_a   4.25146900
_cell_length_b   7.24452591
_cell_length_c   8.60942535
_cell_angle_alpha   89.33836678
_cell_angle_beta   90.00000000
_cell_angle_gamma   90.00000000
_symmetry_Int_Tables_number   1
_chemical_formula_structural   SmEu(MgRh)2
_chemical_formula_sum   'Sm2 Eu2 Mg4 Rh4'
_cell_volume   265.15156483
_cell_formula_units_Z   2
loop_
 _symmetry_equiv_pos_site_id
 _symmetry_equiv_pos_as_xyz
  1  'x, y, z'
loop_
 _atom_site_type_symbol
 _atom_site_label
 _atom_site_symmetry_multiplicity
 _atom_site_fract_x
 _atom_site_fract_y
 _atom_site_fract_z
 _atom_site_occupancy
  Sm  Sm0  1  0.250000  0.537177  0.825221  1
  Sm  Sm1  1  0.750000  0.462823  0.174779  1
  Eu  Eu2  1  0.750000  0.966344  0.323409  1
  Eu  Eu3  1  0.250000  0.033656  0.676591  1
  Mg  Mg4  1  0.750000  0.864708  0.942107  1
  Mg  Mg5  1  0.250000  0.135292  0.057893  1
  Mg  Mg6  1  0.250000  0.634190  0.443095  1
  Mg  Mg7  1  0.750000  0.365810  0.556905  1
  Rh  Rh8  1  0.750000  0.728817  0.636277  1
  Rh  Rh9  1  0.250000  0.271183  0.363723  1
  Rh  Rh10  1  0.250000  0.748240  0.122369  1
  Rh  Rh11  1  0.750000  0.251760  0.877631  1
