# generated using pymatgen
data_Ta5Nb2V2Si2B4W
_symmetry_space_group_name_H-M   'P 1'
_cell_length_a   7.17484461
_cell_length_b   7.17484376
_cell_length_c   7.19466600
_cell_angle_alpha   129.65295432
_cell_angle_beta   129.65294870
_cell_angle_gamma   73.99160488
_symmetry_Int_Tables_number   1
_chemical_formula_structural   Ta5Nb2V2Si2B4W
_chemical_formula_sum   'Ta5 Nb2 V2 Si2 B4 W1'
_cell_volume   214.08371003
_cell_formula_units_Z   1
loop_
 _symmetry_equiv_pos_site_id
 _symmetry_equiv_pos_as_xyz
  1  'x, y, z'
loop_
 _atom_site_type_symbol
 _atom_site_label
 _atom_site_symmetry_multiplicity
 _atom_site_fract_x
 _atom_site_fract_y
 _atom_site_fract_z
 _atom_site_occupancy
  Ta  Ta0  1  0.692421  0.192173  0.160700  1
  Ta  Ta1  1  0.971413  0.471610  0.167464  1
  Ta  Ta2  1  0.194387  0.031894  0.498894  1
  Ta  Ta3  1  0.467818  0.305863  0.499743  1
  Ta  Ta4  1  0.805585  0.967908  0.499596  1
  Nb  Nb5  1  0.531773  0.693675  0.498750  1
  Nb  Nb6  1  0.030207  0.529862  0.835773  1
  V  V7  1  0.001212  0.999815  0.999215  1
  V  V8  1  0.499883  0.501663  0.999726  1
  Si  Si9  1  0.249376  0.245907  0.998490  1
  Si  Si10  1  0.746266  0.749571  0.998917  1
  B  B11  1  0.624130  0.124978  0.747576  1
  B  B12  1  0.121978  0.380900  0.501758  1
  B  B13  1  0.882018  0.621526  0.501751  1
  B  B14  1  0.376835  0.877811  0.252369  1
  W  W15  1  0.304695  0.804842  0.839277  1
