# generated using pymatgen
data_LiPbF5
_symmetry_space_group_name_H-M   'P 1'
_cell_length_a   5.39007358
_cell_length_b   5.39007251
_cell_length_c   5.39007201
_cell_angle_alpha   99.48878389
_cell_angle_beta   99.48879300
_cell_angle_gamma   132.08953118
_symmetry_Int_Tables_number   1
_chemical_formula_structural   LiPbF5
_chemical_formula_sum   'Li1 Pb1 F5'
_cell_volume   106.20044379
_cell_formula_units_Z   1
loop_
 _symmetry_equiv_pos_site_id
 _symmetry_equiv_pos_as_xyz
  1  'x, y, z'
loop_
 _atom_site_type_symbol
 _atom_site_label
 _atom_site_symmetry_multiplicity
 _atom_site_fract_x
 _atom_site_fract_y
 _atom_site_fract_z
 _atom_site_occupancy
  Li  Li0  1  0.000000  0.000000  0.000000  1
  Pb  Pb1  1  0.250000  0.750000  0.500000  1
  F  F2  1  0.750000  0.250000  0.500000  1
  F  F3  1  0.312518  0.445877  0.295086  1
  F  F4  1  0.982568  0.687482  0.133358  1
  F  F5  1  0.554123  0.849209  0.866642  1
  F  F6  1  0.150791  0.017432  0.704914  1
