# generated using pymatgen
data_Pr3YZr4F28
_symmetry_space_group_name_H-M   'P 1'
_cell_length_a   5.88196121
_cell_length_b   9.34269777
_cell_length_c   12.54725374
_cell_angle_alpha   62.11300307
_cell_angle_beta   90.04906598
_cell_angle_gamma   89.98701611
_symmetry_Int_Tables_number   1
_chemical_formula_structural   Pr3YZr4F28
_chemical_formula_sum   'Pr3 Y1 Zr4 F28'
_cell_volume   609.44167305
_cell_formula_units_Z   1
loop_
 _symmetry_equiv_pos_site_id
 _symmetry_equiv_pos_as_xyz
  1  'x, y, z'
loop_
 _atom_site_type_symbol
 _atom_site_label
 _atom_site_symmetry_multiplicity
 _atom_site_fract_x
 _atom_site_fract_y
 _atom_site_fract_z
 _atom_site_occupancy
  Pr  Pr0  1  0.743417  0.810582  0.266834  1
  Pr  Pr1  1  0.243298  0.187245  0.233114  1
  Pr  Pr2  1  0.256765  0.183545  0.733514  1
  Y  Y3  1  0.757366  0.811835  0.766409  1
  Zr  Zr4  1  0.745835  0.269995  0.457489  1
  Zr  Zr5  1  0.244902  0.726437  0.040362  1
  Zr  Zr6  1  0.255585  0.726425  0.548896  1
  Zr  Zr7  1  0.755154  0.278238  0.953398  1
  F  F8  1  0.467226  0.713632  0.920169  1
  F  F9  1  0.962134  0.288649  0.577180  1
  F  F10  1  0.539455  0.290743  0.075581  1
  F  F11  1  0.040409  0.711984  0.426671  1
  F  F12  1  0.460407  0.283028  0.546426  1
  F  F13  1  0.958829  0.719464  0.947516  1
  F  F14  1  0.536833  0.716360  0.455814  1
  F  F15  1  0.040016  0.286095  0.044481  1
  F  F16  1  0.764588  0.526039  0.858065  1
  F  F17  1  0.265594  0.480361  0.641931  1
  F  F18  1  0.232555  0.481238  0.138201  1
  F  F19  1  0.734134  0.516681  0.361667  1
  F  F20  1  0.760738  0.032363  0.054634  1
  F  F21  1  0.260940  0.971547  0.445709  1
  F  F22  1  0.239709  0.972614  0.943514  1
  F  F23  1  0.739904  0.024501  0.560223  1
  F  F24  1  0.987691  0.735147  0.650384  1
  F  F25  1  0.488523  0.267942  0.853216  1
  F  F26  1  0.013262  0.267212  0.355594  1
  F  F27  1  0.510289  0.732161  0.143258  1
  F  F28  1  0.039925  0.744103  0.166483  1
  F  F29  1  0.541199  0.254626  0.331062  1
  F  F30  1  0.960404  0.257441  0.829279  1
  F  F31  1  0.469136  0.747644  0.671837  1
  F  F32  1  0.420355  0.968277  0.233233  1
  F  F33  1  0.919208  0.030575  0.266812  1
  F  F34  1  0.580258  0.019615  0.765666  1
  F  F35  1  0.063953  0.965656  0.735375  1
