# generated using pymatgen
data_DyEr4In4RuPt
_symmetry_space_group_name_H-M   'P 1'
_cell_length_a   3.59810200
_cell_length_b   8.04444668
_cell_length_c   18.24159220
_cell_angle_alpha   89.95367472
_cell_angle_beta   90.00000000
_cell_angle_gamma   90.00000000
_symmetry_Int_Tables_number   1
_chemical_formula_structural   DyEr4In4RuPt
_chemical_formula_sum   'Dy2 Er8 In8 Ru2 Pt2'
_cell_volume   527.99796480
_cell_formula_units_Z   2
loop_
 _symmetry_equiv_pos_site_id
 _symmetry_equiv_pos_as_xyz
  1  'x, y, z'
loop_
 _atom_site_type_symbol
 _atom_site_label
 _atom_site_symmetry_multiplicity
 _atom_site_fract_x
 _atom_site_fract_y
 _atom_site_fract_z
 _atom_site_occupancy
  Dy  Dy0  1  0.000000  0.000000  0.000000  1
  Dy  Dy1  1  0.000000  0.500000  0.500000  1
  Er  Er2  1  0.000000  0.116524  0.412256  1
  Er  Er3  1  0.000000  0.883476  0.587744  1
  Er  Er4  1  0.000000  0.381059  0.913207  1
  Er  Er5  1  0.000000  0.618941  0.086793  1
  Er  Er6  1  0.000000  0.235503  0.222488  1
  Er  Er7  1  0.000000  0.764497  0.777512  1
  Er  Er8  1  0.000000  0.248298  0.720679  1
  Er  Er9  1  0.000000  0.751702  0.279321  1
  In  In10  1  0.500000  0.424137  0.351099  1
  In  In11  1  0.500000  0.575863  0.648901  1
  In  In12  1  0.500000  0.068027  0.849554  1
  In  In13  1  0.500000  0.931973  0.150446  1
  In  In14  1  0.500000  0.294037  0.066101  1
  In  In15  1  0.500000  0.705963  0.933899  1
  In  In16  1  0.500000  0.205386  0.568798  1
  In  In17  1  0.500000  0.794614  0.431202  1
  Ru  Ru18  1  0.500000  0.020788  0.304224  1
  Ru  Ru19  1  0.500000  0.979212  0.695776  1
  Pt  Pt20  1  0.500000  0.477851  0.803292  1
  Pt  Pt21  1  0.500000  0.522149  0.196708  1
