# generated using pymatgen
data_NaSr(SiAu3)2
_symmetry_space_group_name_H-M   'P 1'
_cell_length_a   6.51748000
_cell_length_b   6.51748000
_cell_length_c   5.16919400
_cell_angle_alpha   90.00000000
_cell_angle_beta   90.00000000
_cell_angle_gamma   90.00000000
_symmetry_Int_Tables_number   1
_chemical_formula_structural   NaSr(SiAu3)2
_chemical_formula_sum   'Na1 Sr1 Si2 Au6'
_cell_volume   219.57467359
_cell_formula_units_Z   1
loop_
 _symmetry_equiv_pos_site_id
 _symmetry_equiv_pos_as_xyz
  1  'x, y, z'
loop_
 _atom_site_type_symbol
 _atom_site_label
 _atom_site_symmetry_multiplicity
 _atom_site_fract_x
 _atom_site_fract_y
 _atom_site_fract_z
 _atom_site_occupancy
  Na  Na0  1  0.500000  0.500000  0.000000  1
  Sr  Sr1  1  0.000000  0.000000  0.000000  1
  Si  Si2  1  0.500000  0.000000  0.688378  1
  Si  Si3  1  0.000000  0.500000  0.311622  1
  Au  Au4  1  0.257653  0.257653  0.500000  1
  Au  Au5  1  0.257653  0.742347  0.500000  1
  Au  Au6  1  0.742347  0.257653  0.500000  1
  Au  Au7  1  0.742347  0.742347  0.500000  1
  Au  Au8  1  0.500000  0.000000  0.147298  1
  Au  Au9  1  0.000000  0.500000  0.852702  1
