# generated using pymatgen
data_Li3Th8Sc9Si15As
_symmetry_space_group_name_H-M   'P 1'
_cell_length_a   7.16132526
_cell_length_b   7.45793399
_cell_length_c   14.30253875
_cell_angle_alpha   89.96008031
_cell_angle_beta   89.61958321
_cell_angle_gamma   89.80759807
_symmetry_Int_Tables_number   1
_chemical_formula_structural   Li3Th8Sc9Si15As
_chemical_formula_sum   'Li3 Th8 Sc9 Si15 As1'
_cell_volume   763.85855574
_cell_formula_units_Z   1
loop_
 _symmetry_equiv_pos_site_id
 _symmetry_equiv_pos_as_xyz
  1  'x, y, z'
loop_
 _atom_site_type_symbol
 _atom_site_label
 _atom_site_symmetry_multiplicity
 _atom_site_fract_x
 _atom_site_fract_y
 _atom_site_fract_z
 _atom_site_occupancy
  Li  Li0  1  0.164423  0.497118  0.753716  1
  Li  Li1  1  0.835878  0.509119  0.250304  1
  Li  Li2  1  0.335601  0.990860  0.249775  1
  Th  Th3  1  0.006790  0.174876  0.101169  1
  Th  Th4  1  0.999192  0.823510  0.901713  1
  Th  Th5  1  0.493272  0.671162  0.900894  1
  Th  Th6  1  0.000607  0.820128  0.597565  1
  Th  Th7  1  0.505875  0.323548  0.101706  1
  Th  Th8  1  0.003808  0.178377  0.398897  1
  Th  Th9  1  0.504776  0.319648  0.396211  1
  Th  Th10  1  0.497381  0.675250  0.600472  1
  Sc  Sc11  1  0.670884  0.998800  0.750347  1
  Sc  Sc12  1  0.341980  0.180051  0.626087  1
  Sc  Sc13  1  0.651496  0.819528  0.374424  1
  Sc  Sc14  1  0.152065  0.680859  0.376368  1
  Sc  Sc15  1  0.658300  0.817509  0.123824  1
  Sc  Sc16  1  0.851502  0.326731  0.623243  1
  Sc  Sc17  1  0.335436  0.184647  0.874959  1
  Sc  Sc18  1  0.847596  0.322393  0.874694  1
  Sc  Sc19  1  0.157839  0.685960  0.125048  1
  Si  Si20  1  0.043597  0.112948  0.748639  1
  Si  Si21  1  0.949859  0.884045  0.250793  1
  Si  Si22  1  0.447453  0.616268  0.249898  1
  Si  Si23  1  0.555026  0.377036  0.749955  1
  Si  Si24  1  0.301684  0.891943  0.750447  1
  Si  Si25  1  0.705873  0.106533  0.249015  1
  Si  Si26  1  0.203223  0.393658  0.249513  1
  Si  Si27  1  0.790759  0.622705  0.750218  1
  Si  Si28  1  0.808279  0.543161  0.465393  1
  Si  Si29  1  0.327945  0.960575  0.468297  1
  Si  Si30  1  0.834294  0.536182  0.033990  1
  Si  Si31  1  0.669387  0.039476  0.538074  1
  Si  Si32  1  0.163773  0.461590  0.969877  1
  Si  Si33  1  0.664258  0.036097  0.961348  1
  Si  Si34  1  0.334423  0.963919  0.031814  1
  As  As35  1  0.185470  0.453788  0.531314  1
