# generated using pymatgen
data_Zn11PdRh
_symmetry_space_group_name_H-M   'P 1'
_cell_length_a   7.93697080
_cell_length_b   7.93697098
_cell_length_c   7.91939724
_cell_angle_alpha   109.46940768
_cell_angle_beta   109.46940507
_cell_angle_gamma   109.56456947
_symmetry_Int_Tables_number   1
_chemical_formula_structural   Zn11PdRh
_chemical_formula_sum   'Zn22 Pd2 Rh2'
_cell_volume   383.61687067
_cell_formula_units_Z   2
loop_
 _symmetry_equiv_pos_site_id
 _symmetry_equiv_pos_as_xyz
  1  'x, y, z'
loop_
 _atom_site_type_symbol
 _atom_site_label
 _atom_site_symmetry_multiplicity
 _atom_site_fract_x
 _atom_site_fract_y
 _atom_site_fract_z
 _atom_site_occupancy
  Zn  Zn0  1  0.997748  0.786052  0.000000  1
  Zn  Zn1  1  0.786052  0.997748  0.000000  1
  Zn  Zn2  1  0.998062  0.998062  0.782830  1
  Zn  Zn3  1  0.215232  0.215232  0.217170  1
  Zn  Zn4  1  0.353009  0.618711  0.352398  1
  Zn  Zn5  1  0.266313  0.000611  0.647602  1
  Zn  Zn6  1  0.650584  0.000466  0.268365  1
  Zn  Zn7  1  0.267785  0.648820  0.000000  1
  Zn  Zn8  1  0.733440  0.733440  0.382125  1
  Zn  Zn9  1  0.382220  0.732102  0.731635  1
  Zn  Zn10  1  0.000466  0.650584  0.268365  1
  Zn  Zn11  1  0.000611  0.266313  0.647602  1
  Zn  Zn12  1  0.648820  0.267785  0.000000  1
  Zn  Zn13  1  0.351315  0.351315  0.617875  1
  Zn  Zn14  1  0.618711  0.353009  0.352398  1
  Zn  Zn15  1  0.732102  0.382220  0.731635  1
  Zn  Zn16  1  0.357037  0.357037  0.000000  1
  Zn  Zn17  1  0.999343  0.641775  0.643674  1
  Zn  Zn18  1  0.998101  0.355669  0.356326  1
  Zn  Zn19  1  0.355669  0.998101  0.356326  1
  Zn  Zn20  1  0.641775  0.999343  0.643674  1
  Zn  Zn21  1  0.643144  0.643144  0.000000  1
  Pd  Pd22  1  0.000305  0.345927  0.000000  1
  Pd  Pd23  1  0.345927  0.000305  0.000000  1
  Rh  Rh24  1  0.000446  0.000446  0.344661  1
  Rh  Rh25  1  0.655785  0.655785  0.655339  1
