# generated using pymatgen
data_Ca12Nd7TmSn16
_symmetry_space_group_name_H-M   'P 1'
_cell_length_a   7.98741811
_cell_length_b   8.52364896
_cell_length_c   16.14823891
_cell_angle_alpha   89.85815691
_cell_angle_beta   90.09796598
_cell_angle_gamma   89.86544304
_symmetry_Int_Tables_number   1
_chemical_formula_structural   Ca12Nd7TmSn16
_chemical_formula_sum   'Ca12 Nd7 Tm1 Sn16'
_cell_volume   1099.39554542
_cell_formula_units_Z   1
loop_
 _symmetry_equiv_pos_site_id
 _symmetry_equiv_pos_as_xyz
  1  'x, y, z'
loop_
 _atom_site_type_symbol
 _atom_site_label
 _atom_site_symmetry_multiplicity
 _atom_site_fract_x
 _atom_site_fract_y
 _atom_site_fract_z
 _atom_site_occupancy
  Ca  Ca0  1  0.991419  0.185592  0.407580  1
  Ca  Ca1  1  0.326304  0.827840  0.122196  1
  Ca  Ca2  1  0.173422  0.331469  0.623910  1
  Ca  Ca3  1  0.507093  0.683262  0.905474  1
  Ca  Ca4  1  0.828240  0.670733  0.122465  1
  Ca  Ca5  1  0.172369  0.331009  0.876176  1
  Ca  Ca6  1  0.155666  0.496094  0.249407  1
  Ca  Ca7  1  0.658234  0.001875  0.248992  1
  Ca  Ca8  1  0.509398  0.685284  0.595369  1
  Ca  Ca9  1  0.344171  0.996552  0.749042  1
  Ca  Ca10  1  0.674115  0.171283  0.622351  1
  Ca  Ca11  1  0.840566  0.502966  0.749152  1
  Nd  Nd12  1  0.988185  0.185797  0.093389  1
  Nd  Nd13  1  0.012725  0.811020  0.903161  1
  Nd  Nd14  1  0.669685  0.171405  0.875257  1
  Nd  Nd15  1  0.486642  0.313404  0.096371  1
  Nd  Nd16  1  0.329479  0.826451  0.376270  1
  Nd  Nd17  1  0.013103  0.812240  0.597656  1
  Nd  Nd18  1  0.491386  0.312666  0.404346  1
  Tm  Tm19  1  0.828380  0.671333  0.377961  1
  Sn  Sn20  1  0.831900  0.472889  0.538643  1
  Sn  Sn21  1  0.671160  0.966872  0.457151  1
  Sn  Sn22  1  0.719346  0.862067  0.750917  1
  Sn  Sn23  1  0.165604  0.537186  0.459649  1
  Sn  Sn24  1  0.329827  0.038038  0.961876  1
  Sn  Sn25  1  0.783171  0.361165  0.251718  1
  Sn  Sn26  1  0.831857  0.464183  0.961174  1
  Sn  Sn27  1  0.529657  0.604459  0.251835  1
  Sn  Sn28  1  0.166057  0.531596  0.040416  1
  Sn  Sn29  1  0.471582  0.394742  0.750697  1
  Sn  Sn30  1  0.214821  0.639205  0.750229  1
  Sn  Sn31  1  0.974491  0.103067  0.750579  1
  Sn  Sn32  1  0.332035  0.036988  0.537380  1
  Sn  Sn33  1  0.668917  0.969427  0.040819  1
  Sn  Sn34  1  0.283038  0.136789  0.248952  1
  Sn  Sn35  1  0.025958  0.893048  0.251441  1
