# generated using pymatgen
data_LiYb4Si2Pd27
_symmetry_space_group_name_H-M   'P 1'
_cell_length_a   8.87590865
_cell_length_b   8.87590865
_cell_length_c   7.03969787
_cell_angle_alpha   90.25844770
_cell_angle_beta   90.25844770
_cell_angle_gamma   88.98225206
_symmetry_Int_Tables_number   1
_chemical_formula_structural   LiYb4Si2Pd27
_chemical_formula_sum   'Li1 Yb4 Si2 Pd27'
_cell_volume   554.50116934
_cell_formula_units_Z   1
loop_
 _symmetry_equiv_pos_site_id
 _symmetry_equiv_pos_as_xyz
  1  'x, y, z'
loop_
 _atom_site_type_symbol
 _atom_site_label
 _atom_site_symmetry_multiplicity
 _atom_site_fract_x
 _atom_site_fract_y
 _atom_site_fract_z
 _atom_site_occupancy
  Li  Li0  1  0.250000  0.750000  0.000000  1
  Yb  Yb1  1  0.506059  0.006059  0.939365  1
  Yb  Yb2  1  0.993941  0.493941  0.060635  1
  Yb  Yb3  1  0.001456  0.998544  0.500000  1
  Yb  Yb4  1  0.498544  0.501456  0.500000  1
  Si  Si5  1  0.502705  0.002705  0.444869  1
  Si  Si6  1  0.997295  0.497295  0.555131  1
  Pd  Pd7  1  0.336038  0.836038  0.610958  1
  Pd  Pd8  1  0.331917  0.165349  0.620653  1
  Pd  Pd9  1  0.665349  0.831917  0.620653  1
  Pd  Pd10  1  0.667150  0.167150  0.617150  1
  Pd  Pd11  1  0.163962  0.663962  0.389042  1
  Pd  Pd12  1  0.168083  0.334651  0.379347  1
  Pd  Pd13  1  0.834651  0.668083  0.379347  1
  Pd  Pd14  1  0.832850  0.332850  0.382850  1
  Pd  Pd15  1  0.500633  0.769206  0.256655  1
  Pd  Pd16  1  0.497325  0.232631  0.257188  1
  Pd  Pd17  1  0.269206  0.000633  0.256655  1
  Pd  Pd18  1  0.732631  0.997325  0.257188  1
  Pd  Pd19  1  0.999367  0.730794  0.743345  1
  Pd  Pd20  1  0.002675  0.267369  0.742812  1
  Pd  Pd21  1  0.230794  0.499367  0.743345  1
  Pd  Pd22  1  0.767369  0.502675  0.742812  1
  Pd  Pd23  1  0.498095  0.353205  0.854280  1
  Pd  Pd24  1  0.489378  0.660569  0.861186  1
  Pd  Pd25  1  0.853205  0.998095  0.854280  1
  Pd  Pd26  1  0.160569  0.989378  0.861186  1
  Pd  Pd27  1  0.001905  0.146795  0.145720  1
  Pd  Pd28  1  0.010622  0.839431  0.138814  1
  Pd  Pd29  1  0.646795  0.501905  0.145720  1
  Pd  Pd30  1  0.339431  0.510622  0.138814  1
  Pd  Pd31  1  0.250000  0.250000  0.000000  1
  Pd  Pd32  1  0.750000  0.750000  0.000000  1
  Pd  Pd33  1  0.750000  0.250000  0.000000  1
