# generated using pymatgen
data_Pu3Zn3GeAu2
_symmetry_space_group_name_H-M   'P 1'
_cell_length_a   7.10993900
_cell_length_b   7.10993893
_cell_length_c   8.70618300
_cell_angle_alpha   90.00000000
_cell_angle_beta   90.00000000
_cell_angle_gamma   119.99999568
_symmetry_Int_Tables_number   1
_chemical_formula_structural   Pu3Zn3GeAu2
_chemical_formula_sum   'Pu6 Zn6 Ge2 Au4'
_cell_volume   381.14496520
_cell_formula_units_Z   2
loop_
 _symmetry_equiv_pos_site_id
 _symmetry_equiv_pos_as_xyz
  1  'x, y, z'
loop_
 _atom_site_type_symbol
 _atom_site_label
 _atom_site_symmetry_multiplicity
 _atom_site_fract_x
 _atom_site_fract_y
 _atom_site_fract_z
 _atom_site_occupancy
  Pu  Pu0  1  0.576845  0.009307  0.750000  1
  Pu  Pu1  1  0.990693  0.567538  0.750000  1
  Pu  Pu2  1  0.432462  0.423155  0.750000  1
  Pu  Pu3  1  0.990240  0.567299  0.250000  1
  Pu  Pu4  1  0.577060  0.009760  0.250000  1
  Pu  Pu5  1  0.432701  0.422940  0.250000  1
  Zn  Zn6  1  0.761689  0.766797  0.000030  1
  Zn  Zn7  1  0.233203  0.994890  0.000030  1
  Zn  Zn8  1  0.005110  0.238311  0.000030  1
  Zn  Zn9  1  0.761689  0.766797  0.499970  1
  Zn  Zn10  1  0.233203  0.994890  0.499970  1
  Zn  Zn11  1  0.005110  0.238311  0.499970  1
  Ge  Ge12  1  0.666667  0.333333  0.999850  1
  Ge  Ge13  1  0.666667  0.333333  0.500150  1
  Au  Au14  1  0.000000  0.000000  0.750000  1
  Au  Au15  1  0.000000  0.000000  0.250000  1
  Au  Au16  1  0.333333  0.666667  0.499779  1
  Au  Au17  1  0.333333  0.666667  0.000221  1
