# generated using pymatgen
data_Gd2ReMoC3
_symmetry_space_group_name_H-M   'P 1'
_cell_length_a   6.16963832
_cell_length_b   6.16963837
_cell_length_c   5.76709847
_cell_angle_alpha   66.76806867
_cell_angle_beta   66.76805916
_cell_angle_gamma   31.55184694
_symmetry_Int_Tables_number   1
_chemical_formula_structural   Gd2ReMoC3
_chemical_formula_sum   'Gd2 Re1 Mo1 C3'
_cell_volume   104.77575602
_cell_formula_units_Z   1
loop_
 _symmetry_equiv_pos_site_id
 _symmetry_equiv_pos_as_xyz
  1  'x, y, z'
loop_
 _atom_site_type_symbol
 _atom_site_label
 _atom_site_symmetry_multiplicity
 _atom_site_fract_x
 _atom_site_fract_y
 _atom_site_fract_z
 _atom_site_occupancy
  Gd  Gd0  1  0.391074  0.391074  0.816964  1
  Gd  Gd1  1  0.607980  0.607980  0.183357  1
  Re  Re2  1  0.159494  0.159494  0.676608  1
  Mo  Mo3  1  0.841906  0.841906  0.323320  1
  C  C4  1  0.002542  0.002542  0.995806  1
  C  C5  1  0.248135  0.248135  0.270001  1
  C  C6  1  0.748869  0.748869  0.733945  1
