# generated using pymatgen
data_Tb6DyHo5Ru4
_symmetry_space_group_name_H-M   'P 1'
_cell_length_a   6.31530451
_cell_length_b   7.30149622
_cell_length_c   9.22034316
_cell_angle_alpha   89.99523973
_cell_angle_beta   90.19026485
_cell_angle_gamma   90.02775785
_symmetry_Int_Tables_number   1
_chemical_formula_structural   Tb6DyHo5Ru4
_chemical_formula_sum   'Tb6 Dy1 Ho5 Ru4'
_cell_volume   425.15843383
_cell_formula_units_Z   1
loop_
 _symmetry_equiv_pos_site_id
 _symmetry_equiv_pos_as_xyz
  1  'x, y, z'
loop_
 _atom_site_type_symbol
 _atom_site_label
 _atom_site_symmetry_multiplicity
 _atom_site_fract_x
 _atom_site_fract_y
 _atom_site_fract_z
 _atom_site_occupancy
  Tb  Tb0  1  0.329471  0.677260  0.064881  1
  Tb  Tb1  1  0.170395  0.177172  0.435006  1
  Tb  Tb2  1  0.865390  0.540230  0.250080  1
  Tb  Tb3  1  0.634711  0.039961  0.249616  1
  Tb  Tb4  1  0.133694  0.460174  0.750148  1
  Tb  Tb5  1  0.366233  0.959819  0.750154  1
  Dy  Dy6  1  0.670396  0.322980  0.564807  1
  Ho  Ho7  1  0.829811  0.823367  0.935006  1
  Ho  Ho8  1  0.670077  0.323122  0.934879  1
  Ho  Ho9  1  0.830277  0.823278  0.565420  1
  Ho  Ho10  1  0.330146  0.676469  0.435191  1
  Ho  Ho11  1  0.169628  0.176204  0.064612  1
  Ru  Ru12  1  0.040285  0.885299  0.250088  1
  Ru  Ru13  1  0.459407  0.385407  0.249703  1
  Ru  Ru14  1  0.958758  0.114343  0.752317  1
  Ru  Ru15  1  0.541321  0.614917  0.748092  1
