# generated using pymatgen
data_Yb3SbPt2(RhO7)2
_symmetry_space_group_name_H-M   'P 1'
_cell_length_a   7.16790677
_cell_length_b   7.16473760
_cell_length_c   7.16366961
_cell_angle_alpha   60.01710350
_cell_angle_beta   59.98042386
_cell_angle_gamma   59.98536504
_symmetry_Int_Tables_number   1
_chemical_formula_structural   Yb3SbPt2(RhO7)2
_chemical_formula_sum   'Yb3 Sb1 Pt2 Rh2 O14'
_cell_volume   260.10992673
_cell_formula_units_Z   1
loop_
 _symmetry_equiv_pos_site_id
 _symmetry_equiv_pos_as_xyz
  1  'x, y, z'
loop_
 _atom_site_type_symbol
 _atom_site_label
 _atom_site_symmetry_multiplicity
 _atom_site_fract_x
 _atom_site_fract_y
 _atom_site_fract_z
 _atom_site_occupancy
  Yb  Yb0  1  0.125000  0.125000  0.125000  1
  Yb  Yb1  1  0.625000  0.125000  0.125000  1
  Yb  Yb2  1  0.125000  0.125000  0.625000  1
  Sb  Sb3  1  0.125000  0.625000  0.125000  1
  Pt  Pt4  1  0.625000  0.625000  0.125000  1
  Pt  Pt5  1  0.625000  0.125000  0.625000  1
  Rh  Rh6  1  0.625000  0.625000  0.625000  1
  Rh  Rh7  1  0.125000  0.625000  0.625000  1
  O  O8  1  0.014758  0.958500  0.011984  1
  O  O9  1  0.235242  0.291500  0.238016  1
  O  O10  1  0.520305  0.554026  0.963015  1
  O  O11  1  0.285158  0.291842  0.710362  1
  O  O12  1  0.962653  0.554026  0.963015  1
  O  O13  1  0.958145  0.564603  0.519107  1
  O  O14  1  0.534286  0.964037  0.967391  1
  O  O15  1  0.537363  0.958158  0.539638  1
  O  O16  1  0.964842  0.958158  0.539638  1
  O  O17  1  0.715714  0.285963  0.282609  1
  O  O18  1  0.291855  0.685397  0.730893  1
  O  O19  1  0.729695  0.695974  0.286985  1
  O  O20  1  0.712637  0.291842  0.710362  1
  O  O21  1  0.287347  0.695974  0.286985  1
