# generated using pymatgen
data_Sm4TlTe3
_symmetry_space_group_name_H-M   'P 1'
_cell_length_a   7.71071659
_cell_length_b   7.71071647
_cell_length_c   7.71071600
_cell_angle_alpha   131.88343502
_cell_angle_beta   131.88343424
_cell_angle_gamma   70.41319372
_symmetry_Int_Tables_number   1
_chemical_formula_structural   Sm4TlTe3
_chemical_formula_sum   'Sm4 Tl1 Te3'
_cell_volume   249.00974513
_cell_formula_units_Z   1
loop_
 _symmetry_equiv_pos_site_id
 _symmetry_equiv_pos_as_xyz
  1  'x, y, z'
loop_
 _atom_site_type_symbol
 _atom_site_label
 _atom_site_symmetry_multiplicity
 _atom_site_fract_x
 _atom_site_fract_y
 _atom_site_fract_z
 _atom_site_occupancy
  Sm  Sm0  1  0.248347  0.248347  0.000000  1
  Sm  Sm1  1  0.751653  0.751653  0.000000  1
  Sm  Sm2  1  0.499999  0.000000  0.499999  1
  Sm  Sm3  1  0.000000  0.499999  0.499999  1
  Tl  Tl4  1  0.000000  0.000000  0.000000  1
  Te  Te5  1  0.500000  0.500000  0.000000  1
  Te  Te6  1  0.749999  0.250000  0.499999  1
  Te  Te7  1  0.250000  0.749999  0.499999  1
