# generated using pymatgen
data_Li3Hf4Zr(Co4P3)4
_symmetry_space_group_name_H-M   'P 1'
_cell_length_a   11.84114428
_cell_length_b   11.84564072
_cell_length_c   3.61747400
_cell_angle_alpha   90.00000000
_cell_angle_beta   90.00000000
_cell_angle_gamma   120.01255925
_symmetry_Int_Tables_number   1
_chemical_formula_structural   Li3Hf4Zr(Co4P3)4
_chemical_formula_sum   'Li3 Hf4 Zr1 Co16 P12'
_cell_volume   439.37293713
_cell_formula_units_Z   1
loop_
 _symmetry_equiv_pos_site_id
 _symmetry_equiv_pos_as_xyz
  1  'x, y, z'
loop_
 _atom_site_type_symbol
 _atom_site_label
 _atom_site_symmetry_multiplicity
 _atom_site_fract_x
 _atom_site_fract_y
 _atom_site_fract_z
 _atom_site_occupancy
  Li  Li0  1  0.442198  0.442302  0.000000  1
  Li  Li1  1  0.557802  0.000104  0.000000  1
  Li  Li2  1  0.000000  0.558112  0.000000  1
  Hf  Hf3  1  0.666736  0.333244  0.000000  1
  Hf  Hf4  1  0.333264  0.666508  0.000000  1
  Hf  Hf5  1  0.810940  0.810968  0.500000  1
  Hf  Hf6  1  0.189060  0.000028  0.500000  1
  Zr  Zr7  1  0.000000  0.189582  0.500000  1
  Co  Co8  1  0.198146  0.376814  0.000000  1
  Co  Co9  1  0.178738  0.803194  0.000000  1
  Co  Co10  1  0.821262  0.624455  0.000000  1
  Co  Co11  1  0.801854  0.178668  0.000000  1
  Co  Co12  1  0.375974  0.196789  0.000000  1
  Co  Co13  1  0.128010  0.483195  0.500000  1
  Co  Co14  1  0.354802  0.872178  0.500000  1
  Co  Co15  1  0.517216  0.645132  0.500000  1
  Co  Co16  1  0.645198  0.517376  0.500000  1
  Co  Co17  1  0.871990  0.355185  0.500000  1
  Co  Co18  1  0.482784  0.127915  0.500000  1
  Co  Co19  1  0.000000  0.998861  0.000000  1
  Co  Co20  1  0.716836  0.999308  0.500000  1
  Co  Co21  1  0.000000  0.717363  0.500000  1
  Co  Co22  1  0.624026  0.820815  0.000000  1
  Co  Co23  1  0.283164  0.282473  0.500000  1
  P  P24  1  0.638077  0.638135  0.000000  1
  P  P25  1  0.361923  0.000059  0.000000  1
  P  P26  1  0.000000  0.362808  0.000000  1
  P  P27  1  0.484648  0.314735  0.500000  1
  P  P28  1  0.685342  0.169607  0.500000  1
  P  P29  1  0.830131  0.515684  0.500000  1
  P  P30  1  0.515352  0.830087  0.500000  1
  P  P31  1  0.169869  0.685553  0.500000  1
  P  P32  1  0.822052  0.999231  0.000000  1
  P  P33  1  0.000000  0.822088  0.000000  1
  P  P34  1  0.314658  0.484265  0.500000  1
  P  P35  1  0.177948  0.177179  0.000000  1
