# generated using pymatgen
data_Ho8TiZnPd23
_symmetry_space_group_name_H-M   'P 1'
_cell_length_a   8.24379200
_cell_length_b   8.35542200
_cell_length_c   8.39321500
_cell_angle_alpha   90.00000000
_cell_angle_beta   90.00000000
_cell_angle_gamma   90.00000000
_symmetry_Int_Tables_number   1
_chemical_formula_structural   Ho8TiZnPd23
_chemical_formula_sum   'Ho8 Ti1 Zn1 Pd23'
_cell_volume   578.12767949
_cell_formula_units_Z   1
loop_
 _symmetry_equiv_pos_site_id
 _symmetry_equiv_pos_as_xyz
  1  'x, y, z'
loop_
 _atom_site_type_symbol
 _atom_site_label
 _atom_site_symmetry_multiplicity
 _atom_site_fract_x
 _atom_site_fract_y
 _atom_site_fract_z
 _atom_site_occupancy
  Ho  Ho0  1  0.251385  0.246422  0.262126  1
  Ho  Ho1  1  0.747568  0.746222  0.748015  1
  Ho  Ho2  1  0.747568  0.746222  0.251985  1
  Ho  Ho3  1  0.747568  0.253778  0.748015  1
  Ho  Ho4  1  0.251385  0.246422  0.737874  1
  Ho  Ho5  1  0.251385  0.753578  0.262126  1
  Ho  Ho6  1  0.251385  0.753578  0.737874  1
  Ho  Ho7  1  0.747568  0.253778  0.251985  1
  Ti  Ti8  1  0.995845  0.000000  0.000000  1
  Zn  Zn9  1  0.276216  0.500000  0.000000  1
  Pd  Pd10  1  0.742032  0.500000  0.000000  1
  Pd  Pd11  1  0.996852  0.259965  0.500000  1
  Pd  Pd12  1  0.492174  0.264056  0.000000  1
  Pd  Pd13  1  0.996852  0.740035  0.500000  1
  Pd  Pd14  1  0.492174  0.735944  0.000000  1
  Pd  Pd15  1  0.500346  0.000000  0.261485  1
  Pd  Pd16  1  0.259793  0.000000  0.500000  1
  Pd  Pd17  1  0.500346  0.000000  0.738515  1
  Pd  Pd18  1  0.737968  0.000000  0.500000  1
  Pd  Pd19  1  0.003812  0.500000  0.262144  1
  Pd  Pd20  1  0.003812  0.500000  0.737856  1
  Pd  Pd21  1  0.252923  0.500000  0.500000  1
  Pd  Pd22  1  0.745961  0.500000  0.500000  1
  Pd  Pd23  1  0.501891  0.253838  0.500000  1
  Pd  Pd24  1  0.501891  0.746162  0.500000  1
  Pd  Pd25  1  0.494264  0.500000  0.252681  1
  Pd  Pd26  1  0.494264  0.500000  0.747319  1
  Pd  Pd27  1  0.291779  0.000000  0.000000  1
  Pd  Pd28  1  0.699357  0.000000  0.000000  1
  Pd  Pd29  1  0.015076  0.299183  0.000000  1
  Pd  Pd30  1  0.015076  0.700817  0.000000  1
  Pd  Pd31  1  0.996743  0.000000  0.292928  1
  Pd  Pd32  1  0.996743  0.000000  0.707072  1
