# generated using pymatgen
data_VGaSb2(SeO3)8
_symmetry_space_group_name_H-M   'P 1'
_cell_length_a   8.21565408
_cell_length_b   8.18359570
_cell_length_c   8.22409036
_cell_angle_alpha   89.19743060
_cell_angle_beta   90.03029731
_cell_angle_gamma   89.86405891
_symmetry_Int_Tables_number   1
_chemical_formula_structural   VGaSb2(SeO3)8
_chemical_formula_sum   'V1 Ga1 Sb2 Se8 O24'
_cell_volume   552.87924271
_cell_formula_units_Z   1
loop_
 _symmetry_equiv_pos_site_id
 _symmetry_equiv_pos_as_xyz
  1  'x, y, z'
loop_
 _atom_site_type_symbol
 _atom_site_label
 _atom_site_symmetry_multiplicity
 _atom_site_fract_x
 _atom_site_fract_y
 _atom_site_fract_z
 _atom_site_occupancy
  V  V0  1  0.000000  0.500000  0.000000  1
  Ga  Ga1  1  0.500000  0.500000  0.500000  1
  Sb  Sb2  1  0.000000  0.000000  0.500000  1
  Sb  Sb3  1  0.500000  0.000000  0.000000  1
  Se  Se4  1  0.331055  0.661244  0.176170  1
  Se  Se5  1  0.823211  0.339493  0.331724  1
  Se  Se6  1  0.666580  0.821094  0.666426  1
  Se  Se7  1  0.166924  0.174014  0.831780  1
  Se  Se8  1  0.668945  0.338756  0.823830  1
  Se  Se9  1  0.176789  0.660507  0.668276  1
  Se  Se10  1  0.333420  0.178906  0.333574  1
  Se  Se11  1  0.833076  0.825986  0.168220  1
  O  O12  1  0.241613  0.535020  0.039446  1
  O  O13  1  0.737829  0.465931  0.471956  1
  O  O14  1  0.758935  0.969144  0.536210  1
  O  O15  1  0.258468  0.025631  0.963056  1
  O  O16  1  0.532530  0.962296  0.759073  1
  O  O17  1  0.470415  0.530110  0.261903  1
  O  O18  1  0.959102  0.469551  0.241975  1
  O  O19  1  0.032806  0.031914  0.741166  1
  O  O20  1  0.966975  0.240059  0.468870  1
  O  O21  1  0.535840  0.743640  0.529484  1
  O  O22  1  0.473242  0.760235  0.037297  1
  O  O23  1  0.036651  0.254019  0.967319  1
  O  O24  1  0.758387  0.464980  0.960554  1
  O  O25  1  0.262171  0.534069  0.528044  1
  O  O26  1  0.241065  0.030856  0.463790  1
  O  O27  1  0.741532  0.974369  0.036944  1
  O  O28  1  0.467470  0.037704  0.240927  1
  O  O29  1  0.529585  0.469890  0.738097  1
  O  O30  1  0.040898  0.530449  0.758025  1
  O  O31  1  0.967194  0.968086  0.258834  1
  O  O32  1  0.033025  0.759941  0.531130  1
  O  O33  1  0.464160  0.256360  0.470516  1
  O  O34  1  0.526758  0.239765  0.962703  1
  O  O35  1  0.963349  0.745981  0.032681  1
