# generated using pymatgen
data_TmCu6ClO8
_symmetry_space_group_name_H-M   'P 1'
_cell_length_a   6.53531268
_cell_length_b   6.53531235
_cell_length_c   6.53531200
_cell_angle_alpha   60.00000176
_cell_angle_beta   60.00000345
_cell_angle_gamma   59.99999476
_symmetry_Int_Tables_number   1
_chemical_formula_structural   TmCu6ClO8
_chemical_formula_sum   'Tm1 Cu6 Cl1 O8'
_cell_volume   197.37132112
_cell_formula_units_Z   1
loop_
 _symmetry_equiv_pos_site_id
 _symmetry_equiv_pos_as_xyz
  1  'x, y, z'
loop_
 _atom_site_type_symbol
 _atom_site_label
 _atom_site_symmetry_multiplicity
 _atom_site_fract_x
 _atom_site_fract_y
 _atom_site_fract_z
 _atom_site_occupancy
  Tm  Tm0  1  0.000000  0.000000  0.000000  1
  Cu  Cu1  1  0.000000  0.000000  0.500000  1
  Cu  Cu2  1  0.500000  0.000000  0.500000  1
  Cu  Cu3  1  0.000000  0.500000  0.500000  1
  Cu  Cu4  1  0.500000  0.500000  0.000000  1
  Cu  Cu5  1  0.000000  0.500000  0.000000  1
  Cu  Cu6  1  0.500000  0.000000  0.000000  1
  Cl  Cl7  1  0.500000  0.500000  0.500000  1
  O  O8  1  0.856654  0.856654  0.430037  1
  O  O9  1  0.856654  0.430037  0.856654  1
  O  O10  1  0.430037  0.856654  0.856654  1
  O  O11  1  0.856654  0.856654  0.856654  1
  O  O12  1  0.143346  0.143346  0.569963  1
  O  O13  1  0.143346  0.569963  0.143346  1
  O  O14  1  0.569963  0.143346  0.143346  1
  O  O15  1  0.143346  0.143346  0.143346  1
