# generated using pymatgen
data_Hf18Re8TcSe
_symmetry_space_group_name_H-M   'P 1'
_cell_length_a   8.60997400
_cell_length_b   8.60973348
_cell_length_c   8.62873800
_cell_angle_alpha   90.00000000
_cell_angle_beta   90.00000000
_cell_angle_gamma   120.00399821
_symmetry_Int_Tables_number   1
_chemical_formula_structural   Hf18Re8TcSe
_chemical_formula_sum   'Hf18 Re8 Tc1 Se1'
_cell_volume   553.92627172
_cell_formula_units_Z   1
loop_
 _symmetry_equiv_pos_site_id
 _symmetry_equiv_pos_as_xyz
  1  'x, y, z'
loop_
 _atom_site_type_symbol
 _atom_site_label
 _atom_site_symmetry_multiplicity
 _atom_site_fract_x
 _atom_site_fract_y
 _atom_site_fract_z
 _atom_site_occupancy
  Hf  Hf0  1  0.197647  0.802382  0.446651  1
  Hf  Hf1  1  0.197621  0.395271  0.446586  1
  Hf  Hf2  1  0.604727  0.802390  0.446624  1
  Hf  Hf3  1  0.808610  0.191419  0.547447  1
  Hf  Hf4  1  0.808545  0.617118  0.547428  1
  Hf  Hf5  1  0.382852  0.191455  0.547438  1
  Hf  Hf6  1  0.808610  0.191419  0.952553  1
  Hf  Hf7  1  0.808545  0.617118  0.952572  1
  Hf  Hf8  1  0.382852  0.191455  0.952562  1
  Hf  Hf9  1  0.197647  0.802382  0.053349  1
  Hf  Hf10  1  0.197621  0.395271  0.053414  1
  Hf  Hf11  1  0.604727  0.802390  0.053376  1
  Hf  Hf12  1  0.541360  0.458656  0.250000  1
  Hf  Hf13  1  0.541291  0.082604  0.250000  1
  Hf  Hf14  1  0.917335  0.458691  0.250000  1
  Hf  Hf15  1  0.456066  0.543889  0.750000  1
  Hf  Hf16  1  0.456108  0.912173  0.750000  1
  Hf  Hf17  1  0.087829  0.543867  0.750000  1
  Re  Re18  1  0.889700  0.110296  0.250000  1
  Re  Re19  1  0.889680  0.779388  0.250000  1
  Re  Re20  1  0.220610  0.110318  0.250000  1
  Re  Re21  1  0.110369  0.889618  0.750000  1
  Re  Re22  1  0.110399  0.220762  0.750000  1
  Re  Re23  1  0.779240  0.889593  0.750000  1
  Re  Re24  1  0.000001  0.999983  0.498933  1
  Re  Re25  1  0.000001  0.999983  0.001067  1
  Tc  Tc26  1  0.333337  0.666808  0.250000  1
  Se  Se27  1  0.666668  0.333303  0.750000  1
