# generated using pymatgen
data_KRb15(HfS4)4
_symmetry_space_group_name_H-M   'P 1'
_cell_length_a   8.53598366
_cell_length_b   10.10717083
_cell_length_c   15.02492500
_cell_angle_alpha   89.46372702
_cell_angle_beta   89.65845111
_cell_angle_gamma   90.32130538
_symmetry_Int_Tables_number   1
_chemical_formula_structural   KRb15(HfS4)4
_chemical_formula_sum   'K1 Rb15 Hf4 S16'
_cell_volume   1296.16947073
_cell_formula_units_Z   1
loop_
 _symmetry_equiv_pos_site_id
 _symmetry_equiv_pos_as_xyz
  1  'x, y, z'
loop_
 _atom_site_type_symbol
 _atom_site_label
 _atom_site_symmetry_multiplicity
 _atom_site_fract_x
 _atom_site_fract_y
 _atom_site_fract_z
 _atom_site_occupancy
  K  K0  1  0.348102  0.555950  0.224652  1
  Rb  Rb1  1  0.000170  0.999300  0.999907  1
  Rb  Rb2  1  0.499262  0.000094  0.499813  1
  Rb  Rb3  1  0.998771  0.500043  0.001845  1
  Rb  Rb4  1  0.501063  0.500873  0.499723  1
  Rb  Rb5  1  0.988063  0.750056  0.427392  1
  Rb  Rb6  1  0.487627  0.250481  0.071065  1
  Rb  Rb7  1  0.013300  0.251945  0.570771  1
  Rb  Rb8  1  0.510824  0.749435  0.929485  1
  Rb  Rb9  1  0.841406  0.057187  0.278526  1
  Rb  Rb10  1  0.339674  0.940666  0.221067  1
  Rb  Rb11  1  0.157925  0.557680  0.720885  1
  Rb  Rb12  1  0.658784  0.441733  0.779504  1
  Rb  Rb13  1  0.158881  0.942959  0.720975  1
  Rb  Rb14  1  0.658745  0.057005  0.778514  1
  Rb  Rb15  1  0.844066  0.442807  0.279027  1
  Hf  Hf16  1  0.753856  0.750347  0.666349  1
  Hf  Hf17  1  0.247923  0.251890  0.331998  1
  Hf  Hf18  1  0.743814  0.748628  0.167824  1
  Hf  Hf19  1  0.253368  0.249680  0.833129  1
  S  S20  1  0.972147  0.249119  0.824967  1
  S  S21  1  0.528864  0.250576  0.323230  1
  S  S22  1  0.472636  0.750407  0.675518  1
  S  S23  1  0.025758  0.743994  0.176381  1
  S  S24  1  0.652387  0.554321  0.094851  1
  S  S25  1  0.162865  0.448446  0.404467  1
  S  S26  1  0.341486  0.054006  0.907434  1
  S  S27  1  0.842201  0.946867  0.591865  1
  S  S28  1  0.340030  0.445283  0.906261  1
  S  S29  1  0.841634  0.555214  0.592910  1
  S  S30  1  0.659853  0.945381  0.093300  1
  S  S31  1  0.157403  0.056298  0.407022  1
  S  S32  1  0.631072  0.747782  0.315343  1
  S  S33  1  0.137840  0.253398  0.184882  1
  S  S34  1  0.364713  0.251124  0.685332  1
  S  S35  1  0.863488  0.749029  0.813786  1
