# generated using pymatgen
data_Nd6TlSn5Pd6
_symmetry_space_group_name_H-M   'P 1'
_cell_length_a   7.65326700
_cell_length_b   7.66304399
_cell_length_c   8.30879300
_cell_angle_alpha   89.99513254
_cell_angle_beta   90.00000000
_cell_angle_gamma   119.95779945
_symmetry_Int_Tables_number   1
_chemical_formula_structural   Nd6TlSn5Pd6
_chemical_formula_sum   'Nd6 Tl1 Sn5 Pd6'
_cell_volume   422.18351883
_cell_formula_units_Z   1
loop_
 _symmetry_equiv_pos_site_id
 _symmetry_equiv_pos_as_xyz
  1  'x, y, z'
loop_
 _atom_site_type_symbol
 _atom_site_label
 _atom_site_symmetry_multiplicity
 _atom_site_fract_x
 _atom_site_fract_y
 _atom_site_fract_z
 _atom_site_occupancy
  Nd  Nd0  1  0.414116  0.001644  0.248574  1
  Nd  Nd1  1  0.588341  0.586387  0.249568  1
  Nd  Nd2  1  0.999153  0.412365  0.249524  1
  Nd  Nd3  1  0.412473  0.998356  0.751426  1
  Nd  Nd4  1  0.586787  0.587635  0.750476  1
  Nd  Nd5  1  0.001954  0.413613  0.750432  1
  Tl  Tl6  1  0.744237  0.000000  0.000000  1
  Sn  Sn7  1  0.254757  0.254598  0.500176  1
  Sn  Sn8  1  0.000160  0.745402  0.499824  1
  Sn  Sn9  1  0.997800  0.751022  0.999963  1
  Sn  Sn10  1  0.246777  0.248978  0.000037  1
  Sn  Sn11  1  0.748167  0.000000  0.500000  1
  Pd  Pd12  1  0.324786  0.660563  0.002688  1
  Pd  Pd13  1  0.334658  0.667270  0.497132  1
  Pd  Pd14  1  0.664224  0.339437  0.997312  1
  Pd  Pd15  1  0.667389  0.332730  0.502868  1
  Pd  Pd16  1  0.007220  0.000219  0.255244  1
  Pd  Pd17  1  0.007002  0.999781  0.744756  1
