# generated using pymatgen
data_Ho6Mn9V(Co2P3)4
_symmetry_space_group_name_H-M   'P 1'
_cell_length_a   3.64448200
_cell_length_b   10.78854100
_cell_length_c   12.36311300
_cell_angle_alpha   90.00000000
_cell_angle_beta   90.00000000
_cell_angle_gamma   90.00000000
_symmetry_Int_Tables_number   1
_chemical_formula_structural   Ho6Mn9V(Co2P3)4
_chemical_formula_sum   'Ho6 Mn9 V1 Co8 P12'
_cell_volume   486.10083236
_cell_formula_units_Z   1
loop_
 _symmetry_equiv_pos_site_id
 _symmetry_equiv_pos_as_xyz
  1  'x, y, z'
loop_
 _atom_site_type_symbol
 _atom_site_label
 _atom_site_symmetry_multiplicity
 _atom_site_fract_x
 _atom_site_fract_y
 _atom_site_fract_z
 _atom_site_occupancy
  Ho  Ho0  1  0.000000  0.500000  0.532360  1
  Ho  Ho1  1  0.500000  0.000000  0.467821  1
  Ho  Ho2  1  0.500000  0.822036  0.200248  1
  Ho  Ho3  1  0.500000  0.177964  0.200248  1
  Ho  Ho4  1  0.000000  0.677391  0.800197  1
  Ho  Ho5  1  0.000000  0.322609  0.800197  1
  Mn  Mn6  1  0.500000  0.296906  0.432533  1
  Mn  Mn7  1  0.500000  0.703094  0.432533  1
  Mn  Mn8  1  0.000000  0.202043  0.568985  1
  Mn  Mn9  1  0.000000  0.797957  0.568985  1
  Mn  Mn10  1  0.500000  0.881972  0.707064  1
  Mn  Mn11  1  0.500000  0.118028  0.707064  1
  Mn  Mn12  1  0.000000  0.620085  0.294866  1
  Mn  Mn13  1  0.000000  0.379915  0.294866  1
  Mn  Mn14  1  0.000000  0.000000  0.840267  1
  V  V15  1  0.500000  0.500000  0.155871  1
  Co  Co16  1  0.000000  0.500000  0.989240  1
  Co  Co17  1  0.500000  0.000000  0.009955  1
  Co  Co18  1  0.500000  0.332982  0.994615  1
  Co  Co19  1  0.500000  0.667018  0.994615  1
  Co  Co20  1  0.000000  0.166449  0.004624  1
  Co  Co21  1  0.000000  0.833551  0.004624  1
  Co  Co22  1  0.500000  0.500000  0.709446  1
  Co  Co23  1  0.000000  0.000000  0.289877  1
  P  P24  1  0.500000  0.317630  0.621284  1
  P  P25  1  0.500000  0.682370  0.621284  1
  P  P26  1  0.000000  0.181742  0.379443  1
  P  P27  1  0.000000  0.818258  0.379443  1
  P  P28  1  0.500000  0.500000  0.886570  1
  P  P29  1  0.000000  0.000000  0.112582  1
  P  P30  1  0.500000  0.845273  0.892627  1
  P  P31  1  0.500000  0.154727  0.892627  1
  P  P32  1  0.000000  0.655681  0.106612  1
  P  P33  1  0.000000  0.344319  0.106612  1
  P  P34  1  0.500000  0.500000  0.356155  1
  P  P35  1  0.000000  0.000000  0.643660  1
