# generated using pymatgen
data_Tb4CrRuC4
_symmetry_space_group_name_H-M   'P 1'
_cell_length_a   5.10452600
_cell_length_b   6.50144500
_cell_length_c   9.84111200
_cell_angle_alpha   90.00000000
_cell_angle_beta   90.00000000
_cell_angle_gamma   90.00000000
_symmetry_Int_Tables_number   1
_chemical_formula_structural   Tb4CrRuC4
_chemical_formula_sum   'Tb8 Cr2 Ru2 C8'
_cell_volume   326.59496691
_cell_formula_units_Z   2
loop_
 _symmetry_equiv_pos_site_id
 _symmetry_equiv_pos_as_xyz
  1  'x, y, z'
loop_
 _atom_site_type_symbol
 _atom_site_label
 _atom_site_symmetry_multiplicity
 _atom_site_fract_x
 _atom_site_fract_y
 _atom_site_fract_z
 _atom_site_occupancy
  Tb  Tb0  1  0.750000  0.816266  0.055779  1
  Tb  Tb1  1  0.250000  0.683734  0.555779  1
  Tb  Tb2  1  0.750000  0.322045  0.443380  1
  Tb  Tb3  1  0.250000  0.177955  0.943380  1
  Tb  Tb4  1  0.750000  0.469973  0.783263  1
  Tb  Tb5  1  0.250000  0.030027  0.283263  1
  Tb  Tb6  1  0.750000  0.973005  0.714072  1
  Tb  Tb7  1  0.250000  0.526995  0.214072  1
  Cr  Cr8  1  0.750000  0.775746  0.361538  1
  Cr  Cr9  1  0.250000  0.724254  0.861538  1
  Ru  Ru10  1  0.750000  0.274737  0.138748  1
  Ru  Ru11  1  0.250000  0.225263  0.638748  1
  C  C12  1  0.750000  0.180040  0.954811  1
  C  C13  1  0.250000  0.811643  0.039095  1
  C  C14  1  0.750000  0.688357  0.539095  1
  C  C15  1  0.250000  0.319960  0.454811  1
  C  C16  1  0.750000  0.033262  0.263860  1
  C  C17  1  0.250000  0.466738  0.763860  1
  C  C18  1  0.750000  0.548946  0.245454  1
  C  C19  1  0.250000  0.951054  0.745454  1
