# generated using pymatgen
data_Tb12Er4MgNi4Ag3
_symmetry_space_group_name_H-M   'P 1'
_cell_length_a   9.45067453
_cell_length_b   9.47471628
_cell_length_c   9.47471554
_cell_angle_alpha   60.18016727
_cell_angle_beta   60.07404946
_cell_angle_gamma   60.07404676
_symmetry_Int_Tables_number   1
_chemical_formula_structural   Tb12Er4MgNi4Ag3
_chemical_formula_sum   'Tb12 Er4 Mg1 Ni4 Ag3'
_cell_volume   601.38771780
_cell_formula_units_Z   1
loop_
 _symmetry_equiv_pos_site_id
 _symmetry_equiv_pos_as_xyz
  1  'x, y, z'
loop_
 _atom_site_type_symbol
 _atom_site_label
 _atom_site_symmetry_multiplicity
 _atom_site_fract_x
 _atom_site_fract_y
 _atom_site_fract_z
 _atom_site_occupancy
  Tb  Tb0  1  0.183136  0.816485  0.816485  1
  Tb  Tb1  1  0.813574  0.185841  0.185841  1
  Tb  Tb2  1  0.813104  0.186444  0.814782  1
  Tb  Tb3  1  0.185055  0.814498  0.187300  1
  Tb  Tb4  1  0.813104  0.814782  0.186444  1
  Tb  Tb5  1  0.185055  0.187300  0.814498  1
  Tb  Tb6  1  0.595780  0.597283  0.597283  1
  Tb  Tb7  1  0.601334  0.598573  0.202685  1
  Tb  Tb8  1  0.601334  0.202685  0.598573  1
  Tb  Tb9  1  0.190990  0.605250  0.605250  1
  Tb  Tb10  1  0.060982  0.438695  0.438695  1
  Tb  Tb11  1  0.434489  0.064293  0.064293  1
  Er  Er12  1  0.436260  0.063126  0.437335  1
  Er  Er13  1  0.060436  0.437513  0.061639  1
  Er  Er14  1  0.436260  0.437335  0.063126  1
  Er  Er15  1  0.060436  0.061639  0.437513  1
  Mg  Mg16  1  0.537277  0.818960  0.818960  1
  Ni  Ni17  1  0.390799  0.394568  0.394568  1
  Ni  Ni18  1  0.389272  0.393942  0.823009  1
  Ni  Ni19  1  0.389272  0.823009  0.393942  1
  Ni  Ni20  1  0.823142  0.390758  0.390758  1
  Ag  Ag21  1  0.833211  0.833164  0.833164  1
  Ag  Ag22  1  0.832846  0.835162  0.498695  1
  Ag  Ag23  1  0.832846  0.498695  0.835162  1
