# generated using pymatgen
data_Sr(AsPd2)2
_symmetry_space_group_name_H-M   'P 1'
_cell_length_a   8.07720400
_cell_length_b   8.07720400
_cell_length_c   3.96142000
_cell_angle_alpha   90.00000000
_cell_angle_beta   90.00000000
_cell_angle_gamma   90.00000000
_symmetry_Int_Tables_number   1
_chemical_formula_structural   Sr(AsPd2)2
_chemical_formula_sum   'Sr2 As4 Pd8'
_cell_volume   258.44789139
_cell_formula_units_Z   2
loop_
 _symmetry_equiv_pos_site_id
 _symmetry_equiv_pos_as_xyz
  1  'x, y, z'
loop_
 _atom_site_type_symbol
 _atom_site_label
 _atom_site_symmetry_multiplicity
 _atom_site_fract_x
 _atom_site_fract_y
 _atom_site_fract_z
 _atom_site_occupancy
  Sr  Sr0  1  0.500000  0.500000  0.000000  1
  Sr  Sr1  1  0.000000  0.000000  0.500000  1
  As  As2  1  0.779543  0.220457  0.000000  1
  As  As3  1  0.220457  0.779543  0.000000  1
  As  As4  1  0.279544  0.279544  0.500000  1
  As  As5  1  0.720456  0.720456  0.500000  1
  Pd  Pd6  1  0.341506  0.089694  0.000000  1
  Pd  Pd7  1  0.089694  0.341506  0.000000  1
  Pd  Pd8  1  0.910306  0.658495  0.000000  1
  Pd  Pd9  1  0.658495  0.910306  0.000000  1
  Pd  Pd10  1  0.589694  0.158495  0.500000  1
  Pd  Pd11  1  0.841505  0.410307  0.500000  1
  Pd  Pd12  1  0.158495  0.589694  0.500000  1
  Pd  Pd13  1  0.410307  0.841505  0.500000  1
