# generated using pymatgen
data_Ho11In9(GaCo)2
_symmetry_space_group_name_H-M   'P 1'
_cell_length_a   13.17780317
_cell_length_b   12.96839058
_cell_length_c   3.63352600
_cell_angle_alpha   90.00000000
_cell_angle_beta   90.00000000
_cell_angle_gamma   110.77005451
_symmetry_Int_Tables_number   1
_chemical_formula_structural   Ho11In9(GaCo)2
_chemical_formula_sum   'Ho11 In9 Ga2 Co2'
_cell_volume   580.59615811
_cell_formula_units_Z   1
loop_
 _symmetry_equiv_pos_site_id
 _symmetry_equiv_pos_as_xyz
  1  'x, y, z'
loop_
 _atom_site_type_symbol
 _atom_site_label
 _atom_site_symmetry_multiplicity
 _atom_site_fract_x
 _atom_site_fract_y
 _atom_site_fract_z
 _atom_site_occupancy
  Ho  Ho0  1  0.065985  0.415714  0.000000  1
  Ho  Ho1  1  0.934015  0.584286  0.000000  1
  Ho  Ho2  1  0.418731  0.078850  0.000000  1
  Ho  Ho3  1  0.581269  0.921150  0.000000  1
  Ho  Ho4  1  0.613355  0.359808  0.000000  1
  Ho  Ho5  1  0.386645  0.640192  0.000000  1
  Ho  Ho6  1  0.837169  0.158194  0.000000  1
  Ho  Ho7  1  0.162831  0.841806  0.000000  1
  Ho  Ho8  1  0.000000  0.000000  0.000000  1
  Ho  Ho9  1  0.322112  0.303817  0.000000  1
  Ho  Ho10  1  0.677888  0.696183  0.000000  1
  In  In11  1  0.842707  0.367605  0.500000  1
  In  In12  1  0.157293  0.632395  0.500000  1
  In  In13  1  0.370676  0.844127  0.500000  1
  In  In14  1  0.629324  0.155873  0.500000  1
  In  In15  1  0.069954  0.216536  0.500000  1
  In  In16  1  0.930046  0.783464  0.500000  1
  In  In17  1  0.220777  0.076567  0.500000  1
  In  In18  1  0.779223  0.923433  0.500000  1
  In  In19  1  0.500000  0.500000  0.500000  1
  Ga  Ga20  1  0.250089  0.452340  0.500000  1
  Ga  Ga21  1  0.749911  0.547660  0.500000  1
  Co  Co22  1  0.452672  0.247485  0.500000  1
  Co  Co23  1  0.547328  0.752515  0.500000  1
