# generated using pymatgen
data_Ho20TcBi8Pt3
_symmetry_space_group_name_H-M   'P 1'
_cell_length_a   8.00387384
_cell_length_b   9.04163100
_cell_length_c   12.38661030
_cell_angle_alpha   90.00000000
_cell_angle_beta   89.89538621
_cell_angle_gamma   90.00000000
_symmetry_Int_Tables_number   1
_chemical_formula_structural   Ho20TcBi8Pt3
_chemical_formula_sum   'Ho20 Tc1 Bi8 Pt3'
_cell_volume   896.39363455
_cell_formula_units_Z   1
loop_
 _symmetry_equiv_pos_site_id
 _symmetry_equiv_pos_as_xyz
  1  'x, y, z'
loop_
 _atom_site_type_symbol
 _atom_site_label
 _atom_site_symmetry_multiplicity
 _atom_site_fract_x
 _atom_site_fract_y
 _atom_site_fract_z
 _atom_site_occupancy
  Ho  Ho0  1  0.841908  0.750000  0.794132  1
  Ho  Ho1  1  0.162701  0.250000  0.209669  1
  Ho  Ho2  1  0.336399  0.250000  0.710476  1
  Ho  Ho3  1  0.665304  0.750000  0.287194  1
  Ho  Ho4  1  0.374329  0.750000  0.696942  1
  Ho  Ho5  1  0.625930  0.250000  0.302857  1
  Ho  Ho6  1  0.874961  0.250000  0.802756  1
  Ho  Ho7  1  0.121497  0.750000  0.194181  1
  Ho  Ho8  1  0.948629  0.750000  0.500991  1
  Ho  Ho9  1  0.048778  0.250000  0.500666  1
  Ho  Ho10  1  0.449683  0.250000  0.999820  1
  Ho  Ho11  1  0.551716  0.750000  0.000974  1
  Ho  Ho12  1  0.677566  0.046409  0.566755  1
  Ho  Ho13  1  0.320506  0.954456  0.432339  1
  Ho  Ho14  1  0.177666  0.951886  0.935008  1
  Ho  Ho15  1  0.320506  0.545544  0.432339  1
  Ho  Ho16  1  0.824110  0.039868  0.064436  1
  Ho  Ho17  1  0.677566  0.453591  0.566755  1
  Ho  Ho18  1  0.824110  0.460132  0.064436  1
  Ho  Ho19  1  0.177666  0.548114  0.935008  1
  Tc  Tc20  1  0.922244  0.750000  0.013229  1
  Bi  Bi21  1  0.569006  0.489897  0.827142  1
  Bi  Bi22  1  0.430976  0.509852  0.173254  1
  Bi  Bi23  1  0.069303  0.509914  0.672653  1
  Bi  Bi24  1  0.430976  0.990148  0.173254  1
  Bi  Bi25  1  0.930556  0.489423  0.327965  1
  Bi  Bi26  1  0.569006  0.010103  0.827142  1
  Bi  Bi27  1  0.930556  0.010577  0.327965  1
  Bi  Bi28  1  0.069303  0.990086  0.672653  1
  Pt  Pt29  1  0.574545  0.750000  0.510480  1
  Pt  Pt30  1  0.423230  0.250000  0.488177  1
  Pt  Pt31  1  0.078767  0.250000  0.988354  1
