# generated using pymatgen
data_Ac2Si5Rh3
_symmetry_space_group_name_H-M   'P 1'
_cell_length_a   8.50029119
_cell_length_b   8.50029080
_cell_length_c   8.50029099
_cell_angle_alpha   138.72067142
_cell_angle_beta   106.04300494
_cell_angle_gamma   88.40347623
_symmetry_Int_Tables_number   1
_chemical_formula_structural   Ac2Si5Rh3
_chemical_formula_sum   'Ac4 Si10 Rh6'
_cell_volume   373.42766568
_cell_formula_units_Z   2
loop_
 _symmetry_equiv_pos_site_id
 _symmetry_equiv_pos_as_xyz
  1  'x, y, z'
loop_
 _atom_site_type_symbol
 _atom_site_label
 _atom_site_symmetry_multiplicity
 _atom_site_fract_x
 _atom_site_fract_y
 _atom_site_fract_z
 _atom_site_occupancy
  Ac  Ac0  1  0.635813  0.871486  0.764327  1
  Ac  Ac1  1  0.364187  0.128514  0.235673  1
  Ac  Ac2  1  0.892841  0.628514  0.264327  1
  Ac  Ac3  1  0.107159  0.371486  0.735673  1
  Si  Si4  1  0.000000  0.250000  0.250000  1
  Si  Si5  1  0.000000  0.750000  0.750000  1
  Si  Si6  1  0.268954  0.518954  0.250000  1
  Si  Si7  1  0.731046  0.981046  0.250000  1
  Si  Si8  1  0.731046  0.481046  0.750000  1
  Si  Si9  1  0.268954  0.018954  0.750000  1
  Si  Si10  1  0.468404  0.610541  0.857863  1
  Si  Si11  1  0.752677  0.110541  0.642137  1
  Si  Si12  1  0.247323  0.889459  0.357863  1
  Si  Si13  1  0.531596  0.389459  0.142137  1
  Rh  Rh14  1  0.025797  0.136701  0.889096  1
  Rh  Rh15  1  0.500000  0.750000  0.250000  1
  Rh  Rh16  1  0.247605  0.636701  0.610904  1
  Rh  Rh17  1  0.752395  0.363299  0.389096  1
  Rh  Rh18  1  0.974203  0.863299  0.110904  1
  Rh  Rh19  1  0.500000  0.250000  0.750000  1
