# generated using pymatgen
data_Tb3(Sn2Ru)2
_symmetry_space_group_name_H-M   'P 1'
_cell_length_a   7.60046100
_cell_length_b   7.60046222
_cell_length_c   4.13249200
_cell_angle_alpha   90.00000000
_cell_angle_beta   90.00000000
_cell_angle_gamma   119.99999035
_symmetry_Int_Tables_number   1
_chemical_formula_structural   Tb3(Sn2Ru)2
_chemical_formula_sum   'Tb3 Sn4 Ru2'
_cell_volume   206.73910636
_cell_formula_units_Z   1
loop_
 _symmetry_equiv_pos_site_id
 _symmetry_equiv_pos_as_xyz
  1  'x, y, z'
loop_
 _atom_site_type_symbol
 _atom_site_label
 _atom_site_symmetry_multiplicity
 _atom_site_fract_x
 _atom_site_fract_y
 _atom_site_fract_z
 _atom_site_occupancy
  Tb  Tb0  1  0.608470  0.024499  0.000000  1
  Tb  Tb1  1  0.975501  0.583970  0.000000  1
  Tb  Tb2  1  0.416030  0.391530  0.000000  1
  Sn  Sn3  1  0.256049  0.017856  0.500000  1
  Sn  Sn4  1  0.982144  0.238193  0.500000  1
  Sn  Sn5  1  0.761807  0.743951  0.500000  1
  Sn  Sn6  1  0.333333  0.666667  0.500000  1
  Ru  Ru7  1  0.666667  0.333333  0.500000  1
  Ru  Ru8  1  0.000000  0.000000  0.000000  1
