# generated using pymatgen
data_Tm8AlCdPt2
_symmetry_space_group_name_H-M   'P 1'
_cell_length_a   9.50309620
_cell_length_b   9.50309609
_cell_length_c   9.50337900
_cell_angle_alpha   59.99901172
_cell_angle_beta   59.99901210
_cell_angle_gamma   60.11035112
_symmetry_Int_Tables_number   1
_chemical_formula_structural   Tm8AlCdPt2
_chemical_formula_sum   'Tm16 Al2 Cd2 Pt4'
_cell_volume   607.36209494
_cell_formula_units_Z   2
loop_
 _symmetry_equiv_pos_site_id
 _symmetry_equiv_pos_as_xyz
  1  'x, y, z'
loop_
 _atom_site_type_symbol
 _atom_site_label
 _atom_site_symmetry_multiplicity
 _atom_site_fract_x
 _atom_site_fract_y
 _atom_site_fract_z
 _atom_site_occupancy
  Tm  Tm0  1  0.353680  0.353680  0.351455  1
  Tm  Tm1  1  0.353680  0.353680  0.941185  1
  Tm  Tm2  1  0.356872  0.936117  0.353506  1
  Tm  Tm3  1  0.936117  0.356872  0.353506  1
  Tm  Tm4  1  0.808518  0.193598  0.189867  1
  Tm  Tm5  1  0.193598  0.808518  0.808018  1
  Tm  Tm6  1  0.193598  0.808518  0.189867  1
  Tm  Tm7  1  0.808518  0.193598  0.808018  1
  Tm  Tm8  1  0.189478  0.189478  0.810522  1
  Tm  Tm9  1  0.806064  0.806064  0.193936  1
  Tm  Tm10  1  0.933066  0.564422  0.565007  1
  Tm  Tm11  1  0.564422  0.933066  0.937506  1
  Tm  Tm12  1  0.564422  0.933066  0.565007  1
  Tm  Tm13  1  0.933066  0.564422  0.937506  1
  Tm  Tm14  1  0.565812  0.565812  0.934188  1
  Tm  Tm15  1  0.937042  0.937042  0.562958  1
  Al  Al16  1  0.582155  0.582155  0.578504  1
  Al  Al17  1  0.582155  0.582155  0.257186  1
  Cd  Cd18  1  0.582319  0.256454  0.580614  1
  Cd  Cd19  1  0.256454  0.582319  0.580614  1
  Pt  Pt20  1  0.143163  0.143163  0.144618  1
  Pt  Pt21  1  0.143163  0.143163  0.569057  1
  Pt  Pt22  1  0.141980  0.570662  0.143680  1
  Pt  Pt23  1  0.570662  0.141980  0.143680  1
