# generated using pymatgen
data_Tb6EuNiCl12
_symmetry_space_group_name_H-M   'P 1'
_cell_length_a   8.83953470
_cell_length_b   8.83953309
_cell_length_c   8.83953600
_cell_angle_alpha   106.28356566
_cell_angle_beta   106.28357614
_cell_angle_gamma   106.28357928
_symmetry_Int_Tables_number   1
_chemical_formula_structural   Tb6EuNiCl12
_chemical_formula_sum   'Tb6 Eu1 Ni1 Cl12'
_cell_volume   586.09839846
_cell_formula_units_Z   1
loop_
 _symmetry_equiv_pos_site_id
 _symmetry_equiv_pos_as_xyz
  1  'x, y, z'
loop_
 _atom_site_type_symbol
 _atom_site_label
 _atom_site_symmetry_multiplicity
 _atom_site_fract_x
 _atom_site_fract_y
 _atom_site_fract_z
 _atom_site_occupancy
  Tb  Tb0  1  0.103516  0.021868  0.315589  1
  Tb  Tb1  1  0.315589  0.103516  0.021868  1
  Tb  Tb2  1  0.021868  0.315589  0.103516  1
  Tb  Tb3  1  0.896484  0.978132  0.684411  1
  Tb  Tb4  1  0.684411  0.896484  0.978132  1
  Tb  Tb5  1  0.978132  0.684411  0.896484  1
  Eu  Eu6  1  0.500000  0.500000  0.500000  1
  Ni  Ni7  1  0.000000  0.000000  0.000000  1
  Cl  Cl8  1  0.071860  0.677906  0.217701  1
  Cl  Cl9  1  0.217701  0.071860  0.677906  1
  Cl  Cl10  1  0.677906  0.217701  0.071860  1
  Cl  Cl11  1  0.928140  0.322094  0.782299  1
  Cl  Cl12  1  0.782299  0.928140  0.322094  1
  Cl  Cl13  1  0.322094  0.782299  0.928140  1
  Cl  Cl14  1  0.447771  0.144846  0.367810  1
  Cl  Cl15  1  0.367810  0.447771  0.144846  1
  Cl  Cl16  1  0.144846  0.367810  0.447771  1
  Cl  Cl17  1  0.552229  0.855154  0.632190  1
  Cl  Cl18  1  0.632190  0.552229  0.855154  1
  Cl  Cl19  1  0.855154  0.632190  0.552229  1
