# generated using pymatgen
data_CaThSi7Ir12
_symmetry_space_group_name_H-M   'P 1'
_cell_length_a   9.80910300
_cell_length_b   9.80910292
_cell_length_c   3.90612800
_cell_angle_alpha   90.00000000
_cell_angle_beta   90.00000000
_cell_angle_gamma   119.99999782
_symmetry_Int_Tables_number   1
_chemical_formula_structural   CaThSi7Ir12
_chemical_formula_sum   'Ca1 Th1 Si7 Ir12'
_cell_volume   325.48853664
_cell_formula_units_Z   1
loop_
 _symmetry_equiv_pos_site_id
 _symmetry_equiv_pos_as_xyz
  1  'x, y, z'
loop_
 _atom_site_type_symbol
 _atom_site_label
 _atom_site_symmetry_multiplicity
 _atom_site_fract_x
 _atom_site_fract_y
 _atom_site_fract_z
 _atom_site_occupancy
  Ca  Ca0  1  0.666667  0.333333  0.250693  1
  Th  Th1  1  0.333333  0.666667  0.750746  1
  Si  Si2  1  0.000000  0.000000  0.490891  1
  Si  Si3  1  0.290160  0.891997  0.248468  1
  Si  Si4  1  0.601837  0.709840  0.248468  1
  Si  Si5  1  0.108003  0.398163  0.248468  1
  Si  Si6  1  0.710756  0.117583  0.752001  1
  Si  Si7  1  0.406827  0.289244  0.752001  1
  Si  Si8  1  0.882417  0.593173  0.752001  1
  Ir  Ir9  1  0.261994  0.119396  0.254787  1
  Ir  Ir10  1  0.857402  0.738006  0.254787  1
  Ir  Ir11  1  0.880604  0.142598  0.254787  1
  Ir  Ir12  1  0.739157  0.885535  0.746724  1
  Ir  Ir13  1  0.146378  0.260843  0.746724  1
  Ir  Ir14  1  0.114465  0.853622  0.746724  1
  Ir  Ir15  1  0.064859  0.620261  0.249171  1
  Ir  Ir16  1  0.555402  0.935141  0.249171  1
  Ir  Ir17  1  0.379739  0.444598  0.249171  1
  Ir  Ir18  1  0.940806  0.382900  0.751406  1
  Ir  Ir19  1  0.442094  0.059194  0.751406  1
  Ir  Ir20  1  0.617100  0.557906  0.751406  1
