# generated using pymatgen
data_Yb5Sc2CdPt4
_symmetry_space_group_name_H-M   'P 1'
_cell_length_a   4.33800800
_cell_length_b   7.41261866
_cell_length_c   8.68469077
_cell_angle_alpha   87.44877366
_cell_angle_beta   90.00000000
_cell_angle_gamma   90.00000000
_symmetry_Int_Tables_number   1
_chemical_formula_structural   Yb5Sc2CdPt4
_chemical_formula_sum   'Yb5 Sc2 Cd1 Pt4'
_cell_volume   278.98810719
_cell_formula_units_Z   1
loop_
 _symmetry_equiv_pos_site_id
 _symmetry_equiv_pos_as_xyz
  1  'x, y, z'
loop_
 _atom_site_type_symbol
 _atom_site_label
 _atom_site_symmetry_multiplicity
 _atom_site_fract_x
 _atom_site_fract_y
 _atom_site_fract_z
 _atom_site_occupancy
  Yb  Yb0  1  0.750000  0.635790  0.438638  1
  Yb  Yb1  1  0.250000  0.985826  0.332016  1
  Yb  Yb2  1  0.250000  0.458812  0.174530  1
  Yb  Yb3  1  0.750000  0.039422  0.667741  1
  Yb  Yb4  1  0.750000  0.529881  0.825265  1
  Sc  Sc5  1  0.250000  0.860618  0.935620  1
  Sc  Sc6  1  0.750000  0.135837  0.063584  1
  Cd  Cd7  1  0.250000  0.354942  0.570485  1
  Pt  Pt8  1  0.250000  0.225747  0.891122  1
  Pt  Pt9  1  0.250000  0.745521  0.639662  1
  Pt  Pt10  1  0.750000  0.771397  0.106671  1
  Pt  Pt11  1  0.750000  0.256206  0.354665  1
