# generated using pymatgen
data_Ho3Mg3TlAgRh
_symmetry_space_group_name_H-M   'P 1'
_cell_length_a   8.01899600
_cell_length_b   8.01899615
_cell_length_c   3.80510600
_cell_angle_alpha   90.00000000
_cell_angle_beta   90.00000000
_cell_angle_gamma   119.99999113
_symmetry_Int_Tables_number   1
_chemical_formula_structural   Ho3Mg3TlAgRh
_chemical_formula_sum   'Ho3 Mg3 Tl1 Ag1 Rh1'
_cell_volume   211.90315939
_cell_formula_units_Z   1
loop_
 _symmetry_equiv_pos_site_id
 _symmetry_equiv_pos_as_xyz
  1  'x, y, z'
loop_
 _atom_site_type_symbol
 _atom_site_label
 _atom_site_symmetry_multiplicity
 _atom_site_fract_x
 _atom_site_fract_y
 _atom_site_fract_z
 _atom_site_occupancy
  Ho  Ho0  1  0.566866  0.958063  0.000000  1
  Ho  Ho1  1  0.041937  0.608803  0.000000  1
  Ho  Ho2  1  0.391197  0.433134  0.000000  1
  Mg  Mg3  1  0.253313  0.999809  0.500000  1
  Mg  Mg4  1  0.000191  0.253504  0.500000  1
  Mg  Mg5  1  0.746496  0.746687  0.500000  1
  Tl  Tl6  1  0.666667  0.333333  0.500000  1
  Ag  Ag7  1  0.000000  0.000000  0.000000  1
  Rh  Rh8  1  0.333333  0.666667  0.500000  1
