# generated using pymatgen
data_Th(PRh)2
_symmetry_space_group_name_H-M   'P 1'
_cell_length_a   4.20736900
_cell_length_b   4.20736900
_cell_length_c   9.55970100
_cell_angle_alpha   90.00000000
_cell_angle_beta   90.00000000
_cell_angle_gamma   90.00000000
_symmetry_Int_Tables_number   1
_chemical_formula_structural   Th(PRh)2
_chemical_formula_sum   'Th2 P4 Rh4'
_cell_volume   169.22538642
_cell_formula_units_Z   2
loop_
 _symmetry_equiv_pos_site_id
 _symmetry_equiv_pos_as_xyz
  1  'x, y, z'
loop_
 _atom_site_type_symbol
 _atom_site_label
 _atom_site_symmetry_multiplicity
 _atom_site_fract_x
 _atom_site_fract_y
 _atom_site_fract_z
 _atom_site_occupancy
  Th  Th0  1  0.249999  0.249999  0.255055  1
  Th  Th1  1  0.749999  0.749999  0.744945  1
  P  P2  1  0.749999  0.749999  0.138563  1
  P  P3  1  0.749999  0.249999  0.500000  1
  P  P4  1  0.249999  0.749999  0.500000  1
  P  P5  1  0.249999  0.249999  0.861437  1
  Rh  Rh6  1  0.749999  0.249999  0.000000  1
  Rh  Rh7  1  0.249999  0.749999  0.000000  1
  Rh  Rh8  1  0.749999  0.749999  0.388142  1
  Rh  Rh9  1  0.249999  0.249999  0.611858  1
