# generated using pymatgen
data_Tm8Lu9Sc2Si16Ag
_symmetry_space_group_name_H-M   'P 1'
_cell_length_a   7.10758101
_cell_length_b   7.53482096
_cell_length_c   14.21678300
_cell_angle_alpha   90.00000000
_cell_angle_beta   90.00000000
_cell_angle_gamma   89.90087384
_symmetry_Int_Tables_number   1
_chemical_formula_structural   Tm8Lu9Sc2Si16Ag
_chemical_formula_sum   'Tm8 Lu9 Sc2 Si16 Ag1'
_cell_volume   761.36943875
_cell_formula_units_Z   1
loop_
 _symmetry_equiv_pos_site_id
 _symmetry_equiv_pos_as_xyz
  1  'x, y, z'
loop_
 _atom_site_type_symbol
 _atom_site_label
 _atom_site_symmetry_multiplicity
 _atom_site_fract_x
 _atom_site_fract_y
 _atom_site_fract_z
 _atom_site_occupancy
  Tm  Tm0  1  0.017500  0.180740  0.096063  1
  Tm  Tm1  1  0.984622  0.809062  0.901230  1
  Tm  Tm2  1  0.480926  0.677043  0.902258  1
  Tm  Tm3  1  0.984622  0.809062  0.598770  1
  Tm  Tm4  1  0.513552  0.319396  0.095166  1
  Tm  Tm5  1  0.017500  0.180740  0.403937  1
  Tm  Tm6  1  0.513552  0.319396  0.404834  1
  Tm  Tm7  1  0.480926  0.677043  0.597742  1
  Lu  Lu8  1  0.841817  0.490058  0.250000  1
  Lu  Lu9  1  0.319502  0.182232  0.628342  1
  Lu  Lu10  1  0.675152  0.825700  0.375390  1
  Lu  Lu11  1  0.175503  0.682649  0.374778  1
  Lu  Lu12  1  0.675152  0.825700  0.124610  1
  Lu  Lu13  1  0.834947  0.324999  0.628205  1
  Lu  Lu14  1  0.319502  0.182232  0.871658  1
  Lu  Lu15  1  0.834947  0.324999  0.871795  1
  Lu  Lu16  1  0.175503  0.682649  0.125222  1
  Sc  Sc17  1  0.344896  0.012053  0.250000  1
  Sc  Sc18  1  0.651266  0.987231  0.750000  1
  Si  Si19  1  0.015572  0.075474  0.750000  1
  Si  Si20  1  0.978437  0.904491  0.250000  1
  Si  Si21  1  0.471954  0.606809  0.250000  1
  Si  Si22  1  0.528017  0.399396  0.750000  1
  Si  Si23  1  0.282811  0.870446  0.750000  1
  Si  Si24  1  0.716334  0.132833  0.250000  1
  Si  Si25  1  0.221294  0.364569  0.250000  1
  Si  Si26  1  0.769357  0.635461  0.750000  1
  Si  Si27  1  0.162116  0.462934  0.531581  1
  Si  Si28  1  0.843534  0.532118  0.462806  1
  Si  Si29  1  0.345947  0.970370  0.463091  1
  Si  Si30  1  0.843534  0.532118  0.037194  1
  Si  Si31  1  0.656019  0.030022  0.542365  1
  Si  Si32  1  0.162116  0.462934  0.968419  1
  Si  Si33  1  0.656019  0.030022  0.957635  1
  Si  Si34  1  0.345947  0.970370  0.036909  1
  Ag  Ag35  1  0.159601  0.526652  0.750000  1
