# generated using pymatgen
data_ErTm5Zn23As
_symmetry_space_group_name_H-M   'P 1'
_cell_length_a   9.01080127
_cell_length_b   9.01080179
_cell_length_c   9.01226200
_cell_angle_alpha   59.99463923
_cell_angle_beta   59.99463736
_cell_angle_gamma   60.01072321
_symmetry_Int_Tables_number   1
_chemical_formula_structural   ErTm5Zn23As
_chemical_formula_sum   'Er1 Tm5 Zn23 As1'
_cell_volume   517.42288813
_cell_formula_units_Z   1
loop_
 _symmetry_equiv_pos_site_id
 _symmetry_equiv_pos_as_xyz
  1  'x, y, z'
loop_
 _atom_site_type_symbol
 _atom_site_label
 _atom_site_symmetry_multiplicity
 _atom_site_fract_x
 _atom_site_fract_y
 _atom_site_fract_z
 _atom_site_occupancy
  Er  Er0  1  0.284462  0.284462  0.715538  1
  Tm  Tm1  1  0.715173  0.284907  0.284827  1
  Tm  Tm2  1  0.715173  0.284907  0.715093  1
  Tm  Tm3  1  0.715307  0.715307  0.284693  1
  Tm  Tm4  1  0.284907  0.715173  0.715093  1
  Tm  Tm5  1  0.284907  0.715173  0.284827  1
  Zn  Zn6  1  0.623222  0.125594  0.125593  1
  Zn  Zn7  1  0.125594  0.623222  0.125593  1
  Zn  Zn8  1  0.125478  0.125478  0.623042  1
  Zn  Zn9  1  0.125478  0.125478  0.126003  1
  Zn  Zn10  1  0.376958  0.873997  0.874522  1
  Zn  Zn11  1  0.873997  0.376958  0.874522  1
  Zn  Zn12  1  0.874407  0.874407  0.376778  1
  Zn  Zn13  1  0.874407  0.874407  0.874406  1
  Zn  Zn14  1  0.500110  0.999926  0.000074  1
  Zn  Zn15  1  0.500110  0.999926  0.499890  1
  Zn  Zn16  1  0.500051  0.500051  0.999949  1
  Zn  Zn17  1  0.999926  0.500110  0.499890  1
  Zn  Zn18  1  0.999926  0.500110  0.000074  1
  Zn  Zn19  1  0.000051  0.000051  0.499949  1
  Zn  Zn20  1  0.000002  0.000002  0.999998  1
  Zn  Zn21  1  0.008538  0.330533  0.330464  1
  Zn  Zn22  1  0.330533  0.008538  0.330464  1
  Zn  Zn23  1  0.330466  0.330466  0.008779  1
  Zn  Zn24  1  0.330466  0.330466  0.330286  1
  Zn  Zn25  1  0.991221  0.669714  0.669534  1
  Zn  Zn26  1  0.669714  0.991221  0.669534  1
  Zn  Zn27  1  0.669536  0.669536  0.991462  1
  Zn  Zn28  1  0.669536  0.669536  0.669467  1
  As  As29  1  0.500341  0.500341  0.499659  1
