# generated using pymatgen
data_Tb10RuRhPb6
_symmetry_space_group_name_H-M   'P 1'
_cell_length_a   9.37933300
_cell_length_b   9.37933442
_cell_length_c   6.61935800
_cell_angle_alpha   90.00000000
_cell_angle_beta   90.00000000
_cell_angle_gamma   119.99999852
_symmetry_Int_Tables_number   1
_chemical_formula_structural   Tb10RuRhPb6
_chemical_formula_sum   'Tb10 Ru1 Rh1 Pb6'
_cell_volume   504.30176049
_cell_formula_units_Z   1
loop_
 _symmetry_equiv_pos_site_id
 _symmetry_equiv_pos_as_xyz
  1  'x, y, z'
loop_
 _atom_site_type_symbol
 _atom_site_label
 _atom_site_symmetry_multiplicity
 _atom_site_fract_x
 _atom_site_fract_y
 _atom_site_fract_z
 _atom_site_occupancy
  Tb  Tb0  1  0.238952  0.238952  0.747068  1
  Tb  Tb1  1  0.000000  0.761048  0.747068  1
  Tb  Tb2  1  0.238952  0.000000  0.252932  1
  Tb  Tb3  1  0.761048  0.000000  0.747068  1
  Tb  Tb4  1  0.333333  0.666667  0.500000  1
  Tb  Tb5  1  0.666667  0.333333  0.500000  1
  Tb  Tb6  1  0.761048  0.761048  0.252932  1
  Tb  Tb7  1  0.000000  0.238952  0.252932  1
  Tb  Tb8  1  0.333333  0.666667  0.000000  1
  Tb  Tb9  1  0.666667  0.333333  0.000000  1
  Ru  Ru10  1  0.000000  0.000000  0.500000  1
  Rh  Rh11  1  0.000000  0.000000  0.000000  1
  Pb  Pb12  1  0.598214  0.000000  0.248771  1
  Pb  Pb13  1  0.000000  0.598214  0.248771  1
  Pb  Pb14  1  0.598214  0.598214  0.751229  1
  Pb  Pb15  1  0.401786  0.401786  0.248771  1
  Pb  Pb16  1  0.000000  0.401786  0.751229  1
  Pb  Pb17  1  0.401786  0.000000  0.751229  1
