# generated using pymatgen
data_Li2NdDySi2Sn
_symmetry_space_group_name_H-M   'P 1'
_cell_length_a   9.65321055
_cell_length_b   9.65321055
_cell_length_c   6.84644300
_cell_angle_alpha   90.00000000
_cell_angle_beta   90.00000000
_cell_angle_gamma   153.28040560
_symmetry_Int_Tables_number   1
_chemical_formula_structural   Li2NdDySi2Sn
_chemical_formula_sum   'Li4 Nd2 Dy2 Si4 Sn2'
_cell_volume   286.85241862
_cell_formula_units_Z   2
loop_
 _symmetry_equiv_pos_site_id
 _symmetry_equiv_pos_as_xyz
  1  'x, y, z'
loop_
 _atom_site_type_symbol
 _atom_site_label
 _atom_site_symmetry_multiplicity
 _atom_site_fract_x
 _atom_site_fract_y
 _atom_site_fract_z
 _atom_site_occupancy
  Li  Li0  1  0.184547  0.815453  0.054812  1
  Li  Li1  1  0.184547  0.815453  0.445188  1
  Li  Li2  1  0.815453  0.184547  0.945188  1
  Li  Li3  1  0.815453  0.184547  0.554812  1
  Nd  Nd4  1  0.549334  0.450666  0.250000  1
  Nd  Nd5  1  0.450666  0.549334  0.750000  1
  Dy  Dy6  1  0.351198  0.648802  0.250000  1
  Dy  Dy7  1  0.648802  0.351198  0.750000  1
  Si  Si8  1  0.058144  0.941856  0.925404  1
  Si  Si9  1  0.941856  0.058144  0.074596  1
  Si  Si10  1  0.941856  0.058144  0.425404  1
  Si  Si11  1  0.058144  0.941856  0.574596  1
  Sn  Sn12  1  0.721208  0.278792  0.250000  1
  Sn  Sn13  1  0.278792  0.721208  0.750000  1
