# generated using pymatgen
data_NdDy5Ho10(CdPt)4
_symmetry_space_group_name_H-M   'P 1'
_cell_length_a   9.67768092
_cell_length_b   9.67768134
_cell_length_c   9.65810700
_cell_angle_alpha   60.06688884
_cell_angle_beta   60.06688744
_cell_angle_gamma   59.92608497
_symmetry_Int_Tables_number   1
_chemical_formula_structural   NdDy5Ho10(CdPt)4
_chemical_formula_sum   'Nd1 Dy5 Ho10 Cd4 Pt4'
_cell_volume   639.90321470
_cell_formula_units_Z   1
loop_
 _symmetry_equiv_pos_site_id
 _symmetry_equiv_pos_as_xyz
  1  'x, y, z'
loop_
 _atom_site_type_symbol
 _atom_site_label
 _atom_site_symmetry_multiplicity
 _atom_site_fract_x
 _atom_site_fract_y
 _atom_site_fract_z
 _atom_site_occupancy
  Nd  Nd0  1  0.935330  0.935330  0.564670  1
  Dy  Dy1  1  0.936255  0.561484  0.564544  1
  Dy  Dy2  1  0.561484  0.936255  0.937716  1
  Dy  Dy3  1  0.561484  0.936255  0.564544  1
  Dy  Dy4  1  0.936255  0.561484  0.937716  1
  Dy  Dy5  1  0.565260  0.565260  0.934740  1
  Ho  Ho6  1  0.351921  0.351921  0.350101  1
  Ho  Ho7  1  0.351921  0.351921  0.946056  1
  Ho  Ho8  1  0.354840  0.942027  0.351566  1
  Ho  Ho9  1  0.942027  0.354840  0.351566  1
  Ho  Ho10  1  0.810714  0.190681  0.188089  1
  Ho  Ho11  1  0.190681  0.810714  0.810517  1
  Ho  Ho12  1  0.190681  0.810714  0.188089  1
  Ho  Ho13  1  0.810714  0.190681  0.810517  1
  Ho  Ho14  1  0.190087  0.190087  0.809913  1
  Ho  Ho15  1  0.811610  0.811610  0.188390  1
  Cd  Cd16  1  0.581290  0.581290  0.581685  1
  Cd  Cd17  1  0.581290  0.581290  0.255736  1
  Cd  Cd18  1  0.578780  0.256615  0.582304  1
  Cd  Cd19  1  0.256615  0.578780  0.582304  1
  Pt  Pt20  1  0.143817  0.143817  0.142376  1
  Pt  Pt21  1  0.143817  0.143817  0.569991  1
  Pt  Pt22  1  0.142464  0.570663  0.143437  1
  Pt  Pt23  1  0.570663  0.142464  0.143437  1
