# generated using pymatgen
data_Dy2Er5LuSb20
_symmetry_space_group_name_H-M   'P 1'
_cell_length_a   4.20281500
_cell_length_b   13.15630254
_cell_length_c   14.57040800
_cell_angle_alpha   78.41285308
_cell_angle_beta   90.00000000
_cell_angle_gamma   90.00000000
_symmetry_Int_Tables_number   1
_chemical_formula_structural   Dy2Er5LuSb20
_chemical_formula_sum   'Dy2 Er5 Lu1 Sb20'
_cell_volume   789.23007989
_cell_formula_units_Z   1
loop_
 _symmetry_equiv_pos_site_id
 _symmetry_equiv_pos_as_xyz
  1  'x, y, z'
loop_
 _atom_site_type_symbol
 _atom_site_label
 _atom_site_symmetry_multiplicity
 _atom_site_fract_x
 _atom_site_fract_y
 _atom_site_fract_z
 _atom_site_occupancy
  Dy  Dy0  1  0.250000  0.953421  0.359065  1
  Dy  Dy1  1  0.750000  0.046748  0.641007  1
  Er  Er2  1  0.750000  0.604805  0.229535  1
  Er  Er3  1  0.250000  0.661727  0.855874  1
  Er  Er4  1  0.750000  0.338142  0.143784  1
  Er  Er5  1  0.250000  0.668604  0.576441  1
  Er  Er6  1  0.750000  0.331404  0.423767  1
  Lu  Lu7  1  0.250000  0.395398  0.770411  1
  Sb  Sb8  1  0.250000  0.145086  0.778976  1
  Sb  Sb9  1  0.750000  0.855631  0.221281  1
  Sb  Sb10  1  0.250000  0.144574  0.482447  1
  Sb  Sb11  1  0.750000  0.855481  0.517634  1
  Sb  Sb12  1  0.250000  0.153074  0.170989  1
  Sb  Sb13  1  0.750000  0.846806  0.828989  1
  Sb  Sb14  1  0.250000  0.420609  0.974403  1
  Sb  Sb15  1  0.750000  0.579464  0.024496  1
  Sb  Sb16  1  0.750000  0.029034  0.909426  1
  Sb  Sb17  1  0.250000  0.970992  0.090447  1
  Sb  Sb18  1  0.750000  0.140173  0.322238  1
  Sb  Sb19  1  0.250000  0.859927  0.677795  1
  Sb  Sb20  1  0.750000  0.279633  0.936098  1
  Sb  Sb21  1  0.250000  0.720511  0.063059  1
  Sb  Sb22  1  0.750000  0.286025  0.653476  1
  Sb  Sb23  1  0.250000  0.714311  0.347163  1
  Sb  Sb24  1  0.750000  0.574884  0.734616  1
  Sb  Sb25  1  0.250000  0.423386  0.265772  1
  Sb  Sb26  1  0.750000  0.572167  0.447404  1
  Sb  Sb27  1  0.250000  0.427986  0.553407  1
