# generated using pymatgen
data_NdDy(Co3Si2)2
_symmetry_space_group_name_H-M   'P 1'
_cell_length_a   6.30486883
_cell_length_b   6.30486854
_cell_length_c   6.30486957
_cell_angle_alpha   130.42985249
_cell_angle_beta   113.74625603
_cell_angle_gamma   87.06497341
_symmetry_Int_Tables_number   1
_chemical_formula_structural   NdDy(Co3Si2)2
_chemical_formula_sum   'Nd1 Dy1 Co6 Si4'
_cell_volume   166.50988906
_cell_formula_units_Z   1
loop_
 _symmetry_equiv_pos_site_id
 _symmetry_equiv_pos_as_xyz
  1  'x, y, z'
loop_
 _atom_site_type_symbol
 _atom_site_label
 _atom_site_symmetry_multiplicity
 _atom_site_fract_x
 _atom_site_fract_y
 _atom_site_fract_z
 _atom_site_occupancy
  Nd  Nd0  1  0.250000  0.528896  0.278896  1
  Dy  Dy1  1  0.750000  0.465556  0.715556  1
  Co  Co2  1  0.001236  0.001318  0.502554  1
  Co  Co3  1  0.498764  0.001318  0.000082  1
  Co  Co4  1  0.724608  0.002599  0.724454  1
  Co  Co5  1  0.221853  0.499846  0.724454  1
  Co  Co6  1  0.278147  0.002599  0.277993  1
  Co  Co7  1  0.775392  0.499846  0.277993  1
  Si  Si8  1  0.077759  0.871240  0.793481  1
  Si  Si9  1  0.916599  0.122129  0.205529  1
  Si  Si10  1  0.583401  0.788932  0.205529  1
  Si  Si11  1  0.422241  0.215719  0.793481  1
