# generated using pymatgen
data_HoEr4Fe3(P3Ru4)4
_symmetry_space_group_name_H-M   'P 1'
_cell_length_a   12.47567600
_cell_length_b   12.47567707
_cell_length_c   3.88681700
_cell_angle_alpha   90.00000000
_cell_angle_beta   90.00000000
_cell_angle_gamma   120.00000247
_symmetry_Int_Tables_number   1
_chemical_formula_structural   HoEr4Fe3(P3Ru4)4
_chemical_formula_sum   'Ho1 Er4 Fe3 P12 Ru16'
_cell_volume   523.90546210
_cell_formula_units_Z   1
loop_
 _symmetry_equiv_pos_site_id
 _symmetry_equiv_pos_as_xyz
  1  'x, y, z'
loop_
 _atom_site_type_symbol
 _atom_site_label
 _atom_site_symmetry_multiplicity
 _atom_site_fract_x
 _atom_site_fract_y
 _atom_site_fract_z
 _atom_site_occupancy
  Ho  Ho0  1  0.333333  0.666667  0.000000  1
  Er  Er1  1  0.999972  0.181629  0.500000  1
  Er  Er2  1  0.818371  0.818343  0.500000  1
  Er  Er3  1  0.181657  0.000028  0.500000  1
  Er  Er4  1  0.666667  0.333333  0.000000  1
  Fe  Fe5  1  0.999987  0.716793  0.500000  1
  Fe  Fe6  1  0.283207  0.283195  0.500000  1
  Fe  Fe7  1  0.716805  0.000013  0.500000  1
  P  P8  1  0.999985  0.813702  0.000000  1
  P  P9  1  0.186298  0.186283  0.000000  1
  P  P10  1  0.813717  0.000015  0.000000  1
  P  P11  1  0.689894  0.163060  0.500000  1
  P  P12  1  0.836940  0.526834  0.500000  1
  P  P13  1  0.473166  0.310106  0.500000  1
  P  P14  1  0.162967  0.689920  0.500000  1
  P  P15  1  0.526953  0.837033  0.500000  1
  P  P16  1  0.310080  0.473047  0.500000  1
  P  P17  1  0.000011  0.373076  0.000000  1
  P  P18  1  0.626924  0.626934  0.000000  1
  P  P19  1  0.373066  0.999989  0.000000  1
  Ru  Ru20  1  0.000008  0.558000  0.000000  1
  Ru  Ru21  1  0.442000  0.442008  0.000000  1
  Ru  Ru22  1  0.557992  0.999992  0.000000  1
  Ru  Ru23  1  0.807081  0.181778  0.000000  1
  Ru  Ru24  1  0.818222  0.625304  0.000000  1
  Ru  Ru25  1  0.374696  0.192919  0.000000  1
  Ru  Ru26  1  0.181710  0.807123  0.000000  1
  Ru  Ru27  1  0.625414  0.818290  0.000000  1
  Ru  Ru28  1  0.192877  0.374586  0.000000  1
  Ru  Ru29  1  0.873393  0.363280  0.500000  1
  Ru  Ru30  1  0.636720  0.510114  0.500000  1
  Ru  Ru31  1  0.489886  0.126607  0.500000  1
  Ru  Ru32  1  0.363277  0.873620  0.500000  1
  Ru  Ru33  1  0.510343  0.636723  0.500000  1
  Ru  Ru34  1  0.126380  0.489657  0.500000  1
  Ru  Ru35  1  0.000000  0.000000  0.000000  1
