# generated using pymatgen
data_Y2Co6Si3Ge
_symmetry_space_group_name_H-M   'P 1'
_cell_length_a   6.31252979
_cell_length_b   6.30556919
_cell_length_c   6.31253015
_cell_angle_alpha   130.63561129
_cell_angle_beta   112.96341018
_cell_angle_gamma   87.66649344
_symmetry_Int_Tables_number   1
_chemical_formula_structural   Y2Co6Si3Ge
_chemical_formula_sum   'Y2 Co6 Si3 Ge1'
_cell_volume   167.18051036
_cell_formula_units_Z   1
loop_
 _symmetry_equiv_pos_site_id
 _symmetry_equiv_pos_as_xyz
  1  'x, y, z'
loop_
 _atom_site_type_symbol
 _atom_site_label
 _atom_site_symmetry_multiplicity
 _atom_site_fract_x
 _atom_site_fract_y
 _atom_site_fract_z
 _atom_site_occupancy
  Y  Y0  1  0.251398  0.532796  0.281398  1
  Y  Y1  1  0.748601  0.471574  0.722972  1
  Co  Co2  1  0.991942  0.999706  0.488070  1
  Co  Co3  1  0.511636  0.999706  0.007763  1
  Co  Co4  1  0.719679  0.001559  0.722965  1
  Co  Co5  1  0.229942  0.496052  0.727788  1
  Co  Co6  1  0.278593  0.001559  0.281880  1
  Co  Co7  1  0.768264  0.496052  0.266110  1
  Si  Si8  1  0.922577  0.134787  0.212209  1
  Si  Si9  1  0.578441  0.786685  0.208243  1
  Si  Si10  1  0.414795  0.205466  0.790672  1
  Ge  Ge11  1  0.084132  0.874060  0.789928  1
