# generated using pymatgen
data_TbY3CoHg
_symmetry_space_group_name_H-M   'P 1'
_cell_length_a   9.53285783
_cell_length_b   9.53285912
_cell_length_c   9.53285800
_cell_angle_alpha   60.00000387
_cell_angle_beta   59.99999940
_cell_angle_gamma   59.99999806
_symmetry_Int_Tables_number   1
_chemical_formula_structural   TbY3CoHg
_chemical_formula_sum   'Tb4 Y12 Co4 Hg4'
_cell_volume   612.56816263
_cell_formula_units_Z   4
loop_
 _symmetry_equiv_pos_site_id
 _symmetry_equiv_pos_as_xyz
  1  'x, y, z'
loop_
 _atom_site_type_symbol
 _atom_site_label
 _atom_site_symmetry_multiplicity
 _atom_site_fract_x
 _atom_site_fract_y
 _atom_site_fract_z
 _atom_site_occupancy
  Tb  Tb0  1  0.597976  0.597976  0.597976  1
  Tb  Tb1  1  0.597976  0.597976  0.206074  1
  Tb  Tb2  1  0.597976  0.206074  0.597976  1
  Tb  Tb3  1  0.206074  0.597976  0.597976  1
  Y  Y4  1  0.061150  0.438850  0.438850  1
  Y  Y5  1  0.438850  0.061150  0.061150  1
  Y  Y6  1  0.438850  0.061150  0.438850  1
  Y  Y7  1  0.061150  0.438850  0.061150  1
  Y  Y8  1  0.438850  0.438850  0.061150  1
  Y  Y9  1  0.061150  0.061150  0.438850  1
  Y  Y10  1  0.188760  0.811240  0.811240  1
  Y  Y11  1  0.811240  0.188760  0.188760  1
  Y  Y12  1  0.811240  0.188760  0.811240  1
  Y  Y13  1  0.188760  0.811240  0.188760  1
  Y  Y14  1  0.811240  0.811240  0.188760  1
  Y  Y15  1  0.188760  0.188760  0.811240  1
  Co  Co16  1  0.391848  0.391848  0.391848  1
  Co  Co17  1  0.391848  0.391848  0.824459  1
  Co  Co18  1  0.391848  0.824459  0.391848  1
  Co  Co19  1  0.824459  0.391848  0.391848  1
  Hg  Hg20  1  0.833816  0.833816  0.833816  1
  Hg  Hg21  1  0.833816  0.833816  0.498552  1
  Hg  Hg22  1  0.833816  0.498552  0.833816  1
  Hg  Hg23  1  0.498552  0.833816  0.833816  1
