# generated using pymatgen
data_Dy13HoTm6(CoBi2)4
_symmetry_space_group_name_H-M   'P 1'
_cell_length_a   7.93860186
_cell_length_b   8.86696704
_cell_length_c   12.38854245
_cell_angle_alpha   89.99025577
_cell_angle_beta   90.01311681
_cell_angle_gamma   90.04200979
_symmetry_Int_Tables_number   1
_chemical_formula_structural   Dy13HoTm6(CoBi2)4
_chemical_formula_sum   'Dy13 Ho1 Tm6 Co4 Bi8'
_cell_volume   872.04559917
_cell_formula_units_Z   1
loop_
 _symmetry_equiv_pos_site_id
 _symmetry_equiv_pos_as_xyz
  1  'x, y, z'
loop_
 _atom_site_type_symbol
 _atom_site_label
 _atom_site_symmetry_multiplicity
 _atom_site_fract_x
 _atom_site_fract_y
 _atom_site_fract_z
 _atom_site_occupancy
  Dy  Dy0  1  0.847670  0.750279  0.801202  1
  Dy  Dy1  1  0.152084  0.249844  0.198912  1
  Dy  Dy2  1  0.347822  0.250135  0.698596  1
  Dy  Dy3  1  0.651918  0.749923  0.301140  1
  Dy  Dy4  1  0.379250  0.749622  0.687456  1
  Dy  Dy5  1  0.620262  0.250336  0.312394  1
  Dy  Dy6  1  0.878907  0.249493  0.812199  1
  Dy  Dy7  1  0.119816  0.750687  0.187849  1
  Dy  Dy8  1  0.949967  0.749872  0.502659  1
  Dy  Dy9  1  0.050610  0.250107  0.497273  1
  Dy  Dy10  1  0.451301  0.249426  0.997436  1
  Dy  Dy11  1  0.551261  0.750380  0.002682  1
  Dy  Dy12  1  0.175733  0.534983  0.936866  1
  Ho  Ho13  1  0.674275  0.035235  0.563210  1
  Tm  Tm14  1  0.326639  0.964601  0.436725  1
  Tm  Tm15  1  0.172852  0.964717  0.937077  1
  Tm  Tm16  1  0.327011  0.535481  0.436899  1
  Tm  Tm17  1  0.827049  0.035864  0.063333  1
  Tm  Tm18  1  0.672993  0.464757  0.562973  1
  Tm  Tm19  1  0.826755  0.464541  0.063285  1
  Co  Co20  1  0.559732  0.749633  0.507040  1
  Co  Co21  1  0.439178  0.250433  0.492594  1
  Co  Co22  1  0.059271  0.249358  0.992905  1
  Co  Co23  1  0.937949  0.750869  0.007691  1
  Bi  Bi24  1  0.569415  0.492284  0.825816  1
  Bi  Bi25  1  0.431315  0.507469  0.173593  1
  Bi  Bi26  1  0.067760  0.507319  0.673502  1
  Bi  Bi27  1  0.431663  0.992499  0.173825  1
  Bi  Bi28  1  0.931773  0.492540  0.326260  1
  Bi  Bi29  1  0.567772  0.007297  0.826197  1
  Bi  Bi30  1  0.931448  0.007526  0.326452  1
  Bi  Bi31  1  0.068548  0.992489  0.673961  1
