# generated using pymatgen
data_CaPr(Si7Rh3)2
_symmetry_space_group_name_H-M   'P 1'
_cell_length_a   8.04188157
_cell_length_b   8.04188065
_cell_length_c   8.04188179
_cell_angle_alpha   57.04330124
_cell_angle_beta   57.04330038
_cell_angle_gamma   57.04329230
_symmetry_Int_Tables_number   1
_chemical_formula_structural   CaPr(Si7Rh3)2
_chemical_formula_sum   'Ca1 Pr1 Si14 Rh6'
_cell_volume   342.68829658
_cell_formula_units_Z   1
loop_
 _symmetry_equiv_pos_site_id
 _symmetry_equiv_pos_as_xyz
  1  'x, y, z'
loop_
 _atom_site_type_symbol
 _atom_site_label
 _atom_site_symmetry_multiplicity
 _atom_site_fract_x
 _atom_site_fract_y
 _atom_site_fract_z
 _atom_site_occupancy
  Ca  Ca0  1  0.000000  0.000000  0.000000  1
  Pr  Pr1  1  0.500000  0.500000  0.500000  1
  Si  Si2  1  0.749866  0.749866  0.749866  1
  Si  Si3  1  0.250134  0.250134  0.250134  1
  Si  Si4  1  0.853003  0.063722  0.673865  1
  Si  Si5  1  0.673865  0.853003  0.063722  1
  Si  Si6  1  0.063722  0.673865  0.853003  1
  Si  Si7  1  0.650575  0.828592  0.433923  1
  Si  Si8  1  0.433923  0.650575  0.828592  1
  Si  Si9  1  0.828592  0.433923  0.650575  1
  Si  Si10  1  0.171408  0.566077  0.349425  1
  Si  Si11  1  0.566077  0.349425  0.171408  1
  Si  Si12  1  0.349425  0.171408  0.566077  1
  Si  Si13  1  0.936278  0.326135  0.146997  1
  Si  Si14  1  0.326135  0.146997  0.936278  1
  Si  Si15  1  0.146997  0.936278  0.326135  1
  Rh  Rh16  1  0.068734  0.431249  0.750379  1
  Rh  Rh17  1  0.249621  0.931266  0.568751  1
  Rh  Rh18  1  0.568751  0.249621  0.931266  1
  Rh  Rh19  1  0.931266  0.568751  0.249621  1
  Rh  Rh20  1  0.431249  0.750379  0.068734  1
  Rh  Rh21  1  0.750379  0.068734  0.431249  1
