# generated using pymatgen
data_HoScCo4(SiC)2
_symmetry_space_group_name_H-M   'P 1'
_cell_length_a   5.52436171
_cell_length_b   5.52436281
_cell_length_c   6.64166700
_cell_angle_alpha   90.00000000
_cell_angle_beta   90.00000000
_cell_angle_gamma   141.68744649
_symmetry_Int_Tables_number   1
_chemical_formula_structural   HoScCo4(SiC)2
_chemical_formula_sum   'Ho1 Sc1 Co4 Si2 C2'
_cell_volume   125.66048578
_cell_formula_units_Z   1
loop_
 _symmetry_equiv_pos_site_id
 _symmetry_equiv_pos_as_xyz
  1  'x, y, z'
loop_
 _atom_site_type_symbol
 _atom_site_label
 _atom_site_symmetry_multiplicity
 _atom_site_fract_x
 _atom_site_fract_y
 _atom_site_fract_z
 _atom_site_occupancy
  Ho  Ho0  1  0.450778  0.549222  0.750000  1
  Sc  Sc1  1  0.548836  0.451164  0.250000  1
  Co  Co2  1  0.836185  0.163815  0.057825  1
  Co  Co3  1  0.163566  0.836434  0.947160  1
  Co  Co4  1  0.163566  0.836434  0.552840  1
  Co  Co5  1  0.836185  0.163815  0.442175  1
  Si  Si6  1  0.270365  0.729635  0.250000  1
  Si  Si7  1  0.728462  0.271538  0.750000  1
  C  C8  1  0.001028  0.998972  0.010259  1
  C  C9  1  0.001028  0.998972  0.489741  1
