# generated using pymatgen
data_Ce2CrTcF14
_symmetry_space_group_name_H-M   'P 1'
_cell_length_a   5.70750861
_cell_length_b   5.95385888
_cell_length_c   8.13806900
_cell_angle_alpha   78.87549796
_cell_angle_beta   89.94522902
_cell_angle_gamma   90.02728083
_symmetry_Int_Tables_number   1
_chemical_formula_structural   Ce2CrTcF14
_chemical_formula_sum   'Ce2 Cr1 Tc1 F14'
_cell_volume   271.34901933
_cell_formula_units_Z   1
loop_
 _symmetry_equiv_pos_site_id
 _symmetry_equiv_pos_as_xyz
  1  'x, y, z'
loop_
 _atom_site_type_symbol
 _atom_site_label
 _atom_site_symmetry_multiplicity
 _atom_site_fract_x
 _atom_site_fract_y
 _atom_site_fract_z
 _atom_site_occupancy
  Ce  Ce0  1  0.242440  0.837134  0.196435  1
  Ce  Ce1  1  0.744599  0.170183  0.810742  1
  Cr  Cr2  1  0.750808  0.311426  0.278155  1
  Tc  Tc3  1  0.256179  0.695262  0.727591  1
  F  F4  1  0.432457  0.415599  0.722361  1
  F  F5  1  0.080639  0.980516  0.709942  1
  F  F6  1  0.968896  0.512688  0.734481  1
  F  F7  1  0.016896  0.103686  0.286701  1
  F  F8  1  0.974789  0.557975  0.274966  1
  F  F9  1  0.418676  0.048411  0.968005  1
  F  F10  1  0.921558  0.927212  0.014084  1
  F  F11  1  0.249186  0.744418  0.485839  1
  F  F12  1  0.557077  0.858773  0.715665  1
  F  F13  1  0.531905  0.059682  0.285785  1
  F  F14  1  0.502401  0.539934  0.263337  1
  F  F15  1  0.747065  0.258735  0.522106  1
  F  F16  1  0.758738  0.359025  0.033131  1
  F  F17  1  0.265299  0.619341  0.970672  1
