# generated using pymatgen
data_Sm7Cd(IO6)4
_symmetry_space_group_name_H-M   'P 1'
_cell_length_a   5.60734799
_cell_length_b   7.89000688
_cell_length_c   11.84387282
_cell_angle_alpha   76.49260584
_cell_angle_beta   89.51861352
_cell_angle_gamma   89.72957420
_symmetry_Int_Tables_number   1
_chemical_formula_structural   Sm7Cd(IO6)4
_chemical_formula_sum   'Sm7 Cd1 I4 O24'
_cell_volume   509.48289477
_cell_formula_units_Z   1
loop_
 _symmetry_equiv_pos_site_id
 _symmetry_equiv_pos_as_xyz
  1  'x, y, z'
loop_
 _atom_site_type_symbol
 _atom_site_label
 _atom_site_symmetry_multiplicity
 _atom_site_fract_x
 _atom_site_fract_y
 _atom_site_fract_z
 _atom_site_occupancy
  Sm  Sm0  1  0.745646  0.983608  0.744315  1
  Sm  Sm1  1  0.253144  0.020697  0.254273  1
  Sm  Sm2  1  0.817580  0.803069  0.073370  1
  Sm  Sm3  1  0.691689  0.498853  0.752279  1
  Sm  Sm4  1  0.313425  0.501262  0.254528  1
  Sm  Sm5  1  0.178133  0.199648  0.927598  1
  Sm  Sm6  1  0.816985  0.224062  0.419442  1
  Cd  Cd7  1  0.204776  0.762614  0.583390  1
  I  I8  1  0.254143  0.720534  0.882740  1
  I  I9  1  0.740842  0.739042  0.382877  1
  I  I10  1  0.257820  0.260895  0.620353  1
  I  I11  1  0.733827  0.291854  0.109218  1
  O  O12  1  0.020216  0.942039  0.892169  1
  O  O13  1  0.522947  0.847386  0.930805  1
  O  O14  1  0.904688  0.953262  0.378599  1
  O  O15  1  0.465307  0.774786  0.728898  1
  O  O16  1  0.458454  0.836205  0.432840  1
  O  O17  1  0.970024  0.706320  0.768023  1
  O  O18  1  0.571287  0.810600  0.233490  1
  O  O19  1  0.856595  0.656635  0.534881  1
  O  O20  1  0.361934  0.490058  0.885497  1
  O  O21  1  0.011481  0.702692  0.284735  1
  O  O22  1  0.383490  0.478307  0.625494  1
  O  O23  1  0.829279  0.352502  0.939161  1
  O  O24  1  0.138677  0.634743  0.043023  1
  O  O25  1  0.629028  0.512097  0.384408  1
  O  O26  1  0.983962  0.291198  0.717876  1
  O  O27  1  0.614052  0.518215  0.103888  1
  O  O28  1  0.148431  0.364266  0.471230  1
  O  O29  1  0.421234  0.175450  0.768867  1
  O  O30  1  0.061155  0.285246  0.258966  1
  O  O31  1  0.535050  0.163547  0.566961  1
  O  O32  1  0.548706  0.233762  0.270303  1
  O  O33  1  0.074638  0.056386  0.605097  1
  O  O34  1  0.472481  0.165896  0.069881  1
  O  O35  1  0.008874  0.042264  0.100524  1
