# generated using pymatgen
data_Zr4CoNiOs6
_symmetry_space_group_name_H-M   'P 1'
_cell_length_a   5.12812888
_cell_length_b   5.12812789
_cell_length_c   8.49801200
_cell_angle_alpha   90.00000000
_cell_angle_beta   90.00000000
_cell_angle_gamma   118.97242687
_symmetry_Int_Tables_number   1
_chemical_formula_structural   Zr4CoNiOs6
_chemical_formula_sum   'Zr4 Co1 Ni1 Os6'
_cell_volume   195.51053453
_cell_formula_units_Z   1
loop_
 _symmetry_equiv_pos_site_id
 _symmetry_equiv_pos_as_xyz
  1  'x, y, z'
loop_
 _atom_site_type_symbol
 _atom_site_label
 _atom_site_symmetry_multiplicity
 _atom_site_fract_x
 _atom_site_fract_y
 _atom_site_fract_z
 _atom_site_occupancy
  Zr  Zr0  1  0.331554  0.668446  0.433640  1
  Zr  Zr1  1  0.667437  0.332563  0.565533  1
  Zr  Zr2  1  0.667437  0.332563  0.934467  1
  Zr  Zr3  1  0.331554  0.668446  0.066360  1
  Co  Co4  1  0.831545  0.168455  0.250000  1
  Ni  Ni5  1  0.169777  0.830223  0.750000  1
  Os  Os6  1  0.998088  0.001912  0.498620  1
  Os  Os7  1  0.998088  0.001912  0.001380  1
  Os  Os8  1  0.823989  0.653405  0.250000  1
  Os  Os9  1  0.346595  0.176011  0.250000  1
  Os  Os10  1  0.176911  0.342979  0.750000  1
  Os  Os11  1  0.657021  0.823089  0.750000  1
