# generated using pymatgen
data_CaEu3(LuIr)4
_symmetry_space_group_name_H-M   'P 1'
_cell_length_a   7.78061119
_cell_length_b   4.56571700
_cell_length_c   8.51227000
_cell_angle_alpha   90.00000000
_cell_angle_beta   89.94056581
_cell_angle_gamma   90.00000000
_symmetry_Int_Tables_number   1
_chemical_formula_structural   CaEu3(LuIr)4
_chemical_formula_sum   'Ca1 Eu3 Lu4 Ir4'
_cell_volume   302.39030212
_cell_formula_units_Z   1
loop_
 _symmetry_equiv_pos_site_id
 _symmetry_equiv_pos_as_xyz
  1  'x, y, z'
loop_
 _atom_site_type_symbol
 _atom_site_label
 _atom_site_symmetry_multiplicity
 _atom_site_fract_x
 _atom_site_fract_y
 _atom_site_fract_z
 _atom_site_occupancy
  Ca  Ca0  1  0.025167  0.750001  0.828465  1
  Eu  Eu1  1  0.974900  0.250000  0.169458  1
  Eu  Eu2  1  0.475527  0.250000  0.328811  1
  Eu  Eu3  1  0.525376  0.750001  0.671022  1
  Lu  Lu4  1  0.643573  0.750001  0.067870  1
  Lu  Lu5  1  0.143486  0.750001  0.432021  1
  Lu  Lu6  1  0.858485  0.250000  0.571693  1
  Lu  Lu7  1  0.353519  0.250000  0.930252  1
  Ir  Ir8  1  0.287253  0.750001  0.115915  1
  Ir  Ir9  1  0.787785  0.750001  0.385999  1
  Ir  Ir10  1  0.214467  0.250000  0.613423  1
  Ir  Ir11  1  0.710470  0.250000  0.885073  1
