# generated using pymatgen
data_Tb9Er7Cd4Co3Pd
_symmetry_space_group_name_H-M   'P 1'
_cell_length_a   9.54284607
_cell_length_b   9.53856869
_cell_length_c   9.53507579
_cell_angle_alpha   59.85468924
_cell_angle_beta   59.85946350
_cell_angle_gamma   59.85479597
_symmetry_Int_Tables_number   1
_chemical_formula_structural   Tb9Er7Cd4Co3Pd
_chemical_formula_sum   'Tb9 Er7 Cd4 Co3 Pd1'
_cell_volume   611.71890756
_cell_formula_units_Z   1
loop_
 _symmetry_equiv_pos_site_id
 _symmetry_equiv_pos_as_xyz
  1  'x, y, z'
loop_
 _atom_site_type_symbol
 _atom_site_label
 _atom_site_symmetry_multiplicity
 _atom_site_fract_x
 _atom_site_fract_y
 _atom_site_fract_z
 _atom_site_occupancy
  Tb  Tb0  1  0.605147  0.202810  0.607018  1
  Tb  Tb1  1  0.814558  0.815898  0.187149  1
  Tb  Tb2  1  0.203924  0.605288  0.604076  1
  Tb  Tb3  1  0.809756  0.189240  0.188684  1
  Tb  Tb4  1  0.050101  0.437214  0.439049  1
  Tb  Tb5  1  0.189010  0.812363  0.186270  1
  Tb  Tb6  1  0.604058  0.607205  0.203896  1
  Tb  Tb7  1  0.188121  0.186014  0.812132  1
  Tb  Tb8  1  0.062923  0.434918  0.060909  1
  Er  Er9  1  0.440313  0.438334  0.049264  1
  Er  Er10  1  0.593782  0.595011  0.595457  1
  Er  Er11  1  0.189186  0.813497  0.812129  1
  Er  Er12  1  0.062276  0.060870  0.436181  1
  Er  Er13  1  0.436668  0.062658  0.062156  1
  Er  Er14  1  0.813449  0.188556  0.813564  1
  Er  Er15  1  0.438519  0.049739  0.438701  1
  Cd  Cd16  1  0.828111  0.828781  0.509165  1
  Cd  Cd17  1  0.831409  0.832259  0.829790  1
  Cd  Cd18  1  0.507994  0.829054  0.829604  1
  Cd  Cd19  1  0.828261  0.507874  0.829946  1
  Co  Co20  1  0.825860  0.390605  0.394147  1
  Co  Co21  1  0.389883  0.827758  0.393743  1
  Co  Co22  1  0.392566  0.392894  0.826765  1
  Pd  Pd23  1  0.394123  0.391161  0.390204  1
