# generated using pymatgen
data_Gd3DySe4
_symmetry_space_group_name_H-M   'P 1'
_cell_length_a   7.13585169
_cell_length_b   7.13585149
_cell_length_c   7.18348200
_cell_angle_alpha   80.96253069
_cell_angle_beta   80.96253095
_cell_angle_gamma   33.84160724
_symmetry_Int_Tables_number   1
_chemical_formula_structural   Gd3DySe4
_chemical_formula_sum   'Gd3 Dy1 Se4'
_cell_volume   200.94112548
_cell_formula_units_Z   1
loop_
 _symmetry_equiv_pos_site_id
 _symmetry_equiv_pos_as_xyz
  1  'x, y, z'
loop_
 _atom_site_type_symbol
 _atom_site_label
 _atom_site_symmetry_multiplicity
 _atom_site_fract_x
 _atom_site_fract_y
 _atom_site_fract_z
 _atom_site_occupancy
  Gd  Gd0  1  0.250288  0.250288  0.249525  1
  Gd  Gd1  1  0.500000  0.500000  0.500000  1
  Gd  Gd2  1  0.749712  0.749712  0.750475  1
  Dy  Dy3  1  0.000000  0.000000  0.000000  1
  Se  Se4  1  0.623538  0.623538  0.123582  1
  Se  Se5  1  0.875817  0.875817  0.373091  1
  Se  Se6  1  0.124183  0.124183  0.626909  1
  Se  Se7  1  0.376462  0.376462  0.876418  1
