# generated using pymatgen
data_Tb2Er3Os2
_symmetry_space_group_name_H-M   'P 1'
_cell_length_a   6.33799133
_cell_length_b   7.34015109
_cell_length_c   8.39254242
_cell_angle_alpha   96.97979791
_cell_angle_beta   112.18489133
_cell_angle_gamma   90.00000068
_symmetry_Int_Tables_number   1
_chemical_formula_structural   Tb2Er3Os2
_chemical_formula_sum   'Tb4 Er6 Os4'
_cell_volume   358.40559850
_cell_formula_units_Z   2
loop_
 _symmetry_equiv_pos_site_id
 _symmetry_equiv_pos_as_xyz
  1  'x, y, z'
loop_
 _atom_site_type_symbol
 _atom_site_label
 _atom_site_symmetry_multiplicity
 _atom_site_fract_x
 _atom_site_fract_y
 _atom_site_fract_z
 _atom_site_occupancy
  Tb  Tb0  1  0.791267  0.583605  0.815149  1
  Tb  Tb1  1  0.976118  0.916395  0.184851  1
  Tb  Tb2  1  0.208733  0.416395  0.184851  1
  Tb  Tb3  1  0.023882  0.083605  0.815149  1
  Er  Er4  1  0.203601  0.683281  0.564866  1
  Er  Er5  1  0.638736  0.816719  0.435134  1
  Er  Er6  1  0.796399  0.316719  0.435134  1
  Er  Er7  1  0.361264  0.183281  0.564866  1
  Er  Er8  1  0.421484  0.750000  0.000000  1
  Er  Er9  1  0.578516  0.250000  0.000000  1
  Os  Os10  1  0.600168  0.923228  0.779723  1
  Os  Os11  1  0.820445  0.576772  0.220277  1
  Os  Os12  1  0.399832  0.076772  0.220277  1
  Os  Os13  1  0.179555  0.423228  0.779723  1
