# generated using pymatgen
data_Ho16Cd4Pd3Ru
_symmetry_space_group_name_H-M   'P 1'
_cell_length_a   9.64913029
_cell_length_b   9.64912955
_cell_length_c   9.64913054
_cell_angle_alpha   59.61281335
_cell_angle_beta   59.61281320
_cell_angle_gamma   59.61281126
_symmetry_Int_Tables_number   1
_chemical_formula_structural   Ho16Cd4Pd3Ru
_chemical_formula_sum   'Ho16 Cd4 Pd3 Ru1'
_cell_volume   629.66702053
_cell_formula_units_Z   1
loop_
 _symmetry_equiv_pos_site_id
 _symmetry_equiv_pos_as_xyz
  1  'x, y, z'
loop_
 _atom_site_type_symbol
 _atom_site_label
 _atom_site_symmetry_multiplicity
 _atom_site_fract_x
 _atom_site_fract_y
 _atom_site_fract_z
 _atom_site_occupancy
  Ho  Ho0  1  0.352939  0.352939  0.352939  1
  Ho  Ho1  1  0.350565  0.350565  0.944641  1
  Ho  Ho2  1  0.350565  0.944641  0.350565  1
  Ho  Ho3  1  0.944641  0.350565  0.350565  1
  Ho  Ho4  1  0.815828  0.188546  0.188546  1
  Ho  Ho5  1  0.188316  0.810624  0.810624  1
  Ho  Ho6  1  0.188546  0.815828  0.188546  1
  Ho  Ho7  1  0.810624  0.188316  0.810624  1
  Ho  Ho8  1  0.188546  0.188546  0.815828  1
  Ho  Ho9  1  0.810624  0.810624  0.188316  1
  Ho  Ho10  1  0.934450  0.566433  0.566433  1
  Ho  Ho11  1  0.560956  0.935931  0.935931  1
  Ho  Ho12  1  0.566433  0.934450  0.566433  1
  Ho  Ho13  1  0.935931  0.560956  0.935931  1
  Ho  Ho14  1  0.566433  0.566433  0.934450  1
  Ho  Ho15  1  0.935931  0.935931  0.560956  1
  Cd  Cd16  1  0.580539  0.580539  0.580539  1
  Cd  Cd17  1  0.581345  0.581345  0.253423  1
  Cd  Cd18  1  0.581345  0.253423  0.581345  1
  Cd  Cd19  1  0.253423  0.581345  0.581345  1
  Pd  Pd20  1  0.144623  0.144623  0.568657  1
  Pd  Pd21  1  0.144623  0.568657  0.144623  1
  Pd  Pd22  1  0.568657  0.144623  0.144623  1
  Ru  Ru23  1  0.144116  0.144116  0.144116  1
