# generated using pymatgen
data_Ca2Ta5MoS12
_symmetry_space_group_name_H-M   'P 1'
_cell_length_a   5.78175700
_cell_length_b   5.78201809
_cell_length_c   15.06034000
_cell_angle_alpha   90.00000000
_cell_angle_beta   90.00000000
_cell_angle_gamma   119.99668127
_symmetry_Int_Tables_number   1
_chemical_formula_structural   Ca2Ta5MoS12
_chemical_formula_sum   'Ca2 Ta5 Mo1 S12'
_cell_volume   436.03285244
_cell_formula_units_Z   1
loop_
 _symmetry_equiv_pos_site_id
 _symmetry_equiv_pos_as_xyz
  1  'x, y, z'
loop_
 _atom_site_type_symbol
 _atom_site_label
 _atom_site_symmetry_multiplicity
 _atom_site_fract_x
 _atom_site_fract_y
 _atom_site_fract_z
 _atom_site_occupancy
  Ca  Ca0  1  0.000027  0.000098  0.251232  1
  Ca  Ca1  1  0.000027  0.000098  0.748768  1
  Ta  Ta2  1  0.333189  0.666526  0.000000  1
  Ta  Ta3  1  0.999848  0.999841  0.000000  1
  Ta  Ta4  1  0.000103  0.000108  0.500000  1
  Ta  Ta5  1  0.666748  0.333452  0.500000  1
  Ta  Ta6  1  0.333448  0.666767  0.500000  1
  Mo  Mo7  1  0.666579  0.333210  0.000000  1
  S  S8  1  0.996846  0.662551  0.103932  1
  S  S9  1  0.665634  0.002906  0.103931  1
  S  S10  1  0.337215  0.334130  0.103917  1
  S  S11  1  0.665902  0.665891  0.394976  1
  S  S12  1  0.334337  0.000144  0.394981  1
  S  S13  1  0.000081  0.334332  0.394978  1
  S  S14  1  0.334337  0.000144  0.605019  1
  S  S15  1  0.000081  0.334332  0.605022  1
  S  S16  1  0.665902  0.665891  0.605024  1
  S  S17  1  0.337215  0.334130  0.896083  1
  S  S18  1  0.996846  0.662551  0.896067  1
  S  S19  1  0.665634  0.002906  0.896068  1
