# generated using pymatgen
data_Y3Tm5(TcC2)4
_symmetry_space_group_name_H-M   'P 1'
_cell_length_a   5.04943600
_cell_length_b   6.55047399
_cell_length_c   9.79746009
_cell_angle_alpha   89.87283876
_cell_angle_beta   90.00000000
_cell_angle_gamma   90.00000000
_symmetry_Int_Tables_number   1
_chemical_formula_structural   Y3Tm5(TcC2)4
_chemical_formula_sum   'Y3 Tm5 Tc4 C8'
_cell_volume   324.06194354
_cell_formula_units_Z   1
loop_
 _symmetry_equiv_pos_site_id
 _symmetry_equiv_pos_as_xyz
  1  'x, y, z'
loop_
 _atom_site_type_symbol
 _atom_site_label
 _atom_site_symmetry_multiplicity
 _atom_site_fract_x
 _atom_site_fract_y
 _atom_site_fract_z
 _atom_site_occupancy
  Y  Y0  1  0.750000  0.465492  0.785179  1
  Y  Y1  1  0.750000  0.965409  0.714412  1
  Y  Y2  1  0.250000  0.035024  0.285192  1
  Tm  Tm3  1  0.250000  0.673978  0.558905  1
  Tm  Tm4  1  0.750000  0.326976  0.440643  1
  Tm  Tm5  1  0.750000  0.825885  0.059329  1
  Tm  Tm6  1  0.250000  0.173152  0.941126  1
  Tm  Tm7  1  0.250000  0.535023  0.215788  1
  Tc  Tc8  1  0.250000  0.717084  0.867506  1
  Tc  Tc9  1  0.750000  0.283024  0.132993  1
  Tc  Tc10  1  0.750000  0.782056  0.366629  1
  Tc  Tc11  1  0.250000  0.218233  0.632508  1
  C  C12  1  0.250000  0.449564  0.759062  1
  C  C13  1  0.750000  0.550565  0.240281  1
  C  C14  1  0.750000  0.050761  0.259065  1
  C  C15  1  0.250000  0.949481  0.741050  1
  C  C16  1  0.250000  0.822611  0.050574  1
  C  C17  1  0.750000  0.174042  0.950896  1
  C  C18  1  0.750000  0.673853  0.548963  1
  C  C19  1  0.250000  0.327786  0.449898  1
