# generated using pymatgen
data_TbScFe3Co9P7
_symmetry_space_group_name_H-M   'P 1'
_cell_length_a   3.60316100
_cell_length_b   8.95500882
_cell_length_c   8.95742765
_cell_angle_alpha   119.97316045
_cell_angle_beta   90.00000000
_cell_angle_gamma   90.00000000
_symmetry_Int_Tables_number   1
_chemical_formula_structural   TbScFe3Co9P7
_chemical_formula_sum   'Tb1 Sc1 Fe3 Co9 P7'
_cell_volume   250.36926815
_cell_formula_units_Z   1
loop_
 _symmetry_equiv_pos_site_id
 _symmetry_equiv_pos_as_xyz
  1  'x, y, z'
loop_
 _atom_site_type_symbol
 _atom_site_label
 _atom_site_symmetry_multiplicity
 _atom_site_fract_x
 _atom_site_fract_y
 _atom_site_fract_z
 _atom_site_occupancy
  Tb  Tb0  1  0.000000  0.666560  0.333281  1
  Sc  Sc1  1  0.500000  0.333377  0.666682  1
  Fe  Fe2  1  0.500000  0.123595  0.905688  1
  Fe  Fe3  1  0.500000  0.094566  0.217972  1
  Fe  Fe4  1  0.500000  0.782010  0.876370  1
  Co  Co5  1  0.000000  0.368848  0.936175  1
  Co  Co6  1  0.000000  0.063870  0.432699  1
  Co  Co7  1  0.000000  0.567275  0.631150  1
  Co  Co8  1  0.000000  0.883859  0.724924  1
  Co  Co9  1  0.000000  0.275069  0.158934  1
  Co  Co10  1  0.000000  0.840972  0.116118  1
  Co  Co11  1  0.500000  0.954050  0.566609  1
  Co  Co12  1  0.500000  0.433382  0.387425  1
  Co  Co13  1  0.500000  0.612519  0.045928  1
  P  P14  1  0.000000  0.116861  0.701945  1
  P  P15  1  0.000000  0.298076  0.414881  1
  P  P16  1  0.000000  0.585083  0.883186  1
  P  P17  1  0.500000  0.711246  0.599633  1
  P  P18  1  0.500000  0.400381  0.111628  1
  P  P19  1  0.500000  0.888371  0.288768  1
  P  P20  1  0.000000  0.000029  0.000002  1
