# generated using pymatgen
data_Tb2NdTm(Mo2O7)2
_symmetry_space_group_name_H-M   'P 1'
_cell_length_a   7.44343975
_cell_length_b   7.44857416
_cell_length_c   7.44608558
_cell_angle_alpha   59.23816442
_cell_angle_beta   58.96873417
_cell_angle_gamma   59.24953058
_symmetry_Int_Tables_number   1
_chemical_formula_structural   Tb2NdTm(Mo2O7)2
_chemical_formula_sum   'Tb2 Nd1 Tm1 Mo4 O14'
_cell_volume   286.27215503
_cell_formula_units_Z   1
loop_
 _symmetry_equiv_pos_site_id
 _symmetry_equiv_pos_as_xyz
  1  'x, y, z'
loop_
 _atom_site_type_symbol
 _atom_site_label
 _atom_site_symmetry_multiplicity
 _atom_site_fract_x
 _atom_site_fract_y
 _atom_site_fract_z
 _atom_site_occupancy
  Tb  Tb0  1  0.625000  0.125000  0.125000  1
  Tb  Tb1  1  0.125000  0.125000  0.625000  1
  Nd  Nd2  1  0.125000  0.125000  0.125000  1
  Tm  Tm3  1  0.125000  0.625000  0.125000  1
  Mo  Mo4  1  0.625000  0.625000  0.625000  1
  Mo  Mo5  1  0.125000  0.625000  0.625000  1
  Mo  Mo6  1  0.625000  0.625000  0.125000  1
  Mo  Mo7  1  0.625000  0.125000  0.625000  1
  O  O8  1  0.001457  0.990780  0.001397  1
  O  O9  1  0.248543  0.259220  0.248603  1
  O  O10  1  0.287725  0.290017  0.707473  1
  O  O11  1  0.538527  0.535935  0.961847  1
  O  O12  1  0.717347  0.279215  0.717843  1
  O  O13  1  0.707255  0.290142  0.287181  1
  O  O14  1  0.287743  0.714764  0.711259  1
  O  O15  1  0.286210  0.700527  0.286445  1
  O  O16  1  0.711473  0.714065  0.288153  1
  O  O17  1  0.962257  0.535236  0.538741  1
  O  O18  1  0.542745  0.959858  0.962819  1
  O  O19  1  0.962275  0.959983  0.542527  1
  O  O20  1  0.963790  0.549473  0.963555  1
  O  O21  1  0.532653  0.970785  0.532157  1
