# generated using pymatgen
data_K2Rb4ScInAs4
_symmetry_space_group_name_H-M   'P 1'
_cell_length_a   9.56190490
_cell_length_b   9.56190524
_cell_length_c   9.56190412
_cell_angle_alpha   131.26063547
_cell_angle_beta   66.29746308
_cell_angle_gamma   137.94506552
_symmetry_Int_Tables_number   1
_chemical_formula_structural   K2Rb4ScInAs4
_chemical_formula_sum   'K2 Rb4 Sc1 In1 As4'
_cell_volume   433.48539872
_cell_formula_units_Z   1
loop_
 _symmetry_equiv_pos_site_id
 _symmetry_equiv_pos_as_xyz
  1  'x, y, z'
loop_
 _atom_site_type_symbol
 _atom_site_label
 _atom_site_symmetry_multiplicity
 _atom_site_fract_x
 _atom_site_fract_y
 _atom_site_fract_z
 _atom_site_occupancy
  K  K0  1  0.750000  0.250000  0.500000  1
  K  K1  1  0.250000  0.750000  0.500001  1
  Rb  Rb2  1  0.810443  0.211553  0.035609  1
  Rb  Rb3  1  0.689558  0.725166  0.401111  1
  Rb  Rb4  1  0.324055  0.288447  0.598890  1
  Rb  Rb5  1  0.175946  0.774834  0.964391  1
  Sc  Sc6  1  0.250000  0.250000  0.000000  1
  In  In7  1  0.750000  0.750000  0.000000  1
  As  As8  1  0.399303  0.685501  0.095726  1
  As  As9  1  0.100698  0.196425  0.286199  1
  As  As10  1  0.910227  0.814501  0.713801  1
  As  As11  1  0.589773  0.303576  0.904275  1
