# generated using pymatgen
data_NaU2GeBr12
_symmetry_space_group_name_H-M   'P 1'
_cell_length_a   7.18281915
_cell_length_b   7.18281926
_cell_length_c   13.94788600
_cell_angle_alpha   84.25000592
_cell_angle_beta   84.25000583
_cell_angle_gamma   119.52702509
_symmetry_Int_Tables_number   1
_chemical_formula_structural   NaU2GeBr12
_chemical_formula_sum   'Na1 U2 Ge1 Br12'
_cell_volume   613.63334033
_cell_formula_units_Z   1
loop_
 _symmetry_equiv_pos_site_id
 _symmetry_equiv_pos_as_xyz
  1  'x, y, z'
loop_
 _atom_site_type_symbol
 _atom_site_label
 _atom_site_symmetry_multiplicity
 _atom_site_fract_x
 _atom_site_fract_y
 _atom_site_fract_z
 _atom_site_occupancy
  Na  Na0  1  0.915616  0.084384  0.750000  1
  U  U1  1  0.419505  0.580495  0.250000  1
  U  U2  1  0.580936  0.419064  0.750000  1
  Ge  Ge3  1  0.083918  0.916082  0.250000  1
  Br  Br4  1  0.319357  0.463719  0.634442  1
  Br  Br5  1  0.443178  0.292891  0.136283  1
  Br  Br6  1  0.234279  0.072139  0.866888  1
  Br  Br7  1  0.064288  0.206776  0.365347  1
  Br  Br8  1  0.155239  0.647041  0.133881  1
  Br  Br9  1  0.629010  0.162762  0.632677  1
  Br  Br10  1  0.352959  0.844761  0.366119  1
  Br  Br11  1  0.837238  0.370990  0.867323  1
  Br  Br12  1  0.793224  0.935712  0.134653  1
  Br  Br13  1  0.927861  0.765721  0.633112  1
  Br  Br14  1  0.536281  0.680643  0.865558  1
  Br  Br15  1  0.707109  0.556822  0.363717  1
