# generated using pymatgen
data_Yb2Eu6DyPt6
_symmetry_space_group_name_H-M   'P 1'
_cell_length_a   7.77545781
_cell_length_b   7.77545737
_cell_length_c   7.77545726
_cell_angle_alpha   69.60492512
_cell_angle_beta   69.60493770
_cell_angle_gamma   69.60493203
_symmetry_Int_Tables_number   1
_chemical_formula_structural   Yb2Eu6DyPt6
_chemical_formula_sum   'Yb2 Eu6 Dy1 Pt6'
_cell_volume   398.96678120
_cell_formula_units_Z   1
loop_
 _symmetry_equiv_pos_site_id
 _symmetry_equiv_pos_as_xyz
  1  'x, y, z'
loop_
 _atom_site_type_symbol
 _atom_site_label
 _atom_site_symmetry_multiplicity
 _atom_site_fract_x
 _atom_site_fract_y
 _atom_site_fract_z
 _atom_site_occupancy
  Yb  Yb0  1  0.001587  0.001587  0.001587  1
  Yb  Yb1  1  0.193814  0.193814  0.193814  1
  Eu  Eu2  1  0.333111  0.601347  0.849772  1
  Eu  Eu3  1  0.849772  0.333111  0.601347  1
  Eu  Eu4  1  0.601347  0.849772  0.333111  1
  Eu  Eu5  1  0.667165  0.395654  0.152564  1
  Eu  Eu6  1  0.152564  0.667165  0.395654  1
  Eu  Eu7  1  0.395654  0.152564  0.667165  1
  Dy  Dy8  1  0.808783  0.808783  0.808783  1
  Pt  Pt9  1  0.153662  0.955157  0.594030  1
  Pt  Pt10  1  0.594030  0.153662  0.955157  1
  Pt  Pt11  1  0.955157  0.594030  0.153662  1
  Pt  Pt12  1  0.836192  0.037460  0.419701  1
  Pt  Pt13  1  0.419701  0.836192  0.037460  1
  Pt  Pt14  1  0.037460  0.419701  0.836192  1
