# generated using pymatgen
data_Na2(ZrSe2)3
_symmetry_space_group_name_H-M   'P 1'
_cell_length_a   6.65766759
_cell_length_b   6.65766742
_cell_length_c   7.78231100
_cell_angle_alpha   81.78389681
_cell_angle_beta   81.78389702
_cell_angle_gamma   120.00504899
_symmetry_Int_Tables_number   1
_chemical_formula_structural   Na2(ZrSe2)3
_chemical_formula_sum   'Na2 Zr3 Se6'
_cell_volume   286.25500216
_cell_formula_units_Z   1
loop_
 _symmetry_equiv_pos_site_id
 _symmetry_equiv_pos_as_xyz
  1  'x, y, z'
loop_
 _atom_site_type_symbol
 _atom_site_label
 _atom_site_symmetry_multiplicity
 _atom_site_fract_x
 _atom_site_fract_y
 _atom_site_fract_z
 _atom_site_occupancy
  Na  Na0  1  0.166583  0.833417  0.500000  1
  Na  Na1  1  0.833417  0.166583  0.500000  1
  Zr  Zr2  1  0.000000  0.000000  0.000000  1
  Zr  Zr3  1  0.333231  0.666769  0.000000  1
  Zr  Zr4  1  0.666769  0.333231  0.000000  1
  Se  Se5  1  0.927176  0.593665  0.218160  1
  Se  Se6  1  0.260644  0.260644  0.217720  1
  Se  Se7  1  0.593665  0.927176  0.218160  1
  Se  Se8  1  0.739356  0.739356  0.782280  1
  Se  Se9  1  0.072824  0.406335  0.781840  1
  Se  Se10  1  0.406335  0.072824  0.781840  1
