# generated using pymatgen
data_Zr4TaSiRh10
_symmetry_space_group_name_H-M   'P 1'
_cell_length_a   5.62332987
_cell_length_b   5.62333074
_cell_length_c   8.27838400
_cell_angle_alpha   90.00000000
_cell_angle_beta   90.00000000
_cell_angle_gamma   99.90383017
_symmetry_Int_Tables_number   1
_chemical_formula_structural   Zr4TaSiRh10
_chemical_formula_sum   'Zr4 Ta1 Si1 Rh10'
_cell_volume   257.87670867
_cell_formula_units_Z   1
loop_
 _symmetry_equiv_pos_site_id
 _symmetry_equiv_pos_as_xyz
  1  'x, y, z'
loop_
 _atom_site_type_symbol
 _atom_site_label
 _atom_site_symmetry_multiplicity
 _atom_site_fract_x
 _atom_site_fract_y
 _atom_site_fract_z
 _atom_site_occupancy
  Zr  Zr0  1  0.784334  0.209124  0.497887  1
  Zr  Zr1  1  0.209124  0.784334  0.002113  1
  Zr  Zr2  1  0.209124  0.784334  0.497887  1
  Zr  Zr3  1  0.784334  0.209124  0.002113  1
  Ta  Ta4  1  0.570380  0.570380  0.750000  1
  Si  Si5  1  0.461717  0.461717  0.250000  1
  Rh  Rh6  1  0.700012  0.700012  0.036671  1
  Rh  Rh7  1  0.700012  0.700012  0.463329  1
  Rh  Rh8  1  0.296119  0.296119  0.991957  1
  Rh  Rh9  1  0.296119  0.296119  0.508043  1
  Rh  Rh10  1  0.482410  0.010587  0.750000  1
  Rh  Rh11  1  0.494911  0.014857  0.250000  1
  Rh  Rh12  1  0.003301  0.003301  0.250000  1
  Rh  Rh13  1  0.982660  0.982660  0.750000  1
  Rh  Rh14  1  0.010587  0.482410  0.750000  1
  Rh  Rh15  1  0.014857  0.494911  0.250000  1
