# generated using pymatgen
data_Ta5In2TcSe12
_symmetry_space_group_name_H-M   'P 1'
_cell_length_a   6.01439600
_cell_length_b   6.01439624
_cell_length_c   16.34836100
_cell_angle_alpha   90.00000000
_cell_angle_beta   90.00000000
_cell_angle_gamma   119.99999869
_symmetry_Int_Tables_number   1
_chemical_formula_structural   Ta5In2TcSe12
_chemical_formula_sum   'Ta5 In2 Tc1 Se12'
_cell_volume   512.14025438
_cell_formula_units_Z   1
loop_
 _symmetry_equiv_pos_site_id
 _symmetry_equiv_pos_as_xyz
  1  'x, y, z'
loop_
 _atom_site_type_symbol
 _atom_site_label
 _atom_site_symmetry_multiplicity
 _atom_site_fract_x
 _atom_site_fract_y
 _atom_site_fract_z
 _atom_site_occupancy
  Ta  Ta0  1  0.666667  0.333333  0.000081  1
  Ta  Ta1  1  0.666667  0.333333  0.500643  1
  Ta  Ta2  1  0.333333  0.666667  0.000095  1
  Ta  Ta3  1  0.000000  0.000000  0.500119  1
  Ta  Ta4  1  0.000000  0.000000  0.000173  1
  In  In5  1  0.666667  0.333333  0.752864  1
  In  In6  1  0.333333  0.666667  0.245702  1
  Tc  Tc7  1  0.333333  0.666667  0.499491  1
  Se  Se8  1  0.333672  0.331331  0.102302  1
  Se  Se9  1  0.668669  0.002340  0.102302  1
  Se  Se10  1  0.997660  0.666328  0.102302  1
  Se  Se11  1  0.008897  0.341039  0.600329  1
  Se  Se12  1  0.666356  0.997758  0.897804  1
  Se  Se13  1  0.658961  0.667858  0.600329  1
  Se  Se14  1  0.332142  0.991103  0.600329  1
  Se  Se15  1  0.661519  0.666549  0.399842  1
  Se  Se16  1  0.333451  0.994970  0.399842  1
  Se  Se17  1  0.331403  0.333644  0.897804  1
  Se  Se18  1  0.002242  0.668597  0.897804  1
  Se  Se19  1  0.005030  0.338481  0.399842  1
