# generated using pymatgen
data_YbMnCo7O16
_symmetry_space_group_name_H-M   'P 1'
_cell_length_a   5.71585433
_cell_length_b   6.91760713
_cell_length_c   6.84146700
_cell_angle_alpha   88.44641610
_cell_angle_beta   102.11761138
_cell_angle_gamma   101.84198904
_symmetry_Int_Tables_number   1
_chemical_formula_structural   YbMnCo7O16
_chemical_formula_sum   'Yb1 Mn1 Co7 O16'
_cell_volume   258.81951285
_cell_formula_units_Z   1
loop_
 _symmetry_equiv_pos_site_id
 _symmetry_equiv_pos_as_xyz
  1  'x, y, z'
loop_
 _atom_site_type_symbol
 _atom_site_label
 _atom_site_symmetry_multiplicity
 _atom_site_fract_x
 _atom_site_fract_y
 _atom_site_fract_z
 _atom_site_occupancy
  Yb  Yb0  1  0.968289  0.938101  0.939663  1
  Mn  Mn1  1  0.577106  0.825154  0.483504  1
  Co  Co2  1  0.078507  0.820795  0.486535  1
  Co  Co3  1  0.927981  0.189403  0.515209  1
  Co  Co4  1  0.425889  0.187643  0.519119  1
  Co  Co5  1  0.165816  0.478820  0.184689  1
  Co  Co6  1  0.664840  0.475408  0.185027  1
  Co  Co7  1  0.334091  0.520325  0.819664  1
  Co  Co8  1  0.831262  0.510704  0.820710  1
  O  O9  1  0.685085  0.057027  0.656173  1
  O  O10  1  0.172011  0.053084  0.651922  1
  O  O11  1  0.832768  0.955536  0.349450  1
  O  O12  1  0.321425  0.955510  0.349122  1
  O  O13  1  0.657565  0.646994  0.963078  1
  O  O14  1  0.145388  0.647043  0.961684  1
  O  O15  1  0.851251  0.346506  0.046340  1
  O  O16  1  0.345008  0.350208  0.042540  1
  O  O17  1  0.978722  0.619498  0.299877  1
  O  O18  1  0.478988  0.612244  0.299209  1
  O  O19  1  0.521003  0.390299  0.699596  1
  O  O20  1  0.022253  0.385667  0.698517  1
  O  O21  1  0.665402  0.290668  0.375168  1
  O  O22  1  0.168144  0.292084  0.374343  1
  O  O23  1  0.844387  0.728205  0.645829  1
  O  O24  1  0.336814  0.723075  0.633033  1
