# generated using pymatgen
data_TbEr5Al24AgOs6Pd
_symmetry_space_group_name_H-M   'P 1'
_cell_length_a   8.79799300
_cell_length_b   8.84218032
_cell_length_c   9.55868300
_cell_angle_alpha   89.83274900
_cell_angle_beta   90.00000000
_cell_angle_gamma   119.83482303
_symmetry_Int_Tables_number   1
_chemical_formula_structural   TbEr5Al24AgOs6Pd
_chemical_formula_sum   'Tb1 Er5 Al24 Ag1 Os6 Pd1'
_cell_volume   645.04447805
_cell_formula_units_Z   1
loop_
 _symmetry_equiv_pos_site_id
 _symmetry_equiv_pos_as_xyz
  1  'x, y, z'
loop_
 _atom_site_type_symbol
 _atom_site_label
 _atom_site_symmetry_multiplicity
 _atom_site_fract_x
 _atom_site_fract_y
 _atom_site_fract_z
 _atom_site_occupancy
  Tb  Tb0  1  0.191321  0.382990  0.251270  1
  Er  Er1  1  0.807117  0.614250  0.747370  1
  Er  Er2  1  0.611396  0.809957  0.255820  1
  Er  Er3  1  0.388390  0.190299  0.744323  1
  Er  Er4  1  0.198378  0.809858  0.253194  1
  Er  Er5  1  0.802053  0.190313  0.747058  1
  Al  Al6  1  0.341761  0.674095  0.029829  1
  Al  Al7  1  0.658616  0.326644  0.969247  1
  Al  Al8  1  0.667083  0.334017  0.524748  1
  Al  Al9  1  0.333024  0.666030  0.475974  1
  Al  Al10  1  0.163716  0.327064  0.573891  1
  Al  Al11  1  0.836280  0.672980  0.426993  1
  Al  Al12  1  0.671937  0.835195  0.576653  1
  Al  Al13  1  0.833548  0.678641  0.082391  1
  Al  Al14  1  0.328305  0.164683  0.424134  1
  Al  Al15  1  0.166548  0.321463  0.916782  1
  Al  Al16  1  0.163214  0.835437  0.575168  1
  Al  Al17  1  0.326012  0.157973  0.079168  1
  Al  Al18  1  0.836353  0.164375  0.425626  1
  Al  Al19  1  0.674381  0.842053  0.920297  1
  Al  Al20  1  0.827780  0.152226  0.080177  1
  Al  Al21  1  0.171861  0.847653  0.919481  1
  Al  Al22  1  0.561373  0.123968  0.249340  1
  Al  Al23  1  0.438841  0.876523  0.750806  1
  Al  Al24  1  0.871641  0.436482  0.255588  1
  Al  Al25  1  0.127935  0.563987  0.744715  1
  Al  Al26  1  0.561630  0.438025  0.251774  1
  Al  Al27  1  0.439100  0.562372  0.748152  1
  Al  Al28  1  0.000814  0.000324  0.250558  1
  Al  Al29  1  0.997978  0.997249  0.749217  1
  Ag  Ag30  1  0.999909  0.500243  0.999782  1
  Os  Os31  1  0.500181  0.000311  0.999933  1
  Os  Os32  1  0.500113  0.000264  0.500213  1
  Os  Os33  1  0.999560  0.500253  0.500558  1
  Os  Os34  1  0.500526  0.500120  0.500636  1
  Os  Os35  1  0.000376  0.000517  0.999880  1
  Os  Os36  1  0.000121  0.000294  0.499886  1
  Pd  Pd37  1  0.500829  0.500872  0.999364  1
