# generated using pymatgen
data_Li2Tb2ErAgSn3
_symmetry_space_group_name_H-M   'P 1'
_cell_length_a   7.32377200
_cell_length_b   7.31593448
_cell_length_c   4.59024100
_cell_angle_alpha   90.00000000
_cell_angle_beta   90.00000000
_cell_angle_gamma   120.03544446
_symmetry_Int_Tables_number   1
_chemical_formula_structural   Li2Tb2ErAgSn3
_chemical_formula_sum   'Li2 Tb2 Er1 Ag1 Sn3'
_cell_volume   212.91953951
_cell_formula_units_Z   1
loop_
 _symmetry_equiv_pos_site_id
 _symmetry_equiv_pos_as_xyz
  1  'x, y, z'
loop_
 _atom_site_type_symbol
 _atom_site_label
 _atom_site_symmetry_multiplicity
 _atom_site_fract_x
 _atom_site_fract_y
 _atom_site_fract_z
 _atom_site_occupancy
  Li  Li0  1  0.004272  0.232754  0.500000  1
  Li  Li1  1  0.771518  0.767246  0.500000  1
  Tb  Tb2  1  0.001835  0.567975  0.000000  1
  Tb  Tb3  1  0.433860  0.432025  0.000000  1
  Er  Er4  1  0.554559  0.000000  0.000000  1
  Ag  Ag5  1  0.236713  0.000000  0.500000  1
  Sn  Sn6  1  0.990412  0.000000  0.000000  1
  Sn  Sn7  1  0.671995  0.337158  0.500000  1
  Sn  Sn8  1  0.334836  0.662842  0.500000  1
