# generated using pymatgen
data_Tb7Dy2Er2In9Ni4
_symmetry_space_group_name_H-M   'P 1'
_cell_length_a   3.66434700
_cell_length_b   12.94390612
_cell_length_c   13.08533951
_cell_angle_alpha   112.09448758
_cell_angle_beta   90.00000000
_cell_angle_gamma   90.00000000
_symmetry_Int_Tables_number   1
_chemical_formula_structural   Tb7Dy2Er2In9Ni4
_chemical_formula_sum   'Tb7 Dy2 Er2 In9 Ni4'
_cell_volume   575.07269985
_cell_formula_units_Z   1
loop_
 _symmetry_equiv_pos_site_id
 _symmetry_equiv_pos_as_xyz
  1  'x, y, z'
loop_
 _atom_site_type_symbol
 _atom_site_label
 _atom_site_symmetry_multiplicity
 _atom_site_fract_x
 _atom_site_fract_y
 _atom_site_fract_z
 _atom_site_occupancy
  Tb  Tb0  1  0.000000  0.158349  0.839477  1
  Tb  Tb1  1  0.000000  0.841651  0.160523  1
  Tb  Tb2  1  0.000000  0.374680  0.627748  1
  Tb  Tb3  1  0.000000  0.625320  0.372252  1
  Tb  Tb4  1  0.000000  0.687376  0.689000  1
  Tb  Tb5  1  0.000000  0.312624  0.311000  1
  Tb  Tb6  1  0.000000  0.000000  0.000000  1
  Dy  Dy7  1  0.000000  0.917948  0.581805  1
  Dy  Dy8  1  0.000000  0.082052  0.418195  1
  Er  Er9  1  0.000000  0.580910  0.919988  1
  Er  Er10  1  0.000000  0.419090  0.080012  1
  In  In11  1  0.500000  0.157133  0.631889  1
  In  In12  1  0.500000  0.842867  0.368111  1
  In  In13  1  0.500000  0.631846  0.157234  1
  In  In14  1  0.500000  0.368154  0.842766  1
  In  In15  1  0.500000  0.921290  0.780097  1
  In  In16  1  0.500000  0.078710  0.219903  1
  In  In17  1  0.500000  0.779502  0.923833  1
  In  In18  1  0.500000  0.220498  0.076167  1
  In  In19  1  0.500000  0.500000  0.500000  1
  Ni  Ni20  1  0.500000  0.750216  0.549311  1
  Ni  Ni21  1  0.500000  0.249784  0.450689  1
  Ni  Ni22  1  0.500000  0.549285  0.755688  1
  Ni  Ni23  1  0.500000  0.450715  0.244312  1
