# generated using pymatgen
data_GdPa(Al5Os)4
_symmetry_space_group_name_H-M   'P 1'
_cell_length_a   6.84214500
_cell_length_b   6.84214562
_cell_length_c   9.15368000
_cell_angle_alpha   90.00000000
_cell_angle_beta   90.00000000
_cell_angle_gamma   97.03018971
_symmetry_Int_Tables_number   1
_chemical_formula_structural   GdPa(Al5Os)4
_chemical_formula_sum   'Gd1 Pa1 Al20 Os4'
_cell_volume   425.30732640
_cell_formula_units_Z   1
loop_
 _symmetry_equiv_pos_site_id
 _symmetry_equiv_pos_as_xyz
  1  'x, y, z'
loop_
 _atom_site_type_symbol
 _atom_site_label
 _atom_site_symmetry_multiplicity
 _atom_site_fract_x
 _atom_site_fract_y
 _atom_site_fract_z
 _atom_site_occupancy
  Gd  Gd0  1  0.130128  0.869872  0.250000  1
  Pa  Pa1  1  0.872194  0.127806  0.750000  1
  Al  Al2  1  0.517450  0.781426  0.750000  1
  Al  Al3  1  0.781738  0.517512  0.250000  1
  Al  Al4  1  0.482488  0.218262  0.250000  1
  Al  Al5  1  0.218574  0.482550  0.750000  1
  Al  Al6  1  0.622450  0.377550  0.951220  1
  Al  Al7  1  0.375385  0.624615  0.045805  1
  Al  Al8  1  0.622450  0.377550  0.548780  1
  Al  Al9  1  0.375385  0.624615  0.454195  1
  Al  Al10  1  0.408934  0.145762  0.750000  1
  Al  Al11  1  0.148176  0.416790  0.250000  1
  Al  Al12  1  0.583210  0.851824  0.250000  1
  Al  Al13  1  0.854238  0.591066  0.750000  1
  Al  Al14  1  0.843110  0.156890  0.396827  1
  Al  Al15  1  0.154223  0.845777  0.601807  1
  Al  Al16  1  0.843110  0.156890  0.103173  1
  Al  Al17  1  0.154223  0.845777  0.898193  1
  Al  Al18  1  0.779407  0.776513  0.001039  1
  Al  Al19  1  0.779407  0.776513  0.498961  1
  Al  Al20  1  0.223487  0.220593  0.001039  1
  Al  Al21  1  0.223487  0.220593  0.498961  1
  Os  Os22  1  0.504059  0.000687  0.997512  1
  Os  Os23  1  0.999313  0.495941  0.997512  1
  Os  Os24  1  0.504059  0.000687  0.502488  1
  Os  Os25  1  0.999313  0.495941  0.502488  1
