# generated using pymatgen
data_TbPu3H11
_symmetry_space_group_name_H-M   'P 1'
_cell_length_a   6.46368970
_cell_length_b   6.46368880
_cell_length_c   6.46369008
_cell_angle_alpha   130.89481982
_cell_angle_beta   133.18670414
_cell_angle_gamma   70.18096866
_symmetry_Int_Tables_number   1
_chemical_formula_structural   TbPu3H11
_chemical_formula_sum   'Tb1 Pu3 H11'
_cell_volume   145.89963674
_cell_formula_units_Z   1
loop_
 _symmetry_equiv_pos_site_id
 _symmetry_equiv_pos_as_xyz
  1  'x, y, z'
loop_
 _atom_site_type_symbol
 _atom_site_label
 _atom_site_symmetry_multiplicity
 _atom_site_fract_x
 _atom_site_fract_y
 _atom_site_fract_z
 _atom_site_occupancy
  Tb  Tb0  1  0.500000  0.000000  0.500000  1
  Pu  Pu1  1  0.263908  0.263908  0.000000  1
  Pu  Pu2  1  0.000000  0.500000  0.500000  1
  Pu  Pu3  1  0.736092  0.736092  0.000000  1
  H  H4  1  0.646995  0.109290  0.995857  1
  H  H5  1  0.353005  0.348862  0.462294  1
  H  H6  1  0.113433  0.651138  0.004143  1
  H  H7  1  0.886567  0.890710  0.537706  1
  H  H8  1  0.886567  0.348862  0.995857  1
  H  H9  1  0.646995  0.651138  0.537706  1
  H  H10  1  0.353005  0.890710  0.004143  1
  H  H11  1  0.113433  0.109290  0.462294  1
  H  H12  1  0.758220  0.258220  0.500000  1
  H  H13  1  0.500000  0.500000  0.000000  1
  H  H14  1  0.241780  0.741780  0.500000  1
