# generated using pymatgen
data_Pr16Mg2Cd2RuPt3
_symmetry_space_group_name_H-M   'P 1'
_cell_length_a   10.12624026
_cell_length_b   10.12618066
_cell_length_c   10.13503348
_cell_angle_alpha   59.72493129
_cell_angle_beta   59.72358189
_cell_angle_gamma   59.50890011
_symmetry_Int_Tables_number   1
_chemical_formula_structural   Pr16Mg2Cd2RuPt3
_chemical_formula_sum   'Pr16 Mg2 Cd2 Ru1 Pt3'
_cell_volume   729.04945737
_cell_formula_units_Z   1
loop_
 _symmetry_equiv_pos_site_id
 _symmetry_equiv_pos_as_xyz
  1  'x, y, z'
loop_
 _atom_site_type_symbol
 _atom_site_label
 _atom_site_symmetry_multiplicity
 _atom_site_fract_x
 _atom_site_fract_y
 _atom_site_fract_z
 _atom_site_occupancy
  Pr  Pr0  1  0.350375  0.350377  0.350471  1
  Pr  Pr1  1  0.346965  0.346958  0.953360  1
  Pr  Pr2  1  0.345739  0.955916  0.346321  1
  Pr  Pr3  1  0.955914  0.345735  0.346317  1
  Pr  Pr4  1  0.816766  0.188762  0.188505  1
  Pr  Pr5  1  0.188535  0.808647  0.809143  1
  Pr  Pr6  1  0.188769  0.816762  0.188509  1
  Pr  Pr7  1  0.808649  0.188531  0.809144  1
  Pr  Pr8  1  0.189965  0.189964  0.815200  1
  Pr  Pr9  1  0.810377  0.810379  0.187537  1
  Pr  Pr10  1  0.938459  0.564017  0.563421  1
  Pr  Pr11  1  0.559016  0.938228  0.936064  1
  Pr  Pr12  1  0.564019  0.938457  0.563422  1
  Pr  Pr13  1  0.938226  0.559013  0.936064  1
  Pr  Pr14  1  0.564478  0.564471  0.936860  1
  Pr  Pr15  1  0.937555  0.937551  0.558370  1
  Mg  Mg16  1  0.576033  0.576029  0.578861  1
  Mg  Mg17  1  0.576380  0.576374  0.267299  1
  Cd  Cd18  1  0.581307  0.257921  0.580261  1
  Cd  Cd19  1  0.257927  0.581308  0.580257  1
  Ru  Ru20  1  0.142488  0.142545  0.142462  1
  Pt  Pt21  1  0.144774  0.144769  0.572985  1
  Pt  Pt22  1  0.144925  0.572359  0.144582  1
  Pt  Pt23  1  0.572355  0.144928  0.144582  1
