# generated using pymatgen
data_Zr6Tl4CoI18
_symmetry_space_group_name_H-M   'P 1'
_cell_length_a   11.14652614
_cell_length_b   11.38356806
_cell_length_c   11.50190200
_cell_angle_alpha   118.53779387
_cell_angle_beta   100.17422303
_cell_angle_gamma   103.96551696
_symmetry_Int_Tables_number   1
_chemical_formula_structural   Zr6Tl4CoI18
_chemical_formula_sum   'Zr6 Tl4 Co1 I18'
_cell_volume   1169.00270070
_cell_formula_units_Z   1
loop_
 _symmetry_equiv_pos_site_id
 _symmetry_equiv_pos_as_xyz
  1  'x, y, z'
loop_
 _atom_site_type_symbol
 _atom_site_label
 _atom_site_symmetry_multiplicity
 _atom_site_fract_x
 _atom_site_fract_y
 _atom_site_fract_z
 _atom_site_occupancy
  Zr  Zr0  1  0.148438  0.056150  0.228513  1
  Zr  Zr1  1  0.851562  0.943850  0.771487  1
  Zr  Zr2  1  0.863430  0.124603  0.132735  1
  Zr  Zr3  1  0.136570  0.875397  0.867265  1
  Zr  Zr4  1  0.145283  0.236643  0.044342  1
  Zr  Zr5  1  0.854717  0.763357  0.955658  1
  Tl  Tl6  1  0.648810  0.537796  0.225238  1
  Tl  Tl7  1  0.351190  0.462204  0.774762  1
  Tl  Tl8  1  0.683133  0.224657  0.563620  1
  Tl  Tl9  1  0.316867  0.775343  0.436380  1
  Co  Co10  1  0.000000  0.000000  0.000000  1
  I  I11  1  0.008638  0.414304  0.198734  1
  I  I12  1  0.991362  0.585696  0.801266  1
  I  I13  1  0.334708  0.338043  0.315279  1
  I  I14  1  0.665292  0.661957  0.684721  1
  I  I15  1  0.328857  0.528711  0.101693  1
  I  I16  1  0.671143  0.471289  0.898307  1
  I  I17  1  0.004086  0.792998  0.211929  1
  I  I18  1  0.995914  0.207002  0.788071  1
  I  I19  1  0.697834  0.277467  0.291289  1
  I  I20  1  0.302166  0.722533  0.708711  1
  I  I21  1  0.323198  0.130530  0.902476  1
  I  I22  1  0.676802  0.869470  0.097524  1
  I  I23  1  0.016161  0.208099  0.415308  1
  I  I24  1  0.983839  0.791901  0.584692  1
  I  I25  1  0.324587  0.922527  0.111144  1
  I  I26  1  0.675413  0.077473  0.888856  1
  I  I27  1  0.340453  0.123504  0.508493  1
  I  I28  1  0.659547  0.876496  0.491507  1
