# generated using pymatgen
data_Ho3Er2Bi2Rh
_symmetry_space_group_name_H-M   'P 1'
_cell_length_a   7.95573300
_cell_length_b   8.95896000
_cell_length_c   12.43006000
_cell_angle_alpha   90.00000000
_cell_angle_beta   90.00000000
_cell_angle_gamma   90.00000000
_symmetry_Int_Tables_number   1
_chemical_formula_structural   Ho3Er2Bi2Rh
_chemical_formula_sum   'Ho12 Er8 Bi8 Rh4'
_cell_volume   885.95369142
_cell_formula_units_Z   4
loop_
 _symmetry_equiv_pos_site_id
 _symmetry_equiv_pos_as_xyz
  1  'x, y, z'
loop_
 _atom_site_type_symbol
 _atom_site_label
 _atom_site_symmetry_multiplicity
 _atom_site_fract_x
 _atom_site_fract_y
 _atom_site_fract_z
 _atom_site_occupancy
  Ho  Ho0  1  0.839935  0.750000  0.794167  1
  Ho  Ho1  1  0.160065  0.250000  0.205833  1
  Ho  Ho2  1  0.339935  0.250000  0.705833  1
  Ho  Ho3  1  0.660065  0.750000  0.294167  1
  Ho  Ho4  1  0.374822  0.750000  0.690188  1
  Ho  Ho5  1  0.625178  0.250000  0.309812  1
  Ho  Ho6  1  0.874822  0.250000  0.809812  1
  Ho  Ho7  1  0.125178  0.750000  0.190188  1
  Ho  Ho8  1  0.952902  0.750000  0.501686  1
  Ho  Ho9  1  0.047098  0.250000  0.498314  1
  Ho  Ho10  1  0.452902  0.250000  0.998314  1
  Ho  Ho11  1  0.547098  0.750000  0.001686  1
  Er  Er12  1  0.676943  0.042146  0.566299  1
  Er  Er13  1  0.323057  0.957854  0.433701  1
  Er  Er14  1  0.176943  0.957854  0.933701  1
  Er  Er15  1  0.323057  0.542146  0.433701  1
  Er  Er16  1  0.823057  0.042146  0.066299  1
  Er  Er17  1  0.676943  0.457854  0.566299  1
  Er  Er18  1  0.823057  0.457854  0.066299  1
  Er  Er19  1  0.176943  0.542146  0.933701  1
  Bi  Bi20  1  0.566736  0.492106  0.825930  1
  Bi  Bi21  1  0.433264  0.507894  0.174070  1
  Bi  Bi22  1  0.066736  0.507894  0.674070  1
  Bi  Bi23  1  0.433264  0.992106  0.174070  1
  Bi  Bi24  1  0.933264  0.492106  0.325930  1
  Bi  Bi25  1  0.566736  0.007894  0.825930  1
  Bi  Bi26  1  0.933264  0.007894  0.325930  1
  Bi  Bi27  1  0.066736  0.992106  0.674070  1
  Rh  Rh28  1  0.571801  0.750000  0.509038  1
  Rh  Rh29  1  0.428199  0.250000  0.490962  1
  Rh  Rh30  1  0.071801  0.250000  0.990962  1
  Rh  Rh31  1  0.928199  0.750000  0.009038  1
