# generated using pymatgen
data_Pr2Ga9Ir2Rh
_symmetry_space_group_name_H-M   'P 1'
_cell_length_a   7.66138339
_cell_length_b   7.66137877
_cell_length_c   9.65897600
_cell_angle_alpha   90.00000000
_cell_angle_beta   90.00000000
_cell_angle_gamma   119.63157315
_symmetry_Int_Tables_number   1
_chemical_formula_structural   Pr2Ga9Ir2Rh
_chemical_formula_sum   'Pr4 Ga18 Ir4 Rh2'
_cell_volume   492.80627636
_cell_formula_units_Z   2
loop_
 _symmetry_equiv_pos_site_id
 _symmetry_equiv_pos_as_xyz
  1  'x, y, z'
loop_
 _atom_site_type_symbol
 _atom_site_label
 _atom_site_symmetry_multiplicity
 _atom_site_fract_x
 _atom_site_fract_y
 _atom_site_fract_z
 _atom_site_occupancy
  Pr  Pr0  1  0.997479  0.667952  0.250000  1
  Pr  Pr1  1  0.002521  0.332048  0.750000  1
  Pr  Pr2  1  0.667952  0.997480  0.250000  1
  Pr  Pr3  1  0.332048  0.002520  0.750000  1
  Ga  Ga4  1  0.127499  0.127499  0.250000  1
  Ga  Ga5  1  0.872501  0.872501  0.750000  1
  Ga  Ga6  1  0.002528  0.333831  0.077485  1
  Ga  Ga7  1  0.997472  0.666169  0.922515  1
  Ga  Ga8  1  0.997472  0.666169  0.577485  1
  Ga  Ga9  1  0.333831  0.002527  0.422514  1
  Ga  Ga10  1  0.002528  0.333831  0.422515  1
  Ga  Ga11  1  0.666169  0.997473  0.577486  1
  Ga  Ga12  1  0.666169  0.997473  0.922514  1
  Ga  Ga13  1  0.333831  0.002527  0.077486  1
  Ga  Ga14  1  0.334083  0.334083  0.559112  1
  Ga  Ga15  1  0.665917  0.665917  0.440888  1
  Ga  Ga16  1  0.665917  0.665917  0.059112  1
  Ga  Ga17  1  0.334083  0.334083  0.940888  1
  Ga  Ga18  1  0.338434  0.543538  0.250000  1
  Ga  Ga19  1  0.661566  0.456462  0.750000  1
  Ga  Ga20  1  0.543539  0.338433  0.250000  1
  Ga  Ga21  1  0.456461  0.661567  0.750000  1
  Ir  Ir22  1  0.671543  0.328457  0.000000  1
  Ir  Ir23  1  0.328457  0.671543  0.000000  1
  Ir  Ir24  1  0.328457  0.671543  0.500000  1
  Ir  Ir25  1  0.671543  0.328457  0.500000  1
  Rh  Rh26  1  0.000000  0.000000  0.000000  1
  Rh  Rh27  1  0.000000  0.000000  0.500000  1
