# generated using pymatgen
data_TbYSc3Si3Ni
_symmetry_space_group_name_H-M   'P 1'
_cell_length_a   6.90401302
_cell_length_b   7.58219000
_cell_length_c   13.90940503
_cell_angle_alpha   90.00081582
_cell_angle_beta   89.99258304
_cell_angle_gamma   89.99862356
_symmetry_Int_Tables_number   1
_chemical_formula_structural   TbYSc3Si3Ni
_chemical_formula_sum   'Tb4 Y4 Sc12 Si12 Ni4'
_cell_volume   728.12310817
_cell_formula_units_Z   4
loop_
 _symmetry_equiv_pos_site_id
 _symmetry_equiv_pos_as_xyz
  1  'x, y, z'
loop_
 _atom_site_type_symbol
 _atom_site_label
 _atom_site_symmetry_multiplicity
 _atom_site_fract_x
 _atom_site_fract_y
 _atom_site_fract_z
 _atom_site_occupancy
  Tb  Tb0  1  0.505515  0.319834  0.091552  1
  Tb  Tb1  1  0.005538  0.180020  0.408539  1
  Tb  Tb2  1  0.505705  0.319795  0.408323  1
  Tb  Tb3  1  0.494422  0.680245  0.591695  1
  Y  Y4  1  0.005559  0.180527  0.091349  1
  Y  Y5  1  0.994574  0.819373  0.908612  1
  Y  Y6  1  0.494386  0.680767  0.908407  1
  Y  Y7  1  0.994418  0.819352  0.591528  1
  Sc  Sc8  1  0.177557  0.506088  0.750043  1
  Sc  Sc9  1  0.822596  0.493902  0.250001  1
  Sc  Sc10  1  0.322488  0.005946  0.249960  1
  Sc  Sc11  1  0.677562  0.994013  0.750002  1
  Sc  Sc12  1  0.320979  0.170477  0.629974  1
  Sc  Sc13  1  0.679181  0.829436  0.370112  1
  Sc  Sc14  1  0.178916  0.670572  0.370059  1
  Sc  Sc15  1  0.679231  0.829546  0.129886  1
  Sc  Sc16  1  0.821001  0.329407  0.630006  1
  Sc  Sc17  1  0.320818  0.170525  0.870057  1
  Sc  Sc18  1  0.820959  0.329516  0.869991  1
  Sc  Sc19  1  0.179058  0.670624  0.129904  1
  Si  Si20  1  0.278556  0.873205  0.750024  1
  Si  Si21  1  0.721074  0.126591  0.249758  1
  Si  Si22  1  0.220530  0.373309  0.249980  1
  Si  Si23  1  0.779014  0.626819  0.750240  1
  Si  Si24  1  0.159084  0.465723  0.539525  1
  Si  Si25  1  0.840808  0.534681  0.460488  1
  Si  Si26  1  0.340667  0.965411  0.460576  1
  Si  Si27  1  0.840625  0.534535  0.039540  1
  Si  Si28  1  0.659397  0.034342  0.539533  1
  Si  Si29  1  0.159459  0.465658  0.960371  1
  Si  Si30  1  0.659572  0.034225  0.960450  1
  Si  Si31  1  0.340306  0.965372  0.039534  1
  Ni  Ni32  1  0.032733  0.105108  0.749991  1
  Ni  Ni33  1  0.967464  0.895181  0.250013  1
  Ni  Ni34  1  0.467498  0.604761  0.249998  1
  Ni  Ni35  1  0.532751  0.395112  0.749977  1
