# generated using pymatgen
data_LaZrP7Ru12
_symmetry_space_group_name_H-M   'P 1'
_cell_length_a   9.45945500
_cell_length_b   9.45945396
_cell_length_c   3.93989300
_cell_angle_alpha   90.00000000
_cell_angle_beta   90.00000000
_cell_angle_gamma   119.99999315
_symmetry_Int_Tables_number   1
_chemical_formula_structural   LaZrP7Ru12
_chemical_formula_sum   'La1 Zr1 P7 Ru12'
_cell_volume   305.31438895
_cell_formula_units_Z   1
loop_
 _symmetry_equiv_pos_site_id
 _symmetry_equiv_pos_as_xyz
  1  'x, y, z'
loop_
 _atom_site_type_symbol
 _atom_site_label
 _atom_site_symmetry_multiplicity
 _atom_site_fract_x
 _atom_site_fract_y
 _atom_site_fract_z
 _atom_site_occupancy
  La  La0  1  0.333333  0.666667  0.000000  1
  Zr  Zr1  1  0.666667  0.333333  0.500000  1
  P  P2  1  0.605973  0.719340  0.500000  1
  P  P3  1  0.000000  0.000000  0.000000  1
  P  P4  1  0.280660  0.886633  0.500000  1
  P  P5  1  0.113367  0.394027  0.500000  1
  P  P6  1  0.886761  0.570412  0.000000  1
  P  P7  1  0.429588  0.316348  0.000000  1
  P  P8  1  0.683652  0.113239  0.000000  1
  Ru  Ru9  1  0.561180  0.960286  0.500000  1
  Ru  Ru10  1  0.399107  0.438820  0.500000  1
  Ru  Ru11  1  0.914215  0.119687  0.500000  1
  Ru  Ru12  1  0.205472  0.085785  0.500000  1
  Ru  Ru13  1  0.880313  0.794528  0.500000  1
  Ru  Ru14  1  0.727921  0.891188  0.000000  1
  Ru  Ru15  1  0.108812  0.836733  0.000000  1
  Ru  Ru16  1  0.163267  0.272079  0.000000  1
  Ru  Ru17  1  0.425132  0.075644  0.000000  1
  Ru  Ru18  1  0.924356  0.349490  0.000000  1
  Ru  Ru19  1  0.650510  0.574868  0.000000  1
  Ru  Ru20  1  0.039714  0.600893  0.500000  1
