# generated using pymatgen
data_Tb7(DyTl4)5
_symmetry_space_group_name_H-M   'P 1'
_cell_length_a   12.44203651
_cell_length_b   10.55920636
_cell_length_c   6.66333603
_cell_angle_alpha   89.99940808
_cell_angle_beta   89.98960887
_cell_angle_gamma   90.02393105
_symmetry_Int_Tables_number   1
_chemical_formula_structural   Tb7(DyTl4)5
_chemical_formula_sum   'Tb7 Dy5 Tl20'
_cell_volume   875.41587784
_cell_formula_units_Z   1
loop_
 _symmetry_equiv_pos_site_id
 _symmetry_equiv_pos_as_xyz
  1  'x, y, z'
loop_
 _atom_site_type_symbol
 _atom_site_label
 _atom_site_symmetry_multiplicity
 _atom_site_fract_x
 _atom_site_fract_y
 _atom_site_fract_z
 _atom_site_occupancy
  Tb  Tb0  1  0.357961  0.007700  0.113725  1
  Tb  Tb1  1  0.357850  0.492274  0.113867  1
  Tb  Tb2  1  0.857748  0.007661  0.386294  1
  Tb  Tb3  1  0.857653  0.492385  0.386261  1
  Tb  Tb4  1  0.142230  0.507533  0.613927  1
  Tb  Tb5  1  0.142236  0.992326  0.614005  1
  Tb  Tb6  1  0.642349  0.507690  0.885994  1
  Dy  Dy7  1  0.052184  0.249929  0.141631  1
  Dy  Dy8  1  0.552308  0.250252  0.358107  1
  Dy  Dy9  1  0.447887  0.750188  0.641552  1
  Dy  Dy10  1  0.947717  0.749822  0.858315  1
  Dy  Dy11  1  0.641939  0.992317  0.886081  1
  Tl  Tl12  1  0.781784  0.250013  0.129696  1
  Tl  Tl13  1  0.100755  0.539457  0.133501  1
  Tl  Tl14  1  0.100771  0.960526  0.133465  1
  Tl  Tl15  1  0.490255  0.750079  0.099640  1
  Tl  Tl16  1  0.757775  0.750180  0.149346  1
  Tl  Tl17  1  0.257835  0.750005  0.350825  1
  Tl  Tl18  1  0.990315  0.749982  0.400100  1
  Tl  Tl19  1  0.600747  0.539718  0.366461  1
  Tl  Tl20  1  0.600858  0.960771  0.365852  1
  Tl  Tl21  1  0.281737  0.249985  0.370487  1
  Tl  Tl22  1  0.718060  0.750550  0.630041  1
  Tl  Tl23  1  0.399324  0.039481  0.633354  1
  Tl  Tl24  1  0.399344  0.460547  0.633621  1
  Tl  Tl25  1  0.009664  0.249843  0.600056  1
  Tl  Tl26  1  0.742034  0.249627  0.649475  1
  Tl  Tl27  1  0.242267  0.249934  0.850798  1
  Tl  Tl28  1  0.510170  0.249699  0.899886  1
  Tl  Tl29  1  0.898729  0.039179  0.866815  1
  Tl  Tl30  1  0.899267  0.460371  0.866443  1
  Tl  Tl31  1  0.218248  0.749974  0.870382  1
