# generated using pymatgen
data_Dy9Ho(InSb2)2
_symmetry_space_group_name_H-M   'P 1'
_cell_length_a   6.47101702
_cell_length_b   8.95796081
_cell_length_c   8.97755900
_cell_angle_alpha   120.06901355
_cell_angle_beta   90.00238990
_cell_angle_gamma   90.00576777
_symmetry_Int_Tables_number   1
_chemical_formula_structural   Dy9Ho(InSb2)2
_chemical_formula_sum   'Dy9 Ho1 In2 Sb4'
_cell_volume   450.36865367
_cell_formula_units_Z   1
loop_
 _symmetry_equiv_pos_site_id
 _symmetry_equiv_pos_as_xyz
  1  'x, y, z'
loop_
 _atom_site_type_symbol
 _atom_site_label
 _atom_site_symmetry_multiplicity
 _atom_site_fract_x
 _atom_site_fract_y
 _atom_site_fract_z
 _atom_site_occupancy
  Dy  Dy0  1  0.499175  0.663510  0.331407  1
  Dy  Dy1  1  0.000725  0.663223  0.331242  1
  Dy  Dy2  1  0.000603  0.336701  0.667978  1
  Dy  Dy3  1  0.749999  0.241683  0.004718  1
  Dy  Dy4  1  0.749996  0.758424  0.763053  1
  Dy  Dy5  1  0.750013  0.999961  0.240387  1
  Dy  Dy6  1  0.250177  0.759930  0.997802  1
  Dy  Dy7  1  0.250189  0.240226  0.237822  1
  Dy  Dy8  1  0.250077  0.999896  0.756981  1
  Ho  Ho9  1  0.499337  0.336620  0.667825  1
  In  In10  1  0.749277  0.604776  0.000211  1
  In  In11  1  0.749261  0.394711  0.395986  1
  Sb  Sb12  1  0.749711  0.000327  0.609568  1
  Sb  Sb13  1  0.250647  0.392715  0.998187  1
  Sb  Sb14  1  0.250498  0.606896  0.605896  1
  Sb  Sb15  1  0.250321  0.000403  0.390938  1
