# generated using pymatgen
data_K3In(BrO3)6
_symmetry_space_group_name_H-M   'P 1'
_cell_length_a   7.11916006
_cell_length_b   7.06238547
_cell_length_c   10.67878906
_cell_angle_alpha   87.92542635
_cell_angle_beta   108.53412574
_cell_angle_gamma   106.37373527
_symmetry_Int_Tables_number   1
_chemical_formula_structural   K3In(BrO3)6
_chemical_formula_sum   'K3 In1 Br6 O18'
_cell_volume   487.57526876
_cell_formula_units_Z   1
loop_
 _symmetry_equiv_pos_site_id
 _symmetry_equiv_pos_as_xyz
  1  'x, y, z'
loop_
 _atom_site_type_symbol
 _atom_site_label
 _atom_site_symmetry_multiplicity
 _atom_site_fract_x
 _atom_site_fract_y
 _atom_site_fract_z
 _atom_site_occupancy
  K  K0  1  0.000000  0.000000  0.000000  1
  K  K1  1  0.823787  0.033866  0.604009  1
  K  K2  1  0.176213  0.966134  0.395991  1
  In  In3  1  0.500000  0.500000  0.000000  1
  Br  Br4  1  0.003177  0.469652  0.186279  1
  Br  Br5  1  0.996823  0.530348  0.813721  1
  Br  Br6  1  0.558451  0.939960  0.193649  1
  Br  Br7  1  0.441549  0.060040  0.806351  1
  Br  Br8  1  0.451024  0.585194  0.650333  1
  Br  Br9  1  0.548976  0.414806  0.349667  1
  O  O10  1  0.831960  0.545740  0.048885  1
  O  O11  1  0.168040  0.454260  0.951115  1
  O  O12  1  0.955246  0.550821  0.314187  1
  O  O13  1  0.044754  0.449179  0.685813  1
  O  O14  1  0.917463  0.222389  0.176912  1
  O  O15  1  0.082537  0.777611  0.823088  1
  O  O16  1  0.579354  0.816286  0.062517  1
  O  O17  1  0.420646  0.183714  0.937483  1
  O  O18  1  0.310480  0.852803  0.187505  1
  O  O19  1  0.689520  0.147197  0.812495  1
  O  O20  1  0.696279  0.850169  0.327739  1
  O  O21  1  0.303721  0.149831  0.672261  1
  O  O22  1  0.545460  0.640238  0.820490  1
  O  O23  1  0.454540  0.359762  0.179510  1
  O  O24  1  0.669632  0.593061  0.619836  1
  O  O25  1  0.330368  0.406939  0.380164  1
  O  O26  1  0.404497  0.797439  0.595194  1
  O  O27  1  0.595503  0.202561  0.404806  1
