# generated using pymatgen
data_Be7VGaMo3
_symmetry_space_group_name_H-M   'P 1'
_cell_length_a   4.49931800
_cell_length_b   4.49931740
_cell_length_c   7.38490600
_cell_angle_alpha   90.00000000
_cell_angle_beta   90.00000000
_cell_angle_gamma   120.00000438
_symmetry_Int_Tables_number   1
_chemical_formula_structural   Be7VGaMo3
_chemical_formula_sum   'Be7 V1 Ga1 Mo3'
_cell_volume   129.46992751
_cell_formula_units_Z   1
loop_
 _symmetry_equiv_pos_site_id
 _symmetry_equiv_pos_as_xyz
  1  'x, y, z'
loop_
 _atom_site_type_symbol
 _atom_site_label
 _atom_site_symmetry_multiplicity
 _atom_site_fract_x
 _atom_site_fract_y
 _atom_site_fract_z
 _atom_site_occupancy
  Be  Be0  1  0.000000  0.000000  0.002138  1
  Be  Be1  1  0.826573  0.173427  0.242003  1
  Be  Be2  1  0.826573  0.653144  0.242003  1
  Be  Be3  1  0.346856  0.173427  0.242003  1
  Be  Be4  1  0.172810  0.827190  0.758094  1
  Be  Be5  1  0.172810  0.345621  0.758094  1
  Be  Be6  1  0.654379  0.827190  0.758094  1
  V  V7  1  0.333333  0.666667  0.433016  1
  Ga  Ga8  1  0.000000  0.000000  0.497893  1
  Mo  Mo9  1  0.666667  0.333333  0.565599  1
  Mo  Mo10  1  0.666667  0.333333  0.935364  1
  Mo  Mo11  1  0.333333  0.666667  0.065698  1
