# generated using pymatgen
data_ScTi(NbSe2)8
_symmetry_space_group_name_H-M   'P 1'
_cell_length_a   6.99074600
_cell_length_b   6.99074632
_cell_length_c   13.27248100
_cell_angle_alpha   90.00000000
_cell_angle_beta   90.00000000
_cell_angle_gamma   119.99999847
_symmetry_Int_Tables_number   1
_chemical_formula_structural   ScTi(NbSe2)8
_chemical_formula_sum   'Sc1 Ti1 Nb8 Se16'
_cell_volume   561.73284278
_cell_formula_units_Z   1
loop_
 _symmetry_equiv_pos_site_id
 _symmetry_equiv_pos_as_xyz
  1  'x, y, z'
loop_
 _atom_site_type_symbol
 _atom_site_label
 _atom_site_symmetry_multiplicity
 _atom_site_fract_x
 _atom_site_fract_y
 _atom_site_fract_z
 _atom_site_occupancy
  Sc  Sc0  1  0.000000  0.000000  0.500000  1
  Ti  Ti1  1  0.000000  0.000000  0.000000  1
  Nb  Nb2  1  0.000000  0.000000  0.244147  1
  Nb  Nb3  1  0.000000  0.000000  0.755853  1
  Nb  Nb4  1  0.506872  0.013743  0.243697  1
  Nb  Nb5  1  0.986257  0.493128  0.243697  1
  Nb  Nb6  1  0.506872  0.493128  0.243697  1
  Nb  Nb7  1  0.493128  0.986257  0.756303  1
  Nb  Nb8  1  0.013743  0.506872  0.756303  1
  Nb  Nb9  1  0.493128  0.506872  0.756303  1
  Se  Se10  1  0.333333  0.666667  0.886139  1
  Se  Se11  1  0.666667  0.333333  0.113861  1
  Se  Se12  1  0.666667  0.333333  0.374364  1
  Se  Se13  1  0.333333  0.666667  0.625636  1
  Se  Se14  1  0.169467  0.830533  0.370203  1
  Se  Se15  1  0.169467  0.338932  0.370203  1
  Se  Se16  1  0.661068  0.830533  0.370203  1
  Se  Se17  1  0.830533  0.169467  0.629797  1
  Se  Se18  1  0.830533  0.661068  0.629797  1
  Se  Se19  1  0.338932  0.169467  0.629797  1
  Se  Se20  1  0.831784  0.168216  0.882299  1
  Se  Se21  1  0.831784  0.663569  0.882299  1
  Se  Se22  1  0.336431  0.168216  0.882299  1
  Se  Se23  1  0.168216  0.831784  0.117701  1
  Se  Se24  1  0.168216  0.336431  0.117701  1
  Se  Se25  1  0.663569  0.831784  0.117701  1
