# generated using pymatgen
data_Tb3PaGa6Ir7
_symmetry_space_group_name_H-M   'P 1'
_cell_length_a   7.28131302
_cell_length_b   7.28131464
_cell_length_c   7.42741300
_cell_angle_alpha   109.87818794
_cell_angle_beta   109.87819254
_cell_angle_gamma   109.06120010
_symmetry_Int_Tables_number   1
_chemical_formula_structural   Tb3PaGa6Ir7
_chemical_formula_sum   'Tb3 Pa1 Ga6 Ir7'
_cell_volume   301.59854371
_cell_formula_units_Z   1
loop_
 _symmetry_equiv_pos_site_id
 _symmetry_equiv_pos_as_xyz
  1  'x, y, z'
loop_
 _atom_site_type_symbol
 _atom_site_label
 _atom_site_symmetry_multiplicity
 _atom_site_fract_x
 _atom_site_fract_y
 _atom_site_fract_z
 _atom_site_occupancy
  Tb  Tb0  1  0.000000  0.500000  0.000000  1
  Tb  Tb1  1  0.500000  0.000000  0.000000  1
  Tb  Tb2  1  0.500000  0.500000  0.500000  1
  Pa  Pa3  1  0.000000  0.000000  0.500000  1
  Ga  Ga4  1  0.683044  0.683044  0.995643  1
  Ga  Ga5  1  0.316956  0.000000  0.312598  1
  Ga  Ga6  1  0.000000  0.316956  0.312598  1
  Ga  Ga7  1  0.316956  0.316956  0.004357  1
  Ga  Ga8  1  0.683044  0.000000  0.687402  1
  Ga  Ga9  1  0.000000  0.683044  0.687402  1
  Ir  Ir10  1  0.756537  0.243463  0.500000  1
  Ir  Ir11  1  0.756537  0.513075  0.256537  1
  Ir  Ir12  1  0.486925  0.243463  0.743463  1
  Ir  Ir13  1  0.243463  0.486925  0.743463  1
  Ir  Ir14  1  0.243463  0.756537  0.500000  1
  Ir  Ir15  1  0.513075  0.756537  0.256537  1
  Ir  Ir16  1  0.000000  0.000000  0.000000  1
