# generated using pymatgen
data_Pr3Er(Pd2O5)2
_symmetry_space_group_name_H-M   'P 1'
_cell_length_a   6.61809496
_cell_length_b   6.63859293
_cell_length_c   5.61156000
_cell_angle_alpha   90.00000000
_cell_angle_beta   90.00000000
_cell_angle_gamma   89.84711477
_symmetry_Int_Tables_number   1
_chemical_formula_structural   Pr3Er(Pd2O5)2
_chemical_formula_sum   'Pr3 Er1 Pd4 O10'
_cell_volume   246.54210384
_cell_formula_units_Z   1
loop_
 _symmetry_equiv_pos_site_id
 _symmetry_equiv_pos_as_xyz
  1  'x, y, z'
loop_
 _atom_site_type_symbol
 _atom_site_label
 _atom_site_symmetry_multiplicity
 _atom_site_fract_x
 _atom_site_fract_y
 _atom_site_fract_z
 _atom_site_occupancy
  Pr  Pr0  1  0.107166  0.261968  0.000000  1
  Pr  Pr1  1  0.889345  0.743374  0.000000  1
  Pr  Pr2  1  0.264120  0.895218  0.500000  1
  Er  Er3  1  0.749422  0.109774  0.500000  1
  Pd  Pd4  1  0.596702  0.301466  0.000000  1
  Pd  Pd5  1  0.404879  0.696604  0.000000  1
  Pd  Pd6  1  0.307705  0.403844  0.500000  1
  Pd  Pd7  1  0.694020  0.594912  0.500000  1
  O  O8  1  0.407328  0.193289  0.261769  1
  O  O9  1  0.598859  0.808912  0.738006  1
  O  O10  1  0.598859  0.808912  0.261994  1
  O  O11  1  0.194762  0.597899  0.759032  1
  O  O12  1  0.407328  0.193289  0.738231  1
  O  O13  1  0.802185  0.391489  0.250156  1
  O  O14  1  0.802185  0.391489  0.749844  1
  O  O15  1  0.194762  0.597899  0.240968  1
  O  O16  1  0.990186  0.004830  0.255837  1
  O  O17  1  0.990186  0.004830  0.744163  1
