# generated using pymatgen
data_Yb7Pr(Si3Pt)4
_symmetry_space_group_name_H-M   'P 1'
_cell_length_a   8.21870300
_cell_length_b   8.21870224
_cell_length_c   8.37557900
_cell_angle_alpha   90.00000000
_cell_angle_beta   90.00000000
_cell_angle_gamma   119.99999902
_symmetry_Int_Tables_number   1
_chemical_formula_structural   Yb7Pr(Si3Pt)4
_chemical_formula_sum   'Yb7 Pr1 Si12 Pt4'
_cell_volume   489.95027816
_cell_formula_units_Z   1
loop_
 _symmetry_equiv_pos_site_id
 _symmetry_equiv_pos_as_xyz
  1  'x, y, z'
loop_
 _atom_site_type_symbol
 _atom_site_label
 _atom_site_symmetry_multiplicity
 _atom_site_fract_x
 _atom_site_fract_y
 _atom_site_fract_z
 _atom_site_occupancy
  Yb  Yb0  1  0.499334  0.500666  0.750000  1
  Yb  Yb1  1  0.500596  0.499404  0.250000  1
  Yb  Yb2  1  0.001333  0.500666  0.750000  1
  Yb  Yb3  1  0.998808  0.499404  0.250000  1
  Yb  Yb4  1  0.499334  0.998667  0.750000  1
  Yb  Yb5  1  0.500596  0.001192  0.250000  1
  Yb  Yb6  1  0.000000  0.000000  0.750000  1
  Pr  Pr7  1  0.000000  0.000000  0.250000  1
  Si  Si8  1  0.834112  0.165888  0.997942  1
  Si  Si9  1  0.165847  0.834153  0.999021  1
  Si  Si10  1  0.331775  0.165888  0.997942  1
  Si  Si11  1  0.165847  0.834153  0.500979  1
  Si  Si12  1  0.668306  0.834153  0.999021  1
  Si  Si13  1  0.834112  0.165888  0.502058  1
  Si  Si14  1  0.834112  0.668225  0.997942  1
  Si  Si15  1  0.668306  0.834153  0.500979  1
  Si  Si16  1  0.165847  0.331694  0.999021  1
  Si  Si17  1  0.331775  0.165888  0.502058  1
  Si  Si18  1  0.165847  0.331694  0.500979  1
  Si  Si19  1  0.834112  0.668225  0.502058  1
  Pt  Pt20  1  0.666667  0.333333  0.996677  1
  Pt  Pt21  1  0.333333  0.666667  0.998961  1
  Pt  Pt22  1  0.333333  0.666667  0.501039  1
  Pt  Pt23  1  0.666667  0.333333  0.503323  1
