# generated using pymatgen
data_La4PC4
_symmetry_space_group_name_H-M   'P 1'
_cell_length_a   4.10922800
_cell_length_b   7.29370900
_cell_length_c   12.66107800
_cell_angle_alpha   90.00000000
_cell_angle_beta   90.00000000
_cell_angle_gamma   90.00000000
_symmetry_Int_Tables_number   1
_chemical_formula_structural   La4PC4
_chemical_formula_sum   'La8 P2 C8'
_cell_volume   379.47166699
_cell_formula_units_Z   2
loop_
 _symmetry_equiv_pos_site_id
 _symmetry_equiv_pos_as_xyz
  1  'x, y, z'
loop_
 _atom_site_type_symbol
 _atom_site_label
 _atom_site_symmetry_multiplicity
 _atom_site_fract_x
 _atom_site_fract_y
 _atom_site_fract_z
 _atom_site_occupancy
  La  La0  1  0.500000  0.391364  0.283053  1
  La  La1  1  0.500000  0.608636  0.716947  1
  La  La2  1  0.500000  0.108636  0.783053  1
  La  La3  1  0.500000  0.891364  0.216947  1
  La  La4  1  0.000000  0.272633  0.043145  1
  La  La5  1  0.000000  0.727367  0.956855  1
  La  La6  1  0.000000  0.227367  0.543145  1
  La  La7  1  0.000000  0.772633  0.456855  1
  P  P8  1  0.500000  0.000000  0.000000  1
  P  P9  1  0.500000  0.500000  0.500000  1
  C  C10  1  0.000000  0.152222  0.235027  1
  C  C11  1  0.000000  0.847779  0.764973  1
  C  C12  1  0.000000  0.347779  0.735027  1
  C  C13  1  0.000000  0.652221  0.264973  1
  C  C14  1  0.000000  0.089848  0.333459  1
  C  C15  1  0.000000  0.910152  0.666541  1
  C  C16  1  0.000000  0.410152  0.833459  1
  C  C17  1  0.000000  0.589848  0.166541  1
