# generated using pymatgen
data_Tb12Sm8Si15As
_symmetry_space_group_name_H-M   'P 1'
_cell_length_a   7.58944040
_cell_length_b   7.74499232
_cell_length_c   14.77552638
_cell_angle_alpha   89.93320406
_cell_angle_beta   86.38484168
_cell_angle_gamma   89.98929805
_symmetry_Int_Tables_number   1
_chemical_formula_structural   Tb12Sm8Si15As
_chemical_formula_sum   'Tb12 Sm8 Si15 As1'
_cell_volume   866.77891606
_cell_formula_units_Z   1
loop_
 _symmetry_equiv_pos_site_id
 _symmetry_equiv_pos_as_xyz
  1  'x, y, z'
loop_
 _atom_site_type_symbol
 _atom_site_label
 _atom_site_symmetry_multiplicity
 _atom_site_fract_x
 _atom_site_fract_y
 _atom_site_fract_z
 _atom_site_occupancy
  Tb  Tb0  1  0.166926  0.504998  0.747804  1
  Tb  Tb1  1  0.833167  0.495320  0.255067  1
  Tb  Tb2  1  0.331296  0.005544  0.254433  1
  Tb  Tb3  1  0.669047  0.994815  0.746211  1
  Tb  Tb4  1  0.352904  0.162033  0.619061  1
  Tb  Tb5  1  0.647967  0.836406  0.380389  1
  Tb  Tb6  1  0.146985  0.663892  0.381411  1
  Tb  Tb7  1  0.676161  0.822841  0.122508  1
  Tb  Tb8  1  0.850389  0.335861  0.617734  1
  Tb  Tb9  1  0.323408  0.177596  0.877719  1
  Tb  Tb10  1  0.822515  0.323271  0.877841  1
  Tb  Tb11  1  0.176708  0.677213  0.122353  1
  Sm  Sm12  1  0.027909  0.186285  0.102314  1
  Sm  Sm13  1  0.972529  0.815096  0.897970  1
  Sm  Sm14  1  0.473161  0.685290  0.898722  1
  Sm  Sm15  1  0.998588  0.819288  0.599577  1
  Sm  Sm16  1  0.527830  0.314788  0.102482  1
  Sm  Sm17  1  0.999953  0.179015  0.399339  1
  Sm  Sm18  1  0.502866  0.316141  0.399132  1
  Sm  Sm19  1  0.502298  0.681907  0.599563  1
  Si  Si20  1  0.042776  0.110492  0.751236  1
  Si  Si21  1  0.957974  0.889451  0.247914  1
  Si  Si22  1  0.457750  0.610204  0.248328  1
  Si  Si23  1  0.541829  0.390753  0.750955  1
  Si  Si24  1  0.281899  0.873713  0.751339  1
  Si  Si25  1  0.718973  0.125793  0.248260  1
  Si  Si26  1  0.219345  0.375163  0.248549  1
  Si  Si27  1  0.781186  0.625142  0.751140  1
  Si  Si28  1  0.794882  0.537031  0.455749  1
  Si  Si29  1  0.300222  0.962135  0.456749  1
  Si  Si30  1  0.857766  0.530210  0.041548  1
  Si  Si31  1  0.698814  0.036600  0.543589  1
  Si  Si32  1  0.141041  0.471499  0.958280  1
  Si  Si33  1  0.641265  0.029522  0.958665  1
  Si  Si34  1  0.357961  0.971313  0.041995  1
  As  As35  1  0.203706  0.463380  0.544071  1
