# generated using pymatgen
data_TmAl10RuRh
_symmetry_space_group_name_H-M   'P 1'
_cell_length_a   6.83388460
_cell_length_b   6.83388426
_cell_length_c   9.14096102
_cell_angle_alpha   90.29825515
_cell_angle_beta   90.29825138
_cell_angle_gamma   97.05324228
_symmetry_Int_Tables_number   1
_chemical_formula_structural   TmAl10RuRh
_chemical_formula_sum   'Tm2 Al20 Ru2 Rh2'
_cell_volume   423.65727522
_cell_formula_units_Z   2
loop_
 _symmetry_equiv_pos_site_id
 _symmetry_equiv_pos_as_xyz
  1  'x, y, z'
loop_
 _atom_site_type_symbol
 _atom_site_label
 _atom_site_symmetry_multiplicity
 _atom_site_fract_x
 _atom_site_fract_y
 _atom_site_fract_z
 _atom_site_occupancy
  Tm  Tm0  1  0.871186  0.128814  0.750000  1
  Tm  Tm1  1  0.128814  0.871186  0.250000  1
  Al  Al2  1  0.621886  0.376136  0.550422  1
  Al  Al3  1  0.378114  0.623864  0.449578  1
  Al  Al4  1  0.376136  0.621886  0.050422  1
  Al  Al5  1  0.623864  0.378114  0.949578  1
  Al  Al6  1  0.224297  0.222786  0.498505  1
  Al  Al7  1  0.775703  0.777214  0.501495  1
  Al  Al8  1  0.777214  0.775703  0.001495  1
  Al  Al9  1  0.222786  0.224297  0.998505  1
  Al  Al10  1  0.847064  0.155560  0.101029  1
  Al  Al11  1  0.152936  0.844440  0.898971  1
  Al  Al12  1  0.155560  0.847064  0.601029  1
  Al  Al13  1  0.844440  0.152936  0.398971  1
  Al  Al14  1  0.857336  0.586971  0.750982  1
  Al  Al15  1  0.142664  0.413029  0.249018  1
  Al  Al16  1  0.413029  0.142664  0.749018  1
  Al  Al17  1  0.586971  0.857336  0.250982  1
  Al  Al18  1  0.223662  0.480115  0.752358  1
  Al  Al19  1  0.776338  0.519885  0.247642  1
  Al  Al20  1  0.519885  0.776338  0.747642  1
  Al  Al21  1  0.480115  0.223662  0.252358  1
  Ru  Ru22  1  0.000000  0.500000  0.000000  1
  Ru  Ru23  1  0.500000  0.000000  0.500000  1
  Rh  Rh24  1  0.000000  0.500000  0.500000  1
  Rh  Rh25  1  0.500000  0.000000  0.000000  1
