# generated using pymatgen
data_Er2Th(RhPb)3
_symmetry_space_group_name_H-M   'P 1'
_cell_length_a   7.70717580
_cell_length_b   7.83970311
_cell_length_c   3.92082200
_cell_angle_alpha   90.00000000
_cell_angle_beta   90.00000000
_cell_angle_gamma   120.57045427
_symmetry_Int_Tables_number   1
_chemical_formula_structural   Er2Th(RhPb)3
_chemical_formula_sum   'Er2 Th1 Rh3 Pb3'
_cell_volume   203.97520762
_cell_formula_units_Z   1
loop_
 _symmetry_equiv_pos_site_id
 _symmetry_equiv_pos_as_xyz
  1  'x, y, z'
loop_
 _atom_site_type_symbol
 _atom_site_label
 _atom_site_symmetry_multiplicity
 _atom_site_fract_x
 _atom_site_fract_y
 _atom_site_fract_z
 _atom_site_occupancy
  Er  Er0  1  0.404725  0.405140  0.500000  1
  Er  Er1  1  0.595275  0.000415  0.500000  1
  Th  Th2  1  0.000000  0.586510  0.500000  1
  Rh  Rh3  1  0.682702  0.349449  0.000000  1
  Rh  Rh4  1  0.317298  0.666747  0.000000  1
  Rh  Rh5  1  0.000000  0.991968  0.500000  1
  Pb  Pb6  1  0.274474  0.012885  0.000000  1
  Pb  Pb7  1  0.725526  0.738412  0.000000  1
  Pb  Pb8  1  0.000000  0.248473  0.000000  1
