# generated using pymatgen
data_SrY5Zn4Pt13
_symmetry_space_group_name_H-M   'P 1'
_cell_length_a   8.31105436
_cell_length_b   8.31103271
_cell_length_c   8.31103400
_cell_angle_alpha   109.54017966
_cell_angle_beta   109.43665665
_cell_angle_gamma   109.43665212
_symmetry_Int_Tables_number   1
_chemical_formula_structural   SrY5Zn4Pt13
_chemical_formula_sum   'Sr1 Y5 Zn4 Pt13'
_cell_volume   441.92122235
_cell_formula_units_Z   1
loop_
 _symmetry_equiv_pos_site_id
 _symmetry_equiv_pos_as_xyz
  1  'x, y, z'
loop_
 _atom_site_type_symbol
 _atom_site_label
 _atom_site_symmetry_multiplicity
 _atom_site_fract_x
 _atom_site_fract_y
 _atom_site_fract_z
 _atom_site_occupancy
  Sr  Sr0  1  0.999991  0.708189  0.708189  1
  Y  Y1  1  0.699116  0.698564  0.999516  1
  Y  Y2  1  0.300889  0.999445  0.300387  1
  Y  Y3  1  0.999999  0.313227  0.313227  1
  Y  Y4  1  0.300889  0.300387  0.999445  1
  Y  Y5  1  0.699116  0.999516  0.698564  1
  Zn  Zn6  1  0.000000  0.999321  0.493427  1
  Zn  Zn7  1  0.000000  0.493427  0.999321  1
  Zn  Zn8  1  0.505895  0.999332  0.999332  1
  Zn  Zn9  1  0.494095  0.493430  0.493430  1
  Pt  Pt10  1  0.333472  0.333429  0.666858  1
  Pt  Pt11  1  0.666589  0.999970  0.333399  1
  Pt  Pt12  1  0.000010  0.674629  0.321951  1
  Pt  Pt13  1  0.666589  0.333399  0.999970  1
  Pt  Pt14  1  0.333472  0.666858  0.333429  1
  Pt  Pt15  1  0.000010  0.321951  0.674629  1
  Pt  Pt16  1  0.337000  0.661912  0.998913  1
  Pt  Pt17  1  0.337000  0.998913  0.661912  1
  Pt  Pt18  1  0.647434  0.322006  0.322006  1
  Pt  Pt19  1  0.662962  0.661869  0.324872  1
  Pt  Pt20  1  0.662962  0.324872  0.661869  1
  Pt  Pt21  1  0.352515  0.674544  0.674544  1
  Pt  Pt22  1  0.999993  0.020809  0.020809  1
