# generated using pymatgen
data_EuYTmGa8Ag3
_symmetry_space_group_name_H-M   'P 1'
_cell_length_a   4.36570603
_cell_length_b   8.41432268
_cell_length_c   8.41432264
_cell_angle_alpha   69.75533216
_cell_angle_beta   74.96429149
_cell_angle_gamma   74.96428801
_symmetry_Int_Tables_number   1
_chemical_formula_structural   EuYTmGa8Ag3
_chemical_formula_sum   'Eu1 Y1 Tm1 Ga8 Ag3'
_cell_volume   275.11938338
_cell_formula_units_Z   1
loop_
 _symmetry_equiv_pos_site_id
 _symmetry_equiv_pos_as_xyz
  1  'x, y, z'
loop_
 _atom_site_type_symbol
 _atom_site_label
 _atom_site_symmetry_multiplicity
 _atom_site_fract_x
 _atom_site_fract_y
 _atom_site_fract_z
 _atom_site_occupancy
  Eu  Eu0  1  0.500346  0.499654  0.499654  1
  Y  Y1  1  0.200933  0.799067  0.799067  1
  Tm  Tm2  1  0.799591  0.200409  0.200409  1
  Ga  Ga3  1  0.354754  0.362162  0.928330  1
  Ga  Ga4  1  0.645048  0.636567  0.073338  1
  Ga  Ga5  1  0.354754  0.928330  0.362162  1
  Ga  Ga6  1  0.645048  0.073338  0.636567  1
  Ga  Ga7  1  0.161284  0.470441  0.206990  1
  Ga  Ga8  1  0.839386  0.528415  0.792814  1
  Ga  Ga9  1  0.161284  0.206990  0.470441  1
  Ga  Ga10  1  0.839386  0.792814  0.528415  1
  Ag  Ag11  1  0.499376  0.000624  0.000624  1
  Ag  Ag12  1  0.999407  0.808950  0.192237  1
  Ag  Ag13  1  0.999407  0.192237  0.808950  1
