# generated using pymatgen
data_Pr4Ga9GeIr5Rh
_symmetry_space_group_name_H-M   'P 1'
_cell_length_a   8.65331750
_cell_length_b   8.70316652
_cell_length_c   8.70181407
_cell_angle_alpha   140.73006640
_cell_angle_beta   108.10534582
_cell_angle_gamma   85.22250671
_symmetry_Int_Tables_number   1
_chemical_formula_structural   Pr4Ga9GeIr5Rh
_chemical_formula_sum   'Pr4 Ga9 Ge1 Ir5 Rh1'
_cell_volume   380.56310543
_cell_formula_units_Z   1
loop_
 _symmetry_equiv_pos_site_id
 _symmetry_equiv_pos_as_xyz
  1  'x, y, z'
loop_
 _atom_site_type_symbol
 _atom_site_label
 _atom_site_symmetry_multiplicity
 _atom_site_fract_x
 _atom_site_fract_y
 _atom_site_fract_z
 _atom_site_occupancy
  Pr  Pr0  1  0.865544  0.635363  0.229861  1
  Pr  Pr1  1  0.135151  0.365134  0.769887  1
  Pr  Pr2  1  0.403650  0.135281  0.268501  1
  Pr  Pr3  1  0.591753  0.863246  0.728680  1
  Ga  Ga4  1  0.501270  0.751059  0.251463  1
  Ga  Ga5  1  0.501305  0.249775  0.750192  1
  Ga  Ga6  1  0.209363  0.960022  0.748921  1
  Ga  Ga7  1  0.790071  0.540842  0.750176  1
  Ga  Ga8  1  0.790325  0.040188  0.249240  1
  Ga  Ga9  1  0.209298  0.460277  0.249324  1
  Ga  Ga10  1  0.075551  0.906311  0.168847  1
  Ga  Ga11  1  0.922837  0.090232  0.832367  1
  Ga  Ga12  1  0.740434  0.408576  0.331960  1
  Ge  Ge13  1  0.259146  0.592845  0.667130  1
  Ir  Ir14  1  0.002741  0.250076  0.252869  1
  Ir  Ir15  1  0.256453  0.853491  0.402535  1
  Ir  Ir16  1  0.745904  0.147210  0.597915  1
  Ir  Ir17  1  0.450593  0.353852  0.097127  1
  Ir  Ir18  1  0.545813  0.646159  0.900173  1
  Rh  Rh19  1  0.002797  0.750059  0.752831  1
