# generated using pymatgen
data_NdTh2(CuSi)4
_symmetry_space_group_name_H-M   'P 1'
_cell_length_a   4.13794522
_cell_length_b   4.12133751
_cell_length_c   12.29804014
_cell_angle_alpha   99.64600294
_cell_angle_beta   99.68527343
_cell_angle_gamma   90.00000997
_symmetry_Int_Tables_number   1
_chemical_formula_structural   NdTh2(CuSi)4
_chemical_formula_sum   'Nd1 Th2 Cu4 Si4'
_cell_volume   203.73114710
_cell_formula_units_Z   1
loop_
 _symmetry_equiv_pos_site_id
 _symmetry_equiv_pos_as_xyz
  1  'x, y, z'
loop_
 _atom_site_type_symbol
 _atom_site_label
 _atom_site_symmetry_multiplicity
 _atom_site_fract_x
 _atom_site_fract_y
 _atom_site_fract_z
 _atom_site_occupancy
  Nd  Nd0  1  0.850876  0.350876  0.701754  1
  Th  Th1  1  0.148509  0.648509  0.297015  1
  Th  Th2  1  0.000216  0.000216  0.000432  1
  Cu  Cu3  1  0.249711  0.249711  0.499421  1
  Cu  Cu4  1  0.750249  0.750249  0.500499  1
  Cu  Cu5  1  0.596986  0.096986  0.193973  1
  Cu  Cu6  1  0.403233  0.903233  0.806466  1
  Si  Si7  1  0.450139  0.450139  0.900279  1
  Si  Si8  1  0.549553  0.549553  0.099104  1
  Si  Si9  1  0.695892  0.195892  0.391784  1
  Si  Si10  1  0.304636  0.804636  0.609271  1
