# generated using pymatgen
data_Th10Bi5PbS2
_symmetry_space_group_name_H-M   'P 1'
_cell_length_a   9.52990226
_cell_length_b   9.54723744
_cell_length_c   6.66249900
_cell_angle_alpha   90.00000000
_cell_angle_beta   90.00000000
_cell_angle_gamma   120.06019620
_symmetry_Int_Tables_number   1
_chemical_formula_structural   Th10Bi5PbS2
_chemical_formula_sum   'Th10 Bi5 Pb1 S2'
_cell_volume   524.65063887
_cell_formula_units_Z   1
loop_
 _symmetry_equiv_pos_site_id
 _symmetry_equiv_pos_as_xyz
  1  'x, y, z'
loop_
 _atom_site_type_symbol
 _atom_site_label
 _atom_site_symmetry_multiplicity
 _atom_site_fract_x
 _atom_site_fract_y
 _atom_site_fract_z
 _atom_site_occupancy
  Th  Th0  1  0.749058  0.749034  0.750000  1
  Th  Th1  1  0.250942  0.999976  0.750000  1
  Th  Th2  1  0.000000  0.251699  0.750000  1
  Th  Th3  1  0.249863  0.251427  0.250000  1
  Th  Th4  1  0.750137  0.001563  0.250000  1
  Th  Th5  1  0.000000  0.748560  0.250000  1
  Th  Th6  1  0.667101  0.333133  0.000845  1
  Th  Th7  1  0.332899  0.666032  0.000845  1
  Th  Th8  1  0.332899  0.666032  0.499155  1
  Th  Th9  1  0.667101  0.333133  0.499155  1
  Bi  Bi10  1  0.392162  0.392547  0.750000  1
  Bi  Bi11  1  0.607838  0.000385  0.750000  1
  Bi  Bi12  1  0.000000  0.607243  0.750000  1
  Bi  Bi13  1  0.607768  0.607667  0.250000  1
  Bi  Bi14  1  0.392232  0.999898  0.250000  1
  Pb  Pb15  1  0.000000  0.392894  0.250000  1
  S  S16  1  0.000000  0.999388  0.999938  1
  S  S17  1  0.000000  0.999388  0.500062  1
