# generated using pymatgen
data_Zr4PdPtRh2
_symmetry_space_group_name_H-M   'P 1'
_cell_length_a   4.42718000
_cell_length_b   5.45503416
_cell_length_c   6.29407156
_cell_angle_alpha   89.54934346
_cell_angle_beta   90.00000000
_cell_angle_gamma   90.00000000
_symmetry_Int_Tables_number   1
_chemical_formula_structural   Zr4PdPtRh2
_chemical_formula_sum   'Zr4 Pd1 Pt1 Rh2'
_cell_volume   151.99975807
_cell_formula_units_Z   1
loop_
 _symmetry_equiv_pos_site_id
 _symmetry_equiv_pos_as_xyz
  1  'x, y, z'
loop_
 _atom_site_type_symbol
 _atom_site_label
 _atom_site_symmetry_multiplicity
 _atom_site_fract_x
 _atom_site_fract_y
 _atom_site_fract_z
 _atom_site_occupancy
  Zr  Zr0  1  0.750000  0.852634  0.824264  1
  Zr  Zr1  1  0.250000  0.366341  0.678009  1
  Zr  Zr2  1  0.750000  0.648401  0.322819  1
  Zr  Zr3  1  0.250000  0.131738  0.170636  1
  Pd  Pd4  1  0.750000  0.159048  0.455208  1
  Pt  Pt5  1  0.750000  0.338579  0.957551  1
  Rh  Rh6  1  0.250000  0.837189  0.543909  1
  Rh  Rh7  1  0.250000  0.666072  0.047603  1
