# generated using pymatgen
data_PdPbI18
_symmetry_space_group_name_H-M   'P 1'
_cell_length_a   10.20395798
_cell_length_b   10.20395783
_cell_length_c   10.20396004
_cell_angle_alpha   96.50601267
_cell_angle_beta   96.50602446
_cell_angle_gamma   96.50602217
_symmetry_Int_Tables_number   1
_chemical_formula_structural   PdPbI18
_chemical_formula_sum   'Pd1 Pb1 I18'
_cell_volume   1040.20528254
_cell_formula_units_Z   1
loop_
 _symmetry_equiv_pos_site_id
 _symmetry_equiv_pos_as_xyz
  1  'x, y, z'
loop_
 _atom_site_type_symbol
 _atom_site_label
 _atom_site_symmetry_multiplicity
 _atom_site_fract_x
 _atom_site_fract_y
 _atom_site_fract_z
 _atom_site_occupancy
  Pd  Pd0  1  0.000000  0.000000  0.000000  1
  Pb  Pb1  1  0.500000  0.500000  0.500000  1
  I  I2  1  0.966293  0.978884  0.727223  1
  I  I3  1  0.727223  0.966293  0.978884  1
  I  I4  1  0.978884  0.727223  0.966293  1
  I  I5  1  0.033707  0.021116  0.272777  1
  I  I6  1  0.272777  0.033707  0.021116  1
  I  I7  1  0.021116  0.272777  0.033707  1
  I  I8  1  0.907262  0.374821  0.789998  1
  I  I9  1  0.789998  0.907262  0.374821  1
  I  I10  1  0.374821  0.789998  0.907262  1
  I  I11  1  0.092738  0.625179  0.210002  1
  I  I12  1  0.210002  0.092738  0.625179  1
  I  I13  1  0.625179  0.210002  0.092738  1
  I  I14  1  0.551058  0.816593  0.485107  1
  I  I15  1  0.485107  0.551058  0.816593  1
  I  I16  1  0.816593  0.485107  0.551058  1
  I  I17  1  0.448942  0.183407  0.514893  1
  I  I18  1  0.514893  0.448942  0.183407  1
  I  I19  1  0.183407  0.514893  0.448942  1
