# generated using pymatgen
data_Cs2CdGeO4
_symmetry_space_group_name_H-M   'P 1'
_cell_length_a   7.53767330
_cell_length_b   11.53231401
_cell_length_c   8.31235200
_cell_angle_alpha   89.99920567
_cell_angle_beta   89.99957587
_cell_angle_gamma   77.58202599
_symmetry_Int_Tables_number   1
_chemical_formula_structural   Cs2CdGeO4
_chemical_formula_sum   'Cs8 Cd4 Ge4 O16'
_cell_volume   705.66175262
_cell_formula_units_Z   4
loop_
 _symmetry_equiv_pos_site_id
 _symmetry_equiv_pos_as_xyz
  1  'x, y, z'
loop_
 _atom_site_type_symbol
 _atom_site_label
 _atom_site_symmetry_multiplicity
 _atom_site_fract_x
 _atom_site_fract_y
 _atom_site_fract_z
 _atom_site_occupancy
  Cs  Cs0  1  0.887951  0.962758  0.259659  1
  Cs  Cs1  1  0.387952  0.462767  0.259666  1
  Cs  Cs2  1  0.112040  0.037233  0.759658  1
  Cs  Cs3  1  0.612051  0.537233  0.759662  1
  Cs  Cs4  1  0.627047  0.208870  0.915196  1
  Cs  Cs5  1  0.127045  0.708869  0.915193  1
  Cs  Cs6  1  0.372958  0.791133  0.415198  1
  Cs  Cs7  1  0.872958  0.291132  0.415198  1
  Cd  Cd8  1  0.809023  0.602912  0.188911  1
  Cd  Cd9  1  0.690961  0.897098  0.688924  1
  Cd  Cd10  1  0.309034  0.102902  0.188914  1
  Cd  Cd11  1  0.190985  0.397095  0.688906  1
  Ge  Ge12  1  0.482243  0.160873  0.483964  1
  Ge  Ge13  1  0.982233  0.660881  0.483966  1
  Ge  Ge14  1  0.517740  0.839120  0.983974  1
  Ge  Ge15  1  0.017784  0.339126  0.983972  1
  O  O16  1  0.540432  0.180385  0.275043  1
  O  O17  1  0.040418  0.680386  0.275056  1
  O  O18  1  0.459568  0.819621  0.775050  1
  O  O19  1  0.959602  0.319617  0.775038  1
  O  O20  1  0.287643  0.095918  0.466346  1
  O  O21  1  0.787627  0.595914  0.466349  1
  O  O22  1  0.712349  0.904074  0.966371  1
  O  O23  1  0.212393  0.404077  0.966355  1
  O  O24  1  0.675623  0.071665  0.582074  1
  O  O25  1  0.175617  0.571670  0.582076  1
  O  O26  1  0.324362  0.928327  0.082082  1
  O  O27  1  0.824400  0.428341  0.082064  1
  O  O28  1  0.445272  0.302088  0.582271  1
  O  O29  1  0.945248  0.802086  0.582282  1
  O  O30  1  0.554708  0.697912  0.082289  1
  O  O31  1  0.054739  0.197920  0.082289  1
