# generated using pymatgen
data_TbTm19Fe2(CoSb4)2
_symmetry_space_group_name_H-M   'P 1'
_cell_length_a   7.72729996
_cell_length_b   8.73683700
_cell_length_c   12.01690742
_cell_angle_alpha   90.00000000
_cell_angle_beta   90.05633313
_cell_angle_gamma   90.00000000
_symmetry_Int_Tables_number   1
_chemical_formula_structural   TbTm19Fe2(CoSb4)2
_chemical_formula_sum   'Tb1 Tm19 Fe2 Co2 Sb8'
_cell_volume   811.28698616
_cell_formula_units_Z   1
loop_
 _symmetry_equiv_pos_site_id
 _symmetry_equiv_pos_as_xyz
  1  'x, y, z'
loop_
 _atom_site_type_symbol
 _atom_site_label
 _atom_site_symmetry_multiplicity
 _atom_site_fract_x
 _atom_site_fract_y
 _atom_site_fract_z
 _atom_site_occupancy
  Tb  Tb0  1  0.878283  0.750000  0.807044  1
  Tm  Tm1  1  0.156466  0.750000  0.206643  1
  Tm  Tm2  1  0.656948  0.250000  0.292779  1
  Tm  Tm3  1  0.844671  0.250000  0.796790  1
  Tm  Tm4  1  0.345702  0.750000  0.702611  1
  Tm  Tm5  1  0.444614  0.750000  0.996019  1
  Tm  Tm6  1  0.945877  0.250000  0.502760  1
  Tm  Tm7  1  0.548248  0.250000  0.003990  1
  Tm  Tm8  1  0.049358  0.750000  0.496504  1
  Tm  Tm9  1  0.622805  0.750000  0.307650  1
  Tm  Tm10  1  0.122896  0.250000  0.193211  1
  Tm  Tm11  1  0.379023  0.250000  0.691591  1
  Tm  Tm12  1  0.825714  0.968481  0.064534  1
  Tm  Tm13  1  0.325320  0.033590  0.436169  1
  Tm  Tm14  1  0.178977  0.457099  0.935537  1
  Tm  Tm15  1  0.678288  0.539994  0.565116  1
  Tm  Tm16  1  0.178977  0.042901  0.935537  1
  Tm  Tm17  1  0.678288  0.960006  0.565116  1
  Tm  Tm18  1  0.825714  0.531519  0.064534  1
  Tm  Tm19  1  0.325320  0.466410  0.436169  1
  Fe  Fe20  1  0.427245  0.750000  0.487975  1
  Fe  Fe21  1  0.926963  0.250000  0.012343  1
  Co  Co22  1  0.567776  0.250000  0.507619  1
  Co  Co23  1  0.067980  0.750000  0.992828  1
  Sb  Sb24  1  0.930137  0.992767  0.328090  1
  Sb  Sb25  1  0.430144  0.006602  0.171825  1
  Sb  Sb26  1  0.071288  0.490612  0.671334  1
  Sb  Sb27  1  0.567704  0.507114  0.828216  1
  Sb  Sb28  1  0.071288  0.009388  0.671334  1
  Sb  Sb29  1  0.567704  0.992886  0.828216  1
  Sb  Sb30  1  0.930137  0.507233  0.328090  1
  Sb  Sb31  1  0.430144  0.493398  0.171825  1
