# generated using pymatgen
data_La8SmHoTl6
_symmetry_space_group_name_H-M   'P 1'
_cell_length_a   6.23210785
_cell_length_b   9.58934448
_cell_length_c   9.58934400
_cell_angle_alpha   83.93870707
_cell_angle_beta   71.03748771
_cell_angle_gamma   71.03748664
_symmetry_Int_Tables_number   1
_chemical_formula_structural   La8SmHoTl6
_chemical_formula_sum   'La8 Sm1 Ho1 Tl6'
_cell_volume   512.56433216
_cell_formula_units_Z   1
loop_
 _symmetry_equiv_pos_site_id
 _symmetry_equiv_pos_as_xyz
  1  'x, y, z'
loop_
 _atom_site_type_symbol
 _atom_site_label
 _atom_site_symmetry_multiplicity
 _atom_site_fract_x
 _atom_site_fract_y
 _atom_site_fract_z
 _atom_site_occupancy
  La  La0  1  0.724382  0.864132  0.688546  1
  La  La1  1  0.277060  0.135868  0.311454  1
  La  La2  1  0.775618  0.311454  0.135868  1
  La  La3  1  0.222940  0.688546  0.864132  1
  La  La4  1  0.587071  0.688546  0.135868  1
  La  La5  1  0.411486  0.311454  0.864132  1
  La  La6  1  0.088514  0.135868  0.688546  1
  La  La7  1  0.912929  0.864132  0.311454  1
  Sm  Sm8  1  0.750000  0.500000  0.500000  1
  Ho  Ho9  1  0.250000  0.500000  0.500000  1
  Tl  Tl10  1  0.158354  0.500000  0.185734  1
  Tl  Tl11  1  0.844087  0.500000  0.814266  1
  Tl  Tl12  1  0.341646  0.814266  0.500000  1
  Tl  Tl13  1  0.655913  0.185734  0.500000  1
  Tl  Tl14  1  0.250000  0.000000  0.000000  1
  Tl  Tl15  1  0.750000  0.000000  0.000000  1
