# generated using pymatgen
data_V2Fe9Si5
_symmetry_space_group_name_H-M   'P 1'
_cell_length_a   5.59691400
_cell_length_b   5.59691400
_cell_length_c   5.58391700
_cell_angle_alpha   90.00000000
_cell_angle_beta   90.00000000
_cell_angle_gamma   90.00000000
_symmetry_Int_Tables_number   1
_chemical_formula_structural   V2Fe9Si5
_chemical_formula_sum   'V2 Fe9 Si5'
_cell_volume   174.91869226
_cell_formula_units_Z   1
loop_
 _symmetry_equiv_pos_site_id
 _symmetry_equiv_pos_as_xyz
  1  'x, y, z'
loop_
 _atom_site_type_symbol
 _atom_site_label
 _atom_site_symmetry_multiplicity
 _atom_site_fract_x
 _atom_site_fract_y
 _atom_site_fract_z
 _atom_site_occupancy
  V  V0  1  0.500000  0.000000  0.000000  1
  V  V1  1  0.000000  0.500000  0.000000  1
  Fe  Fe2  1  0.253345  0.253345  0.251410  1
  Fe  Fe3  1  0.746655  0.253345  0.251410  1
  Fe  Fe4  1  0.253345  0.746655  0.251410  1
  Fe  Fe5  1  0.746655  0.746655  0.251410  1
  Fe  Fe6  1  0.000000  0.000000  0.500000  1
  Fe  Fe7  1  0.253345  0.253345  0.748590  1
  Fe  Fe8  1  0.746655  0.253345  0.748590  1
  Fe  Fe9  1  0.253345  0.746655  0.748590  1
  Fe  Fe10  1  0.746655  0.746655  0.748590  1
  Si  Si11  1  0.000000  0.000000  0.000000  1
  Si  Si12  1  0.500000  0.500000  0.000000  1
  Si  Si13  1  0.500000  0.000000  0.500000  1
  Si  Si14  1  0.000000  0.500000  0.500000  1
  Si  Si15  1  0.500000  0.500000  0.500000  1
