# generated using pymatgen
data_DyEr5Al24Os7Pt
_symmetry_space_group_name_H-M   'P 1'
_cell_length_a   8.82585717
_cell_length_b   8.82234246
_cell_length_c   9.53387192
_cell_angle_alpha   89.62265987
_cell_angle_beta   90.36976537
_cell_angle_gamma   119.87764906
_symmetry_Int_Tables_number   1
_chemical_formula_structural   DyEr5Al24Os7Pt
_chemical_formula_sum   'Dy1 Er5 Al24 Os7 Pt1'
_cell_volume   643.66892567
_cell_formula_units_Z   1
loop_
 _symmetry_equiv_pos_site_id
 _symmetry_equiv_pos_as_xyz
  1  'x, y, z'
loop_
 _atom_site_type_symbol
 _atom_site_label
 _atom_site_symmetry_multiplicity
 _atom_site_fract_x
 _atom_site_fract_y
 _atom_site_fract_z
 _atom_site_occupancy
  Dy  Dy0  1  0.190598  0.386845  0.251276  1
  Er  Er1  1  0.809228  0.612344  0.748520  1
  Er  Er2  1  0.612060  0.809120  0.251491  1
  Er  Er3  1  0.387728  0.190834  0.748498  1
  Er  Er4  1  0.195397  0.804562  0.251530  1
  Er  Er5  1  0.804666  0.195491  0.748514  1
  Al  Al6  1  0.331569  0.668584  0.020784  1
  Al  Al7  1  0.668377  0.331703  0.978932  1
  Al  Al8  1  0.666618  0.333633  0.517832  1
  Al  Al9  1  0.333589  0.666588  0.482412  1
  Al  Al10  1  0.163829  0.325571  0.577767  1
  Al  Al11  1  0.836257  0.674501  0.422690  1
  Al  Al12  1  0.674644  0.836323  0.577532  1
  Al  Al13  1  0.841988  0.675520  0.077539  1
  Al  Al14  1  0.325605  0.163503  0.422695  1
  Al  Al15  1  0.158022  0.324550  0.921973  1
  Al  Al16  1  0.163417  0.836670  0.575673  1
  Al  Al17  1  0.324574  0.157850  0.077529  1
  Al  Al18  1  0.836316  0.163271  0.424549  1
  Al  Al19  1  0.675596  0.842005  0.922268  1
  Al  Al20  1  0.836546  0.163010  0.075457  1
  Al  Al21  1  0.163142  0.836921  0.924280  1
  Al  Al22  1  0.560209  0.121779  0.249023  1
  Al  Al23  1  0.439772  0.878212  0.750971  1
  Al  Al24  1  0.877831  0.439872  0.249004  1
  Al  Al25  1  0.121796  0.560275  0.750912  1
  Al  Al26  1  0.562041  0.438517  0.251926  1
  Al  Al27  1  0.438516  0.561581  0.748240  1
  Al  Al28  1  0.999161  0.999470  0.250128  1
  Al  Al29  1  0.000397  0.999663  0.749892  1
  Os  Os30  1  0.500116  0.000177  0.999887  1
  Os  Os31  1  0.999849  0.500097  0.999639  1
  Os  Os32  1  0.500108  0.000157  0.500113  1
  Os  Os33  1  0.999996  0.500092  0.500249  1
  Os  Os34  1  0.500171  0.500081  0.500296  1
  Os  Os35  1  0.000084  0.000198  0.000111  1
  Os  Os36  1  0.000127  0.000242  0.499943  1
  Pt  Pt37  1  0.500060  0.500188  0.999926  1
