# generated using pymatgen
data_TbHoErRuO7
_symmetry_space_group_name_H-M   'P 1'
_cell_length_a   6.41807787
_cell_length_b   6.41807855
_cell_length_c   7.41164301
_cell_angle_alpha   89.98848015
_cell_angle_beta   89.98846630
_cell_angle_gamma   109.01134130
_symmetry_Int_Tables_number   1
_chemical_formula_structural   TbHoErRuO7
_chemical_formula_sum   'Tb2 Ho2 Er2 Ru2 O14'
_cell_volume   288.64559403
_cell_formula_units_Z   2
loop_
 _symmetry_equiv_pos_site_id
 _symmetry_equiv_pos_as_xyz
  1  'x, y, z'
loop_
 _atom_site_type_symbol
 _atom_site_label
 _atom_site_symmetry_multiplicity
 _atom_site_fract_x
 _atom_site_fract_y
 _atom_site_fract_z
 _atom_site_occupancy
  Tb  Tb0  1  0.521504  0.521070  0.499585  1
  Tb  Tb1  1  0.478930  0.478496  0.000415  1
  Ho  Ho2  1  0.000795  0.463759  0.745635  1
  Ho  Ho3  1  0.536241  0.999205  0.754365  1
  Er  Er4  1  0.463312  0.000501  0.254452  1
  Er  Er5  1  0.999499  0.536688  0.245548  1
  Ru  Ru6  1  0.000221  0.000458  0.499447  1
  Ru  Ru7  1  0.999542  0.999779  0.000553  1
  O  O8  1  0.072143  0.927857  0.250000  1
  O  O9  1  0.062917  0.314643  0.463370  1
  O  O10  1  0.077873  0.325199  0.027950  1
  O  O11  1  0.360239  0.639761  0.250000  1
  O  O12  1  0.368019  0.631981  0.750000  1
  O  O13  1  0.325403  0.078069  0.973852  1
  O  O14  1  0.315040  0.063774  0.534691  1
  O  O15  1  0.685357  0.937083  0.036630  1
  O  O16  1  0.674801  0.922127  0.472050  1
  O  O17  1  0.632858  0.367142  0.250000  1
  O  O18  1  0.638633  0.361367  0.750000  1
  O  O19  1  0.921931  0.674597  0.526148  1
  O  O20  1  0.936226  0.684960  0.965309  1
  O  O21  1  0.928522  0.071478  0.750000  1
