# generated using pymatgen
data_Cs4Dy5Y7S20
_symmetry_space_group_name_H-M   'P 1'
_cell_length_a   4.01462500
_cell_length_b   12.03302701
_cell_length_c   21.42188002
_cell_angle_alpha   90.00456968
_cell_angle_beta   90.00000000
_cell_angle_gamma   90.00000000
_symmetry_Int_Tables_number   1
_chemical_formula_structural   Cs4Dy5Y7S20
_chemical_formula_sum   'Cs4 Dy5 Y7 S20'
_cell_volume   1034.85012721
_cell_formula_units_Z   1
loop_
 _symmetry_equiv_pos_site_id
 _symmetry_equiv_pos_as_xyz
  1  'x, y, z'
loop_
 _atom_site_type_symbol
 _atom_site_label
 _atom_site_symmetry_multiplicity
 _atom_site_fract_x
 _atom_site_fract_y
 _atom_site_fract_z
 _atom_site_occupancy
  Cs  Cs0  1  0.250000  0.854150  0.093179  1
  Cs  Cs1  1  0.750000  0.145845  0.906839  1
  Cs  Cs2  1  0.750000  0.354177  0.406830  1
  Cs  Cs3  1  0.250000  0.645842  0.593171  1
  Dy  Dy4  1  0.250000  0.542001  0.197512  1
  Dy  Dy5  1  0.750000  0.390834  0.052847  1
  Dy  Dy6  1  0.250000  0.609167  0.947243  1
  Dy  Dy7  1  0.250000  0.890844  0.447208  1
  Dy  Dy8  1  0.750000  0.109198  0.552805  1
  Y  Y9  1  0.750000  0.797446  0.825365  1
  Y  Y10  1  0.250000  0.202683  0.174630  1
  Y  Y11  1  0.250000  0.297454  0.674645  1
  Y  Y12  1  0.750000  0.702585  0.325412  1
  Y  Y13  1  0.250000  0.958120  0.697516  1
  Y  Y14  1  0.750000  0.041922  0.302466  1
  Y  Y15  1  0.750000  0.458125  0.802498  1
  S  S16  1  0.250000  0.951717  0.568590  1
  S  S17  1  0.750000  0.048253  0.431407  1
  S  S18  1  0.750000  0.451741  0.931406  1
  S  S19  1  0.250000  0.548327  0.068730  1
  S  S20  1  0.750000  0.761583  0.951582  1
  S  S21  1  0.250000  0.238411  0.048407  1
  S  S22  1  0.250000  0.261574  0.548415  1
  S  S23  1  0.750000  0.738403  0.451577  1
  S  S24  1  0.250000  0.946749  0.824409  1
  S  S25  1  0.750000  0.053218  0.175598  1
  S  S26  1  0.750000  0.446751  0.675581  1
  S  S27  1  0.250000  0.553291  0.324190  1
  S  S28  1  0.750000  0.126103  0.682518  1
  S  S29  1  0.250000  0.873853  0.317467  1
  S  S30  1  0.250000  0.626107  0.817469  1
  S  S31  1  0.750000  0.374206  0.182531  1
  S  S32  1  0.750000  0.689022  0.198607  1
  S  S33  1  0.250000  0.310311  0.801340  1
  S  S34  1  0.250000  0.189668  0.301358  1
  S  S35  1  0.750000  0.810317  0.698651  1
