# generated using pymatgen
data_TaAlCr3W
_symmetry_space_group_name_H-M   'P 1'
_cell_length_a   4.84524000
_cell_length_b   4.84524056
_cell_length_c   8.19864900
_cell_angle_alpha   90.00000000
_cell_angle_beta   90.00000000
_cell_angle_gamma   120.00000981
_symmetry_Int_Tables_number   1
_chemical_formula_structural   TaAlCr3W
_chemical_formula_sum   'Ta2 Al2 Cr6 W2'
_cell_volume   166.68768722
_cell_formula_units_Z   2
loop_
 _symmetry_equiv_pos_site_id
 _symmetry_equiv_pos_as_xyz
  1  'x, y, z'
loop_
 _atom_site_type_symbol
 _atom_site_label
 _atom_site_symmetry_multiplicity
 _atom_site_fract_x
 _atom_site_fract_y
 _atom_site_fract_z
 _atom_site_occupancy
  Ta  Ta0  1  0.666667  0.333333  0.565966  1
  Ta  Ta1  1  0.333333  0.666667  0.065966  1
  Al  Al2  1  0.000000  0.000000  0.000444  1
  Al  Al3  1  0.000000  0.000000  0.500444  1
  Cr  Cr4  1  0.172942  0.345885  0.750066  1
  Cr  Cr5  1  0.172942  0.827058  0.750066  1
  Cr  Cr6  1  0.345885  0.172942  0.250066  1
  Cr  Cr7  1  0.827058  0.654115  0.250066  1
  Cr  Cr8  1  0.654115  0.827058  0.750066  1
  Cr  Cr9  1  0.827058  0.172942  0.250066  1
  W  W10  1  0.333333  0.666667  0.433391  1
  W  W11  1  0.666667  0.333333  0.933391  1
