# generated using pymatgen
data_Er10Sn6HgAs
_symmetry_space_group_name_H-M   'P 1'
_cell_length_a   9.10955900
_cell_length_b   9.10955917
_cell_length_c   6.61466400
_cell_angle_alpha   90.00000000
_cell_angle_beta   90.00000000
_cell_angle_gamma   119.99999574
_symmetry_Int_Tables_number   1
_chemical_formula_structural   Er10Sn6HgAs
_chemical_formula_sum   'Er10 Sn6 Hg1 As1'
_cell_volume   475.37151343
_cell_formula_units_Z   1
loop_
 _symmetry_equiv_pos_site_id
 _symmetry_equiv_pos_as_xyz
  1  'x, y, z'
loop_
 _atom_site_type_symbol
 _atom_site_label
 _atom_site_symmetry_multiplicity
 _atom_site_fract_x
 _atom_site_fract_y
 _atom_site_fract_z
 _atom_site_occupancy
  Er  Er0  1  0.666667  0.333333  0.000000  1
  Er  Er1  1  0.333333  0.666667  0.000000  1
  Er  Er2  1  0.333333  0.666667  0.500000  1
  Er  Er3  1  0.666667  0.333333  0.500000  1
  Er  Er4  1  0.737690  0.737690  0.729882  1
  Er  Er5  1  0.262310  0.000000  0.729882  1
  Er  Er6  1  0.000000  0.262310  0.729882  1
  Er  Er7  1  0.262310  0.262310  0.270118  1
  Er  Er8  1  0.737690  0.000000  0.270118  1
  Er  Er9  1  0.000000  0.737690  0.270118  1
  Sn  Sn10  1  0.391662  0.391662  0.749110  1
  Sn  Sn11  1  0.608338  0.000000  0.749110  1
  Sn  Sn12  1  0.000000  0.608338  0.749110  1
  Sn  Sn13  1  0.608338  0.608338  0.250890  1
  Sn  Sn14  1  0.391662  0.000000  0.250890  1
  Sn  Sn15  1  0.000000  0.391662  0.250890  1
  Hg  Hg16  1  0.000000  0.000000  0.000000  1
  As  As17  1  0.000000  0.000000  0.500000  1
