# generated using pymatgen
data_Ho3Cd3PtAu2
_symmetry_space_group_name_H-M   'P 1'
_cell_length_a   7.84512700
_cell_length_b   7.84512824
_cell_length_c   3.80146300
_cell_angle_alpha   90.00000000
_cell_angle_beta   90.00000000
_cell_angle_gamma   119.99999785
_symmetry_Int_Tables_number   1
_chemical_formula_structural   Ho3Cd3PtAu2
_chemical_formula_sum   'Ho3 Cd3 Pt1 Au2'
_cell_volume   202.61959113
_cell_formula_units_Z   1
loop_
 _symmetry_equiv_pos_site_id
 _symmetry_equiv_pos_as_xyz
  1  'x, y, z'
loop_
 _atom_site_type_symbol
 _atom_site_label
 _atom_site_symmetry_multiplicity
 _atom_site_fract_x
 _atom_site_fract_y
 _atom_site_fract_z
 _atom_site_occupancy
  Ho  Ho0  1  0.587910  0.982579  0.000000  1
  Ho  Ho1  1  0.017421  0.605331  0.000000  1
  Ho  Ho2  1  0.394669  0.412090  0.000000  1
  Cd  Cd3  1  0.268821  0.002445  0.500000  1
  Cd  Cd4  1  0.997555  0.266375  0.500000  1
  Cd  Cd5  1  0.733625  0.731179  0.500000  1
  Pt  Pt6  1  0.333333  0.666667  0.500000  1
  Au  Au7  1  0.666667  0.333333  0.500000  1
  Au  Au8  1  0.000000  0.000000  0.000000  1
