# generated using pymatgen
data_Ba12Er3Tm(Ga4O15)2
_symmetry_space_group_name_H-M   'P 1'
_cell_length_a   6.01878900
_cell_length_b   8.02594640
_cell_length_c   18.61521932
_cell_angle_alpha   91.33569738
_cell_angle_beta   90.00205602
_cell_angle_gamma   90.00108027
_symmetry_Int_Tables_number   1
_chemical_formula_structural   Ba12Er3Tm(Ga4O15)2
_chemical_formula_sum   'Ba12 Er3 Tm1 Ga8 O30'
_cell_volume   898.99134048
_cell_formula_units_Z   1
loop_
 _symmetry_equiv_pos_site_id
 _symmetry_equiv_pos_as_xyz
  1  'x, y, z'
loop_
 _atom_site_type_symbol
 _atom_site_label
 _atom_site_symmetry_multiplicity
 _atom_site_fract_x
 _atom_site_fract_y
 _atom_site_fract_z
 _atom_site_occupancy
  Ba  Ba0  1  0.748152  0.026607  0.089503  1
  Ba  Ba1  1  0.754819  0.499023  0.421359  1
  Ba  Ba2  1  0.245177  0.500988  0.578640  1
  Ba  Ba3  1  0.251858  0.973629  0.910424  1
  Ba  Ba4  1  0.329714  0.499993  0.250006  1
  Ba  Ba5  1  0.754823  0.500900  0.078583  1
  Ba  Ba6  1  0.724510  0.000099  0.750086  1
  Ba  Ba7  1  0.275467  0.000007  0.250006  1
  Ba  Ba8  1  0.245155  0.498856  0.921339  1
  Ba  Ba9  1  0.670324  0.499918  0.750064  1
  Ba  Ba10  1  0.251855  0.026539  0.589575  1
  Ba  Ba11  1  0.748141  0.973458  0.410429  1
  Er  Er12  1  0.746802  0.752520  0.589673  1
  Er  Er13  1  0.253193  0.752513  0.089655  1
  Er  Er14  1  0.253213  0.247502  0.410327  1
  Tm  Tm15  1  0.746604  0.247687  0.910352  1
  Ga  Ga16  1  0.252250  0.754170  0.442095  1
  Ga  Ga17  1  0.773330  0.769946  0.232994  1
  Ga  Ga18  1  0.773312  0.230054  0.266993  1
  Ga  Ga19  1  0.252242  0.245796  0.057640  1
  Ga  Ga20  1  0.747738  0.754105  0.942052  1
  Ga  Ga21  1  0.226758  0.230125  0.767189  1
  Ga  Ga22  1  0.226684  0.769961  0.732992  1
  Ga  Ga23  1  0.747756  0.245825  0.557898  1
  O  O24  1  0.244998  0.531239  0.409469  1
  O  O25  1  0.509724  0.765898  0.499493  1
  O  O26  1  0.956725  0.274793  0.811718  1
  O  O27  1  0.008827  0.234457  0.992175  1
  O  O28  1  0.800121  0.999995  0.250003  1
  O  O29  1  0.329274  0.687508  0.817093  1
  O  O30  1  0.042907  0.275049  0.311284  1
  O  O31  1  0.546087  0.751454  0.163234  1
  O  O32  1  0.546122  0.248557  0.336764  1
  O  O33  1  0.329065  0.312429  0.683051  1
  O  O34  1  0.490370  0.765861  0.999476  1
  O  O35  1  0.236959  0.954448  0.392301  1
  O  O36  1  0.957138  0.724947  0.688720  1
  O  O37  1  0.453840  0.751437  0.663236  1
  O  O38  1  0.670748  0.687516  0.317097  1
  O  O39  1  0.199905  0.000099  0.750009  1
  O  O40  1  0.763042  0.045550  0.607693  1
  O  O41  1  0.755001  0.468753  0.590530  1
  O  O42  1  0.990292  0.765595  0.007467  1
  O  O43  1  0.754911  0.530503  0.909539  1
  O  O44  1  0.236985  0.045740  0.107607  1
  O  O45  1  0.762939  0.955116  0.892427  1
  O  O46  1  0.510325  0.234194  0.000161  1
  O  O47  1  0.454873  0.248514  0.836965  1
  O  O48  1  0.009635  0.765626  0.507494  1
  O  O49  1  0.670743  0.312486  0.182902  1
  O  O50  1  0.042930  0.724960  0.188708  1
  O  O51  1  0.990355  0.234366  0.492508  1
  O  O52  1  0.245001  0.468586  0.090484  1
  O  O53  1  0.490281  0.234102  0.500513  1
