# generated using pymatgen
data_La13Pr3(Hg3Os)2
_symmetry_space_group_name_H-M   'P 1'
_cell_length_a   10.80920743
_cell_length_b   10.80920851
_cell_length_c   7.34260800
_cell_angle_alpha   89.93750008
_cell_angle_beta   90.06249993
_cell_angle_gamma   120.17167022
_symmetry_Int_Tables_number   1
_chemical_formula_structural   La13Pr3(Hg3Os)2
_chemical_formula_sum   'La13 Pr3 Hg6 Os2'
_cell_volume   741.67647587
_cell_formula_units_Z   1
loop_
 _symmetry_equiv_pos_site_id
 _symmetry_equiv_pos_as_xyz
  1  'x, y, z'
loop_
 _atom_site_type_symbol
 _atom_site_label
 _atom_site_symmetry_multiplicity
 _atom_site_fract_x
 _atom_site_fract_y
 _atom_site_fract_z
 _atom_site_occupancy
  La  La0  1  0.169000  0.831000  0.979613  1
  La  La1  1  0.340107  0.170404  0.480495  1
  La  La2  1  0.829596  0.659893  0.480495  1
  La  La3  1  0.169853  0.339384  0.979926  1
  La  La4  1  0.660616  0.830147  0.979926  1
  La  La5  1  0.831557  0.168443  0.478683  1
  La  La6  1  0.333710  0.666290  0.687688  1
  La  La7  1  0.666575  0.333425  0.186483  1
  La  La8  1  0.458889  0.541111  0.293835  1
  La  La9  1  0.916236  0.458377  0.791282  1
  La  La10  1  0.541623  0.083764  0.791282  1
  La  La11  1  0.458765  0.917861  0.292277  1
  La  La12  1  0.082139  0.541235  0.292277  1
  Pr  Pr13  1  0.539725  0.460275  0.794931  1
  Pr  Pr14  1  0.000257  0.999743  0.292938  1
  Pr  Pr15  1  0.000541  0.999459  0.793450  1
  Hg  Hg16  1  0.167223  0.832777  0.536831  1
  Hg  Hg17  1  0.333816  0.168109  0.036296  1
  Hg  Hg18  1  0.831891  0.666184  0.036296  1
  Hg  Hg19  1  0.167378  0.333382  0.537302  1
  Hg  Hg20  1  0.666618  0.832622  0.537302  1
  Hg  Hg21  1  0.832974  0.167026  0.035510  1
  Os  Os22  1  0.332231  0.667769  0.056131  1
  Os  Os23  1  0.668680  0.331320  0.554745  1
