# generated using pymatgen
data_K12Li8Si4As11P
_symmetry_space_group_name_H-M   'P 1'
_cell_length_a   9.97127450
_cell_length_b   9.97127276
_cell_length_c   15.12772801
_cell_angle_alpha   89.99774034
_cell_angle_beta   89.99774020
_cell_angle_gamma   143.07804320
_symmetry_Int_Tables_number   1
_chemical_formula_structural   K12Li8Si4As11P
_chemical_formula_sum   'K12 Li8 Si4 As11 P1'
_cell_volume   903.54931504
_cell_formula_units_Z   1
loop_
 _symmetry_equiv_pos_site_id
 _symmetry_equiv_pos_as_xyz
  1  'x, y, z'
loop_
 _atom_site_type_symbol
 _atom_site_label
 _atom_site_symmetry_multiplicity
 _atom_site_fract_x
 _atom_site_fract_y
 _atom_site_fract_z
 _atom_site_occupancy
  K  K0  1  0.942781  0.606981  0.830195  1
  K  K1  1  0.556442  0.890828  0.331306  1
  K  K2  1  0.393153  0.056927  0.169339  1
  K  K3  1  0.056927  0.393153  0.169339  1
  K  K4  1  0.890828  0.556442  0.331306  1
  K  K5  1  0.441622  0.106542  0.667839  1
  K  K6  1  0.606981  0.942781  0.830195  1
  K  K7  1  0.269118  0.269118  0.324291  1
  K  K8  1  0.771985  0.771985  0.178493  1
  K  K9  1  0.227635  0.227635  0.824039  1
  K  K10  1  0.728254  0.728254  0.675987  1
  K  K11  1  0.106542  0.441622  0.667839  1
  Li  Li12  1  0.919039  0.080642  0.000233  1
  Li  Li13  1  0.583513  0.424123  0.498976  1
  Li  Li14  1  0.080642  0.919039  0.000233  1
  Li  Li15  1  0.424123  0.583513  0.498976  1
  Li  Li16  1  0.752748  0.247507  0.000027  1
  Li  Li17  1  0.746987  0.251970  0.499434  1
  Li  Li18  1  0.247507  0.752748  0.000027  1
  Li  Li19  1  0.251970  0.746987  0.499434  1
  Si  Si20  1  0.588771  0.411624  0.000116  1
  Si  Si21  1  0.911040  0.083513  0.499226  1
  Si  Si22  1  0.411624  0.588771  0.000116  1
  Si  Si23  1  0.083513  0.911040  0.499226  1
  As  As24  1  0.882988  0.564500  0.092979  1
  As  As25  1  0.435992  0.117000  0.907407  1
  As  As26  1  0.616835  0.934723  0.591284  1
  As  As27  1  0.934723  0.616835  0.591284  1
  As  As28  1  0.117000  0.435992  0.907407  1
  As  As29  1  0.564500  0.882988  0.092979  1
  As  As30  1  0.379472  0.063004  0.406879  1
  As  As31  1  0.208901  0.208901  0.584314  1
  As  As32  1  0.705843  0.705843  0.915606  1
  As  As33  1  0.294639  0.294639  0.084746  1
  As  As34  1  0.063004  0.379472  0.406879  1
  P  P35  1  0.802361  0.802361  0.422042  1
