# generated using pymatgen
data_Tb2Tm2ReTcC4
_symmetry_space_group_name_H-M   'P 1'
_cell_length_a   5.08119600
_cell_length_b   6.57611700
_cell_length_c   9.81185200
_cell_angle_alpha   90.00000000
_cell_angle_beta   90.00000000
_cell_angle_gamma   90.00000000
_symmetry_Int_Tables_number   1
_chemical_formula_structural   Tb2Tm2ReTcC4
_chemical_formula_sum   'Tb4 Tm4 Re2 Tc2 C8'
_cell_volume   327.85851520
_cell_formula_units_Z   2
loop_
 _symmetry_equiv_pos_site_id
 _symmetry_equiv_pos_as_xyz
  1  'x, y, z'
loop_
 _atom_site_type_symbol
 _atom_site_label
 _atom_site_symmetry_multiplicity
 _atom_site_fract_x
 _atom_site_fract_y
 _atom_site_fract_z
 _atom_site_occupancy
  Tb  Tb0  1  0.750000  0.466457  0.784662  1
  Tb  Tb1  1  0.250000  0.033543  0.284662  1
  Tb  Tb2  1  0.750000  0.967542  0.714228  1
  Tb  Tb3  1  0.250000  0.532458  0.214228  1
  Tm  Tm4  1  0.750000  0.825642  0.057626  1
  Tm  Tm5  1  0.250000  0.674358  0.557626  1
  Tm  Tm6  1  0.750000  0.324599  0.441034  1
  Tm  Tm7  1  0.250000  0.175401  0.941034  1
  Re  Re8  1  0.750000  0.779410  0.366382  1
  Re  Re9  1  0.250000  0.720590  0.866382  1
  Tc  Tc10  1  0.750000  0.278797  0.133459  1
  Tc  Tc11  1  0.250000  0.221203  0.633459  1
  C  C12  1  0.750000  0.172796  0.951494  1
  C  C13  1  0.250000  0.826561  0.049782  1
  C  C14  1  0.750000  0.673439  0.549782  1
  C  C15  1  0.250000  0.327204  0.451494  1
  C  C16  1  0.750000  0.046313  0.260471  1
  C  C17  1  0.250000  0.453687  0.760471  1
  C  C18  1  0.750000  0.548498  0.240863  1
  C  C19  1  0.250000  0.951502  0.740863  1
