# generated using pymatgen
data_LiThReH6
_symmetry_space_group_name_H-M   'P 1'
_cell_length_a   5.01007482
_cell_length_b   5.00997855
_cell_length_c   5.01009200
_cell_angle_alpha   59.99874963
_cell_angle_beta   59.99813441
_cell_angle_gamma   59.99918282
_symmetry_Int_Tables_number   1
_chemical_formula_structural   LiThReH6
_chemical_formula_sum   'Li1 Th1 Re1 H6'
_cell_volume   88.91967602
_cell_formula_units_Z   1
loop_
 _symmetry_equiv_pos_site_id
 _symmetry_equiv_pos_as_xyz
  1  'x, y, z'
loop_
 _atom_site_type_symbol
 _atom_site_label
 _atom_site_symmetry_multiplicity
 _atom_site_fract_x
 _atom_site_fract_y
 _atom_site_fract_z
 _atom_site_occupancy
  Li  Li0  1  0.750005  0.749995  0.749996  1
  Th  Th1  1  0.250002  0.250000  0.249996  1
  Re  Re2  1  0.999987  0.999991  0.000003  1
  H  H3  1  0.749975  0.749975  0.250028  1
  H  H4  1  0.749966  0.250031  0.250031  1
  H  H5  1  0.250025  0.749971  0.250030  1
  H  H6  1  0.250024  0.749978  0.749976  1
  H  H7  1  0.749980  0.250023  0.749983  1
  H  H8  1  0.250029  0.250038  0.749963  1
