# generated using pymatgen
data_Dy16Al4Ru3Pt
_symmetry_space_group_name_H-M   'P 1'
_cell_length_a   9.53969259
_cell_length_b   9.53969276
_cell_length_c   9.53969303
_cell_angle_alpha   59.89625015
_cell_angle_beta   59.89624745
_cell_angle_gamma   59.89625406
_symmetry_Int_Tables_number   1
_chemical_formula_structural   Dy16Al4Ru3Pt
_chemical_formula_sum   'Dy16 Al4 Ru3 Pt1'
_cell_volume   612.44166363
_cell_formula_units_Z   1
loop_
 _symmetry_equiv_pos_site_id
 _symmetry_equiv_pos_as_xyz
  1  'x, y, z'
loop_
 _atom_site_type_symbol
 _atom_site_label
 _atom_site_symmetry_multiplicity
 _atom_site_fract_x
 _atom_site_fract_y
 _atom_site_fract_z
 _atom_site_occupancy
  Dy  Dy0  1  0.599713  0.599713  0.599713  1
  Dy  Dy1  1  0.605119  0.605119  0.192613  1
  Dy  Dy2  1  0.605119  0.192613  0.605119  1
  Dy  Dy3  1  0.192613  0.605119  0.605119  1
  Dy  Dy4  1  0.049928  0.445032  0.445032  1
  Dy  Dy5  1  0.442060  0.055396  0.055396  1
  Dy  Dy6  1  0.445032  0.049928  0.445032  1
  Dy  Dy7  1  0.055396  0.442060  0.055396  1
  Dy  Dy8  1  0.445032  0.445032  0.049928  1
  Dy  Dy9  1  0.055396  0.055396  0.442060  1
  Dy  Dy10  1  0.188798  0.811892  0.811892  1
  Dy  Dy11  1  0.813045  0.189529  0.189529  1
  Dy  Dy12  1  0.811892  0.188798  0.811892  1
  Dy  Dy13  1  0.189529  0.813045  0.189529  1
  Dy  Dy14  1  0.811892  0.811892  0.188798  1
  Dy  Dy15  1  0.189529  0.189529  0.813045  1
  Al  Al16  1  0.826773  0.826773  0.826773  1
  Al  Al17  1  0.826172  0.826172  0.519157  1
  Al  Al18  1  0.826172  0.519157  0.826172  1
  Al  Al19  1  0.519157  0.826172  0.826172  1
  Ru  Ru20  1  0.389897  0.389897  0.829358  1
  Ru  Ru21  1  0.389897  0.829358  0.389897  1
  Ru  Ru22  1  0.829358  0.389897  0.389897  1
  Pt  Pt23  1  0.392482  0.392482  0.392482  1
