# generated using pymatgen
data_CaLu9Pt8
_symmetry_space_group_name_H-M   'P 1'
_cell_length_a   7.32946200
_cell_length_b   7.42370202
_cell_length_c   14.61333500
_cell_angle_alpha   89.99600982
_cell_angle_beta   90.00000000
_cell_angle_gamma   90.00000000
_symmetry_Int_Tables_number   1
_chemical_formula_structural   CaLu9Pt8
_chemical_formula_sum   'Ca2 Lu18 Pt16'
_cell_volume   795.13700952
_cell_formula_units_Z   2
loop_
 _symmetry_equiv_pos_site_id
 _symmetry_equiv_pos_as_xyz
  1  'x, y, z'
loop_
 _atom_site_type_symbol
 _atom_site_label
 _atom_site_symmetry_multiplicity
 _atom_site_fract_x
 _atom_site_fract_y
 _atom_site_fract_z
 _atom_site_occupancy
  Ca  Ca0  1  0.488083  0.677896  0.908772  1
  Ca  Ca1  1  0.988083  0.822104  0.591228  1
  Lu  Lu2  1  0.641929  0.164523  0.622067  1
  Lu  Lu3  1  0.141929  0.335477  0.877933  1
  Lu  Lu4  1  0.358298  0.833126  0.122417  1
  Lu  Lu5  1  0.858298  0.666874  0.377583  1
  Lu  Lu6  1  0.358154  0.831152  0.377123  1
  Lu  Lu7  1  0.858154  0.668848  0.122877  1
  Lu  Lu8  1  0.638425  0.166757  0.878295  1
  Lu  Lu9  1  0.138425  0.333243  0.621705  1
  Lu  Lu10  1  0.488396  0.677813  0.592909  1
  Lu  Lu11  1  0.988396  0.822187  0.907091  1
  Lu  Lu12  1  0.510987  0.316895  0.094712  1
  Lu  Lu13  1  0.010987  0.183105  0.405288  1
  Lu  Lu14  1  0.511135  0.319651  0.407278  1
  Lu  Lu15  1  0.011135  0.180349  0.092722  1
  Lu  Lu16  1  0.802588  0.510489  0.750633  1
  Lu  Lu17  1  0.302588  0.989511  0.749367  1
  Lu  Lu18  1  0.196390  0.491162  0.249459  1
  Lu  Lu19  1  0.696390  0.008838  0.250541  1
  Pt  Pt20  1  0.688036  0.974484  0.452476  1
  Pt  Pt21  1  0.188036  0.525516  0.047524  1
  Pt  Pt22  1  0.300565  0.040660  0.962242  1
  Pt  Pt23  1  0.800565  0.459340  0.537758  1
  Pt  Pt24  1  0.317515  0.042849  0.537061  1
  Pt  Pt25  1  0.817515  0.457151  0.962939  1
  Pt  Pt26  1  0.696152  0.974241  0.043100  1
  Pt  Pt27  1  0.196152  0.525759  0.456900  1
  Pt  Pt28  1  0.438247  0.378048  0.746662  1
  Pt  Pt29  1  0.938247  0.121952  0.753338  1
  Pt  Pt30  1  0.562314  0.613938  0.249525  1
  Pt  Pt31  1  0.062314  0.886062  0.250475  1
  Pt  Pt32  1  0.666479  0.861412  0.746730  1
  Pt  Pt33  1  0.166479  0.638588  0.753270  1
  Pt  Pt34  1  0.336311  0.143783  0.250286  1
  Pt  Pt35  1  0.836311  0.356217  0.249714  1
