# generated using pymatgen
data_Dy17Er3Pb16
_symmetry_space_group_name_H-M   'P 1'
_cell_length_a   8.19539810
_cell_length_b   8.27607110
_cell_length_c   15.64389400
_cell_angle_alpha   90.00000000
_cell_angle_beta   90.00000000
_cell_angle_gamma   90.01746907
_symmetry_Int_Tables_number   1
_chemical_formula_structural   Dy17Er3Pb16
_chemical_formula_sum   'Dy17 Er3 Pb16'
_cell_volume   1061.05796968
_cell_formula_units_Z   1
loop_
 _symmetry_equiv_pos_site_id
 _symmetry_equiv_pos_as_xyz
  1  'x, y, z'
loop_
 _atom_site_type_symbol
 _atom_site_label
 _atom_site_symmetry_multiplicity
 _atom_site_fract_x
 _atom_site_fract_y
 _atom_site_fract_z
 _atom_site_occupancy
  Dy  Dy0  1  0.377630  0.840587  0.879569  1
  Dy  Dy1  1  0.877335  0.659613  0.620418  1
  Dy  Dy2  1  0.622490  0.159498  0.379543  1
  Dy  Dy3  1  0.122475  0.340508  0.120508  1
  Dy  Dy4  1  0.622490  0.159498  0.120457  1
  Dy  Dy5  1  0.122475  0.340508  0.379492  1
  Dy  Dy6  1  0.377630  0.840587  0.620431  1
  Dy  Dy7  1  0.877335  0.659613  0.879582  1
  Dy  Dy8  1  0.534702  0.323089  0.899960  1
  Dy  Dy9  1  0.034547  0.176725  0.600059  1
  Dy  Dy10  1  0.465373  0.676844  0.399901  1
  Dy  Dy11  1  0.965395  0.823168  0.100060  1
  Dy  Dy12  1  0.465373  0.676844  0.100099  1
  Dy  Dy13  1  0.965395  0.823168  0.399940  1
  Dy  Dy14  1  0.534702  0.323089  0.600040  1
  Dy  Dy15  1  0.034547  0.176725  0.899941  1
  Dy  Dy16  1  0.208668  0.503675  0.750000  1
  Er  Er17  1  0.708819  0.996185  0.750000  1
  Er  Er18  1  0.791177  0.496236  0.250000  1
  Er  Er19  1  0.291190  0.003686  0.250000  1
  Pb  Pb20  1  0.280899  0.032760  0.042869  1
  Pb  Pb21  1  0.780905  0.467292  0.457128  1
  Pb  Pb22  1  0.719093  0.967239  0.542815  1
  Pb  Pb23  1  0.219092  0.532830  0.957477  1
  Pb  Pb24  1  0.719093  0.967239  0.957185  1
  Pb  Pb25  1  0.219092  0.532830  0.542523  1
  Pb  Pb26  1  0.280899  0.032760  0.457131  1
  Pb  Pb27  1  0.780905  0.467292  0.042872  1
  Pb  Pb28  1  0.572871  0.626703  0.750000  1
  Pb  Pb29  1  0.072148  0.873955  0.750000  1
  Pb  Pb30  1  0.427728  0.373657  0.250000  1
  Pb  Pb31  1  0.927750  0.126348  0.250000  1
  Pb  Pb32  1  0.346497  0.152019  0.750000  1
  Pb  Pb33  1  0.845972  0.347081  0.750000  1
  Pb  Pb34  1  0.653671  0.847204  0.250000  1
  Pb  Pb35  1  0.153635  0.652947  0.250000  1
