# generated using pymatgen
data_ThZr7(Si4W3)4
_symmetry_space_group_name_H-M   'P 1'
_cell_length_a   6.67734718
_cell_length_b   6.81807188
_cell_length_c   12.74974565
_cell_angle_alpha   89.83176665
_cell_angle_beta   90.08031823
_cell_angle_gamma   90.07218428
_symmetry_Int_Tables_number   1
_chemical_formula_structural   ThZr7(Si4W3)4
_chemical_formula_sum   'Th1 Zr7 Si16 W12'
_cell_volume   580.44946109
_cell_formula_units_Z   1
loop_
 _symmetry_equiv_pos_site_id
 _symmetry_equiv_pos_as_xyz
  1  'x, y, z'
loop_
 _atom_site_type_symbol
 _atom_site_label
 _atom_site_symmetry_multiplicity
 _atom_site_fract_x
 _atom_site_fract_y
 _atom_site_fract_z
 _atom_site_occupancy
  Th  Th0  1  0.995804  0.831589  0.592132  1
  Zr  Zr1  1  0.494435  0.670420  0.590611  1
  Zr  Zr2  1  0.993352  0.828061  0.908289  1
  Zr  Zr3  1  0.506961  0.327198  0.092862  1
  Zr  Zr4  1  0.007646  0.174244  0.402407  1
  Zr  Zr5  1  0.508111  0.328404  0.403927  1
  Zr  Zr6  1  0.007164  0.172296  0.092760  1
  Zr  Zr7  1  0.493330  0.670900  0.912273  1
  Si  Si8  1  0.662738  0.961129  0.452288  1
  Si  Si9  1  0.166639  0.541256  0.044185  1
  Si  Si10  1  0.331438  0.041049  0.958362  1
  Si  Si11  1  0.830259  0.449544  0.541154  1
  Si  Si12  1  0.343237  0.048618  0.540556  1
  Si  Si13  1  0.833800  0.459054  0.957959  1
  Si  Si14  1  0.666892  0.958699  0.043602  1
  Si  Si15  1  0.170169  0.534830  0.452841  1
  Si  Si16  1  0.467106  0.379667  0.750546  1
  Si  Si17  1  0.963461  0.130011  0.754712  1
  Si  Si18  1  0.532684  0.619614  0.248495  1
  Si  Si19  1  0.033524  0.878380  0.249715  1
  Si  Si20  1  0.689336  0.858311  0.754644  1
  Si  Si21  1  0.205334  0.636569  0.755172  1
  Si  Si22  1  0.301510  0.138887  0.248641  1
  Si  Si23  1  0.799638  0.359699  0.247933  1
  W  W24  1  0.666261  0.163353  0.626608  1
  W  W25  1  0.171289  0.338297  0.878013  1
  W  W26  1  0.330179  0.835717  0.124232  1
  W  W27  1  0.830334  0.661833  0.373493  1
  W  W28  1  0.333749  0.835368  0.374166  1
  W  W29  1  0.831830  0.664266  0.124105  1
  W  W30  1  0.663977  0.165985  0.878097  1
  W  W31  1  0.170875  0.338012  0.624905  1
  W  W32  1  0.833852  0.506106  0.751833  1
  W  W33  1  0.331525  0.996116  0.752117  1
  W  W34  1  0.165566  0.488977  0.248843  1
  W  W35  1  0.665995  0.007538  0.247520  1
