# generated using pymatgen
data_PaCuCl6
_symmetry_space_group_name_H-M   'P 1'
_cell_length_a   6.97015607
_cell_length_b   6.97015643
_cell_length_c   6.46014400
_cell_angle_alpha   82.20544913
_cell_angle_beta   82.20544873
_cell_angle_gamma   116.15810684
_symmetry_Int_Tables_number   1
_chemical_formula_structural   PaCuCl6
_chemical_formula_sum   'Pa1 Cu1 Cl6'
_cell_volume   272.28466942
_cell_formula_units_Z   1
loop_
 _symmetry_equiv_pos_site_id
 _symmetry_equiv_pos_as_xyz
  1  'x, y, z'
loop_
 _atom_site_type_symbol
 _atom_site_label
 _atom_site_symmetry_multiplicity
 _atom_site_fract_x
 _atom_site_fract_y
 _atom_site_fract_z
 _atom_site_occupancy
  Pa  Pa0  1  0.990655  0.009345  0.000000  1
  Cu  Cu1  1  0.906788  0.093212  0.500000  1
  Cl  Cl2  1  0.232669  0.239464  0.239642  1
  Cl  Cl3  1  0.760536  0.767331  0.760358  1
  Cl  Cl4  1  0.001759  0.335936  0.732865  1
  Cl  Cl5  1  0.340062  0.062537  0.772664  1
  Cl  Cl6  1  0.937463  0.659938  0.227336  1
  Cl  Cl7  1  0.664064  0.998241  0.267135  1
