# generated using pymatgen
data_Ac5Ru2Pb
_symmetry_space_group_name_H-M   'P 1'
_cell_length_a   8.39998574
_cell_length_b   8.39998715
_cell_length_c   9.57745510
_cell_angle_alpha   116.01007689
_cell_angle_beta   116.01007810
_cell_angle_gamma   90.00000020
_symmetry_Int_Tables_number   1
_chemical_formula_structural   Ac5Ru2Pb
_chemical_formula_sum   'Ac10 Ru4 Pb2'
_cell_volume   530.12767681
_cell_formula_units_Z   2
loop_
 _symmetry_equiv_pos_site_id
 _symmetry_equiv_pos_as_xyz
  1  'x, y, z'
loop_
 _atom_site_type_symbol
 _atom_site_label
 _atom_site_symmetry_multiplicity
 _atom_site_fract_x
 _atom_site_fract_y
 _atom_site_fract_z
 _atom_site_occupancy
  Ac  Ac0  1  0.500000  0.500000  0.000000  1
  Ac  Ac1  1  0.000000  0.000000  0.000000  1
  Ac  Ac2  1  0.969382  0.787807  0.257190  1
  Ac  Ac3  1  0.287807  0.469382  0.257190  1
  Ac  Ac4  1  0.787807  0.287807  0.257190  1
  Ac  Ac5  1  0.469382  0.969382  0.257190  1
  Ac  Ac6  1  0.030618  0.212193  0.742810  1
  Ac  Ac7  1  0.712193  0.530618  0.742810  1
  Ac  Ac8  1  0.212193  0.712193  0.742810  1
  Ac  Ac9  1  0.530618  0.030618  0.742810  1
  Ru  Ru10  1  0.643880  0.856120  0.000000  1
  Ru  Ru11  1  0.356120  0.143880  0.000000  1
  Ru  Ru12  1  0.856120  0.356120  0.000000  1
  Ru  Ru13  1  0.143880  0.643880  0.000000  1
  Pb  Pb14  1  0.750000  0.750000  0.500000  1
  Pb  Pb15  1  0.250000  0.250000  0.500000  1
