# generated using pymatgen
data_Sr3Y(Tm3Sn4)2
_symmetry_space_group_name_H-M   'P 1'
_cell_length_a   8.01512400
_cell_length_b   8.38826687
_cell_length_c   15.78318857
_cell_angle_alpha   90.22606399
_cell_angle_beta   90.00000000
_cell_angle_gamma   90.00000000
_symmetry_Int_Tables_number   1
_chemical_formula_structural   Sr3Y(Tm3Sn4)2
_chemical_formula_sum   'Sr6 Y2 Tm12 Sn16'
_cell_volume   1061.14284383
_cell_formula_units_Z   2
loop_
 _symmetry_equiv_pos_site_id
 _symmetry_equiv_pos_as_xyz
  1  'x, y, z'
loop_
 _atom_site_type_symbol
 _atom_site_label
 _atom_site_symmetry_multiplicity
 _atom_site_fract_x
 _atom_site_fract_y
 _atom_site_fract_z
 _atom_site_occupancy
  Sr  Sr0  1  0.505826  0.326426  0.904783  1
  Sr  Sr1  1  0.005826  0.173574  0.595217  1
  Sr  Sr2  1  0.499166  0.674842  0.410277  1
  Sr  Sr3  1  0.999166  0.825158  0.089723  1
  Sr  Sr4  1  0.497679  0.677002  0.089555  1
  Sr  Sr5  1  0.997679  0.822998  0.410445  1
  Y  Y6  1  0.501002  0.316770  0.603220  1
  Y  Y7  1  0.001002  0.183230  0.896780  1
  Tm  Tm8  1  0.331454  0.840368  0.871603  1
  Tm  Tm9  1  0.831454  0.659632  0.628397  1
  Tm  Tm10  1  0.664665  0.166142  0.376381  1
  Tm  Tm11  1  0.164665  0.333858  0.123619  1
  Tm  Tm12  1  0.666473  0.161334  0.123334  1
  Tm  Tm13  1  0.166473  0.338666  0.376666  1
  Tm  Tm14  1  0.330731  0.837677  0.628330  1
  Tm  Tm15  1  0.830731  0.662323  0.871670  1
  Tm  Tm16  1  0.169748  0.497582  0.750375  1
  Tm  Tm17  1  0.669748  0.002418  0.749625  1
  Tm  Tm18  1  0.828980  0.502506  0.249574  1
  Tm  Tm19  1  0.328980  0.997494  0.250426  1
  Sn  Sn20  1  0.328195  0.046622  0.037516  1
  Sn  Sn21  1  0.828195  0.453378  0.462484  1
  Sn  Sn22  1  0.664123  0.965879  0.546104  1
  Sn  Sn23  1  0.164123  0.534121  0.953896  1
  Sn  Sn24  1  0.677544  0.963639  0.953138  1
  Sn  Sn25  1  0.177544  0.536361  0.546862  1
  Sn  Sn26  1  0.335771  0.050784  0.462760  1
  Sn  Sn27  1  0.835771  0.449216  0.037240  1
  Sn  Sn28  1  0.528537  0.627734  0.748995  1
  Sn  Sn29  1  0.028537  0.872266  0.751005  1
  Sn  Sn30  1  0.465726  0.368704  0.248675  1
  Sn  Sn31  1  0.965726  0.131296  0.251325  1
  Sn  Sn32  1  0.307938  0.146720  0.750915  1
  Sn  Sn33  1  0.807938  0.353280  0.749085  1
  Sn  Sn34  1  0.696443  0.863778  0.249144  1
  Sn  Sn35  1  0.196443  0.636222  0.250856  1
