# generated using pymatgen
data_TbTm(Al3Ni)6
_symmetry_space_group_name_H-M   'P 1'
_cell_length_a   10.06701140
_cell_length_b   10.06701182
_cell_length_c   10.06701219
_cell_angle_alpha   42.37687524
_cell_angle_beta   42.37686385
_cell_angle_gamma   42.37687118
_symmetry_Int_Tables_number   1
_chemical_formula_structural   TbTm(Al3Ni)6
_chemical_formula_sum   'Tb1 Tm1 Al18 Ni6'
_cell_volume   419.56411305
_cell_formula_units_Z   1
loop_
 _symmetry_equiv_pos_site_id
 _symmetry_equiv_pos_as_xyz
  1  'x, y, z'
loop_
 _atom_site_type_symbol
 _atom_site_label
 _atom_site_symmetry_multiplicity
 _atom_site_fract_x
 _atom_site_fract_y
 _atom_site_fract_z
 _atom_site_occupancy
  Tb  Tb0  1  0.166900  0.166900  0.166900  1
  Tm  Tm1  1  0.833092  0.833092  0.833092  1
  Al  Al2  1  0.102706  0.433120  0.762209  1
  Al  Al3  1  0.433120  0.762209  0.102706  1
  Al  Al4  1  0.568040  0.896716  0.237225  1
  Al  Al5  1  0.947857  0.947857  0.947857  1
  Al  Al6  1  0.052027  0.052027  0.052027  1
  Al  Al7  1  0.291062  0.708037  0.500898  1
  Al  Al8  1  0.896716  0.237225  0.568040  1
  Al  Al9  1  0.387163  0.387163  0.387163  1
  Al  Al10  1  0.500898  0.291062  0.708037  1
  Al  Al11  1  0.237225  0.568040  0.896716  1
  Al  Al12  1  0.718326  0.718326  0.718326  1
  Al  Al13  1  0.612850  0.612850  0.612850  1
  Al  Al14  1  0.334092  0.999952  0.665955  1
  Al  Al15  1  0.708037  0.500898  0.291062  1
  Al  Al16  1  0.665955  0.334092  0.999952  1
  Al  Al17  1  0.281775  0.281775  0.281775  1
  Al  Al18  1  0.999952  0.665955  0.334092  1
  Al  Al19  1  0.762209  0.102706  0.433120  1
  Ni  Ni20  1  0.418737  0.078193  0.758283  1
  Ni  Ni21  1  0.581904  0.241407  0.921474  1
  Ni  Ni22  1  0.078193  0.758283  0.418737  1
  Ni  Ni23  1  0.758283  0.418737  0.078193  1
  Ni  Ni24  1  0.921474  0.581904  0.241407  1
  Ni  Ni25  1  0.241407  0.921474  0.581904  1
