# generated using pymatgen
data_HoSc(ReO4)6
_symmetry_space_group_name_H-M   'P 1'
_cell_length_a   10.36783200
_cell_length_b   10.36783123
_cell_length_c   5.92770900
_cell_angle_alpha   90.00000000
_cell_angle_beta   90.00000000
_cell_angle_gamma   119.99999694
_symmetry_Int_Tables_number   1
_chemical_formula_structural   HoSc(ReO4)6
_chemical_formula_sum   'Ho1 Sc1 Re6 O24'
_cell_volume   551.81485872
_cell_formula_units_Z   1
loop_
 _symmetry_equiv_pos_site_id
 _symmetry_equiv_pos_as_xyz
  1  'x, y, z'
loop_
 _atom_site_type_symbol
 _atom_site_label
 _atom_site_symmetry_multiplicity
 _atom_site_fract_x
 _atom_site_fract_y
 _atom_site_fract_z
 _atom_site_occupancy
  Ho  Ho0  1  0.666667  0.333333  0.750000  1
  Sc  Sc1  1  0.333333  0.666667  0.250000  1
  Re  Re2  1  0.103784  0.408105  0.750000  1
  Re  Re3  1  0.392096  0.300268  0.250000  1
  Re  Re4  1  0.591895  0.695678  0.750000  1
  Re  Re5  1  0.908171  0.607904  0.250000  1
  Re  Re6  1  0.304322  0.896216  0.750000  1
  Re  Re7  1  0.699732  0.091829  0.250000  1
  O  O8  1  0.477950  0.647555  0.506095  1
  O  O9  1  0.352445  0.830395  0.506095  1
  O  O10  1  0.845784  0.734187  0.250000  1
  O  O11  1  0.115128  0.830694  0.750000  1
  O  O12  1  0.265813  0.111597  0.250000  1
  O  O13  1  0.169306  0.284435  0.750000  1
  O  O14  1  0.507777  0.347219  0.009322  1
  O  O15  1  0.888403  0.154216  0.250000  1
  O  O16  1  0.102450  0.702109  0.250000  1
  O  O17  1  0.169605  0.522050  0.993905  1
  O  O18  1  0.169605  0.522050  0.506095  1
  O  O19  1  0.909376  0.309640  0.750000  1
  O  O20  1  0.297891  0.400342  0.250000  1
  O  O21  1  0.690360  0.599736  0.750000  1
  O  O22  1  0.839442  0.492223  0.490678  1
  O  O23  1  0.400264  0.090624  0.750000  1
  O  O24  1  0.652781  0.160558  0.009322  1
  O  O25  1  0.477950  0.647555  0.993905  1
  O  O26  1  0.352445  0.830395  0.993905  1
  O  O27  1  0.652781  0.160558  0.490678  1
  O  O28  1  0.507777  0.347219  0.490678  1
  O  O29  1  0.839442  0.492223  0.009322  1
  O  O30  1  0.715565  0.884872  0.750000  1
  O  O31  1  0.599658  0.897550  0.250000  1
