# generated using pymatgen
data_Ba(CrSe)9
_symmetry_space_group_name_H-M   'P 1'
_cell_length_a   8.92799800
_cell_length_b   8.92799830
_cell_length_c   12.48715700
_cell_angle_alpha   90.00000000
_cell_angle_beta   90.00000000
_cell_angle_gamma   119.99999147
_symmetry_Int_Tables_number   1
_chemical_formula_structural   Ba(CrSe)9
_chemical_formula_sum   'Ba2 Cr18 Se18'
_cell_volume   861.99039081
_cell_formula_units_Z   2
loop_
 _symmetry_equiv_pos_site_id
 _symmetry_equiv_pos_as_xyz
  1  'x, y, z'
loop_
 _atom_site_type_symbol
 _atom_site_label
 _atom_site_symmetry_multiplicity
 _atom_site_fract_x
 _atom_site_fract_y
 _atom_site_fract_z
 _atom_site_occupancy
  Ba  Ba0  1  0.666667  0.333333  0.250000  1
  Ba  Ba1  1  0.333333  0.666667  0.750000  1
  Cr  Cr2  1  0.971693  0.831572  0.250000  1
  Cr  Cr3  1  0.970445  0.829744  0.917655  1
  Cr  Cr4  1  0.970445  0.829744  0.582345  1
  Cr  Cr5  1  0.859878  0.028307  0.250000  1
  Cr  Cr6  1  0.859300  0.029555  0.917655  1
  Cr  Cr7  1  0.859300  0.029555  0.582345  1
  Cr  Cr8  1  0.168428  0.140122  0.250000  1
  Cr  Cr9  1  0.170256  0.140700  0.917655  1
  Cr  Cr10  1  0.170256  0.140700  0.582345  1
  Cr  Cr11  1  0.029555  0.170256  0.417655  1
  Cr  Cr12  1  0.029555  0.170256  0.082345  1
  Cr  Cr13  1  0.028307  0.168428  0.750000  1
  Cr  Cr14  1  0.140700  0.970445  0.417655  1
  Cr  Cr15  1  0.140700  0.970445  0.082345  1
  Cr  Cr16  1  0.140122  0.971693  0.750000  1
  Cr  Cr17  1  0.829744  0.859300  0.417655  1
  Cr  Cr18  1  0.829744  0.859300  0.082345  1
  Cr  Cr19  1  0.831572  0.859878  0.750000  1
  Se  Se20  1  0.287354  0.940527  0.250000  1
  Se  Se21  1  0.286492  0.940839  0.916532  1
  Se  Se22  1  0.286492  0.940839  0.583468  1
  Se  Se23  1  0.653174  0.712646  0.250000  1
  Se  Se24  1  0.654348  0.713508  0.916532  1
  Se  Se25  1  0.654348  0.713508  0.583468  1
  Se  Se26  1  0.059473  0.346826  0.250000  1
  Se  Se27  1  0.059161  0.345652  0.916532  1
  Se  Se28  1  0.059161  0.345652  0.583468  1
  Se  Se29  1  0.713508  0.059161  0.416532  1
  Se  Se30  1  0.713508  0.059161  0.083468  1
  Se  Se31  1  0.712646  0.059473  0.750000  1
  Se  Se32  1  0.345652  0.286492  0.416532  1
  Se  Se33  1  0.345652  0.286492  0.083468  1
  Se  Se34  1  0.346826  0.287354  0.750000  1
  Se  Se35  1  0.940839  0.654348  0.416532  1
  Se  Se36  1  0.940839  0.654348  0.083468  1
  Se  Se37  1  0.940527  0.653174  0.750000  1
