# generated using pymatgen
data_PrVGeO5
_symmetry_space_group_name_H-M   'P 1'
_cell_length_a   5.61552258
_cell_length_b   5.85725313
_cell_length_c   7.20704487
_cell_angle_alpha   105.76419570
_cell_angle_beta   100.19872116
_cell_angle_gamma   107.59803416
_symmetry_Int_Tables_number   1
_chemical_formula_structural   PrVGeO5
_chemical_formula_sum   'Pr2 V2 Ge2 O10'
_cell_volume   208.59717272
_cell_formula_units_Z   2
loop_
 _symmetry_equiv_pos_site_id
 _symmetry_equiv_pos_as_xyz
  1  'x, y, z'
loop_
 _atom_site_type_symbol
 _atom_site_label
 _atom_site_symmetry_multiplicity
 _atom_site_fract_x
 _atom_site_fract_y
 _atom_site_fract_z
 _atom_site_occupancy
  Pr  Pr0  1  0.653110  0.806589  0.284905  1
  Pr  Pr1  1  0.346881  0.193413  0.715092  1
  V  V2  1  0.000013  0.500024  0.000005  1
  V  V3  1  0.000012  0.499977  0.500005  1
  Ge  Ge4  1  0.309577  0.167110  0.234181  1
  Ge  Ge5  1  0.690422  0.832884  0.765823  1
  O  O6  1  0.280994  0.858857  0.088330  1
  O  O7  1  0.312958  0.368664  0.089947  1
  O  O8  1  0.921573  0.576956  0.257271  1
  O  O9  1  0.068124  0.161340  0.366489  1
  O  O10  1  0.595693  0.255506  0.439947  1
  O  O11  1  0.404308  0.744494  0.560057  1
  O  O12  1  0.931868  0.838659  0.633511  1
  O  O13  1  0.078420  0.423042  0.742712  1
  O  O14  1  0.687042  0.631339  0.910057  1
  O  O15  1  0.719003  0.141146  0.911670  1
