# generated using pymatgen
data_Dy3Y2Er3(Si3Rh)4
_symmetry_space_group_name_H-M   'P 1'
_cell_length_a   8.15648600
_cell_length_b   8.15648543
_cell_length_c   7.87836800
_cell_angle_alpha   90.00000000
_cell_angle_beta   90.00000000
_cell_angle_gamma   119.99999420
_symmetry_Int_Tables_number   1
_chemical_formula_structural   Dy3Y2Er3(Si3Rh)4
_chemical_formula_sum   'Dy3 Y2 Er3 Si12 Rh4'
_cell_volume   453.91347945
_cell_formula_units_Z   1
loop_
 _symmetry_equiv_pos_site_id
 _symmetry_equiv_pos_as_xyz
  1  'x, y, z'
loop_
 _atom_site_type_symbol
 _atom_site_label
 _atom_site_symmetry_multiplicity
 _atom_site_fract_x
 _atom_site_fract_y
 _atom_site_fract_z
 _atom_site_occupancy
  Dy  Dy0  1  0.491230  0.508770  0.750000  1
  Dy  Dy1  1  0.491230  0.982461  0.750000  1
  Dy  Dy2  1  0.017539  0.508770  0.750000  1
  Y  Y3  1  0.000000  0.000000  0.250000  1
  Y  Y4  1  0.000000  0.000000  0.750000  1
  Er  Er5  1  0.508825  0.491175  0.250000  1
  Er  Er6  1  0.508825  0.017650  0.250000  1
  Er  Er7  1  0.982350  0.491175  0.250000  1
  Si  Si8  1  0.167194  0.832806  0.499020  1
  Si  Si9  1  0.167194  0.334388  0.499020  1
  Si  Si10  1  0.665612  0.832806  0.499020  1
  Si  Si11  1  0.832906  0.167094  0.498867  1
  Si  Si12  1  0.832906  0.665811  0.498867  1
  Si  Si13  1  0.334189  0.167094  0.498867  1
  Si  Si14  1  0.832906  0.167094  0.001133  1
  Si  Si15  1  0.832906  0.665811  0.001133  1
  Si  Si16  1  0.334189  0.167094  0.001133  1
  Si  Si17  1  0.167194  0.832806  0.000980  1
  Si  Si18  1  0.167194  0.334388  0.000980  1
  Si  Si19  1  0.665612  0.832806  0.000980  1
  Rh  Rh20  1  0.333333  0.666667  0.463608  1
  Rh  Rh21  1  0.666667  0.333333  0.531350  1
  Rh  Rh22  1  0.666667  0.333333  0.968650  1
  Rh  Rh23  1  0.333333  0.666667  0.036392  1
