# generated using pymatgen
data_Tb2As4O9
_symmetry_space_group_name_H-M   'P 1'
_cell_length_a   6.78157887
_cell_length_b   7.58152752
_cell_length_c   9.83198301
_cell_angle_alpha   95.00098978
_cell_angle_beta   104.11576356
_cell_angle_gamma   104.73219997
_symmetry_Int_Tables_number   1
_chemical_formula_structural   Tb2As4O9
_chemical_formula_sum   'Tb4 As8 O18'
_cell_volume   468.09136428
_cell_formula_units_Z   2
loop_
 _symmetry_equiv_pos_site_id
 _symmetry_equiv_pos_as_xyz
  1  'x, y, z'
loop_
 _atom_site_type_symbol
 _atom_site_label
 _atom_site_symmetry_multiplicity
 _atom_site_fract_x
 _atom_site_fract_y
 _atom_site_fract_z
 _atom_site_occupancy
  Tb  Tb0  1  0.245260  0.939301  0.615459  1
  Tb  Tb1  1  0.754740  0.060699  0.384541  1
  Tb  Tb2  1  0.721206  0.530524  0.408908  1
  Tb  Tb3  1  0.278794  0.469476  0.591092  1
  As  As4  1  0.681078  0.775073  0.076556  1
  As  As5  1  0.318922  0.224927  0.923444  1
  As  As6  1  0.172530  0.752848  0.912938  1
  As  As7  1  0.827470  0.247152  0.087062  1
  As  As8  1  0.745690  0.915567  0.709512  1
  As  As9  1  0.254310  0.084433  0.290488  1
  As  As10  1  0.809170  0.350485  0.701630  1
  As  As11  1  0.190830  0.649515  0.298370  1
  O  O12  1  0.724241  0.750467  0.257059  1
  O  O13  1  0.275759  0.249533  0.742941  1
  O  O14  1  0.315797  0.978861  0.871452  1
  O  O15  1  0.684203  0.021139  0.128548  1
  O  O16  1  0.607661  0.323705  0.985219  1
  O  O17  1  0.392339  0.676295  0.014781  1
  O  O18  1  0.129678  0.648429  0.737832  1
  O  O19  1  0.870322  0.351571  0.262168  1
  O  O20  1  0.846957  0.873855  0.559161  1
  O  O21  1  0.153043  0.126145  0.440839  1
  O  O22  1  0.486146  0.769312  0.667208  1
  O  O23  1  0.513854  0.230688  0.332792  1
  O  O24  1  0.372691  0.535117  0.378779  1
  O  O25  1  0.627309  0.464883  0.621221  1
  O  O26  1  0.090051  0.668917  0.453111  1
  O  O27  1  0.909949  0.331083  0.546889  1
  O  O28  1  0.373623  0.899247  0.359111  1
  O  O29  1  0.626377  0.100753  0.640889  1
