# generated using pymatgen
data_Dy5Er11Cd4(NiRu)2
_symmetry_space_group_name_H-M   'P 1'
_cell_length_a   9.53244559
_cell_length_b   9.53318133
_cell_length_c   9.58121011
_cell_angle_alpha   59.60487647
_cell_angle_beta   59.61329805
_cell_angle_gamma   59.43501232
_symmetry_Int_Tables_number   1
_chemical_formula_structural   Dy5Er11Cd4(NiRu)2
_chemical_formula_sum   'Dy5 Er11 Cd4 Ni2 Ru2'
_cell_volume   609.38151340
_cell_formula_units_Z   1
loop_
 _symmetry_equiv_pos_site_id
 _symmetry_equiv_pos_as_xyz
  1  'x, y, z'
loop_
 _atom_site_type_symbol
 _atom_site_label
 _atom_site_symmetry_multiplicity
 _atom_site_fract_x
 _atom_site_fract_y
 _atom_site_fract_z
 _atom_site_occupancy
  Dy  Dy0  1  0.808624  0.187941  0.187821  1
  Dy  Dy1  1  0.809211  0.188168  0.816079  1
  Dy  Dy2  1  0.188153  0.808635  0.187346  1
  Dy  Dy3  1  0.814843  0.814369  0.186959  1
  Dy  Dy4  1  0.190444  0.190124  0.810165  1
  Er  Er5  1  0.598160  0.598438  0.594080  1
  Er  Er6  1  0.599928  0.600103  0.207438  1
  Er  Er7  1  0.601587  0.206682  0.597235  1
  Er  Er8  1  0.206307  0.601972  0.597364  1
  Er  Er9  1  0.060890  0.436506  0.438390  1
  Er  Er10  1  0.435826  0.062684  0.062399  1
  Er  Er11  1  0.436290  0.060795  0.438833  1
  Er  Er12  1  0.062763  0.436020  0.062258  1
  Er  Er13  1  0.437121  0.437542  0.061359  1
  Er  Er14  1  0.061718  0.061296  0.437989  1
  Er  Er15  1  0.188602  0.808871  0.815934  1
  Cd  Cd16  1  0.829513  0.828828  0.831280  1
  Cd  Cd17  1  0.829583  0.829611  0.508267  1
  Cd  Cd18  1  0.829403  0.507279  0.830960  1
  Cd  Cd19  1  0.506730  0.829475  0.830943  1
  Ni  Ni20  1  0.392420  0.825619  0.391924  1
  Ni  Ni21  1  0.825679  0.392493  0.391550  1
  Ru  Ru22  1  0.393036  0.393038  0.389695  1
  Ru  Ru23  1  0.393167  0.393509  0.823731  1
