# generated using pymatgen
data_Lu4Al4IrRuPt2
_symmetry_space_group_name_H-M   'P 1'
_cell_length_a   4.24218800
_cell_length_b   6.74722045
_cell_length_c   7.87210951
_cell_angle_alpha   90.04161355
_cell_angle_beta   90.00000000
_cell_angle_gamma   90.00000000
_symmetry_Int_Tables_number   1
_chemical_formula_structural   Lu4Al4IrRuPt2
_chemical_formula_sum   'Lu4 Al4 Ir1 Ru1 Pt2'
_cell_volume   225.32315504
_cell_formula_units_Z   1
loop_
 _symmetry_equiv_pos_site_id
 _symmetry_equiv_pos_as_xyz
  1  'x, y, z'
loop_
 _atom_site_type_symbol
 _atom_site_label
 _atom_site_symmetry_multiplicity
 _atom_site_fract_x
 _atom_site_fract_y
 _atom_site_fract_z
 _atom_site_occupancy
  Lu  Lu0  1  0.250000  0.034499  0.676220  1
  Lu  Lu1  1  0.250000  0.535175  0.825061  1
  Lu  Lu2  1  0.750000  0.968767  0.320223  1
  Lu  Lu3  1  0.750000  0.471108  0.177328  1
  Al  Al4  1  0.250000  0.137193  0.061810  1
  Al  Al5  1  0.250000  0.637505  0.439427  1
  Al  Al6  1  0.750000  0.859145  0.944316  1
  Al  Al7  1  0.750000  0.359373  0.557230  1
  Ir  Ir8  1  0.250000  0.264823  0.377093  1
  Ru  Ru9  1  0.250000  0.761745  0.122657  1
  Pt  Pt10  1  0.750000  0.735128  0.625613  1
  Pt  Pt11  1  0.750000  0.235541  0.873022  1
