# generated using pymatgen
data_TbTm3(B4Mo)4
_symmetry_space_group_name_H-M   'P 1'
_cell_length_a   3.60794000
_cell_length_b   6.00895568
_cell_length_c   11.61274233
_cell_angle_alpha   90.05472922
_cell_angle_beta   90.00000000
_cell_angle_gamma   90.00000000
_symmetry_Int_Tables_number   1
_chemical_formula_structural   TbTm3(B4Mo)4
_chemical_formula_sum   'Tb1 Tm3 B16 Mo4'
_cell_volume   251.76357639
_cell_formula_units_Z   1
loop_
 _symmetry_equiv_pos_site_id
 _symmetry_equiv_pos_as_xyz
  1  'x, y, z'
loop_
 _atom_site_type_symbol
 _atom_site_label
 _atom_site_symmetry_multiplicity
 _atom_site_fract_x
 _atom_site_fract_y
 _atom_site_fract_z
 _atom_site_occupancy
  Tb  Tb0  1  0.000000  0.873064  0.850033  1
  Tm  Tm1  1  0.000000  0.626942  0.350345  1
  Tm  Tm2  1  0.000000  0.373016  0.649474  1
  Tm  Tm3  1  0.000000  0.127034  0.149776  1
  B  B4  1  0.500000  0.787489  0.186900  1
  B  B5  1  0.500000  0.213931  0.813087  1
  B  B6  1  0.500000  0.287521  0.313340  1
  B  B7  1  0.500000  0.712121  0.685893  1
  B  B8  1  0.500000  0.867327  0.032666  1
  B  B9  1  0.500000  0.133120  0.968715  1
  B  B10  1  0.500000  0.367570  0.467989  1
  B  B11  1  0.500000  0.632304  0.531695  1
  B  B12  1  0.500000  0.885063  0.451984  1
  B  B13  1  0.500000  0.115137  0.547627  1
  B  B14  1  0.500000  0.384839  0.048291  1
  B  B15  1  0.500000  0.613597  0.952886  1
  B  B16  1  0.500000  0.975919  0.305857  1
  B  B17  1  0.500000  0.025001  0.693165  1
  B  B18  1  0.500000  0.475883  0.194316  1
  B  B19  1  0.500000  0.523245  0.805885  1
  Mo  Mo20  1  0.000000  0.629948  0.084557  1
  Mo  Mo21  1  0.000000  0.369819  0.916255  1
  Mo  Mo22  1  0.000000  0.130331  0.415798  1
  Mo  Mo23  1  0.000000  0.869778  0.583466  1
