# generated using pymatgen
data_Tb4Al4IrPd3
_symmetry_space_group_name_H-M   'P 1'
_cell_length_a   4.44614200
_cell_length_b   6.90298753
_cell_length_c   7.83558605
_cell_angle_alpha   90.13071857
_cell_angle_beta   90.00000000
_cell_angle_gamma   90.00000000
_symmetry_Int_Tables_number   1
_chemical_formula_structural   Tb4Al4IrPd3
_chemical_formula_sum   'Tb4 Al4 Ir1 Pd3'
_cell_volume   240.48653901
_cell_formula_units_Z   1
loop_
 _symmetry_equiv_pos_site_id
 _symmetry_equiv_pos_as_xyz
  1  'x, y, z'
loop_
 _atom_site_type_symbol
 _atom_site_label
 _atom_site_symmetry_multiplicity
 _atom_site_fract_x
 _atom_site_fract_y
 _atom_site_fract_z
 _atom_site_occupancy
  Tb  Tb0  1  0.250000  0.536882  0.816050  1
  Tb  Tb1  1  0.750000  0.467211  0.181049  1
  Tb  Tb2  1  0.250000  0.023736  0.680091  1
  Tb  Tb3  1  0.750000  0.963399  0.321319  1
  Al  Al4  1  0.250000  0.646485  0.439982  1
  Al  Al5  1  0.750000  0.360803  0.563605  1
  Al  Al6  1  0.250000  0.144803  0.061456  1
  Al  Al7  1  0.750000  0.853078  0.934202  1
  Ir  Ir8  1  0.750000  0.730295  0.618032  1
  Pd  Pd9  1  0.250000  0.273187  0.382213  1
  Pd  Pd10  1  0.750000  0.226354  0.883630  1
  Pd  Pd11  1  0.250000  0.773767  0.118372  1
