# generated using pymatgen
data_Ta6Zn5SbRu12
_symmetry_space_group_name_H-M   'P 1'
_cell_length_a   4.40864700
_cell_length_b   6.24082400
_cell_length_c   13.18379000
_cell_angle_alpha   90.00000000
_cell_angle_beta   89.99744867
_cell_angle_gamma   90.00000000
_symmetry_Int_Tables_number   1
_chemical_formula_structural   Ta6Zn5SbRu12
_chemical_formula_sum   'Ta6 Zn5 Sb1 Ru12'
_cell_volume   362.73339259
_cell_formula_units_Z   1
loop_
 _symmetry_equiv_pos_site_id
 _symmetry_equiv_pos_as_xyz
  1  'x, y, z'
loop_
 _atom_site_type_symbol
 _atom_site_label
 _atom_site_symmetry_multiplicity
 _atom_site_fract_x
 _atom_site_fract_y
 _atom_site_fract_z
 _atom_site_occupancy
  Ta  Ta0  1  0.000000  0.500000  0.000000  1
  Ta  Ta1  1  0.499827  0.000000  0.175709  1
  Ta  Ta2  1  0.999824  0.500000  0.336857  1
  Ta  Ta3  1  0.499999  0.000000  0.500000  1
  Ta  Ta4  1  0.000177  0.500000  0.663144  1
  Ta  Ta5  1  0.500171  0.000000  0.824291  1
  Zn  Zn6  1  0.499793  0.500000  0.167295  1
  Zn  Zn7  1  0.999811  0.000000  0.333776  1
  Zn  Zn8  1  0.499999  0.500000  0.500000  1
  Zn  Zn9  1  0.000189  0.000000  0.666223  1
  Zn  Zn10  1  0.500207  0.500000  0.832705  1
  Sb  Sb11  1  0.000000  0.000000  0.000000  1
  Ru  Ru12  1  0.499999  0.252526  0.000000  1
  Ru  Ru13  1  0.499999  0.747473  0.000000  1
  Ru  Ru14  1  0.999819  0.251723  0.168061  1
  Ru  Ru15  1  0.999819  0.748276  0.168061  1
  Ru  Ru16  1  0.499826  0.251254  0.333963  1
  Ru  Ru17  1  0.499826  0.748747  0.333963  1
  Ru  Ru18  1  0.000000  0.248818  0.500000  1
  Ru  Ru19  1  0.000000  0.751183  0.500000  1
  Ru  Ru20  1  0.500172  0.251254  0.666038  1
  Ru  Ru21  1  0.500172  0.748747  0.666038  1
  Ru  Ru22  1  0.000182  0.251723  0.831939  1
  Ru  Ru23  1  0.000182  0.748276  0.831939  1
