# generated using pymatgen
data_Nd2Al20Os3Rh
_symmetry_space_group_name_H-M   'P 1'
_cell_length_a   6.89434767
_cell_length_b   6.89842172
_cell_length_c   9.21291334
_cell_angle_alpha   90.25290471
_cell_angle_beta   90.12821931
_cell_angle_gamma   96.72654779
_symmetry_Int_Tables_number   1
_chemical_formula_structural   Nd2Al20Os3Rh
_chemical_formula_sum   'Nd2 Al20 Os3 Rh1'
_cell_volume   435.14519851
_cell_formula_units_Z   1
loop_
 _symmetry_equiv_pos_site_id
 _symmetry_equiv_pos_as_xyz
  1  'x, y, z'
loop_
 _atom_site_type_symbol
 _atom_site_label
 _atom_site_symmetry_multiplicity
 _atom_site_fract_x
 _atom_site_fract_y
 _atom_site_fract_z
 _atom_site_occupancy
  Nd  Nd0  1  0.872663  0.125355  0.750176  1
  Nd  Nd1  1  0.127337  0.874645  0.249824  1
  Al  Al2  1  0.620419  0.376803  0.550731  1
  Al  Al3  1  0.379581  0.623197  0.449269  1
  Al  Al4  1  0.377534  0.622895  0.049520  1
  Al  Al5  1  0.622466  0.377105  0.950480  1
  Al  Al6  1  0.226911  0.225758  0.499529  1
  Al  Al7  1  0.773089  0.774242  0.500471  1
  Al  Al8  1  0.774756  0.775115  0.999710  1
  Al  Al9  1  0.225244  0.224885  0.000290  1
  Al  Al10  1  0.840791  0.159573  0.101956  1
  Al  Al11  1  0.159209  0.840427  0.898044  1
  Al  Al12  1  0.160298  0.841106  0.603461  1
  Al  Al13  1  0.839702  0.158894  0.396539  1
  Al  Al14  1  0.856049  0.587941  0.750240  1
  Al  Al15  1  0.143951  0.412059  0.249760  1
  Al  Al16  1  0.411998  0.142995  0.750215  1
  Al  Al17  1  0.588002  0.857005  0.249785  1
  Al  Al18  1  0.220981  0.483253  0.751625  1
  Al  Al19  1  0.779019  0.516747  0.248375  1
  Al  Al20  1  0.516761  0.780909  0.749523  1
  Al  Al21  1  0.483239  0.219091  0.250477  1
  Os  Os22  1  0.000000  0.500000  0.000000  1
  Os  Os23  1  0.500000  0.000000  0.000000  1
  Os  Os24  1  0.500000  0.000000  0.500000  1
  Rh  Rh25  1  0.000000  0.500000  0.500000  1
