# generated using pymatgen
data_YHg(Pd2Au)2
_symmetry_space_group_name_H-M   'P 1'
_cell_length_a   6.01330613
_cell_length_b   6.02397910
_cell_length_c   7.90041100
_cell_angle_alpha   89.99846755
_cell_angle_beta   90.00060347
_cell_angle_gamma   89.97749423
_symmetry_Int_Tables_number   1
_chemical_formula_structural   YHg(Pd2Au)2
_chemical_formula_sum   'Y2 Hg2 Pd8 Au4'
_cell_volume   286.18470663
_cell_formula_units_Z   2
loop_
 _symmetry_equiv_pos_site_id
 _symmetry_equiv_pos_as_xyz
  1  'x, y, z'
loop_
 _atom_site_type_symbol
 _atom_site_label
 _atom_site_symmetry_multiplicity
 _atom_site_fract_x
 _atom_site_fract_y
 _atom_site_fract_z
 _atom_site_occupancy
  Y  Y0  1  0.249904  0.250011  0.000003  1
  Y  Y1  1  0.750096  0.749989  0.999997  1
  Hg  Hg2  1  0.749812  0.750057  0.500000  1
  Hg  Hg3  1  0.250189  0.249943  0.500000  1
  Pd  Pd4  1  0.500086  0.000078  0.252456  1
  Pd  Pd5  1  0.500054  0.500044  0.252236  1
  Pd  Pd6  1  0.000024  0.000020  0.252302  1
  Pd  Pd7  1  0.000067  0.500080  0.252562  1
  Pd  Pd8  1  0.999976  0.999980  0.747698  1
  Pd  Pd9  1  0.999933  0.499920  0.747438  1
  Pd  Pd10  1  0.499914  0.999922  0.747544  1
  Pd  Pd11  1  0.499946  0.499956  0.747764  1
  Au  Au12  1  0.749872  0.249967  0.000018  1
  Au  Au13  1  0.250126  0.750033  0.999982  1
  Au  Au14  1  0.749850  0.249994  0.499989  1
  Au  Au15  1  0.250150  0.750006  0.500012  1
