# generated using pymatgen
data_Pr8Cu3Si12Rh
_symmetry_space_group_name_H-M   'P 1'
_cell_length_a   8.18411100
_cell_length_b   8.18409973
_cell_length_c   8.63368400
_cell_angle_alpha   90.00004091
_cell_angle_beta   89.99991818
_cell_angle_gamma   120.00010185
_symmetry_Int_Tables_number   1
_chemical_formula_structural   Pr8Cu3Si12Rh
_chemical_formula_sum   'Pr8 Cu3 Si12 Rh1'
_cell_volume   500.80511866
_cell_formula_units_Z   1
loop_
 _symmetry_equiv_pos_site_id
 _symmetry_equiv_pos_as_xyz
  1  'x, y, z'
loop_
 _atom_site_type_symbol
 _atom_site_label
 _atom_site_symmetry_multiplicity
 _atom_site_fract_x
 _atom_site_fract_y
 _atom_site_fract_z
 _atom_site_occupancy
  Pr  Pr0  1  0.000000  0.000000  0.750096  1
  Pr  Pr1  1  0.000000  0.000000  0.249963  1
  Pr  Pr2  1  0.499125  0.500875  0.751567  1
  Pr  Pr3  1  0.499126  0.998252  0.751567  1
  Pr  Pr4  1  0.001748  0.500875  0.751567  1
  Pr  Pr5  1  0.500090  0.499910  0.248455  1
  Pr  Pr6  1  0.999818  0.499909  0.248455  1
  Pr  Pr7  1  0.500091  0.000181  0.248455  1
  Cu  Cu8  1  0.666668  0.333334  0.997667  1
  Cu  Cu9  1  0.666667  0.333334  0.502428  1
  Cu  Cu10  1  0.333332  0.666667  0.497843  1
  Si  Si11  1  0.832611  0.167389  0.999426  1
  Si  Si12  1  0.832611  0.665221  0.999426  1
  Si  Si13  1  0.334779  0.167389  0.999426  1
  Si  Si14  1  0.831206  0.168794  0.500472  1
  Si  Si15  1  0.831206  0.662412  0.500472  1
  Si  Si16  1  0.337588  0.168794  0.500472  1
  Si  Si17  1  0.168944  0.831055  0.499556  1
  Si  Si18  1  0.662111  0.831055  0.499556  1
  Si  Si19  1  0.168944  0.337889  0.499557  1
  Si  Si20  1  0.168297  0.831703  0.000673  1
  Si  Si21  1  0.663406  0.831703  0.000673  1
  Si  Si22  1  0.168297  0.336594  0.000673  1
  Rh  Rh23  1  0.333333  0.666667  0.001553  1
