# generated using pymatgen
data_Dy7Tm9In4(PdRh)2
_symmetry_space_group_name_H-M   'P 1'
_cell_length_a   9.58987436
_cell_length_b   9.58987297
_cell_length_c   9.57962900
_cell_angle_alpha   60.03532628
_cell_angle_beta   60.03533105
_cell_angle_gamma   60.15607404
_symmetry_Int_Tables_number   1
_chemical_formula_structural   Dy7Tm9In4(PdRh)2
_chemical_formula_sum   'Dy7 Tm9 In4 Pd2 Rh2'
_cell_volume   624.02409889
_cell_formula_units_Z   1
loop_
 _symmetry_equiv_pos_site_id
 _symmetry_equiv_pos_as_xyz
  1  'x, y, z'
loop_
 _atom_site_type_symbol
 _atom_site_label
 _atom_site_symmetry_multiplicity
 _atom_site_fract_x
 _atom_site_fract_y
 _atom_site_fract_z
 _atom_site_occupancy
  Dy  Dy0  1  0.060430  0.060430  0.439570  1
  Dy  Dy1  1  0.188753  0.810290  0.812822  1
  Dy  Dy2  1  0.810290  0.188753  0.188132  1
  Dy  Dy3  1  0.810290  0.188753  0.812822  1
  Dy  Dy4  1  0.188753  0.810290  0.188132  1
  Dy  Dy5  1  0.811830  0.811830  0.188170  1
  Dy  Dy6  1  0.189233  0.189233  0.810767  1
  Tm  Tm7  1  0.598079  0.598079  0.604059  1
  Tm  Tm8  1  0.598079  0.598079  0.199783  1
  Tm  Tm9  1  0.595630  0.202142  0.601113  1
  Tm  Tm10  1  0.202142  0.595630  0.601113  1
  Tm  Tm11  1  0.064463  0.439775  0.438757  1
  Tm  Tm12  1  0.439775  0.064463  0.057005  1
  Tm  Tm13  1  0.439775  0.064463  0.438757  1
  Tm  Tm14  1  0.064463  0.439775  0.057005  1
  Tm  Tm15  1  0.438164  0.438164  0.061836  1
  In  In16  1  0.832513  0.832513  0.833149  1
  In  In17  1  0.832513  0.832513  0.501826  1
  In  In18  1  0.832321  0.502652  0.832513  1
  In  In19  1  0.502652  0.832321  0.832513  1
  Pd  Pd20  1  0.394238  0.821721  0.392022  1
  Pd  Pd21  1  0.821721  0.394238  0.392022  1
  Rh  Rh22  1  0.391946  0.391946  0.393169  1
  Rh  Rh23  1  0.391946  0.391946  0.822941  1
