# generated using pymatgen
data_Tb4DyHo3(SiBr6)2
_symmetry_space_group_name_H-M   'P 1'
_cell_length_a   4.05813200
_cell_length_b   13.24817224
_cell_length_c   14.02667926
_cell_angle_alpha   90.02198530
_cell_angle_beta   90.00000000
_cell_angle_gamma   90.00000000
_symmetry_Int_Tables_number   1
_chemical_formula_structural   Tb4DyHo3(SiBr6)2
_chemical_formula_sum   'Tb4 Dy1 Ho3 Si2 Br12'
_cell_volume   754.11394109
_cell_formula_units_Z   1
loop_
 _symmetry_equiv_pos_site_id
 _symmetry_equiv_pos_as_xyz
  1  'x, y, z'
loop_
 _atom_site_type_symbol
 _atom_site_label
 _atom_site_symmetry_multiplicity
 _atom_site_fract_x
 _atom_site_fract_y
 _atom_site_fract_z
 _atom_site_occupancy
  Tb  Tb0  1  0.000000  0.118639  0.578859  1
  Tb  Tb1  1  0.000000  0.881370  0.421115  1
  Tb  Tb2  1  0.000000  0.618584  0.921167  1
  Tb  Tb3  1  0.000000  0.381445  0.078805  1
  Dy  Dy4  1  0.500000  0.117822  0.341502  1
  Ho  Ho5  1  0.500000  0.882217  0.658465  1
  Ho  Ho6  1  0.500000  0.617693  0.158345  1
  Ho  Ho7  1  0.500000  0.382304  0.841642  1
  Si  Si8  1  0.500000  0.999771  0.500306  1
  Si  Si9  1  0.500000  0.500003  0.999993  1
  Br  Br10  1  0.500000  0.243094  0.163809  1
  Br  Br11  1  0.500000  0.757174  0.835815  1
  Br  Br12  1  0.500000  0.742756  0.335789  1
  Br  Br13  1  0.500000  0.257216  0.664245  1
  Br  Br14  1  0.000000  0.255103  0.410162  1
  Br  Br15  1  0.000000  0.745486  0.590317  1
  Br  Br16  1  0.000000  0.754443  0.090338  1
  Br  Br17  1  0.000000  0.245551  0.909650  1
  Br  Br18  1  0.000000  0.003089  0.242812  1
  Br  Br19  1  0.000000  0.996247  0.756861  1
  Br  Br20  1  0.000000  0.503793  0.256833  1
  Br  Br21  1  0.000000  0.496197  0.743168  1
