# generated using pymatgen
data_KAsPIrRu
_symmetry_space_group_name_H-M   'P 1'
_cell_length_a   7.21273538
_cell_length_b   7.21273588
_cell_length_c   7.21273553
_cell_angle_alpha   147.55626023
_cell_angle_beta   147.57941594
_cell_angle_gamma   46.52373689
_symmetry_Int_Tables_number   1
_chemical_formula_structural   KAsPIrRu
_chemical_formula_sum   'K1 As1 P1 Ir1 Ru1'
_cell_volume   107.53690326
_cell_formula_units_Z   1
loop_
 _symmetry_equiv_pos_site_id
 _symmetry_equiv_pos_as_xyz
  1  'x, y, z'
loop_
 _atom_site_type_symbol
 _atom_site_label
 _atom_site_symmetry_multiplicity
 _atom_site_fract_x
 _atom_site_fract_y
 _atom_site_fract_z
 _atom_site_occupancy
  K  K0  1  0.004459  0.004459  0.000000  1
  As  As1  1  0.351113  0.351113  0.000000  1
  P  P2  1  0.655933  0.655933  0.000000  1
  Ir  Ir3  1  0.244300  0.744300  0.500000  1
  Ru  Ru4  1  0.744193  0.244193  0.500000  1
