# generated using pymatgen
data_Sc3Al3Hg2Au
_symmetry_space_group_name_H-M   'P 1'
_cell_length_a   7.05008500
_cell_length_b   7.05008550
_cell_length_c   8.28292700
_cell_angle_alpha   90.00000000
_cell_angle_beta   90.00000000
_cell_angle_gamma   120.00000234
_symmetry_Int_Tables_number   1
_chemical_formula_structural   Sc3Al3Hg2Au
_chemical_formula_sum   'Sc6 Al6 Hg4 Au2'
_cell_volume   356.53583965
_cell_formula_units_Z   2
loop_
 _symmetry_equiv_pos_site_id
 _symmetry_equiv_pos_as_xyz
  1  'x, y, z'
loop_
 _atom_site_type_symbol
 _atom_site_label
 _atom_site_symmetry_multiplicity
 _atom_site_fract_x
 _atom_site_fract_y
 _atom_site_fract_z
 _atom_site_occupancy
  Sc  Sc0  1  0.586938  0.999107  0.750000  1
  Sc  Sc1  1  0.000893  0.587830  0.750000  1
  Sc  Sc2  1  0.412170  0.413062  0.750000  1
  Sc  Sc3  1  0.999107  0.586938  0.250000  1
  Sc  Sc4  1  0.587830  0.000893  0.250000  1
  Sc  Sc5  1  0.413062  0.412170  0.250000  1
  Al  Al6  1  0.759752  0.759752  0.000000  1
  Al  Al7  1  0.240248  0.000000  0.000000  1
  Al  Al8  1  0.000000  0.240248  0.000000  1
  Al  Al9  1  0.759752  0.759752  0.500000  1
  Al  Al10  1  0.240248  0.000000  0.500000  1
  Al  Al11  1  0.000000  0.240248  0.500000  1
  Hg  Hg12  1  0.666667  0.333333  0.998259  1
  Hg  Hg13  1  0.666667  0.333333  0.501741  1
  Hg  Hg14  1  0.333333  0.666667  0.498259  1
  Hg  Hg15  1  0.333333  0.666667  0.001741  1
  Au  Au16  1  0.000000  0.000000  0.750000  1
  Au  Au17  1  0.000000  0.000000  0.250000  1
