# generated using pymatgen
data_NaTi2Nb(Co4P3)2
_symmetry_space_group_name_H-M   'P 1'
_cell_length_a   11.92804900
_cell_length_b   11.93891256
_cell_length_c   3.57485700
_cell_angle_alpha   90.00000000
_cell_angle_beta   90.00000000
_cell_angle_gamma   119.96990158
_symmetry_Int_Tables_number   1
_chemical_formula_structural   NaTi2Nb(Co4P3)2
_chemical_formula_sum   'Na2 Ti4 Nb2 Co16 P12'
_cell_volume   441.01679601
_cell_formula_units_Z   2
loop_
 _symmetry_equiv_pos_site_id
 _symmetry_equiv_pos_as_xyz
  1  'x, y, z'
loop_
 _atom_site_type_symbol
 _atom_site_label
 _atom_site_symmetry_multiplicity
 _atom_site_fract_x
 _atom_site_fract_y
 _atom_site_fract_z
 _atom_site_occupancy
  Na  Na0  1  0.333382  0.666613  0.000000  1
  Na  Na1  1  0.666769  0.333387  0.000000  1
  Ti  Ti2  1  0.820524  0.000000  0.500000  1
  Ti  Ti3  1  0.443960  0.000000  0.000000  1
  Ti  Ti4  1  0.000133  0.442400  0.000000  1
  Ti  Ti5  1  0.557733  0.557600  0.000000  1
  Nb  Nb6  1  0.999211  0.818141  0.500000  1
  Nb  Nb7  1  0.181070  0.181859  0.500000  1
  Co  Co8  1  0.277973  0.000000  0.500000  1
  Co  Co9  1  0.000503  0.278479  0.500000  1
  Co  Co10  1  0.722024  0.721521  0.500000  1
  Co  Co11  1  0.632328  0.806424  0.000000  1
  Co  Co12  1  0.193465  0.826563  0.000000  1
  Co  Co13  1  0.173089  0.366455  0.000000  1
  Co  Co14  1  0.366902  0.173437  0.000000  1
  Co  Co15  1  0.806634  0.633545  0.000000  1
  Co  Co16  1  0.825904  0.193576  0.000000  1
  Co  Co17  1  0.524234  0.877643  0.500000  1
  Co  Co18  1  0.122812  0.647620  0.500000  1
  Co  Co19  1  0.352460  0.475106  0.500000  1
  Co  Co20  1  0.475191  0.352380  0.500000  1
  Co  Co21  1  0.877354  0.524894  0.500000  1
  Co  Co22  1  0.646591  0.122357  0.500000  1
  Co  Co23  1  0.999749  0.000000  0.000000  1
  P  P24  1  0.172702  0.000000  0.000000  1
  P  P25  1  0.997790  0.171555  0.000000  1
  P  P26  1  0.826235  0.828445  0.000000  1
  P  P27  1  0.517262  0.686950  0.500000  1
  P  P28  1  0.313870  0.830622  0.500000  1
  P  P29  1  0.169764  0.483300  0.500000  1
  P  P30  1  0.483248  0.169378  0.500000  1
  P  P31  1  0.686464  0.516700  0.500000  1
  P  P32  1  0.830312  0.313050  0.500000  1
  P  P33  1  0.650863  0.000000  0.000000  1
  P  P34  1  0.999918  0.648341  0.000000  1
  P  P35  1  0.351578  0.351659  0.000000  1
