# generated using pymatgen
data_CaPa2Zn11
_symmetry_space_group_name_H-M   'P 1'
_cell_length_a   4.41563555
_cell_length_b   8.15792420
_cell_length_c   8.15792338
_cell_angle_alpha   66.92393520
_cell_angle_beta   74.29794961
_cell_angle_gamma   74.29795520
_symmetry_Int_Tables_number   1
_chemical_formula_structural   CaPa2Zn11
_chemical_formula_sum   'Ca1 Pa2 Zn11'
_cell_volume   255.73322200
_cell_formula_units_Z   1
loop_
 _symmetry_equiv_pos_site_id
 _symmetry_equiv_pos_as_xyz
  1  'x, y, z'
loop_
 _atom_site_type_symbol
 _atom_site_label
 _atom_site_symmetry_multiplicity
 _atom_site_fract_x
 _atom_site_fract_y
 _atom_site_fract_z
 _atom_site_occupancy
  Ca  Ca0  1  0.000000  0.000000  0.000000  1
  Pa  Pa1  1  0.705244  0.294756  0.294756  1
  Pa  Pa2  1  0.294756  0.705244  0.705244  1
  Zn  Zn3  1  0.000000  0.500000  0.500000  1
  Zn  Zn4  1  0.500000  0.322336  0.677664  1
  Zn  Zn5  1  0.500000  0.677664  0.322336  1
  Zn  Zn6  1  0.658968  0.981791  0.700274  1
  Zn  Zn7  1  0.341032  0.018209  0.299726  1
  Zn  Zn8  1  0.658968  0.700274  0.981791  1
  Zn  Zn9  1  0.341032  0.299726  0.018209  1
  Zn  Zn10  1  0.859620  0.857530  0.423231  1
  Zn  Zn11  1  0.140380  0.142470  0.576769  1
  Zn  Zn12  1  0.859620  0.423231  0.857530  1
  Zn  Zn13  1  0.140380  0.576769  0.142470  1
