# generated using pymatgen
data_La2DyY3Ta2O14
_symmetry_space_group_name_H-M   'P 1'
_cell_length_a   6.54472875
_cell_length_b   6.54586117
_cell_length_c   7.65447000
_cell_angle_alpha   90.00000000
_cell_angle_beta   90.00000000
_cell_angle_gamma   109.08096492
_symmetry_Int_Tables_number   1
_chemical_formula_structural   La2DyY3Ta2O14
_chemical_formula_sum   'La2 Dy1 Y3 Ta2 O14'
_cell_volume   309.90731828
_cell_formula_units_Z   1
loop_
 _symmetry_equiv_pos_site_id
 _symmetry_equiv_pos_as_xyz
  1  'x, y, z'
loop_
 _atom_site_type_symbol
 _atom_site_label
 _atom_site_symmetry_multiplicity
 _atom_site_fract_x
 _atom_site_fract_y
 _atom_site_fract_z
 _atom_site_occupancy
  La  La0  1  0.499995  0.500032  0.500038  1
  La  La1  1  0.499995  0.500032  0.999962  1
  Dy  Dy2  1  0.532642  0.001178  0.750000  1
  Y  Y3  1  0.000852  0.532478  0.250000  1
  Y  Y4  1  0.467549  0.999124  0.250000  1
  Y  Y5  1  0.999143  0.467555  0.750000  1
  Ta  Ta6  1  0.999793  0.999955  0.500010  1
  Ta  Ta7  1  0.999793  0.999955  0.999990  1
  O  O8  1  0.682014  0.933946  0.468234  1
  O  O9  1  0.933854  0.682178  0.532013  1
  O  O10  1  0.682014  0.933946  0.031766  1
  O  O11  1  0.933854  0.682178  0.967987  1
  O  O12  1  0.318369  0.066036  0.532518  1
  O  O13  1  0.066151  0.317839  0.467975  1
  O  O14  1  0.318369  0.066036  0.967482  1
  O  O15  1  0.066151  0.317839  0.032025  1
  O  O16  1  0.937847  0.061770  0.750000  1
  O  O17  1  0.061836  0.938215  0.250000  1
  O  O18  1  0.362930  0.637415  0.750000  1
  O  O19  1  0.637113  0.362862  0.250000  1
  O  O20  1  0.643766  0.355393  0.750000  1
  O  O21  1  0.355970  0.644037  0.250000  1
