# generated using pymatgen
data_TbY7GaPd24
_symmetry_space_group_name_H-M   'P 1'
_cell_length_a   8.37915800
_cell_length_b   8.37915800
_cell_length_c   8.37915800
_cell_angle_alpha   89.99841360
_cell_angle_beta   89.99841360
_cell_angle_gamma   89.99841360
_symmetry_Int_Tables_number   1
_chemical_formula_structural   TbY7GaPd24
_chemical_formula_sum   'Tb1 Y7 Ga1 Pd24'
_cell_volume   588.30310265
_cell_formula_units_Z   1
loop_
 _symmetry_equiv_pos_site_id
 _symmetry_equiv_pos_as_xyz
  1  'x, y, z'
loop_
 _atom_site_type_symbol
 _atom_site_label
 _atom_site_symmetry_multiplicity
 _atom_site_fract_x
 _atom_site_fract_y
 _atom_site_fract_z
 _atom_site_occupancy
  Tb  Tb0  1  0.251799  0.251799  0.251799  1
  Y  Y1  1  0.251779  0.251779  0.748224  1
  Y  Y2  1  0.251779  0.748224  0.251779  1
  Y  Y3  1  0.748224  0.251779  0.251779  1
  Y  Y4  1  0.748220  0.748220  0.748220  1
  Y  Y5  1  0.748220  0.748220  0.251778  1
  Y  Y6  1  0.748220  0.251778  0.748220  1
  Y  Y7  1  0.251778  0.748220  0.748220  1
  Ga  Ga8  1  0.999988  0.999988  0.999988  1
  Pd  Pd9  1  0.500003  0.500003  0.746882  1
  Pd  Pd10  1  0.499980  0.253128  0.499980  1
  Pd  Pd11  1  0.253128  0.499980  0.499980  1
  Pd  Pd12  1  0.499980  0.499980  0.253128  1
  Pd  Pd13  1  0.500003  0.746882  0.500003  1
  Pd  Pd14  1  0.746882  0.500003  0.500003  1
  Pd  Pd15  1  0.999997  0.999997  0.708047  1
  Pd  Pd16  1  0.000010  0.291962  0.000010  1
  Pd  Pd17  1  0.291962  0.000010  0.000010  1
  Pd  Pd18  1  0.000010  0.000010  0.291962  1
  Pd  Pd19  1  0.999997  0.708047  0.999997  1
  Pd  Pd20  1  0.708047  0.999997  0.999997  1
  Pd  Pd21  1  0.999997  0.500005  0.739632  1
  Pd  Pd22  1  0.499979  0.260370  0.000014  1
  Pd  Pd23  1  0.260370  0.000014  0.499979  1
  Pd  Pd24  1  0.000014  0.260370  0.499979  1
  Pd  Pd25  1  0.500005  0.999997  0.739632  1
  Pd  Pd26  1  0.260370  0.499979  0.000014  1
  Pd  Pd27  1  0.000014  0.499979  0.260370  1
  Pd  Pd28  1  0.500005  0.739632  0.999997  1
  Pd  Pd29  1  0.999997  0.739632  0.500005  1
  Pd  Pd30  1  0.499979  0.000014  0.260370  1
  Pd  Pd31  1  0.739632  0.999997  0.500005  1
  Pd  Pd32  1  0.739632  0.500005  0.999997  1
