# generated using pymatgen
data_Sr12In5Ga3Pd8
_symmetry_space_group_name_H-M   'P 1'
_cell_length_a   6.18233587
_cell_length_b   8.49296328
_cell_length_c   14.72363700
_cell_angle_alpha   90.00000000
_cell_angle_beta   90.00000000
_cell_angle_gamma   89.93818895
_symmetry_Int_Tables_number   1
_chemical_formula_structural   Sr12In5Ga3Pd8
_chemical_formula_sum   'Sr12 In5 Ga3 Pd8'
_cell_volume   773.08400992
_cell_formula_units_Z   1
loop_
 _symmetry_equiv_pos_site_id
 _symmetry_equiv_pos_as_xyz
  1  'x, y, z'
loop_
 _atom_site_type_symbol
 _atom_site_label
 _atom_site_symmetry_multiplicity
 _atom_site_fract_x
 _atom_site_fract_y
 _atom_site_fract_z
 _atom_site_occupancy
  Sr  Sr0  1  0.145630  0.603148  0.098985  1
  Sr  Sr1  1  0.145682  0.902107  0.904978  1
  Sr  Sr2  1  0.853479  0.102282  0.399781  1
  Sr  Sr3  1  0.851513  0.393427  0.595113  1
  Sr  Sr4  1  0.851513  0.393427  0.904887  1
  Sr  Sr5  1  0.853479  0.102282  0.100219  1
  Sr  Sr6  1  0.145682  0.902107  0.595022  1
  Sr  Sr7  1  0.145630  0.603148  0.401015  1
  Sr  Sr8  1  0.360807  0.251814  0.250000  1
  Sr  Sr9  1  0.364627  0.246710  0.750000  1
  Sr  Sr10  1  0.639198  0.750639  0.250000  1
  Sr  Sr11  1  0.631955  0.753100  0.750000  1
  In  In12  1  0.368265  0.247247  0.001503  1
  In  In13  1  0.633026  0.752441  0.498421  1
  In  In14  1  0.633026  0.752441  0.001579  1
  In  In15  1  0.368265  0.247247  0.498497  1
  In  In16  1  0.140026  0.602000  0.750000  1
  Ga  Ga17  1  0.844573  0.400525  0.250000  1
  Ga  Ga18  1  0.848482  0.097918  0.750000  1
  Ga  Ga19  1  0.154986  0.900422  0.250000  1
  Pd  Pd20  1  0.639975  0.462252  0.100315  1
  Pd  Pd21  1  0.644355  0.038860  0.899951  1
  Pd  Pd22  1  0.358303  0.961414  0.398196  1
  Pd  Pd23  1  0.367446  0.535258  0.592013  1
  Pd  Pd24  1  0.367446  0.535258  0.907987  1
  Pd  Pd25  1  0.358303  0.961414  0.101804  1
  Pd  Pd26  1  0.644355  0.038860  0.600049  1
  Pd  Pd27  1  0.639975  0.462252  0.399685  1
