# generated using pymatgen
data_Nb3IrPtRh7
_symmetry_space_group_name_H-M   'P 1'
_cell_length_a   5.57596932
_cell_length_b   5.57853265
_cell_length_c   13.49295584
_cell_angle_alpha   89.86960616
_cell_angle_beta   90.12040389
_cell_angle_gamma   120.14032549
_symmetry_Int_Tables_number   1
_chemical_formula_structural   Nb3IrPtRh7
_chemical_formula_sum   'Nb6 Ir2 Pt2 Rh14'
_cell_volume   362.96174778
_cell_formula_units_Z   2
loop_
 _symmetry_equiv_pos_site_id
 _symmetry_equiv_pos_as_xyz
  1  'x, y, z'
loop_
 _atom_site_type_symbol
 _atom_site_label
 _atom_site_symmetry_multiplicity
 _atom_site_fract_x
 _atom_site_fract_y
 _atom_site_fract_z
 _atom_site_occupancy
  Nb  Nb0  1  0.997767  0.999412  0.251299  1
  Nb  Nb1  1  0.002631  0.998003  0.744962  1
  Nb  Nb2  1  0.334708  0.666881  0.410802  1
  Nb  Nb3  1  0.666809  0.333403  0.589484  1
  Nb  Nb4  1  0.666934  0.333287  0.909734  1
  Nb  Nb5  1  0.332885  0.668864  0.092909  1
  Ir  Ir6  1  0.504108  0.496432  0.250684  1
  Ir  Ir7  1  0.505057  0.010465  0.250325  1
  Pt  Pt8  1  0.165832  0.331709  0.917478  1
  Pt  Pt9  1  0.667742  0.833816  0.917513  1
  Rh  Rh10  1  0.991853  0.496446  0.250436  1
  Rh  Rh11  1  0.497403  0.503151  0.748812  1
  Rh  Rh12  1  0.496543  0.992530  0.749078  1
  Rh  Rh13  1  0.007948  0.503958  0.749022  1
  Rh  Rh14  1  0.164798  0.834905  0.917033  1
  Rh  Rh15  1  0.835119  0.669435  0.083640  1
  Rh  Rh16  1  0.329536  0.163960  0.084338  1
  Rh  Rh17  1  0.833893  0.165370  0.084091  1
  Rh  Rh18  1  0.834654  0.669297  0.417384  1
  Rh  Rh19  1  0.329888  0.164324  0.416824  1
  Rh  Rh20  1  0.834188  0.164869  0.417417  1
  Rh  Rh21  1  0.165435  0.331104  0.582380  1
  Rh  Rh22  1  0.668518  0.834263  0.582081  1
  Rh  Rh23  1  0.165746  0.834119  0.582274  1
