# generated using pymatgen
data_Dy16Ho(ErIr4)3
_symmetry_space_group_name_H-M   'P 1'
_cell_length_a   10.88273700
_cell_length_b   10.88273700
_cell_length_c   6.36433200
_cell_angle_alpha   90.00000000
_cell_angle_beta   90.00000000
_cell_angle_gamma   90.00000000
_symmetry_Int_Tables_number   1
_chemical_formula_structural   Dy16Ho(ErIr4)3
_chemical_formula_sum   'Dy16 Ho1 Er3 Ir12'
_cell_volume   753.75307086
_cell_formula_units_Z   1
loop_
 _symmetry_equiv_pos_site_id
 _symmetry_equiv_pos_as_xyz
  1  'x, y, z'
loop_
 _atom_site_type_symbol
 _atom_site_label
 _atom_site_symmetry_multiplicity
 _atom_site_fract_x
 _atom_site_fract_y
 _atom_site_fract_z
 _atom_site_occupancy
  Dy  Dy0  1  0.290961  0.087906  0.377981  1
  Dy  Dy1  1  0.290963  0.912081  0.877973  1
  Dy  Dy2  1  0.709037  0.087919  0.877973  1
  Dy  Dy3  1  0.709039  0.912094  0.377981  1
  Dy  Dy4  1  0.587915  0.790973  0.877994  1
  Dy  Dy5  1  0.587925  0.208987  0.377964  1
  Dy  Dy6  1  0.412075  0.791013  0.377964  1
  Dy  Dy7  1  0.412085  0.209027  0.877994  1
  Dy  Dy8  1  0.208987  0.412075  0.622036  1
  Dy  Dy9  1  0.209027  0.587915  0.122006  1
  Dy  Dy10  1  0.790973  0.412085  0.122006  1
  Dy  Dy11  1  0.791013  0.587925  0.622036  1
  Dy  Dy12  1  0.912081  0.709037  0.122027  1
  Dy  Dy13  1  0.912094  0.290961  0.622019  1
  Dy  Dy14  1  0.087906  0.709039  0.622019  1
  Dy  Dy15  1  0.087919  0.290963  0.122027  1
  Ho  Ho16  1  0.500000  0.500000  0.500000  1
  Er  Er17  1  0.000000  0.000000  0.500000  1
  Er  Er18  1  0.000000  0.000000  0.000000  1
  Er  Er19  1  0.500000  0.500000  0.000000  1
  Ir  Ir20  1  0.847142  0.152854  0.249996  1
  Ir  Ir21  1  0.847146  0.847142  0.750004  1
  Ir  Ir22  1  0.152854  0.152858  0.750004  1
  Ir  Ir23  1  0.152858  0.847146  0.249996  1
  Ir  Ir24  1  0.652931  0.347075  0.750120  1
  Ir  Ir25  1  0.652925  0.652931  0.249880  1
  Ir  Ir26  1  0.347075  0.347069  0.249880  1
  Ir  Ir27  1  0.347069  0.652925  0.750120  1
  Ir  Ir28  1  0.500000  0.000000  0.121941  1
  Ir  Ir29  1  0.500000  0.000000  0.621938  1
  Ir  Ir30  1  0.000000  0.500000  0.878059  1
  Ir  Ir31  1  0.000000  0.500000  0.378062  1
