# generated using pymatgen
data_CsBr3O8
_symmetry_space_group_name_H-M   'P 1'
_cell_length_a   9.67192300
_cell_length_b   6.04713288
_cell_length_c   8.66657871
_cell_angle_alpha   77.96504047
_cell_angle_beta   90.00000000
_cell_angle_gamma   90.00000000
_symmetry_Int_Tables_number   1
_chemical_formula_structural   CsBr3O8
_chemical_formula_sum   'Cs2 Br6 O16'
_cell_volume   495.74462255
_cell_formula_units_Z   2
loop_
 _symmetry_equiv_pos_site_id
 _symmetry_equiv_pos_as_xyz
  1  'x, y, z'
loop_
 _atom_site_type_symbol
 _atom_site_label
 _atom_site_symmetry_multiplicity
 _atom_site_fract_x
 _atom_site_fract_y
 _atom_site_fract_z
 _atom_site_occupancy
  Cs  Cs0  1  0.250000  0.974292  0.101307  1
  Cs  Cs1  1  0.750000  0.025708  0.898693  1
  Br  Br2  1  0.571735  0.401756  0.281906  1
  Br  Br3  1  0.071735  0.598244  0.718094  1
  Br  Br4  1  0.428265  0.598244  0.718094  1
  Br  Br5  1  0.928265  0.401756  0.281906  1
  Br  Br6  1  0.250000  0.141657  0.564290  1
  Br  Br7  1  0.750000  0.858343  0.435710  1
  O  O8  1  0.563677  0.174010  0.204908  1
  O  O9  1  0.063677  0.825990  0.795092  1
  O  O10  1  0.436323  0.825990  0.795092  1
  O  O11  1  0.936323  0.174010  0.204908  1
  O  O12  1  0.519307  0.397636  0.830064  1
  O  O13  1  0.019307  0.602364  0.169936  1
  O  O14  1  0.480693  0.602364  0.169936  1
  O  O15  1  0.980693  0.397636  0.830064  1
  O  O16  1  0.750000  0.081956  0.523435  1
  O  O17  1  0.250000  0.918044  0.476565  1
  O  O18  1  0.750000  0.532070  0.201614  1
  O  O19  1  0.250000  0.467930  0.798386  1
  O  O20  1  0.888406  0.696389  0.505746  1
  O  O21  1  0.388406  0.303611  0.494254  1
  O  O22  1  0.111594  0.303611  0.494254  1
  O  O23  1  0.611594  0.696389  0.505746  1
