# generated using pymatgen
data_BaNa4Ac15Pb16
_symmetry_space_group_name_H-M   'P 1'
_cell_length_a   8.75413214
_cell_length_b   8.84513515
_cell_length_c   16.94053000
_cell_angle_alpha   90.05190550
_cell_angle_beta   89.88335496
_cell_angle_gamma   90.18391569
_symmetry_Int_Tables_number   1
_chemical_formula_structural   BaNa4Ac15Pb16
_chemical_formula_sum   'Ba1 Na4 Ac15 Pb16'
_cell_volume   1311.72033503
_cell_formula_units_Z   1
loop_
 _symmetry_equiv_pos_site_id
 _symmetry_equiv_pos_as_xyz
  1  'x, y, z'
loop_
 _atom_site_type_symbol
 _atom_site_label
 _atom_site_symmetry_multiplicity
 _atom_site_fract_x
 _atom_site_fract_y
 _atom_site_fract_z
 _atom_site_occupancy
  Ba  Ba0  1  0.328515  0.828159  0.873203  1
  Na  Na1  1  0.159875  0.489474  0.748836  1
  Na  Na2  1  0.656089  0.009067  0.748035  1
  Na  Na3  1  0.842513  0.511328  0.251677  1
  Na  Na4  1  0.339747  0.990272  0.251357  1
  Ac  Ac5  1  0.836696  0.668460  0.626690  1
  Ac  Ac6  1  0.664114  0.168607  0.373214  1
  Ac  Ac7  1  0.171558  0.329048  0.127922  1
  Ac  Ac8  1  0.670612  0.172200  0.128356  1
  Ac  Ac9  1  0.166736  0.333016  0.373714  1
  Ac  Ac10  1  0.333878  0.831487  0.626386  1
  Ac  Ac11  1  0.829650  0.669911  0.871983  1
  Ac  Ac12  1  0.480027  0.308115  0.901626  1
  Ac  Ac13  1  0.985424  0.188449  0.594995  1
  Ac  Ac14  1  0.514867  0.689471  0.403211  1
  Ac  Ac15  1  0.017715  0.812673  0.098202  1
  Ac  Ac16  1  0.519274  0.690066  0.099017  1
  Ac  Ac17  1  0.013153  0.811217  0.404741  1
  Ac  Ac18  1  0.486177  0.310159  0.594458  1
  Ac  Ac19  1  0.980910  0.187523  0.901492  1
  Pb  Pb20  1  0.337884  0.034472  0.045013  1
  Pb  Pb21  1  0.823909  0.462613  0.460610  1
  Pb  Pb22  1  0.674800  0.960728  0.538841  1
  Pb  Pb23  1  0.160673  0.530791  0.959963  1
  Pb  Pb24  1  0.671319  0.964355  0.962168  1
  Pb  Pb25  1  0.175769  0.536728  0.540005  1
  Pb  Pb26  1  0.325535  0.035926  0.459222  1
  Pb  Pb27  1  0.833787  0.465446  0.040796  1
  Pb  Pb28  1  0.524087  0.586569  0.747294  1
  Pb  Pb29  1  0.016586  0.914273  0.747348  1
  Pb  Pb30  1  0.481142  0.414729  0.250171  1
  Pb  Pb31  1  0.979323  0.091533  0.251838  1
  Pb  Pb32  1  0.281074  0.150438  0.747268  1
  Pb  Pb33  1  0.783324  0.351465  0.749023  1
  Pb  Pb34  1  0.718189  0.853165  0.250528  1
  Pb  Pb35  1  0.215070  0.648064  0.250798  1
