# generated using pymatgen
data_DyLu2Sc3MnBi2
_symmetry_space_group_name_H-M   'P 1'
_cell_length_a   7.90295700
_cell_length_b   7.89224821
_cell_length_c   4.21009400
_cell_angle_alpha   90.00000000
_cell_angle_beta   90.00000000
_cell_angle_gamma   120.04489938
_symmetry_Int_Tables_number   1
_chemical_formula_structural   DyLu2Sc3MnBi2
_chemical_formula_sum   'Dy1 Lu2 Sc3 Mn1 Bi2'
_cell_volume   227.30872736
_cell_formula_units_Z   1
loop_
 _symmetry_equiv_pos_site_id
 _symmetry_equiv_pos_as_xyz
  1  'x, y, z'
loop_
 _atom_site_type_symbol
 _atom_site_label
 _atom_site_symmetry_multiplicity
 _atom_site_fract_x
 _atom_site_fract_y
 _atom_site_fract_z
 _atom_site_occupancy
  Dy  Dy0  1  0.613147  0.000000  0.000000  1
  Lu  Lu1  1  0.999511  0.615998  0.000000  1
  Lu  Lu2  1  0.383513  0.384002  0.000000  1
  Sc  Sc3  1  0.224571  0.000000  0.500000  1
  Sc  Sc4  1  0.001588  0.225338  0.500000  1
  Sc  Sc5  1  0.776251  0.774662  0.500000  1
  Mn  Mn6  1  0.002873  0.000000  0.000000  1
  Bi  Bi7  1  0.331623  0.664700  0.500000  1
  Bi  Bi8  1  0.666924  0.335300  0.500000  1
