# generated using pymatgen
data_RbTl7S24
_symmetry_space_group_name_H-M   'P 1'
_cell_length_a   12.26888289
_cell_length_b   6.66929179
_cell_length_c   12.36410300
_cell_angle_alpha   72.70253568
_cell_angle_beta   89.75640232
_cell_angle_gamma   90.03864251
_symmetry_Int_Tables_number   1
_chemical_formula_structural   RbTl7S24
_chemical_formula_sum   'Rb1 Tl7 S24'
_cell_volume   965.92431563
_cell_formula_units_Z   1
loop_
 _symmetry_equiv_pos_site_id
 _symmetry_equiv_pos_as_xyz
  1  'x, y, z'
loop_
 _atom_site_type_symbol
 _atom_site_label
 _atom_site_symmetry_multiplicity
 _atom_site_fract_x
 _atom_site_fract_y
 _atom_site_fract_z
 _atom_site_occupancy
  Rb  Rb0  1  0.112376  0.306785  0.909617  1
  Tl  Tl1  1  0.636068  0.209979  0.981713  1
  Tl  Tl2  1  0.864688  0.209766  0.481175  1
  Tl  Tl3  1  0.364728  0.788260  0.018794  1
  Tl  Tl4  1  0.135648  0.791922  0.517611  1
  Tl  Tl5  1  0.610227  0.691247  0.584475  1
  Tl  Tl6  1  0.889600  0.691406  0.084263  1
  Tl  Tl7  1  0.389607  0.309016  0.415331  1
  S  S8  1  0.377755  0.296875  0.000364  1
  S  S9  1  0.128112  0.294797  0.499589  1
  S  S10  1  0.628375  0.705244  0.000489  1
  S  S11  1  0.872464  0.704001  0.500518  1
  S  S12  1  0.419044  0.469551  0.837877  1
  S  S13  1  0.082623  0.468818  0.338537  1
  S  S14  1  0.582025  0.531637  0.161571  1
  S  S15  1  0.917357  0.532336  0.661724  1
  S  S16  1  0.330002  0.381007  0.721009  1
  S  S17  1  0.170002  0.379995  0.220470  1
  S  S18  1  0.669477  0.619447  0.279470  1
  S  S19  1  0.829546  0.619979  0.779949  1
  S  S20  1  0.387158  0.065306  0.727673  1
  S  S21  1  0.110780  0.066000  0.227707  1
  S  S22  1  0.612313  0.934221  0.272020  1
  S  S23  1  0.887748  0.934949  0.772260  1
  S  S24  1  0.553066  0.075327  0.724744  1
  S  S25  1  0.944546  0.074411  0.226242  1
  S  S26  1  0.446204  0.925113  0.275345  1
  S  S27  1  0.053950  0.925194  0.775390  1
  S  S28  1  0.608770  0.213151  0.562620  1
  S  S29  1  0.885855  0.209179  0.066241  1
  S  S30  1  0.390834  0.786727  0.437750  1
  S  S31  1  0.109054  0.788355  0.937461  1
