# generated using pymatgen
data_Y3SnPt(RhPb)2
_symmetry_space_group_name_H-M   'P 1'
_cell_length_a   7.74419233
_cell_length_b   7.73489354
_cell_length_c   3.87706100
_cell_angle_alpha   90.00000000
_cell_angle_beta   90.00000000
_cell_angle_gamma   120.36620889
_symmetry_Int_Tables_number   1
_chemical_formula_structural   Y3SnPt(RhPb)2
_chemical_formula_sum   'Y3 Sn1 Pt1 Rh2 Pb2'
_cell_volume   200.37764220
_cell_formula_units_Z   1
loop_
 _symmetry_equiv_pos_site_id
 _symmetry_equiv_pos_as_xyz
  1  'x, y, z'
loop_
 _atom_site_type_symbol
 _atom_site_label
 _atom_site_symmetry_multiplicity
 _atom_site_fract_x
 _atom_site_fract_y
 _atom_site_fract_z
 _atom_site_occupancy
  Y  Y0  1  0.407962  0.007200  0.500000  1
  Y  Y1  1  0.998891  0.404107  0.500000  1
  Y  Y2  1  0.593093  0.588720  0.500000  1
  Sn  Sn3  1  0.263015  0.258572  0.000000  1
  Pt  Pt4  1  0.331079  0.657484  0.000000  1
  Rh  Rh5  1  0.657748  0.331099  0.000000  1
  Rh  Rh6  1  0.010823  0.010911  0.500000  1
  Pb  Pb7  1  0.740666  0.005241  0.000000  1
  Pb  Pb8  1  0.996724  0.736667  0.000000  1
