# generated using pymatgen
data_PrTh7(MnSi3)4
_symmetry_space_group_name_H-M   'P 1'
_cell_length_a   8.25589100
_cell_length_b   8.25589096
_cell_length_c   8.26948900
_cell_angle_alpha   90.00000000
_cell_angle_beta   90.00000000
_cell_angle_gamma   120.00000417
_symmetry_Int_Tables_number   1
_chemical_formula_structural   PrTh7(MnSi3)4
_chemical_formula_sum   'Pr1 Th7 Mn4 Si12'
_cell_volume   488.13189523
_cell_formula_units_Z   1
loop_
 _symmetry_equiv_pos_site_id
 _symmetry_equiv_pos_as_xyz
  1  'x, y, z'
loop_
 _atom_site_type_symbol
 _atom_site_label
 _atom_site_symmetry_multiplicity
 _atom_site_fract_x
 _atom_site_fract_y
 _atom_site_fract_z
 _atom_site_occupancy
  Pr  Pr0  1  0.000000  0.000000  0.250000  1
  Th  Th1  1  0.499634  0.500366  0.750000  1
  Th  Th2  1  0.500353  0.499647  0.250000  1
  Th  Th3  1  0.000730  0.500366  0.750000  1
  Th  Th4  1  0.999294  0.499647  0.250000  1
  Th  Th5  1  0.499634  0.999270  0.750000  1
  Th  Th6  1  0.500353  0.000706  0.250000  1
  Th  Th7  1  0.000000  0.000000  0.750000  1
  Mn  Mn8  1  0.666667  0.333333  0.997127  1
  Mn  Mn9  1  0.333333  0.666667  0.001137  1
  Mn  Mn10  1  0.333333  0.666667  0.498863  1
  Mn  Mn11  1  0.666667  0.333333  0.502873  1
  Si  Si12  1  0.831322  0.168678  0.999220  1
  Si  Si13  1  0.168683  0.831317  0.999785  1
  Si  Si14  1  0.337356  0.168678  0.999220  1
  Si  Si15  1  0.168683  0.831317  0.500215  1
  Si  Si16  1  0.662634  0.831317  0.999785  1
  Si  Si17  1  0.831322  0.168678  0.500780  1
  Si  Si18  1  0.831322  0.662644  0.999220  1
  Si  Si19  1  0.662634  0.831317  0.500215  1
  Si  Si20  1  0.168683  0.337366  0.999785  1
  Si  Si21  1  0.337356  0.168678  0.500780  1
  Si  Si22  1  0.168683  0.337366  0.500215  1
  Si  Si23  1  0.831322  0.662644  0.500780  1
