# generated using pymatgen
data_Ac2AsPt8
_symmetry_space_group_name_H-M   'P 1'
_cell_length_a   4.35282100
_cell_length_b   9.48161624
_cell_length_c   9.48161544
_cell_angle_alpha   145.77186938
_cell_angle_beta   90.00000000
_cell_angle_gamma   90.00000000
_symmetry_Int_Tables_number   1
_chemical_formula_structural   Ac2AsPt8
_chemical_formula_sum   'Ac2 As1 Pt8'
_cell_volume   220.11510627
_cell_formula_units_Z   1
loop_
 _symmetry_equiv_pos_site_id
 _symmetry_equiv_pos_as_xyz
  1  'x, y, z'
loop_
 _atom_site_type_symbol
 _atom_site_label
 _atom_site_symmetry_multiplicity
 _atom_site_fract_x
 _atom_site_fract_y
 _atom_site_fract_z
 _atom_site_occupancy
  Ac  Ac0  1  0.500000  0.621621  0.373676  1
  Ac  Ac1  1  0.500000  0.373676  0.621621  1
  As  As2  1  0.000000  0.226978  0.226978  1
  Pt  Pt3  1  0.000000  0.879793  0.106973  1
  Pt  Pt4  1  0.500000  0.790235  0.195902  1
  Pt  Pt5  1  0.000000  0.986278  0.489568  1
  Pt  Pt6  1  0.000000  0.652250  0.652250  1
  Pt  Pt7  1  0.500000  0.195902  0.790235  1
  Pt  Pt8  1  0.000000  0.106973  0.879793  1
  Pt  Pt9  1  0.000000  0.489568  0.986278  1
  Pt  Pt10  1  0.500000  0.990309  0.990309  1
