# generated using pymatgen
data_Rb2Hf6Tl6BBr20
_symmetry_space_group_name_H-M   'P 1'
_cell_length_a   11.99828081
_cell_length_b   11.96943269
_cell_length_c   11.96943200
_cell_angle_alpha   59.99999639
_cell_angle_beta   60.07949997
_cell_angle_gamma   60.07950025
_symmetry_Int_Tables_number   1
_chemical_formula_structural   Rb2Hf6Tl6BBr20
_chemical_formula_sum   'Rb2 Hf6 Tl6 B1 Br20'
_cell_volume   1216.94778463
_cell_formula_units_Z   1
loop_
 _symmetry_equiv_pos_site_id
 _symmetry_equiv_pos_as_xyz
  1  'x, y, z'
loop_
 _atom_site_type_symbol
 _atom_site_label
 _atom_site_symmetry_multiplicity
 _atom_site_fract_x
 _atom_site_fract_y
 _atom_site_fract_z
 _atom_site_occupancy
  Rb  Rb0  1  0.922320  0.359227  0.359227  1
  Rb  Rb1  1  0.077680  0.640773  0.640773  1
  Hf  Hf2  1  0.865113  0.134779  0.134779  1
  Hf  Hf3  1  0.134887  0.865221  0.865221  1
  Hf  Hf4  1  0.134887  0.865221  0.134671  1
  Hf  Hf5  1  0.865113  0.134779  0.865329  1
  Hf  Hf6  1  0.134887  0.134671  0.865221  1
  Hf  Hf7  1  0.865113  0.865329  0.134779  1
  Tl  Tl8  1  0.363335  0.361533  0.361533  1
  Tl  Tl9  1  0.636665  0.638467  0.638467  1
  Tl  Tl10  1  0.363335  0.361533  0.913599  1
  Tl  Tl11  1  0.363335  0.913599  0.361533  1
  Tl  Tl12  1  0.636665  0.638467  0.086401  1
  Tl  Tl13  1  0.636665  0.086401  0.638467  1
  B  B14  1  0.000000  0.000000  0.000000  1
  Br  Br15  1  0.315097  0.000630  0.000630  1
  Br  Br16  1  0.684903  0.999370  0.999370  1
  Br  Br17  1  0.000000  0.317204  0.682796  1
  Br  Br18  1  0.000000  0.682796  0.317204  1
  Br  Br19  1  0.000000  0.317204  0.000000  1
  Br  Br20  1  0.684903  0.999370  0.316357  1
  Br  Br21  1  0.000000  0.682796  0.000000  1
  Br  Br22  1  0.315097  0.000630  0.683643  1
  Br  Br23  1  0.000000  0.000000  0.317204  1
  Br  Br24  1  0.000000  0.000000  0.682796  1
  Br  Br25  1  0.684903  0.316357  0.999370  1
  Br  Br26  1  0.315097  0.683643  0.000630  1
  Br  Br27  1  0.687481  0.309067  0.309067  1
  Br  Br28  1  0.312519  0.690933  0.690933  1
  Br  Br29  1  0.312519  0.690933  0.305615  1
  Br  Br30  1  0.687481  0.309067  0.694385  1
  Br  Br31  1  0.312519  0.305615  0.690933  1
  Br  Br32  1  0.687481  0.694385  0.309067  1
  Br  Br33  1  0.265324  0.244892  0.244892  1
  Br  Br34  1  0.734676  0.755108  0.755108  1
