# generated using pymatgen
data_Dy8Y8MgHg3Pt4
_symmetry_space_group_name_H-M   'P 1'
_cell_length_a   9.68280063
_cell_length_b   9.70886026
_cell_length_c   9.71844600
_cell_angle_alpha   59.96734120
_cell_angle_beta   59.87815527
_cell_angle_gamma   60.00530424
_symmetry_Int_Tables_number   1
_chemical_formula_structural   Dy8Y8MgHg3Pt4
_chemical_formula_sum   'Dy8 Y8 Mg1 Hg3 Pt4'
_cell_volume   645.29724578
_cell_formula_units_Z   1
loop_
 _symmetry_equiv_pos_site_id
 _symmetry_equiv_pos_as_xyz
  1  'x, y, z'
loop_
 _atom_site_type_symbol
 _atom_site_label
 _atom_site_symmetry_multiplicity
 _atom_site_fract_x
 _atom_site_fract_y
 _atom_site_fract_z
 _atom_site_occupancy
  Dy  Dy0  1  0.603314  0.601495  0.601474  1
  Dy  Dy1  1  0.603314  0.601495  0.193718  1
  Dy  Dy2  1  0.603301  0.193805  0.601448  1
  Dy  Dy3  1  0.184163  0.605231  0.605304  1
  Dy  Dy4  1  0.058531  0.441189  0.441159  1
  Dy  Dy5  1  0.437047  0.061740  0.061735  1
  Dy  Dy6  1  0.437047  0.061740  0.439477  1
  Dy  Dy7  1  0.058531  0.441189  0.059121  1
  Y  Y8  1  0.437360  0.439681  0.061479  1
  Y  Y9  1  0.058251  0.058756  0.441496  1
  Y  Y10  1  0.184591  0.814353  0.814304  1
  Y  Y11  1  0.812873  0.186413  0.186444  1
  Y  Y12  1  0.812873  0.186413  0.814271  1
  Y  Y13  1  0.184591  0.814353  0.186753  1
  Y  Y14  1  0.812700  0.814109  0.186596  1
  Y  Y15  1  0.184695  0.186945  0.814180  1
  Mg  Mg16  1  0.532829  0.822301  0.822435  1
  Hg  Hg17  1  0.833078  0.838268  0.838176  1
  Hg  Hg18  1  0.833078  0.838268  0.490478  1
  Hg  Hg19  1  0.832990  0.490470  0.838270  1
  Pt  Pt20  1  0.391432  0.394526  0.396081  1
  Pt  Pt21  1  0.391432  0.394526  0.817963  1
  Pt  Pt22  1  0.393000  0.818015  0.394493  1
  Pt  Pt23  1  0.818985  0.394723  0.393146  1
