# generated using pymatgen
data_Hf3Si4Ir4Ru
_symmetry_space_group_name_H-M   'P 1'
_cell_length_a   3.91682900
_cell_length_b   6.42810604
_cell_length_c   7.35013262
_cell_angle_alpha   90.86531129
_cell_angle_beta   90.00000000
_cell_angle_gamma   90.00000000
_symmetry_Int_Tables_number   1
_chemical_formula_structural   Hf3Si4Ir4Ru
_chemical_formula_sum   'Hf3 Si4 Ir4 Ru1'
_cell_volume   185.03900697
_cell_formula_units_Z   1
loop_
 _symmetry_equiv_pos_site_id
 _symmetry_equiv_pos_as_xyz
  1  'x, y, z'
loop_
 _atom_site_type_symbol
 _atom_site_label
 _atom_site_symmetry_multiplicity
 _atom_site_fract_x
 _atom_site_fract_y
 _atom_site_fract_z
 _atom_site_occupancy
  Hf  Hf0  1  0.750000  0.479261  0.828963  1
  Hf  Hf1  1  0.250000  0.016341  0.315593  1
  Hf  Hf2  1  0.750000  0.969049  0.673672  1
  Si  Si3  1  0.250000  0.773927  0.891181  1
  Si  Si4  1  0.750000  0.240778  0.126962  1
  Si  Si5  1  0.250000  0.270490  0.620659  1
  Si  Si6  1  0.750000  0.705245  0.359671  1
  Ir  Ir7  1  0.750000  0.855579  0.061394  1
  Ir  Ir8  1  0.250000  0.156156  0.936183  1
  Ir  Ir9  1  0.750000  0.343570  0.439018  1
  Ir  Ir10  1  0.250000  0.651330  0.569871  1
  Ru  Ru11  1  0.250000  0.538275  0.176832  1
