# generated using pymatgen
data_Sc5GaSiAs
_symmetry_space_group_name_H-M   'P 1'
_cell_length_a   7.95623015
_cell_length_b   7.97259934
_cell_length_c   5.87948100
_cell_angle_alpha   90.00000000
_cell_angle_beta   90.00000000
_cell_angle_gamma   120.06807785
_symmetry_Int_Tables_number   1
_chemical_formula_structural   Sc5GaSiAs
_chemical_formula_sum   'Sc10 Ga2 Si2 As2'
_cell_volume   322.75915209
_cell_formula_units_Z   2
loop_
 _symmetry_equiv_pos_site_id
 _symmetry_equiv_pos_as_xyz
  1  'x, y, z'
loop_
 _atom_site_type_symbol
 _atom_site_label
 _atom_site_symmetry_multiplicity
 _atom_site_fract_x
 _atom_site_fract_y
 _atom_site_fract_z
 _atom_site_occupancy
  Sc  Sc0  1  0.338057  0.669029  0.000000  1
  Sc  Sc1  1  0.664216  0.332108  0.500000  1
  Sc  Sc2  1  0.664216  0.332108  0.000000  1
  Sc  Sc3  1  0.338057  0.669029  0.500000  1
  Sc  Sc4  1  0.243489  0.004447  0.250000  1
  Sc  Sc5  1  0.243489  0.239042  0.750000  1
  Sc  Sc6  1  0.998109  0.757560  0.750000  1
  Sc  Sc7  1  0.998109  0.240550  0.250000  1
  Sc  Sc8  1  0.757161  0.763671  0.250000  1
  Sc  Sc9  1  0.757161  0.993490  0.750000  1
  Ga  Ga10  1  0.395423  0.398013  0.250000  1
  Ga  Ga11  1  0.395423  0.997410  0.750000  1
  Si  Si12  1  0.604163  0.001199  0.250000  1
  Si  Si13  1  0.604163  0.602965  0.750000  1
  As  As14  1  0.999381  0.387730  0.750000  1
  As  As15  1  0.999381  0.611651  0.250000  1
