# generated using pymatgen
data_Li2Pd5Pt
_symmetry_space_group_name_H-M   'P 1'
_cell_length_a   5.50630877
_cell_length_b   5.50630931
_cell_length_c   5.51583900
_cell_angle_alpha   59.94272684
_cell_angle_beta   59.94272357
_cell_angle_gamma   60.01126299
_symmetry_Int_Tables_number   1
_chemical_formula_structural   Li2Pd5Pt
_chemical_formula_sum   'Li2 Pd5 Pt1'
_cell_volume   118.16207861
_cell_formula_units_Z   1
loop_
 _symmetry_equiv_pos_site_id
 _symmetry_equiv_pos_as_xyz
  1  'x, y, z'
loop_
 _atom_site_type_symbol
 _atom_site_label
 _atom_site_symmetry_multiplicity
 _atom_site_fract_x
 _atom_site_fract_y
 _atom_site_fract_z
 _atom_site_occupancy
  Li  Li0  1  0.500000  0.500000  0.500000  1
  Li  Li1  1  0.500000  0.500000  0.000000  1
  Pd  Pd2  1  0.000000  0.000000  0.500000  1
  Pd  Pd3  1  0.500000  0.000000  0.500000  1
  Pd  Pd4  1  0.000000  0.500000  0.500000  1
  Pd  Pd5  1  0.000000  0.500000  0.000000  1
  Pd  Pd6  1  0.500000  0.000000  0.000000  1
  Pt  Pt7  1  0.000000  0.000000  0.000000  1
