# generated using pymatgen
data_Li4LaTb2PrSi6
_symmetry_space_group_name_H-M   'P 1'
_cell_length_a   9.41716648
_cell_length_b   9.41716629
_cell_length_c   6.85195500
_cell_angle_alpha   90.00000000
_cell_angle_beta   90.00000000
_cell_angle_gamma   153.14829072
_symmetry_Int_Tables_number   1
_chemical_formula_structural   Li4LaTb2PrSi6
_chemical_formula_sum   'Li4 La1 Tb2 Pr1 Si6'
_cell_volume   274.46606222
_cell_formula_units_Z   1
loop_
 _symmetry_equiv_pos_site_id
 _symmetry_equiv_pos_as_xyz
  1  'x, y, z'
loop_
 _atom_site_type_symbol
 _atom_site_label
 _atom_site_symmetry_multiplicity
 _atom_site_fract_x
 _atom_site_fract_y
 _atom_site_fract_z
 _atom_site_occupancy
  Li  Li0  1  0.190269  0.809731  0.059554  1
  Li  Li1  1  0.190269  0.809731  0.440446  1
  Li  Li2  1  0.809452  0.190548  0.941220  1
  Li  Li3  1  0.809452  0.190548  0.558780  1
  La  La4  1  0.446218  0.553782  0.750000  1
  Tb  Tb5  1  0.344139  0.655861  0.250000  1
  Tb  Tb6  1  0.656021  0.343979  0.750000  1
  Pr  Pr7  1  0.554195  0.445805  0.250000  1
  Si  Si8  1  0.722975  0.277025  0.250000  1
  Si  Si9  1  0.276297  0.723703  0.750000  1
  Si  Si10  1  0.059340  0.940660  0.924717  1
  Si  Si11  1  0.941017  0.058983  0.076418  1
  Si  Si12  1  0.941017  0.058983  0.423582  1
  Si  Si13  1  0.059340  0.940660  0.575283  1
