# generated using pymatgen
data_Ce3Ir7Rh2
_symmetry_space_group_name_H-M   'P 1'
_cell_length_a   9.35510874
_cell_length_b   9.35510837
_cell_length_c   9.35510800
_cell_angle_alpha   33.02652906
_cell_angle_beta   33.02653325
_cell_angle_gamma   33.02652764
_symmetry_Int_Tables_number   1
_chemical_formula_structural   Ce3Ir7Rh2
_chemical_formula_sum   'Ce3 Ir7 Rh2'
_cell_volume   216.44601558
_cell_formula_units_Z   1
loop_
 _symmetry_equiv_pos_site_id
 _symmetry_equiv_pos_as_xyz
  1  'x, y, z'
loop_
 _atom_site_type_symbol
 _atom_site_label
 _atom_site_symmetry_multiplicity
 _atom_site_fract_x
 _atom_site_fract_y
 _atom_site_fract_z
 _atom_site_occupancy
  Ce  Ce0  1  0.000000  0.000000  0.000000  1
  Ce  Ce1  1  0.138768  0.138768  0.138768  1
  Ce  Ce2  1  0.861232  0.861232  0.861232  1
  Ir  Ir3  1  0.500000  0.500000  0.500000  1
  Ir  Ir4  1  0.081157  0.583658  0.583658  1
  Ir  Ir5  1  0.583658  0.583658  0.081157  1
  Ir  Ir6  1  0.583658  0.081157  0.583658  1
  Ir  Ir7  1  0.416342  0.918843  0.416342  1
  Ir  Ir8  1  0.918843  0.416342  0.416342  1
  Ir  Ir9  1  0.416342  0.416342  0.918843  1
  Rh  Rh10  1  0.333301  0.333301  0.333301  1
  Rh  Rh11  1  0.666699  0.666699  0.666699  1
