# generated using pymatgen
data_Hf5Nb(Ga2Sn)2
_symmetry_space_group_name_H-M   'P 1'
_cell_length_a   5.65817800
_cell_length_b   8.73421800
_cell_length_c   9.33244100
_cell_angle_alpha   90.00000000
_cell_angle_beta   90.00000000
_cell_angle_gamma   90.00000000
_symmetry_Int_Tables_number   1
_chemical_formula_structural   Hf5Nb(Ga2Sn)2
_chemical_formula_sum   'Hf10 Nb2 Ga8 Sn4'
_cell_volume   461.20699569
_cell_formula_units_Z   2
loop_
 _symmetry_equiv_pos_site_id
 _symmetry_equiv_pos_as_xyz
  1  'x, y, z'
loop_
 _atom_site_type_symbol
 _atom_site_label
 _atom_site_symmetry_multiplicity
 _atom_site_fract_x
 _atom_site_fract_y
 _atom_site_fract_z
 _atom_site_occupancy
  Hf  Hf0  1  0.000000  0.250000  0.877330  1
  Hf  Hf1  1  0.500000  0.750000  0.122670  1
  Hf  Hf2  1  0.752659  0.469233  0.610682  1
  Hf  Hf3  1  0.252659  0.530767  0.389318  1
  Hf  Hf4  1  0.747341  0.969233  0.389318  1
  Hf  Hf5  1  0.247341  0.030767  0.610682  1
  Hf  Hf6  1  0.750464  0.374745  0.197178  1
  Hf  Hf7  1  0.250464  0.625255  0.802822  1
  Hf  Hf8  1  0.749536  0.874745  0.802822  1
  Hf  Hf9  1  0.249536  0.125255  0.197178  1
  Nb  Nb10  1  0.000000  0.750000  0.117956  1
  Nb  Nb11  1  0.500000  0.250000  0.882044  1
  Ga  Ga12  1  0.000000  0.750000  0.572337  1
  Ga  Ga13  1  0.500000  0.250000  0.427663  1
  Ga  Ga14  1  0.000000  0.250000  0.429571  1
  Ga  Ga15  1  0.500000  0.750000  0.570429  1
  Ga  Ga16  1  0.742579  0.137897  0.646656  1
  Ga  Ga17  1  0.242579  0.862103  0.353344  1
  Ga  Ga18  1  0.757421  0.637897  0.353344  1
  Ga  Ga19  1  0.257421  0.362103  0.646656  1
  Sn  Sn20  1  0.750743  0.050783  0.084017  1
  Sn  Sn21  1  0.250743  0.949217  0.915983  1
  Sn  Sn22  1  0.749257  0.550783  0.915983  1
  Sn  Sn23  1  0.249257  0.449217  0.084017  1
