# generated using pymatgen
data_Tm7Lu3(GePb3)2
_symmetry_space_group_name_H-M   'P 1'
_cell_length_a   9.20428300
_cell_length_b   9.20428160
_cell_length_c   6.45072700
_cell_angle_alpha   90.00000000
_cell_angle_beta   90.00000000
_cell_angle_gamma   120.00000861
_symmetry_Int_Tables_number   1
_chemical_formula_structural   Tm7Lu3(GePb3)2
_chemical_formula_sum   'Tm7 Lu3 Ge2 Pb6'
_cell_volume   473.28105150
_cell_formula_units_Z   1
loop_
 _symmetry_equiv_pos_site_id
 _symmetry_equiv_pos_as_xyz
  1  'x, y, z'
loop_
 _atom_site_type_symbol
 _atom_site_label
 _atom_site_symmetry_multiplicity
 _atom_site_fract_x
 _atom_site_fract_y
 _atom_site_fract_z
 _atom_site_occupancy
  Tm  Tm0  1  0.251870  0.000069  0.749726  1
  Tm  Tm1  1  0.748199  0.000069  0.250274  1
  Tm  Tm2  1  0.999931  0.251801  0.749726  1
  Tm  Tm3  1  0.999931  0.748130  0.250274  1
  Tm  Tm4  1  0.748199  0.748130  0.749726  1
  Tm  Tm5  1  0.251870  0.251801  0.250274  1
  Tm  Tm6  1  0.333333  0.666667  0.500000  1
  Lu  Lu7  1  0.666667  0.333333  0.500000  1
  Lu  Lu8  1  0.666667  0.333333  0.000000  1
  Lu  Lu9  1  0.333333  0.666667  0.000000  1
  Ge  Ge10  1  0.000000  0.000000  0.500000  1
  Ge  Ge11  1  0.000000  0.000000  0.000000  1
  Pb  Pb12  1  0.606679  0.000402  0.749967  1
  Pb  Pb13  1  0.393722  0.000402  0.250033  1
  Pb  Pb14  1  0.999598  0.606278  0.749967  1
  Pb  Pb15  1  0.999598  0.393321  0.250033  1
  Pb  Pb16  1  0.393722  0.393321  0.749967  1
  Pb  Pb17  1  0.606679  0.606278  0.250033  1
