# generated using pymatgen
data_LaNdEr6(WO6)4
_symmetry_space_group_name_H-M   'P 1'
_cell_length_a   5.43641700
_cell_length_b   7.76051920
_cell_length_c   11.52932600
_cell_angle_alpha   75.50618320
_cell_angle_beta   90.00000000
_cell_angle_gamma   90.00000000
_symmetry_Int_Tables_number   1
_chemical_formula_structural   LaNdEr6(WO6)4
_chemical_formula_sum   'La1 Nd1 Er6 W4 O24'
_cell_volume   470.93521678
_cell_formula_units_Z   1
loop_
 _symmetry_equiv_pos_site_id
 _symmetry_equiv_pos_as_xyz
  1  'x, y, z'
loop_
 _atom_site_type_symbol
 _atom_site_label
 _atom_site_symmetry_multiplicity
 _atom_site_fract_x
 _atom_site_fract_y
 _atom_site_fract_z
 _atom_site_occupancy
  La  La0  1  0.686733  0.500000  0.250000  1
  Nd  Nd1  1  0.314513  0.500000  0.750000  1
  Er  Er2  1  0.185540  0.201766  0.423653  1
  Er  Er3  1  0.185540  0.798234  0.076347  1
  Er  Er4  1  0.814847  0.796973  0.577223  1
  Er  Er5  1  0.814847  0.203027  0.922777  1
  Er  Er6  1  0.743168  0.000000  0.250000  1
  Er  Er7  1  0.257112  0.000000  0.750000  1
  W  W8  1  0.253689  0.270266  0.115793  1
  W  W9  1  0.253689  0.729734  0.384207  1
  W  W10  1  0.746160  0.729194  0.883195  1
  W  W11  1  0.746160  0.270806  0.616805  1
  O  O12  1  0.453814  0.201444  0.273870  1
  O  O13  1  0.453814  0.798556  0.226130  1
  O  O14  1  0.544336  0.797027  0.725809  1
  O  O15  1  0.544336  0.202973  0.774191  1
  O  O16  1  0.042031  0.057502  0.103529  1
  O  O17  1  0.042031  0.942498  0.396471  1
  O  O18  1  0.957273  0.943028  0.895424  1
  O  O19  1  0.957273  0.056972  0.604576  1
  O  O20  1  0.986268  0.275867  0.231698  1
  O  O21  1  0.986268  0.724133  0.268302  1
  O  O22  1  0.015432  0.721312  0.768617  1
  O  O23  1  0.015432  0.278688  0.731383  1
  O  O24  1  0.857272  0.356869  0.455959  1
  O  O25  1  0.857272  0.643131  0.044041  1
  O  O26  1  0.145470  0.643070  0.546134  1
  O  O27  1  0.145470  0.356930  0.953866  1
  O  O28  1  0.653108  0.506205  0.613689  1
  O  O29  1  0.653108  0.493795  0.886311  1
  O  O30  1  0.343221  0.493968  0.387232  1
  O  O31  1  0.343221  0.506032  0.112768  1
  O  O32  1  0.463252  0.155191  0.569852  1
  O  O33  1  0.463252  0.844809  0.930148  1
  O  O34  1  0.537524  0.844663  0.430301  1
  O  O35  1  0.537524  0.155337  0.069699  1
