# generated using pymatgen
data_La16Y(ErIr4)3
_symmetry_space_group_name_H-M   'P 1'
_cell_length_a   11.35313100
_cell_length_b   11.35313100
_cell_length_c   6.53601000
_cell_angle_alpha   90.00000000
_cell_angle_beta   90.00000000
_cell_angle_gamma   90.00000000
_symmetry_Int_Tables_number   1
_chemical_formula_structural   La16Y(ErIr4)3
_chemical_formula_sum   'La16 Y1 Er3 Ir12'
_cell_volume   842.44975071
_cell_formula_units_Z   1
loop_
 _symmetry_equiv_pos_site_id
 _symmetry_equiv_pos_as_xyz
  1  'x, y, z'
loop_
 _atom_site_type_symbol
 _atom_site_label
 _atom_site_symmetry_multiplicity
 _atom_site_fract_x
 _atom_site_fract_y
 _atom_site_fract_z
 _atom_site_occupancy
  La  La0  1  0.287878  0.088686  0.386293  1
  La  La1  1  0.287703  0.911370  0.886386  1
  La  La2  1  0.712297  0.088630  0.886386  1
  La  La3  1  0.712122  0.911314  0.386293  1
  La  La4  1  0.588614  0.787668  0.886297  1
  La  La5  1  0.588604  0.212357  0.386344  1
  La  La6  1  0.411396  0.787643  0.386344  1
  La  La7  1  0.411386  0.212332  0.886297  1
  La  La8  1  0.212357  0.411396  0.613656  1
  La  La9  1  0.212332  0.588614  0.113703  1
  La  La10  1  0.787668  0.411386  0.113703  1
  La  La11  1  0.787643  0.588604  0.613656  1
  La  La12  1  0.911370  0.712297  0.113614  1
  La  La13  1  0.911314  0.287878  0.613707  1
  La  La14  1  0.088686  0.712122  0.613707  1
  La  La15  1  0.088630  0.287703  0.113614  1
  Y  Y16  1  0.000000  0.000000  0.500000  1
  Er  Er17  1  0.000000  0.000000  0.000000  1
  Er  Er18  1  0.500000  0.500000  0.000000  1
  Er  Er19  1  0.500000  0.500000  0.500000  1
  Ir  Ir20  1  0.851785  0.148231  0.249157  1
  Ir  Ir21  1  0.851769  0.851785  0.750843  1
  Ir  Ir22  1  0.148231  0.148215  0.750843  1
  Ir  Ir23  1  0.148215  0.851769  0.249157  1
  Ir  Ir24  1  0.647778  0.352225  0.750001  1
  Ir  Ir25  1  0.647775  0.647778  0.249999  1
  Ir  Ir26  1  0.352225  0.352222  0.249999  1
  Ir  Ir27  1  0.352222  0.647775  0.750001  1
  Ir  Ir28  1  0.500000  0.000000  0.116935  1
  Ir  Ir29  1  0.500000  0.000000  0.616878  1
  Ir  Ir30  1  0.000000  0.500000  0.883065  1
  Ir  Ir31  1  0.000000  0.500000  0.383122  1
