# generated using pymatgen
data_TmZr3(SiMo)4
_symmetry_space_group_name_H-M   'P 1'
_cell_length_a   3.56296600
_cell_length_b   7.06359447
_cell_length_c   8.30122583
_cell_angle_alpha   90.16692917
_cell_angle_beta   90.00000000
_cell_angle_gamma   90.00000000
_symmetry_Int_Tables_number   1
_chemical_formula_structural   TmZr3(SiMo)4
_chemical_formula_sum   'Tm1 Zr3 Si4 Mo4'
_cell_volume   208.91894394
_cell_formula_units_Z   1
loop_
 _symmetry_equiv_pos_site_id
 _symmetry_equiv_pos_as_xyz
  1  'x, y, z'
loop_
 _atom_site_type_symbol
 _atom_site_label
 _atom_site_symmetry_multiplicity
 _atom_site_fract_x
 _atom_site_fract_y
 _atom_site_fract_z
 _atom_site_occupancy
  Tm  Tm0  1  0.250000  0.042432  0.334066  1
  Zr  Zr1  1  0.250000  0.543658  0.165458  1
  Zr  Zr2  1  0.750000  0.956705  0.670481  1
  Zr  Zr3  1  0.750000  0.456894  0.832618  1
  Si  Si4  1  0.250000  0.259715  0.638146  1
  Si  Si5  1  0.250000  0.757111  0.863960  1
  Si  Si6  1  0.750000  0.735663  0.362606  1
  Si  Si7  1  0.750000  0.244617  0.133277  1
  Mo  Mo8  1  0.250000  0.131500  0.936362  1
  Mo  Mo9  1  0.250000  0.630598  0.562228  1
  Mo  Mo10  1  0.750000  0.868153  0.059525  1
  Mo  Mo11  1  0.750000  0.372954  0.441272  1
