# generated using pymatgen
data_Tm3Ta(Ni4P3)2
_symmetry_space_group_name_H-M   'P 1'
_cell_length_a   3.74952200
_cell_length_b   10.65786300
_cell_length_c   12.30721300
_cell_angle_alpha   90.00000000
_cell_angle_beta   90.00000000
_cell_angle_gamma   90.00000000
_symmetry_Int_Tables_number   1
_chemical_formula_structural   Tm3Ta(Ni4P3)2
_chemical_formula_sum   'Tm6 Ta2 Ni16 P12'
_cell_volume   491.81951416
_cell_formula_units_Z   2
loop_
 _symmetry_equiv_pos_site_id
 _symmetry_equiv_pos_as_xyz
  1  'x, y, z'
loop_
 _atom_site_type_symbol
 _atom_site_label
 _atom_site_symmetry_multiplicity
 _atom_site_fract_x
 _atom_site_fract_y
 _atom_site_fract_z
 _atom_site_occupancy
  Tm  Tm0  1  0.000000  0.500000  0.526881  1
  Tm  Tm1  1  0.500000  0.000000  0.473119  1
  Tm  Tm2  1  0.500000  0.820646  0.207006  1
  Tm  Tm3  1  0.500000  0.179354  0.207006  1
  Tm  Tm4  1  0.000000  0.679354  0.792994  1
  Tm  Tm5  1  0.000000  0.320646  0.792994  1
  Ta  Ta6  1  0.500000  0.500000  0.154844  1
  Ta  Ta7  1  0.000000  0.000000  0.845156  1
  Ni  Ni8  1  0.500000  0.500000  0.700249  1
  Ni  Ni9  1  0.000000  0.000000  0.299751  1
  Ni  Ni10  1  0.000000  0.500000  0.984217  1
  Ni  Ni11  1  0.500000  0.000000  0.015783  1
  Ni  Ni12  1  0.500000  0.334396  0.987405  1
  Ni  Ni13  1  0.500000  0.665604  0.987405  1
  Ni  Ni14  1  0.000000  0.165604  0.012595  1
  Ni  Ni15  1  0.000000  0.834396  0.012595  1
  Ni  Ni16  1  0.500000  0.301150  0.429347  1
  Ni  Ni17  1  0.500000  0.698850  0.429347  1
  Ni  Ni18  1  0.000000  0.198850  0.570653  1
  Ni  Ni19  1  0.000000  0.801150  0.570653  1
  Ni  Ni20  1  0.500000  0.877592  0.707605  1
  Ni  Ni21  1  0.500000  0.122408  0.707605  1
  Ni  Ni22  1  0.000000  0.622408  0.292395  1
  Ni  Ni23  1  0.000000  0.377592  0.292395  1
  P  P24  1  0.500000  0.500000  0.877264  1
  P  P25  1  0.000000  0.000000  0.122736  1
  P  P26  1  0.500000  0.500000  0.355680  1
  P  P27  1  0.000000  0.000000  0.644320  1
  P  P28  1  0.500000  0.314817  0.614708  1
  P  P29  1  0.500000  0.685183  0.614708  1
  P  P30  1  0.000000  0.185183  0.385292  1
  P  P31  1  0.000000  0.814817  0.385292  1
  P  P32  1  0.500000  0.840969  0.891779  1
  P  P33  1  0.500000  0.159031  0.891779  1
  P  P34  1  0.000000  0.659031  0.108221  1
  P  P35  1  0.000000  0.340969  0.108221  1
