# generated using pymatgen
data_Mg2TaAlPt12
_symmetry_space_group_name_H-M   'P 1'
_cell_length_a   5.61437600
_cell_length_b   5.61437742
_cell_length_c   7.92390500
_cell_angle_alpha   90.00000000
_cell_angle_beta   90.00000000
_cell_angle_gamma   90.02226772
_symmetry_Int_Tables_number   1
_chemical_formula_structural   Mg2TaAlPt12
_chemical_formula_sum   'Mg2 Ta1 Al1 Pt12'
_cell_volume   249.77118037
_cell_formula_units_Z   1
loop_
 _symmetry_equiv_pos_site_id
 _symmetry_equiv_pos_as_xyz
  1  'x, y, z'
loop_
 _atom_site_type_symbol
 _atom_site_label
 _atom_site_symmetry_multiplicity
 _atom_site_fract_x
 _atom_site_fract_y
 _atom_site_fract_z
 _atom_site_occupancy
  Mg  Mg0  1  0.500000  0.000000  0.249881  1
  Mg  Mg1  1  0.500000  0.000000  0.750068  1
  Ta  Ta2  1  0.000000  0.500000  0.749960  1
  Al  Al3  1  0.000000  0.500000  0.249958  1
  Pt  Pt4  1  0.246170  0.253830  0.000067  1
  Pt  Pt5  1  0.753911  0.253911  0.499899  1
  Pt  Pt6  1  0.753729  0.253729  0.000016  1
  Pt  Pt7  1  0.753830  0.746170  0.000067  1
  Pt  Pt8  1  0.500000  0.500000  0.750018  1
  Pt  Pt9  1  0.246409  0.253591  0.500044  1
  Pt  Pt10  1  0.753591  0.746409  0.500044  1
  Pt  Pt11  1  0.246089  0.746089  0.499899  1
  Pt  Pt12  1  0.500000  0.500000  0.250022  1
  Pt  Pt13  1  0.000000  0.000000  0.750018  1
  Pt  Pt14  1  0.000000  0.000000  0.250022  1
  Pt  Pt15  1  0.246271  0.746271  0.000016  1
