# generated using pymatgen
data_Tb7YMg2(SiB4)4
_symmetry_space_group_name_H-M   'P 1'
_cell_length_a   7.18860800
_cell_length_b   7.18860800
_cell_length_c   7.89410201
_cell_angle_alpha   89.99706731
_cell_angle_beta   90.00293269
_cell_angle_gamma   90.00167381
_symmetry_Int_Tables_number   1
_chemical_formula_structural   Tb7YMg2(SiB4)4
_chemical_formula_sum   'Tb7 Y1 Mg2 Si4 B16'
_cell_volume   407.93628515
_cell_formula_units_Z   1
loop_
 _symmetry_equiv_pos_site_id
 _symmetry_equiv_pos_as_xyz
  1  'x, y, z'
loop_
 _atom_site_type_symbol
 _atom_site_label
 _atom_site_symmetry_multiplicity
 _atom_site_fract_x
 _atom_site_fract_y
 _atom_site_fract_z
 _atom_site_occupancy
  Tb  Tb0  1  0.682926  0.182887  0.233404  1
  Tb  Tb1  1  0.317087  0.817133  0.766586  1
  Tb  Tb2  1  0.317113  0.817074  0.233404  1
  Tb  Tb3  1  0.817119  0.682881  0.233380  1
  Tb  Tb4  1  0.817160  0.682840  0.766651  1
  Tb  Tb5  1  0.682867  0.182913  0.766586  1
  Tb  Tb6  1  0.182881  0.317119  0.766712  1
  Y  Y7  1  0.182780  0.317220  0.233009  1
  Mg  Mg8  1  0.000028  0.000061  0.499941  1
  Mg  Mg9  1  0.499939  0.499972  0.499941  1
  Si  Si10  1  0.115017  0.614816  0.499892  1
  Si  Si11  1  0.885184  0.384983  0.499892  1
  Si  Si12  1  0.384919  0.115081  0.499854  1
  Si  Si13  1  0.614885  0.885115  0.499941  1
  B  B14  1  0.173705  0.039799  0.000047  1
  B  B15  1  0.826380  0.960252  0.000094  1
  B  B16  1  0.960212  0.173637  0.000049  1
  B  B17  1  0.326363  0.539788  0.000049  1
  B  B18  1  0.039839  0.826391  0.000076  1
  B  B19  1  0.673609  0.460161  0.000076  1
  B  B20  1  0.539748  0.673620  0.000094  1
  B  B21  1  0.460201  0.326295  0.000047  1
  B  B22  1  0.089453  0.589445  0.000004  1
  B  B23  1  0.910555  0.410547  0.000004  1
  B  B24  1  0.410583  0.089417  0.999901  1
  B  B25  1  0.589463  0.910537  0.000077  1
  B  B26  1  0.000010  0.000044  0.160812  1
  B  B27  1  0.000064  0.000046  0.839332  1
  B  B28  1  0.499954  0.499936  0.839332  1
  B  B29  1  0.499956  0.499990  0.160812  1
