# generated using pymatgen
data_TbSmCd3Ga5Ni2
_symmetry_space_group_name_H-M   'P 1'
_cell_length_a   4.16216660
_cell_length_b   6.62688100
_cell_length_c   8.37470619
_cell_angle_alpha   90.00000000
_cell_angle_beta   104.38855580
_cell_angle_gamma   90.00000000
_symmetry_Int_Tables_number   1
_chemical_formula_structural   TbSmCd3Ga5Ni2
_chemical_formula_sum   'Tb1 Sm1 Cd3 Ga5 Ni2'
_cell_volume   223.74708667
_cell_formula_units_Z   1
loop_
 _symmetry_equiv_pos_site_id
 _symmetry_equiv_pos_as_xyz
  1  'x, y, z'
loop_
 _atom_site_type_symbol
 _atom_site_label
 _atom_site_symmetry_multiplicity
 _atom_site_fract_x
 _atom_site_fract_y
 _atom_site_fract_z
 _atom_site_occupancy
  Tb  Tb0  1  0.869272  0.750000  0.738543  1
  Sm  Sm1  1  0.127094  0.250000  0.254187  1
  Cd  Cd2  1  0.497146  0.492701  0.994293  1
  Cd  Cd3  1  0.497146  0.007299  0.994293  1
  Cd  Cd4  1  0.070757  0.750000  0.141513  1
  Ga  Ga5  1  0.925743  0.250000  0.851485  1
  Ga  Ga6  1  0.689795  0.550137  0.379590  1
  Ga  Ga7  1  0.312188  0.448508  0.624375  1
  Ga  Ga8  1  0.689795  0.949863  0.379590  1
  Ga  Ga9  1  0.312188  0.051492  0.624375  1
  Ni  Ni10  1  0.229659  0.750000  0.459317  1
  Ni  Ni11  1  0.779219  0.250000  0.558438  1
