# generated using pymatgen
data_ThCo2Ni2B
_symmetry_space_group_name_H-M   'P 1'
_cell_length_a   5.02130259
_cell_length_b   5.06817994
_cell_length_c   7.00237500
_cell_angle_alpha   90.00000000
_cell_angle_beta   90.00000000
_cell_angle_gamma   120.31080938
_symmetry_Int_Tables_number   1
_chemical_formula_structural   ThCo2Ni2B
_chemical_formula_sum   'Th2 Co4 Ni4 B2'
_cell_volume   153.84227790
_cell_formula_units_Z   2
loop_
 _symmetry_equiv_pos_site_id
 _symmetry_equiv_pos_as_xyz
  1  'x, y, z'
loop_
 _atom_site_type_symbol
 _atom_site_label
 _atom_site_symmetry_multiplicity
 _atom_site_fract_x
 _atom_site_fract_y
 _atom_site_fract_z
 _atom_site_occupancy
  Th  Th0  1  0.000017  0.000016  0.000000  1
  Th  Th1  1  0.999976  0.999996  0.500000  1
  Co  Co2  1  0.499981  0.999999  0.297358  1
  Co  Co3  1  0.499977  0.499999  0.297340  1
  Co  Co4  1  0.499981  0.999999  0.702642  1
  Co  Co5  1  0.499977  0.499999  0.702659  1
  Ni  Ni6  1  0.357775  0.678931  0.000000  1
  Ni  Ni7  1  0.642244  0.321090  0.000000  1
  Ni  Ni8  1  0.999965  0.499991  0.285088  1
  Ni  Ni9  1  0.999965  0.499991  0.714911  1
  B  B10  1  0.333052  0.666529  0.500000  1
  B  B11  1  0.666892  0.333460  0.500000  1
