# generated using pymatgen
data_Tb4Er7TmRu4
_symmetry_space_group_name_H-M   'P 1'
_cell_length_a   6.30313601
_cell_length_b   7.29840120
_cell_length_c   9.12264300
_cell_angle_alpha   89.98931553
_cell_angle_beta   90.08547371
_cell_angle_gamma   89.96889676
_symmetry_Int_Tables_number   1
_chemical_formula_structural   Tb4Er7TmRu4
_chemical_formula_sum   'Tb4 Er7 Tm1 Ru4'
_cell_volume   419.66672633
_cell_formula_units_Z   1
loop_
 _symmetry_equiv_pos_site_id
 _symmetry_equiv_pos_as_xyz
  1  'x, y, z'
loop_
 _atom_site_type_symbol
 _atom_site_label
 _atom_site_symmetry_multiplicity
 _atom_site_fract_x
 _atom_site_fract_y
 _atom_site_fract_z
 _atom_site_occupancy
  Tb  Tb0  1  0.633388  0.040965  0.250281  1
  Tb  Tb1  1  0.366980  0.959337  0.749829  1
  Tb  Tb2  1  0.132910  0.458999  0.749660  1
  Tb  Tb3  1  0.866681  0.540756  0.250309  1
  Er  Er4  1  0.169334  0.176391  0.064592  1
  Er  Er5  1  0.830774  0.823875  0.935212  1
  Er  Er6  1  0.669093  0.323637  0.934848  1
  Er  Er7  1  0.830555  0.823696  0.564727  1
  Er  Er8  1  0.330994  0.676128  0.064654  1
  Er  Er9  1  0.169213  0.176448  0.435616  1
  Er  Er10  1  0.331222  0.675898  0.435670  1
  Tm  Tm11  1  0.668970  0.323995  0.564960  1
  Ru  Ru12  1  0.460343  0.385285  0.250691  1
  Ru  Ru13  1  0.540020  0.614335  0.749589  1
  Ru  Ru14  1  0.959435  0.114879  0.749588  1
  Ru  Ru15  1  0.040094  0.885377  0.249775  1
