# generated using pymatgen
data_Zr4Al(B7Ir6)2
_symmetry_space_group_name_H-M   'P 1'
_cell_length_a   3.47926033
_cell_length_b   7.78402838
_cell_length_c   13.44621116
_cell_angle_alpha   89.98114744
_cell_angle_beta   90.04533939
_cell_angle_gamma   90.05123351
_symmetry_Int_Tables_number   1
_chemical_formula_structural   Zr4Al(B7Ir6)2
_chemical_formula_sum   'Zr4 Al1 B14 Ir12'
_cell_volume   364.15890086
_cell_formula_units_Z   1
loop_
 _symmetry_equiv_pos_site_id
 _symmetry_equiv_pos_as_xyz
  1  'x, y, z'
loop_
 _atom_site_type_symbol
 _atom_site_label
 _atom_site_symmetry_multiplicity
 _atom_site_fract_x
 _atom_site_fract_y
 _atom_site_fract_z
 _atom_site_occupancy
  Zr  Zr0  1  0.251481  0.497943  0.834742  1
  Zr  Zr1  1  0.253049  0.001489  0.332209  1
  Zr  Zr2  1  0.746951  0.998511  0.667791  1
  Zr  Zr3  1  0.748519  0.502057  0.165258  1
  Al  Al4  1  0.500000  0.500000  0.500000  1
  B  B5  1  0.500000  0.000000  0.000000  1
  B  B6  1  0.000000  0.000000  0.000000  1
  B  B7  1  0.754337  0.326801  0.726957  1
  B  B8  1  0.752648  0.829536  0.220487  1
  B  B9  1  0.749953  0.752922  0.804218  1
  B  B10  1  0.753085  0.248565  0.300014  1
  B  B11  1  0.750494  0.423460  0.974252  1
  B  B12  1  0.756860  0.918305  0.474050  1
  B  B13  1  0.247352  0.170464  0.779513  1
  B  B14  1  0.245663  0.673199  0.273043  1
  B  B15  1  0.246915  0.751435  0.699986  1
  B  B16  1  0.250047  0.247078  0.195782  1
  B  B17  1  0.243140  0.081695  0.525950  1
  B  B18  1  0.249506  0.576540  0.025748  1
  Ir  Ir19  1  0.747697  0.594443  0.674159  1
  Ir  Ir20  1  0.750469  0.090712  0.162409  1
  Ir  Ir21  1  0.750134  0.703806  0.963373  1
  Ir  Ir22  1  0.745098  0.197629  0.460895  1
  Ir  Ir23  1  0.748936  0.200950  0.874512  1
  Ir  Ir24  1  0.746865  0.709807  0.364589  1
  Ir  Ir25  1  0.249531  0.909288  0.837591  1
  Ir  Ir26  1  0.252303  0.405557  0.325841  1
  Ir  Ir27  1  0.254902  0.802371  0.539105  1
  Ir  Ir28  1  0.249866  0.296194  0.036627  1
  Ir  Ir29  1  0.253135  0.290193  0.635411  1
  Ir  Ir30  1  0.251064  0.799050  0.125488  1
