# generated using pymatgen
data_CsCdGa5(HgSe4)3
_symmetry_space_group_name_H-M   'P 1'
_cell_length_a   9.10406977
_cell_length_b   9.17541231
_cell_length_c   9.38352792
_cell_angle_alpha   108.50089554
_cell_angle_beta   106.60921866
_cell_angle_gamma   108.04968075
_symmetry_Int_Tables_number   1
_chemical_formula_structural   CsCdGa5(HgSe4)3
_chemical_formula_sum   'Cs1 Cd1 Ga5 Hg3 Se12'
_cell_volume   639.39098574
_cell_formula_units_Z   1
loop_
 _symmetry_equiv_pos_site_id
 _symmetry_equiv_pos_as_xyz
  1  'x, y, z'
loop_
 _atom_site_type_symbol
 _atom_site_label
 _atom_site_symmetry_multiplicity
 _atom_site_fract_x
 _atom_site_fract_y
 _atom_site_fract_z
 _atom_site_occupancy
  Cs  Cs0  1  0.998139  0.001486  0.000961  1
  Cd  Cd1  1  0.715332  0.402131  0.634290  1
  Ga  Ga2  1  0.188924  0.555255  0.026687  1
  Ga  Ga3  1  0.022903  0.186471  0.554280  1
  Ga  Ga4  1  0.562861  0.023304  0.194169  1
  Ga  Ga5  1  0.934947  0.470477  0.332957  1
  Ga  Ga6  1  0.320473  0.929866  0.468788  1
  Hg  Hg7  1  0.487867  0.339538  0.934058  1
  Hg  Hg8  1  0.625435  0.707797  0.402952  1
  Hg  Hg9  1  0.408146  0.641813  0.717467  1
  Se  Se10  1  0.875744  0.633179  0.546929  1
  Se  Se11  1  0.546953  0.889127  0.633354  1
  Se  Se12  1  0.658965  0.583273  0.874582  1
  Se  Se13  1  0.353762  0.431675  0.149224  1
  Se  Se14  1  0.145953  0.371227  0.439339  1
  Se  Se15  1  0.433717  0.139844  0.368745  1
  Se  Se16  1  0.066953  0.674516  0.223258  1
  Se  Se17  1  0.209381  0.062198  0.660319  1
  Se  Se18  1  0.698771  0.215457  0.085330  1
  Se  Se19  1  0.782841  0.938502  0.301774  1
  Se  Se20  1  0.300908  0.785147  0.951505  1
  Se  Se21  1  0.942226  0.298917  0.780235  1
