# generated using pymatgen
data_Mn27OsRu
_symmetry_space_group_name_H-M   'P 1'
_cell_length_a   7.48173943
_cell_length_b   7.50934062
_cell_length_c   7.50519112
_cell_angle_alpha   109.52501908
_cell_angle_beta   109.38684564
_cell_angle_gamma   109.43867258
_symmetry_Int_Tables_number   1
_chemical_formula_structural   Mn27OsRu
_chemical_formula_sum   'Mn27 Os1 Ru1'
_cell_volume   324.84907737
_cell_formula_units_Z   1
loop_
 _symmetry_equiv_pos_site_id
 _symmetry_equiv_pos_as_xyz
  1  'x, y, z'
loop_
 _atom_site_type_symbol
 _atom_site_label
 _atom_site_symmetry_multiplicity
 _atom_site_fract_x
 _atom_site_fract_y
 _atom_site_fract_z
 _atom_site_occupancy
  Mn  Mn0  1  0.002038  0.638237  0.000102  1
  Mn  Mn1  1  0.001850  0.999988  0.638210  1
  Mn  Mn2  1  0.363630  0.361893  0.361798  1
  Mn  Mn3  1  0.387436  0.677609  0.000007  1
  Mn  Mn4  1  0.709807  0.322311  0.322413  1
  Mn  Mn5  1  0.387376  0.999954  0.677606  1
  Mn  Mn6  1  0.679642  0.392520  0.000053  1
  Mn  Mn7  1  0.001815  0.391366  0.679348  1
  Mn  Mn8  1  0.322476  0.712082  0.320768  1
  Mn  Mn9  1  0.322318  0.320828  0.712168  1
  Mn  Mn10  1  0.001669  0.679328  0.391423  1
  Mn  Mn11  1  0.679619  0.999775  0.392476  1
  Mn  Mn12  1  0.610051  0.608794  0.287806  1
  Mn  Mn13  1  0.287211  0.607536  0.607500  1
  Mn  Mn14  1  0.610297  0.287887  0.608655  1
  Mn  Mn15  1  0.371984  0.194399  0.999888  1
  Mn  Mn16  1  0.177865  0.805515  0.805542  1
  Mn  Mn17  1  0.372314  0.999888  0.194378  1
  Mn  Mn18  1  0.192852  0.374402  0.999984  1
  Mn  Mn19  1  0.002685  0.376405  0.196091  1
  Mn  Mn20  1  0.806497  0.180211  0.803763  1
  Mn  Mn21  1  0.806271  0.803976  0.180334  1
  Mn  Mn22  1  0.002525  0.196153  0.376585  1
  Mn  Mn23  1  0.192790  0.000004  0.374323  1
  Mn  Mn24  1  0.625830  0.623599  0.819694  1
  Mn  Mn25  1  0.818531  0.625855  0.625684  1
  Mn  Mn26  1  0.626093  0.819649  0.623518  1
  Os  Os27  1  0.997994  0.000002  0.999965  1
  Ru  Ru28  1  0.638532  0.999837  0.999920  1
