# generated using pymatgen
data_CaEr2Zr(NiAs)4
_symmetry_space_group_name_H-M   'P 1'
_cell_length_a   4.01447600
_cell_length_b   4.01447633
_cell_length_c   15.35509800
_cell_angle_alpha   90.00000000
_cell_angle_beta   90.00000000
_cell_angle_gamma   120.00001378
_symmetry_Int_Tables_number   1
_chemical_formula_structural   CaEr2Zr(NiAs)4
_chemical_formula_sum   'Ca1 Er2 Zr1 Ni4 As4'
_cell_volume   214.30925728
_cell_formula_units_Z   1
loop_
 _symmetry_equiv_pos_site_id
 _symmetry_equiv_pos_as_xyz
  1  'x, y, z'
loop_
 _atom_site_type_symbol
 _atom_site_label
 _atom_site_symmetry_multiplicity
 _atom_site_fract_x
 _atom_site_fract_y
 _atom_site_fract_z
 _atom_site_occupancy
  Ca  Ca0  1  0.000000  0.000000  0.006080  1
  Er  Er1  1  0.000000  0.000000  0.747206  1
  Er  Er2  1  0.000000  0.000000  0.493188  1
  Zr  Zr3  1  0.000000  0.000000  0.251422  1
  Ni  Ni4  1  0.333333  0.666667  0.164843  1
  Ni  Ni5  1  0.666667  0.333333  0.862782  1
  Ni  Ni6  1  0.666667  0.333333  0.623893  1
  Ni  Ni7  1  0.333333  0.666667  0.347923  1
  As  As8  1  0.333333  0.666667  0.616624  1
  As  As9  1  0.666667  0.333333  0.378776  1
  As  As10  1  0.666667  0.333333  0.132279  1
  As  As11  1  0.333333  0.666667  0.874985  1
