# generated using pymatgen
data_ErSc2V2Si7Pt9
_symmetry_space_group_name_H-M   'P 1'
_cell_length_a   9.90550385
_cell_length_b   9.93792032
_cell_length_c   3.89865200
_cell_angle_alpha   90.00000000
_cell_angle_beta   90.00000000
_cell_angle_gamma   120.05344307
_symmetry_Int_Tables_number   1
_chemical_formula_structural   ErSc2V2Si7Pt9
_chemical_formula_sum   'Er1 Sc2 V2 Si7 Pt9'
_cell_volume   332.18732125
_cell_formula_units_Z   1
loop_
 _symmetry_equiv_pos_site_id
 _symmetry_equiv_pos_as_xyz
  1  'x, y, z'
loop_
 _atom_site_type_symbol
 _atom_site_label
 _atom_site_symmetry_multiplicity
 _atom_site_fract_x
 _atom_site_fract_y
 _atom_site_fract_z
 _atom_site_occupancy
  Er  Er0  1  0.333073  0.668124  0.500000  1
  Sc  Sc1  1  0.997346  0.995535  0.000000  1
  Sc  Sc2  1  0.544975  0.433125  0.500000  1
  V  V3  1  0.883108  0.452128  0.500000  1
  V  V4  1  0.571344  0.116475  0.500000  1
  Si  Si5  1  0.239537  0.195085  0.500000  1
  Si  Si6  1  0.795434  0.047431  0.500000  1
  Si  Si7  1  0.954605  0.745253  0.500000  1
  Si  Si8  1  0.554693  0.643514  0.000000  1
  Si  Si9  1  0.366255  0.920346  0.000000  1
  Si  Si10  1  0.081608  0.447762  0.000000  1
  Si  Si11  1  0.670408  0.327992  0.000000  1
  Pt  Pt12  1  0.221998  0.941317  0.500000  1
  Pt  Pt13  1  0.056718  0.280192  0.500000  1
  Pt  Pt14  1  0.726046  0.782375  0.500000  1
  Pt  Pt15  1  0.308091  0.413037  0.000000  1
  Pt  Pt16  1  0.591586  0.900853  0.000000  1
  Pt  Pt17  1  0.102101  0.693700  0.000000  1
  Pt  Pt18  1  0.387981  0.175641  0.000000  1
  Pt  Pt19  1  0.827277  0.212133  0.000000  1
  Pt  Pt20  1  0.785813  0.607985  0.000000  1
