# generated using pymatgen
data_Sc4Ni13Pt
_symmetry_space_group_name_H-M   'P 1'
_cell_length_a   4.78235508
_cell_length_b   4.78235401
_cell_length_c   12.42184514
_cell_angle_alpha   78.90141382
_cell_angle_beta   78.90141798
_cell_angle_gamma   59.99999537
_symmetry_Int_Tables_number   1
_chemical_formula_structural   Sc4Ni13Pt
_chemical_formula_sum   'Sc4 Ni13 Pt1'
_cell_volume   239.88192821
_cell_formula_units_Z   1
loop_
 _symmetry_equiv_pos_site_id
 _symmetry_equiv_pos_as_xyz
  1  'x, y, z'
loop_
 _atom_site_type_symbol
 _atom_site_label
 _atom_site_symmetry_multiplicity
 _atom_site_fract_x
 _atom_site_fract_y
 _atom_site_fract_z
 _atom_site_occupancy
  Sc  Sc0  1  0.950357  0.950357  0.148930  1
  Sc  Sc1  1  0.049643  0.049643  0.851070  1
  Sc  Sc2  1  0.854641  0.854641  0.436075  1
  Sc  Sc3  1  0.145359  0.145359  0.563925  1
  Ni  Ni4  1  0.721051  0.721051  0.836845  1
  Ni  Ni5  1  0.278949  0.278949  0.163155  1
  Ni  Ni6  1  0.612175  0.612175  0.163474  1
  Ni  Ni7  1  0.387825  0.387825  0.836526  1
  Ni  Ni8  1  0.000000  0.500000  0.000000  1
  Ni  Ni9  1  0.500000  0.000000  0.000000  1
  Ni  Ni10  1  0.500000  0.500000  0.000000  1
  Ni  Ni11  1  0.389211  0.389211  0.325639  1
  Ni  Ni12  1  0.895939  0.389211  0.325639  1
  Ni  Ni13  1  0.389211  0.895939  0.325639  1
  Ni  Ni14  1  0.610789  0.610789  0.674361  1
  Ni  Ni15  1  0.104061  0.610789  0.674361  1
  Ni  Ni16  1  0.610789  0.104061  0.674361  1
  Pt  Pt17  1  0.500000  0.500000  0.500000  1
