# generated using pymatgen
data_Pr6RuPtBr6
_symmetry_space_group_name_H-M   'P 1'
_cell_length_a   10.52350428
_cell_length_b   10.52349438
_cell_length_c   10.61643183
_cell_angle_alpha   109.44368476
_cell_angle_beta   109.44382675
_cell_angle_gamma   109.16596900
_symmetry_Int_Tables_number   1
_chemical_formula_structural   Pr6RuPtBr6
_chemical_formula_sum   'Pr12 Ru2 Pt2 Br12'
_cell_volume   909.05480546
_cell_formula_units_Z   2
loop_
 _symmetry_equiv_pos_site_id
 _symmetry_equiv_pos_as_xyz
  1  'x, y, z'
loop_
 _atom_site_type_symbol
 _atom_site_label
 _atom_site_symmetry_multiplicity
 _atom_site_fract_x
 _atom_site_fract_y
 _atom_site_fract_z
 _atom_site_occupancy
  Pr  Pr0  1  0.468843  0.480198  0.238274  1
  Pr  Pr1  1  0.741932  0.230579  0.261726  1
  Pr  Pr2  1  0.742025  0.010176  0.480002  1
  Pr  Pr3  1  0.237974  0.469819  0.479997  1
  Pr  Pr4  1  0.269422  0.758068  0.238275  1
  Pr  Pr5  1  0.030181  0.262025  0.020003  1
  Pr  Pr6  1  0.019802  0.031157  0.261726  1
  Pr  Pr7  1  0.489823  0.757974  0.019998  1
  Pr  Pr8  1  0.484376  0.234379  0.468759  1
  Pr  Pr9  1  0.014259  0.485742  0.750001  1
  Pr  Pr10  1  0.265621  0.015625  0.031242  1
  Pr  Pr11  1  0.235746  0.264252  0.749999  1
  Ru  Ru12  1  0.249615  0.250385  0.250000  1
  Ru  Ru13  1  0.500379  0.999622  0.250000  1
  Pt  Pt14  1  0.000103  0.250100  0.500206  1
  Pt  Pt15  1  0.249900  0.499897  0.999795  1
  Br  Br16  1  0.250131  0.754011  0.745972  1
  Br  Br17  1  0.508032  0.504153  0.754026  1
  Br  Br18  1  0.989877  0.744424  0.994554  1
  Br  Br19  1  0.745988  0.249870  0.754027  1
  Br  Br20  1  0.995847  0.991966  0.745973  1
  Br  Br21  1  0.249866  0.995321  0.505454  1
  Br  Br22  1  0.755576  0.510123  0.505446  1
  Br  Br23  1  0.504679  0.250134  0.994546  1
  Br  Br24  1  0.754448  0.745551  0.250000  1
  Br  Br25  1  0.744834  0.994833  0.989663  1
  Br  Br26  1  0.995552  0.504449  0.250000  1
  Br  Br27  1  0.505167  0.755166  0.510337  1
