# generated using pymatgen
data_La7DyHo2Si8O3
_symmetry_space_group_name_H-M   'P 1'
_cell_length_a   10.78502500
_cell_length_b   10.78286058
_cell_length_c   4.54310300
_cell_angle_alpha   90.00000000
_cell_angle_beta   90.00000000
_cell_angle_gamma   120.00664332
_symmetry_Int_Tables_number   1
_chemical_formula_structural   La7DyHo2Si8O3
_chemical_formula_sum   'La7 Dy1 Ho2 Si8 O3'
_cell_volume   457.51915793
_cell_formula_units_Z   1
loop_
 _symmetry_equiv_pos_site_id
 _symmetry_equiv_pos_as_xyz
  1  'x, y, z'
loop_
 _atom_site_type_symbol
 _atom_site_label
 _atom_site_symmetry_multiplicity
 _atom_site_fract_x
 _atom_site_fract_y
 _atom_site_fract_z
 _atom_site_occupancy
  La  La0  1  0.211414  0.788546  0.000000  1
  La  La1  1  0.577132  0.788546  0.000000  1
  La  La2  1  0.788557  0.577113  0.000000  1
  La  La3  1  0.000000  0.000000  0.000000  1
  La  La4  1  0.211443  0.422887  0.000000  1
  La  La5  1  0.422868  0.211454  0.000000  1
  La  La6  1  0.788586  0.211454  0.000000  1
  Dy  Dy7  1  0.500000  0.000000  0.500000  1
  Ho  Ho8  1  0.000000  0.500000  0.500000  1
  Ho  Ho9  1  0.500000  0.500000  0.500000  1
  Si  Si10  1  0.999991  0.776755  0.500000  1
  Si  Si11  1  0.000009  0.223245  0.500000  1
  Si  Si12  1  0.223236  0.223245  0.500000  1
  Si  Si13  1  0.776811  0.000000  0.500000  1
  Si  Si14  1  0.333275  0.666551  0.500000  1
  Si  Si15  1  0.223189  0.000000  0.500000  1
  Si  Si16  1  0.666725  0.333449  0.500000  1
  Si  Si17  1  0.776764  0.776755  0.500000  1
  O  O18  1  0.000000  0.500000  0.000000  1
  O  O19  1  0.500000  0.500000  0.000000  1
  O  O20  1  0.500000  0.000000  0.000000  1
