# generated using pymatgen
data_Tb2Y3(CoO6)2
_symmetry_space_group_name_H-M   'P 1'
_cell_length_a   6.77625572
_cell_length_b   6.77625719
_cell_length_c   7.22329377
_cell_angle_alpha   74.56063536
_cell_angle_beta   74.56062333
_cell_angle_gamma   50.47134422
_symmetry_Int_Tables_number   1
_chemical_formula_structural   Tb2Y3(CoO6)2
_chemical_formula_sum   'Tb2 Y3 Co2 O12'
_cell_volume   244.49414607
_cell_formula_units_Z   1
loop_
 _symmetry_equiv_pos_site_id
 _symmetry_equiv_pos_as_xyz
  1  'x, y, z'
loop_
 _atom_site_type_symbol
 _atom_site_label
 _atom_site_symmetry_multiplicity
 _atom_site_fract_x
 _atom_site_fract_y
 _atom_site_fract_z
 _atom_site_occupancy
  Tb  Tb0  1  0.000024  0.000024  0.000055  1
  Tb  Tb1  1  0.307583  0.307583  0.335689  1
  Y  Y2  1  0.692328  0.692328  0.664564  1
  Y  Y3  1  0.693764  0.693764  0.143981  1
  Y  Y4  1  0.306245  0.306245  0.855748  1
  Co  Co5  1  0.244182  0.755805  0.500101  1
  Co  Co6  1  0.755805  0.244182  0.500101  1
  O  O7  1  0.402418  0.903106  0.923309  1
  O  O8  1  0.583551  0.099292  0.578945  1
  O  O9  1  0.900176  0.416853  0.421496  1
  O  O10  1  0.096660  0.597872  0.076185  1
  O  O11  1  0.000239  0.000239  0.329882  1
  O  O12  1  0.500027  0.500027  0.673596  1
  O  O13  1  0.903106  0.402418  0.923309  1
  O  O14  1  0.099292  0.583551  0.578945  1
  O  O15  1  0.416853  0.900176  0.421496  1
  O  O16  1  0.597872  0.096660  0.076185  1
  O  O17  1  0.500108  0.500108  0.326101  1
  O  O18  1  0.999766  0.999766  0.670313  1
