# generated using pymatgen
data_Ho3Er7Sn5Sb
_symmetry_space_group_name_H-M   'P 1'
_cell_length_a   8.90263700
_cell_length_b   8.90780759
_cell_length_c   6.46422800
_cell_angle_alpha   90.00000000
_cell_angle_beta   90.00000000
_cell_angle_gamma   119.98079680
_symmetry_Int_Tables_number   1
_chemical_formula_structural   Ho3Er7Sn5Sb
_chemical_formula_sum   'Ho3 Er7 Sn5 Sb1'
_cell_volume   444.03867331
_cell_formula_units_Z   1
loop_
 _symmetry_equiv_pos_site_id
 _symmetry_equiv_pos_as_xyz
  1  'x, y, z'
loop_
 _atom_site_type_symbol
 _atom_site_label
 _atom_site_symmetry_multiplicity
 _atom_site_fract_x
 _atom_site_fract_y
 _atom_site_fract_z
 _atom_site_occupancy
  Ho  Ho0  1  0.997430  0.760183  0.750000  1
  Ho  Ho1  1  0.762017  0.000000  0.750000  1
  Ho  Ho2  1  0.237247  0.239817  0.750000  1
  Er  Er3  1  0.000997  0.238668  0.250000  1
  Er  Er4  1  0.762330  0.761332  0.250000  1
  Er  Er5  1  0.238779  0.000000  0.250000  1
  Er  Er6  1  0.333350  0.665815  0.499741  1
  Er  Er7  1  0.667537  0.334185  0.000259  1
  Er  Er8  1  0.667537  0.334185  0.499741  1
  Er  Er9  1  0.333350  0.665815  0.000259  1
  Sn  Sn10  1  0.395512  0.394411  0.250000  1
  Sn  Sn11  1  0.001101  0.605589  0.250000  1
  Sn  Sn12  1  0.999664  0.395565  0.750000  1
  Sn  Sn13  1  0.604099  0.604435  0.750000  1
  Sn  Sn14  1  0.605834  0.000000  0.250000  1
  Sb  Sb15  1  0.393216  0.000000  0.750000  1
