# generated using pymatgen
data_TmZr3Al17GaRh6
_symmetry_space_group_name_H-M   'P 1'
_cell_length_a   7.47474649
_cell_length_b   7.46718676
_cell_length_c   9.32451800
_cell_angle_alpha   90.00000000
_cell_angle_beta   90.00000000
_cell_angle_gamma   119.63142750
_symmetry_Int_Tables_number   1
_chemical_formula_structural   TmZr3Al17GaRh6
_chemical_formula_sum   'Tm1 Zr3 Al17 Ga1 Rh6'
_cell_volume   452.38845648
_cell_formula_units_Z   1
loop_
 _symmetry_equiv_pos_site_id
 _symmetry_equiv_pos_as_xyz
  1  'x, y, z'
loop_
 _atom_site_type_symbol
 _atom_site_label
 _atom_site_symmetry_multiplicity
 _atom_site_fract_x
 _atom_site_fract_y
 _atom_site_fract_z
 _atom_site_occupancy
  Tm  Tm0  1  0.326084  0.007143  0.750000  1
  Zr  Zr1  1  0.994451  0.671128  0.250000  1
  Zr  Zr2  1  0.006726  0.327998  0.750000  1
  Zr  Zr3  1  0.670760  0.994107  0.250000  1
  Al  Al4  1  0.122078  0.123379  0.250000  1
  Al  Al5  1  0.997076  0.334489  0.076528  1
  Al  Al6  1  0.000536  0.662717  0.926755  1
  Al  Al7  1  0.000536  0.662717  0.573245  1
  Al  Al8  1  0.335093  0.998012  0.420262  1
  Al  Al9  1  0.997076  0.334489  0.423472  1
  Al  Al10  1  0.667530  0.002099  0.574019  1
  Al  Al11  1  0.667530  0.002099  0.925981  1
  Al  Al12  1  0.335093  0.998012  0.079738  1
  Al  Al13  1  0.332391  0.334476  0.553366  1
  Al  Al14  1  0.669135  0.668981  0.438565  1
  Al  Al15  1  0.669135  0.668981  0.061435  1
  Al  Al16  1  0.332391  0.334476  0.946634  1
  Al  Al17  1  0.337277  0.553786  0.250000  1
  Al  Al18  1  0.667371  0.449879  0.750000  1
  Al  Al19  1  0.555764  0.338730  0.250000  1
  Al  Al20  1  0.444406  0.657893  0.750000  1
  Ga  Ga21  1  0.867520  0.870653  0.750000  1
  Rh  Rh22  1  0.672766  0.328306  0.000722  1
  Rh  Rh23  1  0.329014  0.673972  0.001317  1
  Rh  Rh24  1  0.329014  0.673972  0.498683  1
  Rh  Rh25  1  0.672766  0.328306  0.499278  1
  Rh  Rh26  1  0.000239  0.999600  0.002841  1
  Rh  Rh27  1  0.000239  0.999600  0.497159  1
