# generated using pymatgen
data_Tb4Al18Ir4RhAu
_symmetry_space_group_name_H-M   'P 1'
_cell_length_a   7.59225288
_cell_length_b   7.59225229
_cell_length_c   9.48053215
_cell_angle_alpha   89.95562901
_cell_angle_beta   89.95562011
_cell_angle_gamma   119.49033594
_symmetry_Int_Tables_number   1
_chemical_formula_structural   Tb4Al18Ir4RhAu
_chemical_formula_sum   'Tb4 Al18 Ir4 Rh1 Au1'
_cell_volume   475.67651518
_cell_formula_units_Z   1
loop_
 _symmetry_equiv_pos_site_id
 _symmetry_equiv_pos_as_xyz
  1  'x, y, z'
loop_
 _atom_site_type_symbol
 _atom_site_label
 _atom_site_symmetry_multiplicity
 _atom_site_fract_x
 _atom_site_fract_y
 _atom_site_fract_z
 _atom_site_occupancy
  Tb  Tb0  1  0.995473  0.673654  0.250375  1
  Tb  Tb1  1  0.004527  0.326346  0.749625  1
  Tb  Tb2  1  0.673654  0.995473  0.250375  1
  Tb  Tb3  1  0.326346  0.004527  0.749625  1
  Al  Al4  1  0.135238  0.135238  0.257216  1
  Al  Al5  1  0.864762  0.864762  0.742784  1
  Al  Al6  1  0.001903  0.344245  0.079245  1
  Al  Al7  1  0.998097  0.655755  0.920755  1
  Al  Al8  1  0.999567  0.663983  0.574118  1
  Al  Al9  1  0.336017  0.000433  0.425882  1
  Al  Al10  1  0.000433  0.336017  0.425882  1
  Al  Al11  1  0.663983  0.999567  0.574118  1
  Al  Al12  1  0.655755  0.998097  0.920755  1
  Al  Al13  1  0.344245  0.001903  0.079245  1
  Al  Al14  1  0.332612  0.332612  0.550883  1
  Al  Al15  1  0.667388  0.667388  0.449117  1
  Al  Al16  1  0.658459  0.658459  0.056616  1
  Al  Al17  1  0.341541  0.341541  0.943384  1
  Al  Al18  1  0.339963  0.550152  0.251048  1
  Al  Al19  1  0.660037  0.449848  0.748952  1
  Al  Al20  1  0.550152  0.339963  0.251048  1
  Al  Al21  1  0.449848  0.660037  0.748952  1
  Ir  Ir22  1  0.672042  0.327958  0.000000  1
  Ir  Ir23  1  0.327958  0.672042  0.000000  1
  Ir  Ir24  1  0.327904  0.672096  0.500000  1
  Ir  Ir25  1  0.672096  0.327904  0.500000  1
  Rh  Rh26  1  0.000000  0.000000  0.500000  1
  Au  Au27  1  0.000000  0.000000  0.000000  1
