# generated using pymatgen
data_LiY5Tm11In(HgRh2)2
_symmetry_space_group_name_H-M   'P 1'
_cell_length_a   9.62247383
_cell_length_b   9.61665902
_cell_length_c   9.61620300
_cell_angle_alpha   59.59012955
_cell_angle_beta   59.44330008
_cell_angle_gamma   59.44239768
_symmetry_Int_Tables_number   1
_chemical_formula_structural   LiY5Tm11In(HgRh2)2
_chemical_formula_sum   'Li1 Y5 Tm11 In1 Hg2 Rh4'
_cell_volume   621.94227252
_cell_formula_units_Z   1
loop_
 _symmetry_equiv_pos_site_id
 _symmetry_equiv_pos_as_xyz
  1  'x, y, z'
loop_
 _atom_site_type_symbol
 _atom_site_label
 _atom_site_symmetry_multiplicity
 _atom_site_fract_x
 _atom_site_fract_y
 _atom_site_fract_z
 _atom_site_occupancy
  Li  Li0  1  0.432020  0.431089  0.428100  1
  Y  Y1  1  0.064893  0.064468  0.435483  1
  Y  Y2  1  0.436143  0.062512  0.436888  1
  Y  Y3  1  0.061443  0.433930  0.068738  1
  Y  Y4  1  0.049072  0.650856  0.651621  1
  Y  Y5  1  0.436228  0.435097  0.064429  1
  Tm  Tm6  1  0.652193  0.045681  0.651854  1
  Tm  Tm7  1  0.184302  0.815621  0.183821  1
  Tm  Tm8  1  0.184976  0.184888  0.815128  1
  Tm  Tm9  1  0.811073  0.812101  0.188325  1
  Tm  Tm10  1  0.439692  0.056902  0.063827  1
  Tm  Tm11  1  0.814984  0.184755  0.184611  1
  Tm  Tm12  1  0.058341  0.438312  0.440152  1
  Tm  Tm13  1  0.809960  0.189038  0.811245  1
  Tm  Tm14  1  0.187511  0.811858  0.812141  1
  Tm  Tm15  1  0.652146  0.650769  0.047249  1
  Tm  Tm16  1  0.647236  0.648601  0.648139  1
  In  In17  1  0.418816  0.416997  0.744239  1
  Hg  Hg18  1  0.751415  0.414860  0.414588  1
  Hg  Hg19  1  0.415447  0.752442  0.412235  1
  Rh  Rh20  1  0.854510  0.855827  0.426498  1
  Rh  Rh21  1  0.853399  0.859894  0.859348  1
  Rh  Rh22  1  0.429499  0.856331  0.855896  1
  Rh  Rh23  1  0.854699  0.427172  0.855444  1
