# generated using pymatgen
data_Tm6Co7P12Rh11
_symmetry_space_group_name_H-M   'P 1'
_cell_length_a   3.77469900
_cell_length_b   10.99895303
_cell_length_c   12.53920304
_cell_angle_alpha   89.99120043
_cell_angle_beta   90.00000000
_cell_angle_gamma   90.00000000
_symmetry_Int_Tables_number   1
_chemical_formula_structural   Tm6Co7P12Rh11
_chemical_formula_sum   'Tm6 Co7 P12 Rh11'
_cell_volume   520.59932790
_cell_formula_units_Z   1
loop_
 _symmetry_equiv_pos_site_id
 _symmetry_equiv_pos_as_xyz
  1  'x, y, z'
loop_
 _atom_site_type_symbol
 _atom_site_label
 _atom_site_symmetry_multiplicity
 _atom_site_fract_x
 _atom_site_fract_y
 _atom_site_fract_z
 _atom_site_occupancy
  Tm  Tm0  1  0.000000  0.496450  0.520893  1
  Tm  Tm1  1  0.500000  0.001954  0.476549  1
  Tm  Tm2  1  0.500000  0.819339  0.196610  1
  Tm  Tm3  1  0.500000  0.181701  0.199115  1
  Tm  Tm4  1  0.000000  0.680319  0.804208  1
  Tm  Tm5  1  0.000000  0.319364  0.801470  1
  Co  Co6  1  0.000000  0.499409  0.989328  1
  Co  Co7  1  0.500000  0.000697  0.011274  1
  Co  Co8  1  0.500000  0.333253  0.994854  1
  Co  Co9  1  0.500000  0.665881  0.995070  1
  Co  Co10  1  0.000000  0.167466  0.005664  1
  Co  Co11  1  0.000000  0.833677  0.005700  1
  Co  Co12  1  0.500000  0.294765  0.429262  1
  P  P13  1  0.500000  0.499495  0.891813  1
  P  P14  1  0.000000  0.000776  0.108462  1
  P  P15  1  0.500000  0.492913  0.350287  1
  P  P16  1  0.000000  0.000889  0.652507  1
  P  P17  1  0.500000  0.317735  0.614177  1
  P  P18  1  0.500000  0.684177  0.621832  1
  P  P19  1  0.000000  0.189372  0.380114  1
  P  P20  1  0.000000  0.815377  0.377822  1
  P  P21  1  0.500000  0.841103  0.904415  1
  P  P22  1  0.500000  0.159166  0.903253  1
  P  P23  1  0.000000  0.658619  0.096571  1
  P  P24  1  0.000000  0.341248  0.097580  1
  Rh  Rh25  1  0.500000  0.498793  0.157679  1
  Rh  Rh26  1  0.000000  0.001015  0.843061  1
  Rh  Rh27  1  0.500000  0.499470  0.706273  1
  Rh  Rh28  1  0.000000  0.001741  0.294188  1
  Rh  Rh29  1  0.500000  0.700348  0.429871  1
  Rh  Rh30  1  0.000000  0.204901  0.567835  1
  Rh  Rh31  1  0.000000  0.796976  0.570229  1
  Rh  Rh32  1  0.500000  0.872476  0.717905  1
  Rh  Rh33  1  0.500000  0.128212  0.715758  1
  Rh  Rh34  1  0.000000  0.627579  0.281856  1
  Rh  Rh35  1  0.000000  0.373343  0.286517  1
