# generated using pymatgen
data_Sm5(FeB3)2
_symmetry_space_group_name_H-M   'P 1'
_cell_length_a   5.45474805
_cell_length_b   5.45474887
_cell_length_c   8.56407525
_cell_angle_alpha   71.42976848
_cell_angle_beta   71.42976568
_cell_angle_gamma   60.00000299
_symmetry_Int_Tables_number   1
_chemical_formula_structural   Sm5(FeB3)2
_chemical_formula_sum   'Sm5 Fe2 B6'
_cell_volume   205.21605547
_cell_formula_units_Z   1
loop_
 _symmetry_equiv_pos_site_id
 _symmetry_equiv_pos_as_xyz
  1  'x, y, z'
loop_
 _atom_site_type_symbol
 _atom_site_label
 _atom_site_symmetry_multiplicity
 _atom_site_fract_x
 _atom_site_fract_y
 _atom_site_fract_z
 _atom_site_occupancy
  Sm  Sm0  1  0.000000  0.000000  0.000000  1
  Sm  Sm1  1  0.748733  0.748733  0.753800  1
  Sm  Sm2  1  0.251267  0.251267  0.246200  1
  Sm  Sm3  1  0.583076  0.583076  0.250771  1
  Sm  Sm4  1  0.416924  0.416924  0.749229  1
  Fe  Fe5  1  0.879271  0.879271  0.362189  1
  Fe  Fe6  1  0.120729  0.120729  0.637811  1
  B  B7  1  0.500000  0.166854  0.500000  1
  B  B8  1  0.833146  0.500000  0.500000  1
  B  B9  1  0.166854  0.833146  0.500000  1
  B  B10  1  0.166854  0.500000  0.500000  1
  B  B11  1  0.833146  0.166854  0.500000  1
  B  B12  1  0.500000  0.833146  0.500000  1
