# generated using pymatgen
data_Nd2Ho4Al24Pd3Ru5
_symmetry_space_group_name_H-M   'P 1'
_cell_length_a   8.86347348
_cell_length_b   8.84796421
_cell_length_c   9.56617413
_cell_angle_alpha   90.16774276
_cell_angle_beta   89.86952886
_cell_angle_gamma   119.78844153
_symmetry_Int_Tables_number   1
_chemical_formula_structural   Nd2Ho4Al24Pd3Ru5
_chemical_formula_sum   'Nd2 Ho4 Al24 Pd3 Ru5'
_cell_volume   651.08254609
_cell_formula_units_Z   1
loop_
 _symmetry_equiv_pos_site_id
 _symmetry_equiv_pos_as_xyz
  1  'x, y, z'
loop_
 _atom_site_type_symbol
 _atom_site_label
 _atom_site_symmetry_multiplicity
 _atom_site_fract_x
 _atom_site_fract_y
 _atom_site_fract_z
 _atom_site_occupancy
  Nd  Nd0  1  0.188461  0.810167  0.249614  1
  Nd  Nd1  1  0.811539  0.189833  0.750386  1
  Ho  Ho2  1  0.195542  0.388554  0.250063  1
  Ho  Ho3  1  0.804458  0.611446  0.749937  1
  Ho  Ho4  1  0.613836  0.803685  0.251792  1
  Ho  Ho5  1  0.386164  0.196315  0.748208  1
  Al  Al6  1  0.336429  0.664071  0.025907  1
  Al  Al7  1  0.663571  0.335929  0.974093  1
  Al  Al8  1  0.669188  0.338746  0.524913  1
  Al  Al9  1  0.330812  0.661254  0.475087  1
  Al  Al10  1  0.165453  0.327982  0.574923  1
  Al  Al11  1  0.834547  0.672018  0.425077  1
  Al  Al12  1  0.674750  0.830069  0.576792  1
  Al  Al13  1  0.829784  0.674493  0.078754  1
  Al  Al14  1  0.325250  0.169931  0.423208  1
  Al  Al15  1  0.170216  0.325507  0.921246  1
  Al  Al16  1  0.155834  0.832116  0.579283  1
  Al  Al17  1  0.324815  0.169775  0.077057  1
  Al  Al18  1  0.844166  0.167884  0.420717  1
  Al  Al19  1  0.675185  0.830225  0.922943  1
  Al  Al20  1  0.838026  0.160376  0.082401  1
  Al  Al21  1  0.161974  0.839624  0.917599  1
  Al  Al22  1  0.564456  0.127732  0.250062  1
  Al  Al23  1  0.435544  0.872268  0.749938  1
  Al  Al24  1  0.873798  0.436625  0.253231  1
  Al  Al25  1  0.126202  0.563375  0.746769  1
  Al  Al26  1  0.560243  0.439660  0.249707  1
  Al  Al27  1  0.439757  0.560340  0.750293  1
  Al  Al28  1  0.996506  0.001984  0.250345  1
  Al  Al29  1  0.003494  0.998016  0.749655  1
  Pd  Pd30  1  0.500000  0.000000  0.000000  1
  Pd  Pd31  1  0.000000  0.500000  0.000000  1
  Pd  Pd32  1  0.500000  0.000000  0.500000  1
  Ru  Ru33  1  0.500000  0.500000  0.000000  1
  Ru  Ru34  1  0.000000  0.500000  0.500000  1
  Ru  Ru35  1  0.500000  0.500000  0.500000  1
  Ru  Ru36  1  0.000000  0.000000  0.000000  1
  Ru  Ru37  1  0.000000  0.000000  0.500000  1
