# generated using pymatgen
data_Er20Ir5Ru3Rh4
_symmetry_space_group_name_H-M   'P 1'
_cell_length_a   10.74487858
_cell_length_b   10.74568356
_cell_length_c   6.36818601
_cell_angle_alpha   89.99732274
_cell_angle_beta   89.99390055
_cell_angle_gamma   90.06176258
_symmetry_Int_Tables_number   1
_chemical_formula_structural   Er20Ir5Ru3Rh4
_chemical_formula_sum   'Er20 Ir5 Ru3 Rh4'
_cell_volume   735.27710744
_cell_formula_units_Z   1
loop_
 _symmetry_equiv_pos_site_id
 _symmetry_equiv_pos_as_xyz
  1  'x, y, z'
loop_
 _atom_site_type_symbol
 _atom_site_label
 _atom_site_symmetry_multiplicity
 _atom_site_fract_x
 _atom_site_fract_y
 _atom_site_fract_z
 _atom_site_occupancy
  Er  Er0  1  0.294121  0.085493  0.375902  1
  Er  Er1  1  0.294161  0.912519  0.878062  1
  Er  Er2  1  0.705389  0.086700  0.876920  1
  Er  Er3  1  0.705049  0.912664  0.376090  1
  Er  Er4  1  0.584729  0.793207  0.878159  1
  Er  Er5  1  0.585320  0.206717  0.377556  1
  Er  Er6  1  0.413052  0.793282  0.377305  1
  Er  Er7  1  0.415256  0.206390  0.877818  1
  Er  Er8  1  0.208958  0.414052  0.624701  1
  Er  Er9  1  0.208145  0.588266  0.120031  1
  Er  Er10  1  0.791557  0.413755  0.119654  1
  Er  Er11  1  0.791115  0.586201  0.625284  1
  Er  Er12  1  0.913240  0.707608  0.121152  1
  Er  Er13  1  0.911607  0.292366  0.626428  1
  Er  Er14  1  0.089064  0.708110  0.624941  1
  Er  Er15  1  0.088740  0.293179  0.120998  1
  Er  Er16  1  0.000122  0.999947  0.498934  1
  Er  Er17  1  0.999989  0.999935  0.999165  1
  Er  Er18  1  0.500057  0.500130  0.999140  1
  Er  Er19  1  0.499922  0.500029  0.498260  1
  Ir  Ir20  1  0.151086  0.846928  0.250493  1
  Ir  Ir21  1  0.653414  0.347195  0.749227  1
  Ir  Ir22  1  0.654670  0.652043  0.250704  1
  Ir  Ir23  1  0.345937  0.347466  0.249794  1
  Ir  Ir24  1  0.346878  0.652484  0.749545  1
  Ru  Ru25  1  0.500548  0.000381  0.124661  1
  Ru  Ru26  1  0.500395  0.000282  0.624576  1
  Ru  Ru27  1  0.999778  0.499264  0.876838  1
  Rh  Rh28  1  0.849590  0.153086  0.250393  1
  Rh  Rh29  1  0.847249  0.847616  0.749204  1
  Rh  Rh30  1  0.151425  0.153673  0.749570  1
  Rh  Rh31  1  0.999437  0.499033  0.378491  1
