# generated using pymatgen
data_Pr3CdPt3Pb2
_symmetry_space_group_name_H-M   'P 1'
_cell_length_a   7.90885016
_cell_length_b   7.90885127
_cell_length_c   4.07381200
_cell_angle_alpha   90.00000000
_cell_angle_beta   90.00000000
_cell_angle_gamma   119.89721548
_symmetry_Int_Tables_number   1
_chemical_formula_structural   Pr3CdPt3Pb2
_chemical_formula_sum   'Pr3 Cd1 Pt3 Pb2'
_cell_volume   220.90586635
_cell_formula_units_Z   1
loop_
 _symmetry_equiv_pos_site_id
 _symmetry_equiv_pos_as_xyz
  1  'x, y, z'
loop_
 _atom_site_type_symbol
 _atom_site_label
 _atom_site_symmetry_multiplicity
 _atom_site_fract_x
 _atom_site_fract_y
 _atom_site_fract_z
 _atom_site_occupancy
  Pr  Pr0  1  0.593043  0.994452  0.000000  1
  Pr  Pr1  1  0.994452  0.593043  0.000000  1
  Pr  Pr2  1  0.414932  0.414932  0.000000  1
  Cd  Cd3  1  0.742029  0.742029  0.500000  1
  Pt  Pt4  1  0.340076  0.668090  0.500000  1
  Pt  Pt5  1  0.668090  0.340076  0.500000  1
  Pt  Pt6  1  0.995095  0.995095  0.000000  1
  Pb  Pb7  1  0.253626  0.998657  0.500000  1
  Pb  Pb8  1  0.998657  0.253626  0.500000  1
