# generated using pymatgen
data_Zr4In2CuRh9
_symmetry_space_group_name_H-M   'P 1'
_cell_length_a   5.64208064
_cell_length_b   5.64207952
_cell_length_c   8.35069000
_cell_angle_alpha   90.00000000
_cell_angle_beta   90.00000000
_cell_angle_gamma   97.63903374
_symmetry_Int_Tables_number   1
_chemical_formula_structural   Zr4In2CuRh9
_chemical_formula_sum   'Zr4 In2 Cu1 Rh9'
_cell_volume   263.46891093
_cell_formula_units_Z   1
loop_
 _symmetry_equiv_pos_site_id
 _symmetry_equiv_pos_as_xyz
  1  'x, y, z'
loop_
 _atom_site_type_symbol
 _atom_site_label
 _atom_site_symmetry_multiplicity
 _atom_site_fract_x
 _atom_site_fract_y
 _atom_site_fract_z
 _atom_site_occupancy
  Zr  Zr0  1  0.776492  0.223413  0.503193  1
  Zr  Zr1  1  0.223413  0.776492  0.996807  1
  Zr  Zr2  1  0.223413  0.776492  0.503193  1
  Zr  Zr3  1  0.776492  0.223413  0.996807  1
  In  In4  1  0.500157  0.500157  0.750000  1
  In  In5  1  0.500153  0.500153  0.250000  1
  Cu  Cu6  1  0.000239  0.000239  0.250000  1
  Rh  Rh7  1  0.738018  0.738018  0.001433  1
  Rh  Rh8  1  0.738018  0.738018  0.498567  1
  Rh  Rh9  1  0.261937  0.261937  0.001336  1
  Rh  Rh10  1  0.261937  0.261937  0.498664  1
  Rh  Rh11  1  0.499896  0.999950  0.750000  1
  Rh  Rh12  1  0.500082  0.999939  0.250000  1
  Rh  Rh13  1  0.999864  0.999864  0.750000  1
  Rh  Rh14  1  0.999950  0.499896  0.750000  1
  Rh  Rh15  1  0.999939  0.500082  0.250000  1
