# generated using pymatgen
data_ErTm2Zr(Ga3Rh)6
_symmetry_space_group_name_H-M   'P 1'
_cell_length_a   7.54615802
_cell_length_b   7.53060689
_cell_length_c   9.45399400
_cell_angle_alpha   90.00000000
_cell_angle_beta   90.00000000
_cell_angle_gamma   119.86209916
_symmetry_Int_Tables_number   1
_chemical_formula_structural   ErTm2Zr(Ga3Rh)6
_chemical_formula_sum   'Er1 Tm2 Zr1 Ga18 Rh6'
_cell_volume   465.91172297
_cell_formula_units_Z   1
loop_
 _symmetry_equiv_pos_site_id
 _symmetry_equiv_pos_as_xyz
  1  'x, y, z'
loop_
 _atom_site_type_symbol
 _atom_site_label
 _atom_site_symmetry_multiplicity
 _atom_site_fract_x
 _atom_site_fract_y
 _atom_site_fract_z
 _atom_site_occupancy
  Er  Er0  1  0.004180  0.330540  0.750000  1
  Tm  Tm1  1  0.669658  0.997771  0.250000  1
  Tm  Tm2  1  0.331084  0.003662  0.750000  1
  Zr  Zr3  1  0.996550  0.668199  0.250000  1
  Ga  Ga4  1  0.123426  0.122347  0.250000  1
  Ga  Ga5  1  0.873548  0.873209  0.750000  1
  Ga  Ga6  1  0.998889  0.336914  0.082814  1
  Ga  Ga7  1  0.001162  0.665677  0.922135  1
  Ga  Ga8  1  0.001162  0.665677  0.577865  1
  Ga  Ga9  1  0.331792  0.997111  0.417148  1
  Ga  Ga10  1  0.998889  0.336914  0.417186  1
  Ga  Ga11  1  0.665376  0.000143  0.579601  1
  Ga  Ga12  1  0.665376  0.000143  0.920399  1
  Ga  Ga13  1  0.331792  0.997111  0.082852  1
  Ga  Ga14  1  0.332866  0.332508  0.565174  1
  Ga  Ga15  1  0.669688  0.668022  0.431071  1
  Ga  Ga16  1  0.669688  0.668022  0.068929  1
  Ga  Ga17  1  0.332866  0.332508  0.934826  1
  Ga  Ga18  1  0.337002  0.549085  0.250000  1
  Ga  Ga19  1  0.661831  0.452779  0.750000  1
  Ga  Ga20  1  0.551948  0.340507  0.250000  1
  Ga  Ga21  1  0.451408  0.660798  0.750000  1
  Rh  Rh22  1  0.672286  0.328715  0.000774  1
  Rh  Rh23  1  0.327870  0.672177  0.001500  1
  Rh  Rh24  1  0.327870  0.672177  0.498500  1
  Rh  Rh25  1  0.672286  0.328715  0.499226  1
  Rh  Rh26  1  0.999754  0.999283  0.000820  1
  Rh  Rh27  1  0.999754  0.999283  0.499180  1
