# generated using pymatgen
data_YLu2Al3SiAu2
_symmetry_space_group_name_H-M   'P 1'
_cell_length_a   6.95729709
_cell_length_b   6.98381512
_cell_length_c   4.28089200
_cell_angle_alpha   90.00000000
_cell_angle_beta   90.00000000
_cell_angle_gamma   120.36147355
_symmetry_Int_Tables_number   1
_chemical_formula_structural   YLu2Al3SiAu2
_chemical_formula_sum   'Y1 Lu2 Al3 Si1 Au2'
_cell_volume   179.47532103
_cell_formula_units_Z   1
loop_
 _symmetry_equiv_pos_site_id
 _symmetry_equiv_pos_as_xyz
  1  'x, y, z'
loop_
 _atom_site_type_symbol
 _atom_site_label
 _atom_site_symmetry_multiplicity
 _atom_site_fract_x
 _atom_site_fract_y
 _atom_site_fract_z
 _atom_site_occupancy
  Y  Y0  1  0.426950  0.422508  0.500000  1
  Lu  Lu1  1  0.578138  0.002149  0.500000  1
  Lu  Lu2  1  0.000087  0.577486  0.500000  1
  Al  Al3  1  0.752170  0.758625  0.000000  1
  Al  Al4  1  0.242693  0.994303  0.000000  1
  Al  Al5  1  0.004569  0.248259  0.000000  1
  Si  Si6  1  0.669034  0.331517  0.000000  1
  Au  Au7  1  0.331417  0.670499  0.000000  1
  Au  Au8  1  0.994941  0.994654  0.500000  1
