# generated using pymatgen
data_ZrOsBr9
_symmetry_space_group_name_H-M   'P 1'
_cell_length_a   12.31186200
_cell_length_b   7.17169997
_cell_length_c   9.89085754
_cell_angle_alpha   75.48435372
_cell_angle_beta   90.00000000
_cell_angle_gamma   90.00000000
_symmetry_Int_Tables_number   1
_chemical_formula_structural   ZrOsBr9
_chemical_formula_sum   'Zr2 Os2 Br18'
_cell_volume   845.45539732
_cell_formula_units_Z   2
loop_
 _symmetry_equiv_pos_site_id
 _symmetry_equiv_pos_as_xyz
  1  'x, y, z'
loop_
 _atom_site_type_symbol
 _atom_site_label
 _atom_site_symmetry_multiplicity
 _atom_site_fract_x
 _atom_site_fract_y
 _atom_site_fract_z
 _atom_site_occupancy
  Zr  Zr0  1  0.250000  0.756141  0.466790  1
  Zr  Zr1  1  0.750000  0.243859  0.533210  1
  Os  Os2  1  0.250000  0.645565  0.850446  1
  Os  Os3  1  0.750000  0.354435  0.149554  1
  Br  Br4  1  0.610020  0.445658  0.315289  1
  Br  Br5  1  0.110020  0.554342  0.684711  1
  Br  Br6  1  0.389980  0.554342  0.684711  1
  Br  Br7  1  0.889980  0.445658  0.315289  1
  Br  Br8  1  0.750000  0.682044  0.008309  1
  Br  Br9  1  0.250000  0.317956  0.991691  1
  Br  Br10  1  0.750000  0.527743  0.639501  1
  Br  Br11  1  0.250000  0.472257  0.360499  1
  Br  Br12  1  0.750000  0.025618  0.328824  1
  Br  Br13  1  0.250000  0.974382  0.671176  1
  Br  Br14  1  0.894111  0.248655  0.021067  1
  Br  Br15  1  0.394111  0.751345  0.978933  1
  Br  Br16  1  0.105889  0.751345  0.978933  1
  Br  Br17  1  0.605889  0.248655  0.021067  1
  Br  Br18  1  0.907849  0.053381  0.657031  1
  Br  Br19  1  0.407849  0.946619  0.342969  1
  Br  Br20  1  0.092151  0.946619  0.342969  1
  Br  Br21  1  0.592151  0.053381  0.657031  1
