# generated using pymatgen
data_TmSi2Ni9
_symmetry_space_group_name_H-M   'P 1'
_cell_length_a   7.53401456
_cell_length_b   7.53401483
_cell_length_c   7.53401494
_cell_angle_alpha   99.58539318
_cell_angle_beta   99.58539289
_cell_angle_gamma   131.83328097
_symmetry_Int_Tables_number   1
_chemical_formula_structural   TmSi2Ni9
_chemical_formula_sum   'Tm2 Si4 Ni18'
_cell_volume   290.89459149
_cell_formula_units_Z   2
loop_
 _symmetry_equiv_pos_site_id
 _symmetry_equiv_pos_as_xyz
  1  'x, y, z'
loop_
 _atom_site_type_symbol
 _atom_site_label
 _atom_site_symmetry_multiplicity
 _atom_site_fract_x
 _atom_site_fract_y
 _atom_site_fract_z
 _atom_site_occupancy
  Tm  Tm0  1  0.500000  0.500000  0.000000  1
  Tm  Tm1  1  0.750000  0.250000  0.500000  1
  Si  Si2  1  0.625000  0.875000  0.750000  1
  Si  Si3  1  0.125000  0.375000  0.250000  1
  Si  Si4  1  0.125000  0.875000  0.750000  1
  Si  Si5  1  0.125000  0.875000  0.250000  1
  Ni  Ni6  1  0.250000  0.750000  0.500000  1
  Ni  Ni7  1  0.000000  0.000000  0.000000  1
  Ni  Ni8  1  0.686280  0.012366  0.079307  1
  Ni  Ni9  1  0.686280  0.606974  0.673915  1
  Ni  Ni10  1  0.262366  0.436280  0.579307  1
  Ni  Ni11  1  0.262366  0.683059  0.826085  1
  Ni  Ni12  1  0.933059  0.012366  0.326085  1
  Ni  Ni13  1  0.933059  0.606974  0.920693  1
  Ni  Ni14  1  0.856974  0.436280  0.173915  1
  Ni  Ni15  1  0.856974  0.683059  0.420693  1
  Ni  Ni16  1  0.563720  0.737634  0.420693  1
  Ni  Ni17  1  0.563720  0.143026  0.826085  1
  Ni  Ni18  1  0.987634  0.313720  0.920693  1
  Ni  Ni19  1  0.987634  0.066941  0.673915  1
  Ni  Ni20  1  0.316941  0.737634  0.173915  1
  Ni  Ni21  1  0.316941  0.143026  0.579307  1
  Ni  Ni22  1  0.393026  0.313720  0.326085  1
  Ni  Ni23  1  0.393026  0.066941  0.079307  1
