# generated using pymatgen
data_Tb9Y11(CoSb2)4
_symmetry_space_group_name_H-M   'P 1'
_cell_length_a   7.97206815
_cell_length_b   8.73815100
_cell_length_c   12.25546481
_cell_angle_alpha   90.00000000
_cell_angle_beta   90.06191600
_cell_angle_gamma   90.00000000
_symmetry_Int_Tables_number   1
_chemical_formula_structural   Tb9Y11(CoSb2)4
_chemical_formula_sum   'Tb9 Y11 Co4 Sb8'
_cell_volume   853.72909354
_cell_formula_units_Z   1
loop_
 _symmetry_equiv_pos_site_id
 _symmetry_equiv_pos_as_xyz
  1  'x, y, z'
loop_
 _atom_site_type_symbol
 _atom_site_label
 _atom_site_symmetry_multiplicity
 _atom_site_fract_x
 _atom_site_fract_y
 _atom_site_fract_z
 _atom_site_occupancy
  Tb  Tb0  1  0.877125  0.750000  0.805244  1
  Tb  Tb1  1  0.821462  0.966054  0.064844  1
  Tb  Tb2  1  0.321821  0.034227  0.435229  1
  Tb  Tb3  1  0.178358  0.465539  0.935156  1
  Tb  Tb4  1  0.678540  0.534117  0.565022  1
  Tb  Tb5  1  0.178358  0.034461  0.935156  1
  Tb  Tb6  1  0.678540  0.965883  0.565022  1
  Tb  Tb7  1  0.821462  0.533946  0.064844  1
  Tb  Tb8  1  0.321821  0.465773  0.435229  1
  Y  Y9  1  0.154929  0.750000  0.203449  1
  Y  Y10  1  0.655168  0.250000  0.296220  1
  Y  Y11  1  0.844516  0.250000  0.795951  1
  Y  Y12  1  0.344523  0.750000  0.704034  1
  Y  Y13  1  0.456375  0.750000  0.998338  1
  Y  Y14  1  0.956700  0.250000  0.501478  1
  Y  Y15  1  0.543090  0.250000  0.001564  1
  Y  Y16  1  0.043538  0.750000  0.498342  1
  Y  Y17  1  0.623417  0.750000  0.304545  1
  Y  Y18  1  0.123441  0.250000  0.195432  1
  Y  Y19  1  0.376759  0.250000  0.695338  1
  Co  Co20  1  0.436671  0.750000  0.490298  1
  Co  Co21  1  0.936433  0.250000  0.009904  1
  Co  Co22  1  0.563854  0.250000  0.509946  1
  Co  Co23  1  0.063003  0.750000  0.989613  1
  Sb  Sb24  1  0.928161  0.991642  0.326755  1
  Sb  Sb25  1  0.428024  0.008206  0.173167  1
  Sb  Sb26  1  0.072244  0.491431  0.673025  1
  Sb  Sb27  1  0.571620  0.508202  0.826955  1
  Sb  Sb28  1  0.072244  0.008569  0.673025  1
  Sb  Sb29  1  0.571620  0.991798  0.826955  1
  Sb  Sb30  1  0.928161  0.508358  0.326755  1
  Sb  Sb31  1  0.428024  0.491794  0.173167  1
