# generated using pymatgen
data_CaCeTm2(B6Ru)2
_symmetry_space_group_name_H-M   'P 1'
_cell_length_a   3.66457300
_cell_length_b   9.13993241
_cell_length_c   11.53749798
_cell_angle_alpha   89.73000954
_cell_angle_beta   90.00000000
_cell_angle_gamma   90.00000000
_symmetry_Int_Tables_number   1
_chemical_formula_structural   CaCeTm2(B6Ru)2
_chemical_formula_sum   'Ca2 Ce2 Tm4 B24 Ru4'
_cell_volume   386.43208439
_cell_formula_units_Z   2
loop_
 _symmetry_equiv_pos_site_id
 _symmetry_equiv_pos_as_xyz
  1  'x, y, z'
loop_
 _atom_site_type_symbol
 _atom_site_label
 _atom_site_symmetry_multiplicity
 _atom_site_fract_x
 _atom_site_fract_y
 _atom_site_fract_z
 _atom_site_occupancy
  Ca  Ca0  1  0.000000  0.324224  0.415016  1
  Ca  Ca1  1  0.000000  0.675776  0.584984  1
  Ce  Ce2  1  0.000000  0.822134  0.086545  1
  Ce  Ce3  1  0.000000  0.177866  0.913455  1
  Tm  Tm4  1  0.000000  0.943038  0.372820  1
  Tm  Tm5  1  0.000000  0.056962  0.627180  1
  Tm  Tm6  1  0.000000  0.444731  0.129043  1
  Tm  Tm7  1  0.000000  0.555269  0.870957  1
  B  B8  1  0.500000  0.554671  0.431970  1
  B  B9  1  0.500000  0.445329  0.568030  1
  B  B10  1  0.500000  0.054983  0.068242  1
  B  B11  1  0.500000  0.945017  0.931758  1
  B  B12  1  0.500000  0.748635  0.418373  1
  B  B13  1  0.500000  0.251365  0.581627  1
  B  B14  1  0.500000  0.249672  0.081613  1
  B  B15  1  0.500000  0.750328  0.918387  1
  B  B16  1  0.500000  0.791789  0.266272  1
  B  B17  1  0.500000  0.208211  0.733728  1
  B  B18  1  0.500000  0.291327  0.234357  1
  B  B19  1  0.500000  0.708673  0.765643  1
  B  B20  1  0.500000  0.631673  0.185003  1
  B  B21  1  0.500000  0.368327  0.814997  1
  B  B22  1  0.500000  0.131552  0.315556  1
  B  B23  1  0.500000  0.868448  0.684444  1
  B  B24  1  0.500000  0.984921  0.213795  1
  B  B25  1  0.500000  0.015079  0.786205  1
  B  B26  1  0.500000  0.484346  0.287292  1
  B  B27  1  0.500000  0.515654  0.712708  1
  B  B28  1  0.500000  0.605019  0.028579  1
  B  B29  1  0.500000  0.394981  0.971421  1
  B  B30  1  0.500000  0.101960  0.471899  1
  B  B31  1  0.500000  0.898040  0.528101  1
  Ru  Ru32  1  0.000000  0.641269  0.317299  1
  Ru  Ru33  1  0.000000  0.358731  0.682701  1
  Ru  Ru34  1  0.000000  0.138123  0.178190  1
  Ru  Ru35  1  0.000000  0.861877  0.821810  1
