# generated using pymatgen
data_Ce3SmHo6(Al2Ru3)2
_symmetry_space_group_name_H-M   'P 1'
_cell_length_a   8.41780603
_cell_length_b   8.42668185
_cell_length_c   8.43244813
_cell_angle_alpha   110.15331820
_cell_angle_beta   110.19655688
_cell_angle_gamma   109.98738188
_symmetry_Int_Tables_number   1
_chemical_formula_structural   Ce3SmHo6(Al2Ru3)2
_chemical_formula_sum   'Ce3 Sm1 Ho6 Al4 Ru6'
_cell_volume   449.19058758
_cell_formula_units_Z   1
loop_
 _symmetry_equiv_pos_site_id
 _symmetry_equiv_pos_as_xyz
  1  'x, y, z'
loop_
 _atom_site_type_symbol
 _atom_site_label
 _atom_site_symmetry_multiplicity
 _atom_site_fract_x
 _atom_site_fract_y
 _atom_site_fract_z
 _atom_site_occupancy
  Ce  Ce0  1  0.253374  0.200561  0.945361  1
  Ce  Ce1  1  0.943686  0.252525  0.198131  1
  Ce  Ce2  1  0.198344  0.944698  0.252743  1
  Sm  Sm3  1  0.505694  0.995304  0.721784  1
  Ho  Ho4  1  0.779332  0.779281  0.779015  1
  Ho  Ho5  1  0.313875  0.566107  0.752189  1
  Ho  Ho6  1  0.753614  0.316598  0.567375  1
  Ho  Ho7  1  0.566736  0.749215  0.311368  1
  Ho  Ho8  1  0.721830  0.508372  0.995257  1
  Ho  Ho9  1  0.993943  0.720441  0.506217  1
  Al  Al10  1  0.412785  0.411316  0.411367  1
  Al  Al11  1  0.094461  0.499057  0.002185  1
  Al  Al12  1  0.000580  0.093033  0.498118  1
  Al  Al13  1  0.498993  0.001863  0.096086  1
  Ru  Ru14  1  0.902670  0.120506  0.754274  1
  Ru  Ru15  1  0.753422  0.898784  0.119250  1
  Ru  Ru16  1  0.119596  0.754531  0.901985  1
  Ru  Ru17  1  0.222028  0.592588  0.364797  1
  Ru  Ru18  1  0.365856  0.227655  0.596851  1
  Ru  Ru19  1  0.599180  0.367568  0.225648  1
