# generated using pymatgen
data_Dy4Tm3Lu3(In2Pt)4
_symmetry_space_group_name_H-M   'P 1'
_cell_length_a   3.60052500
_cell_length_b   8.10842595
_cell_length_c   18.08085015
_cell_angle_alpha   89.77569644
_cell_angle_beta   90.00000000
_cell_angle_gamma   90.00000000
_symmetry_Int_Tables_number   1
_chemical_formula_structural   Dy4Tm3Lu3(In2Pt)4
_chemical_formula_sum   'Dy4 Tm3 Lu3 In8 Pt4'
_cell_volume   527.85896808
_cell_formula_units_Z   1
loop_
 _symmetry_equiv_pos_site_id
 _symmetry_equiv_pos_as_xyz
  1  'x, y, z'
loop_
 _atom_site_type_symbol
 _atom_site_label
 _atom_site_symmetry_multiplicity
 _atom_site_fract_x
 _atom_site_fract_y
 _atom_site_fract_z
 _atom_site_occupancy
  Dy  Dy0  1  0.000000  0.257465  0.719109  1
  Dy  Dy1  1  0.000000  0.742002  0.281092  1
  Dy  Dy2  1  0.000000  0.999517  0.999600  1
  Dy  Dy3  1  0.000000  0.500183  0.500168  1
  Tm  Tm4  1  0.000000  0.616907  0.085049  1
  Tm  Tm5  1  0.000000  0.243417  0.220177  1
  Tm  Tm6  1  0.000000  0.757510  0.780080  1
  Lu  Lu7  1  0.000000  0.116997  0.414207  1
  Lu  Lu8  1  0.000000  0.883054  0.586019  1
  Lu  Lu9  1  0.000000  0.383293  0.913802  1
  In  In10  1  0.500000  0.419869  0.351324  1
  In  In11  1  0.500000  0.579832  0.649265  1
  In  In12  1  0.500000  0.078503  0.850694  1
  In  In13  1  0.500000  0.922940  0.149514  1
  In  In14  1  0.500000  0.294545  0.065306  1
  In  In15  1  0.500000  0.704434  0.933563  1
  In  In16  1  0.500000  0.203105  0.564571  1
  In  In17  1  0.500000  0.797120  0.435652  1
  Pt  Pt18  1  0.500000  0.027889  0.304918  1
  Pt  Pt19  1  0.500000  0.972191  0.695328  1
  Pt  Pt20  1  0.500000  0.474947  0.804651  1
  Pt  Pt21  1  0.500000  0.524282  0.195909  1
