# generated using pymatgen
data_Tb3In4NiRh
_symmetry_space_group_name_H-M   'P 1'
_cell_length_a   7.94393000
_cell_length_b   7.94392984
_cell_length_c   3.71231700
_cell_angle_alpha   90.00000000
_cell_angle_beta   90.00000000
_cell_angle_gamma   120.00000067
_symmetry_Int_Tables_number   1
_chemical_formula_structural   Tb3In4NiRh
_chemical_formula_sum   'Tb3 In4 Ni1 Rh1'
_cell_volume   202.88338925
_cell_formula_units_Z   1
loop_
 _symmetry_equiv_pos_site_id
 _symmetry_equiv_pos_as_xyz
  1  'x, y, z'
loop_
 _atom_site_type_symbol
 _atom_site_label
 _atom_site_symmetry_multiplicity
 _atom_site_fract_x
 _atom_site_fract_y
 _atom_site_fract_z
 _atom_site_occupancy
  Tb  Tb0  1  0.384768  0.418148  0.500000  1
  Tb  Tb1  1  0.033379  0.615233  0.500000  1
  Tb  Tb2  1  0.581852  0.966621  0.500000  1
  In  In3  1  0.000022  0.248379  0.000000  1
  In  In4  1  0.666667  0.333334  0.000000  1
  In  In5  1  0.751620  0.751643  0.000000  1
  In  In6  1  0.248358  0.999978  0.000000  1
  Ni  Ni7  1  0.000000  0.000000  0.500000  1
  Rh  Rh8  1  0.333334  0.666667  0.000000  1
