# generated using pymatgen
data_TaNbTe3
_symmetry_space_group_name_H-M   'P 1'
_cell_length_a   7.91510988
_cell_length_b   7.91510993
_cell_length_c   12.62071616
_cell_angle_alpha   56.28505811
_cell_angle_beta   56.28505892
_cell_angle_gamma   25.20866173
_symmetry_Int_Tables_number   1
_chemical_formula_structural   TaNbTe3
_chemical_formula_sum   'Ta2 Nb2 Te6'
_cell_volume   276.98521446
_cell_formula_units_Z   2
loop_
 _symmetry_equiv_pos_site_id
 _symmetry_equiv_pos_as_xyz
  1  'x, y, z'
loop_
 _atom_site_type_symbol
 _atom_site_label
 _atom_site_symmetry_multiplicity
 _atom_site_fract_x
 _atom_site_fract_y
 _atom_site_fract_z
 _atom_site_occupancy
  Ta  Ta0  1  0.773347  0.773347  0.389905  1
  Ta  Ta1  1  0.226653  0.226653  0.610095  1
  Nb  Nb2  1  0.584047  0.584047  0.854671  1
  Nb  Nb3  1  0.415953  0.415953  0.145329  1
  Te  Te4  1  0.571704  0.571704  0.639104  1
  Te  Te5  1  0.428296  0.428296  0.360896  1
  Te  Te6  1  0.806549  0.806549  0.711209  1
  Te  Te7  1  0.193451  0.193451  0.288791  1
  Te  Te8  1  0.900848  0.900848  0.972195  1
  Te  Te9  1  0.099152  0.099152  0.027805  1
