# generated using pymatgen
data_Dy2Al3Si2Pt3
_symmetry_space_group_name_H-M   'P 1'
_cell_length_a   8.34496761
_cell_length_b   8.34496794
_cell_length_c   8.34496723
_cell_angle_alpha   138.17732239
_cell_angle_beta   101.76994751
_cell_angle_gamma   92.91218200
_symmetry_Int_Tables_number   1
_chemical_formula_structural   Dy2Al3Si2Pt3
_chemical_formula_sum   'Dy4 Al6 Si4 Pt6'
_cell_volume   360.59298643
_cell_formula_units_Z   2
loop_
 _symmetry_equiv_pos_site_id
 _symmetry_equiv_pos_as_xyz
  1  'x, y, z'
loop_
 _atom_site_type_symbol
 _atom_site_label
 _atom_site_symmetry_multiplicity
 _atom_site_fract_x
 _atom_site_fract_y
 _atom_site_fract_z
 _atom_site_occupancy
  Dy  Dy0  1  0.871761  0.629221  0.242542  1
  Dy  Dy1  1  0.128239  0.370779  0.757458  1
  Dy  Dy2  1  0.386679  0.129221  0.257458  1
  Dy  Dy3  1  0.613321  0.870779  0.742542  1
  Al  Al4  1  0.500000  0.750000  0.250000  1
  Al  Al5  1  0.500000  0.250000  0.750000  1
  Al  Al6  1  0.238827  0.988827  0.750000  1
  Al  Al7  1  0.761173  0.511173  0.750000  1
  Al  Al8  1  0.761173  0.011173  0.250000  1
  Al  Al9  1  0.238827  0.488827  0.250000  1
  Si  Si10  1  0.035149  0.889225  0.145924  1
  Si  Si11  1  0.964851  0.110775  0.854076  1
  Si  Si12  1  0.743301  0.389225  0.354076  1
  Si  Si13  1  0.256699  0.610775  0.645924  1
  Pt  Pt14  1  0.000000  0.750000  0.750000  1
  Pt  Pt15  1  0.000000  0.250000  0.250000  1
  Pt  Pt16  1  0.236695  0.867847  0.368850  1
  Pt  Pt17  1  0.763305  0.132153  0.631150  1
  Pt  Pt18  1  0.498998  0.367847  0.131150  1
  Pt  Pt19  1  0.501002  0.632153  0.868850  1
