# generated using pymatgen
data_Dy7Er(TmGa5)4
_symmetry_space_group_name_H-M   'P 1'
_cell_length_a   6.08157824
_cell_length_b   9.58630909
_cell_length_c   11.53377535
_cell_angle_alpha   90.00360537
_cell_angle_beta   90.02802214
_cell_angle_gamma   90.01540750
_symmetry_Int_Tables_number   1
_chemical_formula_structural   Dy7Er(TmGa5)4
_chemical_formula_sum   'Dy7 Er1 Tm4 Ga20'
_cell_volume   672.41771364
_cell_formula_units_Z   1
loop_
 _symmetry_equiv_pos_site_id
 _symmetry_equiv_pos_as_xyz
  1  'x, y, z'
loop_
 _atom_site_type_symbol
 _atom_site_label
 _atom_site_symmetry_multiplicity
 _atom_site_fract_x
 _atom_site_fract_y
 _atom_site_fract_z
 _atom_site_occupancy
  Dy  Dy0  1  0.609042  0.990414  0.851422  1
  Dy  Dy1  1  0.108934  0.009699  0.648527  1
  Dy  Dy2  1  0.391060  0.490370  0.148839  1
  Dy  Dy3  1  0.108938  0.490333  0.648249  1
  Dy  Dy4  1  0.390973  0.009655  0.148669  1
  Dy  Dy5  1  0.890973  0.990287  0.351374  1
  Dy  Dy6  1  0.609087  0.509682  0.851407  1
  Er  Er7  1  0.891023  0.509658  0.351304  1
  Tm  Tm8  1  0.848388  0.749963  0.074603  1
  Tm  Tm9  1  0.651761  0.749862  0.574312  1
  Tm  Tm10  1  0.151681  0.250028  0.925620  1
  Tm  Tm11  1  0.347957  0.249991  0.425441  1
  Ga  Ga12  1  0.875831  0.052942  0.089756  1
  Ga  Ga13  1  0.624293  0.447124  0.589609  1
  Ga  Ga14  1  0.124235  0.552908  0.910214  1
  Ga  Ga15  1  0.375776  0.946974  0.410204  1
  Ga  Ga16  1  0.124217  0.947079  0.910231  1
  Ga  Ga17  1  0.375141  0.552766  0.410088  1
  Ga  Ga18  1  0.875818  0.447233  0.090252  1
  Ga  Ga19  1  0.624299  0.052967  0.589753  1
  Ga  Ga20  1  0.170875  0.749627  0.251771  1
  Ga  Ga21  1  0.328968  0.749993  0.751503  1
  Ga  Ga22  1  0.828888  0.250046  0.748373  1
  Ga  Ga23  1  0.671503  0.250452  0.248829  1
  Ga  Ga24  1  0.373540  0.750002  0.004376  1
  Ga  Ga25  1  0.126152  0.749849  0.504266  1
  Ga  Ga26  1  0.626482  0.250068  0.995719  1
  Ga  Ga27  1  0.873546  0.250516  0.495077  1
  Ga  Ga28  1  0.602635  0.749423  0.299206  1
  Ga  Ga29  1  0.898029  0.750012  0.799048  1
  Ga  Ga30  1  0.398029  0.250013  0.700948  1
  Ga  Ga31  1  0.101929  0.250066  0.201008  1
