# generated using pymatgen
data_Tb2Ho6Si12NiPd2Au
_symmetry_space_group_name_H-M   'P 1'
_cell_length_a   8.11472500
_cell_length_b   8.11463939
_cell_length_c   8.11885000
_cell_angle_alpha   90.00018372
_cell_angle_beta   89.99990118
_cell_angle_gamma   119.99916479
_symmetry_Int_Tables_number   1
_chemical_formula_structural   Tb2Ho6Si12NiPd2Au
_chemical_formula_sum   'Tb2 Ho6 Si12 Ni1 Pd2 Au1'
_cell_volume   462.99023981
_cell_formula_units_Z   1
loop_
 _symmetry_equiv_pos_site_id
 _symmetry_equiv_pos_as_xyz
  1  'x, y, z'
loop_
 _atom_site_type_symbol
 _atom_site_label
 _atom_site_symmetry_multiplicity
 _atom_site_fract_x
 _atom_site_fract_y
 _atom_site_fract_z
 _atom_site_occupancy
  Tb  Tb0  1  0.000007  0.999999  0.251110  1
  Tb  Tb1  1  0.000007  0.999999  0.748571  1
  Ho  Ho2  1  0.502859  0.005701  0.250273  1
  Ho  Ho3  1  0.502339  0.004663  0.749838  1
  Ho  Ho4  1  0.994306  0.497147  0.250274  1
  Ho  Ho5  1  0.995345  0.497669  0.749838  1
  Ho  Ho6  1  0.502859  0.497147  0.250273  1
  Ho  Ho7  1  0.502340  0.497668  0.749839  1
  Si  Si8  1  0.161044  0.322072  0.999579  1
  Si  Si9  1  0.826090  0.652165  0.000011  1
  Si  Si10  1  0.677935  0.838963  0.999579  1
  Si  Si11  1  0.834634  0.669247  0.500890  1
  Si  Si12  1  0.347827  0.173910  0.000011  1
  Si  Si13  1  0.166380  0.332743  0.499188  1
  Si  Si14  1  0.161044  0.838962  0.999579  1
  Si  Si15  1  0.330760  0.165374  0.500891  1
  Si  Si16  1  0.826079  0.173927  0.000011  1
  Si  Si17  1  0.667265  0.833627  0.499188  1
  Si  Si18  1  0.834634  0.165374  0.500891  1
  Si  Si19  1  0.166380  0.833626  0.499188  1
  Ni  Ni20  1  0.666521  0.333355  0.999929  1
  Pd  Pd21  1  0.666670  0.333332  0.500563  1
  Pd  Pd22  1  0.333337  0.666666  0.499439  1
  Au  Au23  1  0.333338  0.666667  0.001047  1
