# generated using pymatgen
data_BaCu3Pd2
_symmetry_space_group_name_H-M   'P 1'
_cell_length_a   5.75974200
_cell_length_b   5.44515337
_cell_length_c   4.08098300
_cell_angle_alpha   90.00000000
_cell_angle_beta   90.00000000
_cell_angle_gamma   121.93027442
_symmetry_Int_Tables_number   1
_chemical_formula_structural   BaCu3Pd2
_chemical_formula_sum   'Ba1 Cu3 Pd2'
_cell_volume   108.62460726
_cell_formula_units_Z   1
loop_
 _symmetry_equiv_pos_site_id
 _symmetry_equiv_pos_as_xyz
  1  'x, y, z'
loop_
 _atom_site_type_symbol
 _atom_site_label
 _atom_site_symmetry_multiplicity
 _atom_site_fract_x
 _atom_site_fract_y
 _atom_site_fract_z
 _atom_site_occupancy
  Ba  Ba0  1  0.000000  0.000000  0.000000  1
  Cu  Cu1  1  0.344796  0.689594  0.000000  1
  Cu  Cu2  1  0.655204  0.310406  0.000000  1
  Cu  Cu3  1  0.500000  0.000000  0.500000  1
  Pd  Pd4  1  0.000000  0.500000  0.500000  1
  Pd  Pd5  1  0.500000  0.500000  0.500000  1
