# generated using pymatgen
data_TmPu(Fe5P3)2
_symmetry_space_group_name_H-M   'P 1'
_cell_length_a   3.65558400
_cell_length_b   10.31790200
_cell_length_c   11.80672300
_cell_angle_alpha   90.00000000
_cell_angle_beta   90.00000000
_cell_angle_gamma   90.00000000
_symmetry_Int_Tables_number   1
_chemical_formula_structural   TmPu(Fe5P3)2
_chemical_formula_sum   'Tm2 Pu2 Fe20 P12'
_cell_volume   445.32547591
_cell_formula_units_Z   2
loop_
 _symmetry_equiv_pos_site_id
 _symmetry_equiv_pos_as_xyz
  1  'x, y, z'
loop_
 _atom_site_type_symbol
 _atom_site_label
 _atom_site_symmetry_multiplicity
 _atom_site_fract_x
 _atom_site_fract_y
 _atom_site_fract_z
 _atom_site_occupancy
  Tm  Tm0  1  0.750000  0.419476  0.295882  1
  Tm  Tm1  1  0.750000  0.080524  0.795882  1
  Pu  Pu2  1  0.250000  0.581123  0.704864  1
  Pu  Pu3  1  0.250000  0.918877  0.204864  1
  Fe  Fe4  1  0.250000  0.708736  0.988159  1
  Fe  Fe5  1  0.250000  0.791264  0.488159  1
  Fe  Fe6  1  0.750000  0.291782  0.008129  1
  Fe  Fe7  1  0.750000  0.208218  0.508129  1
  Fe  Fe8  1  0.250000  0.405499  0.488766  1
  Fe  Fe9  1  0.250000  0.094501  0.988766  1
  Fe  Fe10  1  0.750000  0.594561  0.511574  1
  Fe  Fe11  1  0.750000  0.905439  0.011574  1
  Fe  Fe12  1  0.250000  0.221149  0.176275  1
  Fe  Fe13  1  0.250000  0.278851  0.676275  1
  Fe  Fe14  1  0.750000  0.782605  0.826210  1
  Fe  Fe15  1  0.750000  0.717395  0.326210  1
  Fe  Fe16  1  0.250000  0.875962  0.701156  1
  Fe  Fe17  1  0.250000  0.624038  0.201156  1
  Fe  Fe18  1  0.750000  0.119613  0.297519  1
  Fe  Fe19  1  0.750000  0.380387  0.797519  1
  Fe  Fe20  1  0.250000  0.462242  0.932206  1
  Fe  Fe21  1  0.250000  0.037758  0.432206  1
  Fe  Fe22  1  0.750000  0.535001  0.068111  1
  Fe  Fe23  1  0.750000  0.964999  0.568111  1
  P  P24  1  0.250000  0.421933  0.114002  1
  P  P25  1  0.250000  0.078067  0.614002  1
  P  P26  1  0.750000  0.580781  0.889487  1
  P  P27  1  0.750000  0.919219  0.389487  1
  P  P28  1  0.250000  0.265180  0.869799  1
  P  P29  1  0.250000  0.234820  0.369799  1
  P  P30  1  0.750000  0.731082  0.130382  1
  P  P31  1  0.750000  0.768918  0.630382  1
  P  P32  1  0.250000  0.598810  0.394979  1
  P  P33  1  0.250000  0.901190  0.894979  1
  P  P34  1  0.750000  0.395783  0.602497  1
  P  P35  1  0.750000  0.104217  0.102497  1
