# generated using pymatgen
data_Nd7Dy3(InSb)4
_symmetry_space_group_name_H-M   'P 1'
_cell_length_a   9.12352597
_cell_length_b   8.84505267
_cell_length_c   8.34207706
_cell_angle_alpha   90.10971156
_cell_angle_beta   90.13920868
_cell_angle_gamma   124.98656845
_symmetry_Int_Tables_number   1
_chemical_formula_structural   Nd7Dy3(InSb)4
_chemical_formula_sum   'Nd7 Dy3 In4 Sb4'
_cell_volume   551.52893354
_cell_formula_units_Z   1
loop_
 _symmetry_equiv_pos_site_id
 _symmetry_equiv_pos_as_xyz
  1  'x, y, z'
loop_
 _atom_site_type_symbol
 _atom_site_label
 _atom_site_symmetry_multiplicity
 _atom_site_fract_x
 _atom_site_fract_y
 _atom_site_fract_z
 _atom_site_occupancy
  Nd  Nd0  1  0.040981  0.321461  0.327153  1
  Nd  Nd1  1  0.954730  0.670052  0.673009  1
  Nd  Nd2  1  0.460410  0.175285  0.824857  1
  Nd  Nd3  1  0.803512  0.527265  0.164239  1
  Nd  Nd4  1  0.544618  0.830644  0.175568  1
  Nd  Nd5  1  0.203998  0.479447  0.836152  1
  Nd  Nd6  1  0.699631  0.971689  0.665243  1
  Dy  Dy7  1  0.290987  0.023851  0.338911  1
  Dy  Dy8  1  0.003689  0.001458  0.000502  1
  Dy  Dy9  1  0.497597  0.498586  0.497336  1
  In  In10  1  0.373943  0.373294  0.128316  1
  In  In11  1  0.627689  0.625837  0.873749  1
  In  In12  1  0.127849  0.125573  0.628448  1
  In  In13  1  0.873331  0.872772  0.373479  1
  Sb  Sb14  1  0.811279  0.211050  0.986943  1
  Sb  Sb15  1  0.198337  0.798394  0.015661  1
  Sb  Sb16  1  0.684298  0.282515  0.482495  1
  Sb  Sb17  1  0.303120  0.710828  0.507939  1
