# generated using pymatgen
data_Lu12InCo4Ru
_symmetry_space_group_name_H-M   'P 1'
_cell_length_a   8.10293172
_cell_length_b   8.10293209
_cell_length_c   8.10293218
_cell_angle_alpha   111.22700551
_cell_angle_beta   111.16754682
_cell_angle_gamma   106.07167731
_symmetry_Int_Tables_number   1
_chemical_formula_structural   Lu12InCo4Ru
_chemical_formula_sum   'Lu12 In1 Co4 Ru1'
_cell_volume   408.47463861
_cell_formula_units_Z   1
loop_
 _symmetry_equiv_pos_site_id
 _symmetry_equiv_pos_as_xyz
  1  'x, y, z'
loop_
 _atom_site_type_symbol
 _atom_site_label
 _atom_site_symmetry_multiplicity
 _atom_site_fract_x
 _atom_site_fract_y
 _atom_site_fract_z
 _atom_site_occupancy
  Lu  Lu0  1  0.417098  0.222595  0.194503  1
  Lu  Lu1  1  0.582902  0.777405  0.805497  1
  Lu  Lu2  1  0.028091  0.222595  0.805497  1
  Lu  Lu3  1  0.971909  0.777405  0.194503  1
  Lu  Lu4  1  0.183378  0.279652  0.463030  1
  Lu  Lu5  1  0.816622  0.720348  0.536970  1
  Lu  Lu6  1  0.183378  0.720348  0.903727  1
  Lu  Lu7  1  0.816622  0.279652  0.096273  1
  Lu  Lu8  1  0.314643  0.620490  0.305846  1
  Lu  Lu9  1  0.685357  0.379510  0.694154  1
  Lu  Lu10  1  0.314643  0.008797  0.694154  1
  Lu  Lu11  1  0.685357  0.991203  0.305846  1
  In  In12  1  0.500000  0.500000  0.000000  1
  Co  Co13  1  0.373457  0.000000  0.373457  1
  Co  Co14  1  0.626543  0.000000  0.626543  1
  Co  Co15  1  0.112626  0.612626  0.500000  1
  Co  Co16  1  0.887374  0.387374  0.500000  1
  Ru  Ru17  1  0.000000  0.000000  0.000000  1
