# generated using pymatgen
data_Fe4NiRuBr16
_symmetry_space_group_name_H-M   'P 1'
_cell_length_a   10.46426282
_cell_length_b   10.46426307
_cell_length_c   12.53909400
_cell_angle_alpha   54.82490506
_cell_angle_beta   54.82490408
_cell_angle_gamma   48.55126675
_symmetry_Int_Tables_number   1
_chemical_formula_structural   Fe4NiRuBr16
_chemical_formula_sum   'Fe4 Ni1 Ru1 Br16'
_cell_volume   797.60394246
_cell_formula_units_Z   1
loop_
 _symmetry_equiv_pos_site_id
 _symmetry_equiv_pos_as_xyz
  1  'x, y, z'
loop_
 _atom_site_type_symbol
 _atom_site_label
 _atom_site_symmetry_multiplicity
 _atom_site_fract_x
 _atom_site_fract_y
 _atom_site_fract_z
 _atom_site_occupancy
  Fe  Fe0  1  0.302890  0.849725  0.479839  1
  Fe  Fe1  1  0.150275  0.697110  0.020161  1
  Fe  Fe2  1  0.694776  0.149853  0.522484  1
  Fe  Fe3  1  0.850147  0.305224  0.977516  1
  Ni  Ni4  1  0.992291  0.007709  0.250000  1
  Ru  Ru5  1  0.013751  0.986249  0.750000  1
  Br  Br6  1  0.605538  0.699994  0.442929  1
  Br  Br7  1  0.300006  0.394462  0.057071  1
  Br  Br8  1  0.391881  0.301108  0.560131  1
  Br  Br9  1  0.698892  0.608119  0.939869  1
  Br  Br10  1  0.147919  0.140063  0.500336  1
  Br  Br11  1  0.859937  0.852081  0.999664  1
  Br  Br12  1  0.850093  0.862699  0.501939  1
  Br  Br13  1  0.137301  0.149907  0.998061  1
  Br  Br14  1  0.279063  0.865328  0.293827  1
  Br  Br15  1  0.134672  0.720937  0.206173  1
  Br  Br16  1  0.720869  0.134490  0.710568  1
  Br  Br17  1  0.865510  0.279131  0.789432  1
  Br  Br18  1  0.146288  0.709339  0.701910  1
  Br  Br19  1  0.290661  0.853712  0.798090  1
  Br  Br20  1  0.852892  0.285650  0.304800  1
  Br  Br21  1  0.714350  0.147108  0.195200  1
