# generated using pymatgen
data_La2YbPt2
_symmetry_space_group_name_H-M   'P 1'
_cell_length_a   7.75730419
_cell_length_b   7.75730334
_cell_length_c   7.75730430
_cell_angle_alpha   70.77147007
_cell_angle_beta   70.77146976
_cell_angle_gamma   70.77147171
_symmetry_Int_Tables_number   1
_chemical_formula_structural   La2YbPt2
_chemical_formula_sum   'La6 Yb3 Pt6'
_cell_volume   403.19705429
_cell_formula_units_Z   3
loop_
 _symmetry_equiv_pos_site_id
 _symmetry_equiv_pos_as_xyz
  1  'x, y, z'
loop_
 _atom_site_type_symbol
 _atom_site_label
 _atom_site_symmetry_multiplicity
 _atom_site_fract_x
 _atom_site_fract_y
 _atom_site_fract_z
 _atom_site_occupancy
  La  La0  1  0.327906  0.605273  0.844105  1
  La  La1  1  0.844105  0.327906  0.605273  1
  La  La2  1  0.605273  0.844105  0.327906  1
  La  La3  1  0.672094  0.394727  0.155895  1
  La  La4  1  0.155895  0.672094  0.394727  1
  La  La5  1  0.394727  0.155895  0.672094  1
  Yb  Yb6  1  0.000000  0.000000  0.000000  1
  Yb  Yb7  1  0.804431  0.804431  0.804431  1
  Yb  Yb8  1  0.195569  0.195569  0.195569  1
  Pt  Pt9  1  0.166542  0.956799  0.586244  1
  Pt  Pt10  1  0.586244  0.166542  0.956799  1
  Pt  Pt11  1  0.956799  0.586244  0.166542  1
  Pt  Pt12  1  0.833458  0.043201  0.413756  1
  Pt  Pt13  1  0.413756  0.833458  0.043201  1
  Pt  Pt14  1  0.043201  0.413756  0.833458  1
