# generated using pymatgen
data_TaVOF5
_symmetry_space_group_name_H-M   'P 1'
_cell_length_a   5.61733310
_cell_length_b   5.69226436
_cell_length_c   5.57772554
_cell_angle_alpha   118.78537001
_cell_angle_beta   119.31798059
_cell_angle_gamma   90.88057825
_symmetry_Int_Tables_number   1
_chemical_formula_structural   TaVOF5
_chemical_formula_sum   'Ta1 V1 O1 F5'
_cell_volume   128.71887423
_cell_formula_units_Z   1
loop_
 _symmetry_equiv_pos_site_id
 _symmetry_equiv_pos_as_xyz
  1  'x, y, z'
loop_
 _atom_site_type_symbol
 _atom_site_label
 _atom_site_symmetry_multiplicity
 _atom_site_fract_x
 _atom_site_fract_y
 _atom_site_fract_z
 _atom_site_occupancy
  Ta  Ta0  1  0.681462  0.993400  0.322120  1
  V  V1  1  0.157057  0.472272  0.318717  1
  O  O2  1  0.945105  0.216295  0.364102  1
  F  F3  1  0.364132  0.733433  0.263837  1
  F  F4  1  0.402982  0.198707  0.239739  1
  F  F5  1  0.480466  0.722472  0.838177  1
  F  F6  1  0.902352  0.740343  0.390732  1
  F  F7  1  0.827599  0.218312  0.796053  1
