# generated using pymatgen
data_Yb4Pd(RuO4)3
_symmetry_space_group_name_H-M   'P 1'
_cell_length_a   5.28868978
_cell_length_b   5.64621164
_cell_length_c   7.64722152
_cell_angle_alpha   89.74051764
_cell_angle_beta   90.26232404
_cell_angle_gamma   89.95562409
_symmetry_Int_Tables_number   1
_chemical_formula_structural   Yb4Pd(RuO4)3
_chemical_formula_sum   'Yb4 Pd1 Ru3 O12'
_cell_volume   228.34934741
_cell_formula_units_Z   1
loop_
 _symmetry_equiv_pos_site_id
 _symmetry_equiv_pos_as_xyz
  1  'x, y, z'
loop_
 _atom_site_type_symbol
 _atom_site_label
 _atom_site_symmetry_multiplicity
 _atom_site_fract_x
 _atom_site_fract_y
 _atom_site_fract_z
 _atom_site_occupancy
  Yb  Yb0  1  0.027069  0.426848  0.250610  1
  Yb  Yb1  1  0.972931  0.573152  0.749390  1
  Yb  Yb2  1  0.521397  0.075205  0.748311  1
  Yb  Yb3  1  0.478603  0.924795  0.251689  1
  Pd  Pd4  1  0.500000  0.500000  0.500000  1
  Ru  Ru5  1  0.000000  0.000000  0.000000  1
  Ru  Ru6  1  0.500000  0.500000  0.000000  1
  Ru  Ru7  1  0.000000  0.000000  0.500000  1
  O  O8  1  0.309055  0.197824  0.055110  1
  O  O9  1  0.690945  0.802176  0.944890  1
  O  O10  1  0.808022  0.300619  0.946549  1
  O  O11  1  0.693501  0.814336  0.556017  1
  O  O12  1  0.191978  0.699381  0.053451  1
  O  O13  1  0.306499  0.185664  0.443983  1
  O  O14  1  0.178635  0.702318  0.440629  1
  O  O15  1  0.821365  0.297682  0.559371  1
  O  O16  1  0.617033  0.535357  0.243657  1
  O  O17  1  0.382967  0.464643  0.756343  1
  O  O18  1  0.108375  0.965598  0.750587  1
  O  O19  1  0.891625  0.034402  0.249413  1
